#------------------------------------------------------------------------------
#$Date: 2019-11-06 00:44:06 +0200 (Wed, 06 Nov 2019) $
#$Revision: 223364 $
#$URL: file:///home/coder/svn-repositories/cod/cif/4/51/52/4515253.cif $
#------------------------------------------------------------------------------
#
# This file is available in the Crystallography Open Database (COD),
# http://www.crystallography.net/
#
# All data on this site have been placed in the public domain by the
# contributors.
#
data_4515253
loop_
_publ_author_name
'Yang, Xing'
'Luo, Guoyong'
'Zhou, Liejin'
'Liu, Bin'
'Zhang, Xiaolei'
'Gao, Hui'
'Jin, Zhichao'
'Chi, Yonggui Robin'
_publ_section_title
;
 Enantioselective Indole N--H Functionalization Enabled by Addition of
 Carbene Catalyst to Indole Aldehyde at Remote Site
;
_journal_name_full               'ACS Catalysis'
_journal_page_first              10971
_journal_paper_doi               10.1021/acscatal.9b03163
_journal_year                    2019
_chemical_formula_sum            'C18 H12 N2 O5 S'
_chemical_formula_weight         368.36
_space_group_crystal_system      triclinic
_space_group_IT_number           2
_space_group_name_Hall           '-P 1'
_space_group_name_H-M_alt        'P -1'
_atom_sites_solution_hydrogens   geom
_atom_sites_solution_primary     dual
_cell_angle_alpha                104.951(6)
_cell_angle_beta                 108.859(7)
_cell_angle_gamma                96.299(5)
_cell_formula_units_Z            2
_cell_length_a                   8.4139(8)
_cell_length_b                   8.7598(11)
_cell_length_c                   11.5432(14)
_cell_measurement_reflns_used    2548
_cell_measurement_temperature    100.(2)
_cell_measurement_theta_max      30.8638
_cell_measurement_theta_min      3.2014
_cell_volume                     760.30(16)
_computing_cell_refinement       'SAINT V8.38A (Bruker AXS Inc., 2017)'
_computing_data_collection       'APEX3 (Bruker AXS Inc., 2018)'
_computing_data_reduction        'SAINT V8.38A (Bruker AXS Inc., 2017)'
_computing_molecular_graphics    'XP (Bruker AXS Inc., 2018)'
_computing_publication_material  'APEX3 (Bruker AXS Inc., 2018)'
_computing_structure_refinement  'SHELXL-2017/1 (Sheldrick, 2017)'
_computing_structure_solution    'XT, VERSION 2014/5'
_diffrn_ambient_temperature      100.(2)
_diffrn_detector_area_resol_mean 7.4074
_diffrn_measured_fraction_theta_full 0.993
_diffrn_measured_fraction_theta_max 0.993
_diffrn_measurement_device_type  'Photon II CPADs detector'
_diffrn_measurement_method       'phi and omega scans'
_diffrn_radiation_monochromator  'Multilayer Mirror'
_diffrn_radiation_type           MoK\a
_diffrn_radiation_wavelength     0.71073
_diffrn_reflns_av_R_equivalents  0.0662
_diffrn_reflns_av_unetI/netI     0.0747
_diffrn_reflns_limit_h_max       11
_diffrn_reflns_limit_h_min       -9
_diffrn_reflns_limit_k_max       12
_diffrn_reflns_limit_k_min       -12
_diffrn_reflns_limit_l_max       16
_diffrn_reflns_limit_l_min       -15
_diffrn_reflns_number            13297
_diffrn_reflns_theta_full        30.00
_diffrn_reflns_theta_max         30.00
_diffrn_reflns_theta_min         2.46
_diffrn_source                   'Incoatec microfocus source'
_diffrn_source_type              'Bruker D8 Quest'
_exptl_absorpt_coefficient_mu    0.249
_exptl_absorpt_correction_T_max  0.99
_exptl_absorpt_correction_T_min  0.89
_exptl_absorpt_correction_type   multi-scan
_exptl_absorpt_process_details
;
SADABS-2016/2 - Bruker AXS area detector scaling and absorption correction
;
_exptl_crystal_colour            colourless
_exptl_crystal_density_diffrn    1.609
_exptl_crystal_density_method    'not measured'
_exptl_crystal_description       needle
_exptl_crystal_F_000             380
_exptl_crystal_size_max          0.280
_exptl_crystal_size_mid          0.040
_exptl_crystal_size_min          0.020
_refine_diff_density_max         0.423
_refine_diff_density_min         -0.452
_refine_ls_extinction_method     none
_refine_ls_goodness_of_fit_ref   1.050
_refine_ls_hydrogen_treatment    constr
_refine_ls_matrix_type           full
_refine_ls_number_parameters     236
_refine_ls_number_reflns         4396
_refine_ls_number_restraints     0
_refine_ls_restrained_S_all      1.050
_refine_ls_R_factor_all          0.0806
_refine_ls_R_factor_gt           0.0521
_refine_ls_shift/su_max          0.000
_refine_ls_shift/su_mean         0.000
_refine_ls_structure_factor_coef Fsqd
_refine_ls_weighting_details
'w=1/[\s^2^(Fo^2^)+(0.0376P)^2^+0.5404P] where P=(Fo^2^+2Fc^2^)/3'
_refine_ls_weighting_scheme      calc
_refine_ls_wR_factor_gt          0.1015
_refine_ls_wR_factor_ref         0.1180
_reflns_number_gt                3257
_reflns_number_total             4396
_reflns_threshold_expression     'I > 2\s(I)'
_cod_data_source_file            cs9b03163_si_004.cif
_cod_data_source_block           cyg283m
_cod_depositor_comments
;
The following automatic conversions were performed:

data item '_exptl_absorpt_correction_type' value 'Multi-Scan' was
changed to 'multi-scan' in accordance with the
/home/data/users/saulius/crontab/automatic-downloads/rss-feeds/ACS/lib/dictionaries/cif_core.dic
dictionary named 'cif_core.dic' version 2.4.2 last updated on
2011-04-26.

Automatic conversion script
Id: cif_fix_values 6909 2019-04-08 15:41:33Z antanas 
;
_cod_database_code               4515253
_shelx_res_file
;

TITL cyg283m in P-1
    cyg283m.res
    created by SHELXL-2017/1 at 17:03:57 on 30-Jan-2019
CELL  0.71073   8.4139   8.7598  11.5432  104.951  108.859   96.299
ZERR    2.000   0.0008   0.0011   0.0014    0.006    0.007    0.005
LATT 1
SFAC C  H  N  O  S
UNIT 36  24  4  10  2
OMIT -3 60
L.S. 10
ACTA
BOND $H
FMAP 2
PLAN 5
SIZE 0.02 0.04 0.28
TEMP -173
WGHT    0.037600    0.540400
FVAR       0.34062
C1    1    0.475618    0.619904    0.214802    11.00000    0.01319    0.01646 =
         0.01260    0.00509    0.00579    0.00575
C2    1    0.365409    0.457858    0.150388    11.00000    0.01220    0.01526 =
         0.01093    0.00346    0.00376    0.00260
C3    1    0.410611    0.325365    0.080600    11.00000    0.01476    0.01611 =
         0.01700    0.00636    0.00683    0.00525
AFIX  43
H3    2    0.526095    0.330755    0.085515    11.00000   -1.20000
AFIX   0
C4    1    0.285562    0.184484    0.003332    11.00000    0.02256    0.01523 =
         0.01422    0.00481    0.00750    0.00651
AFIX  43
H4    2    0.318462    0.095088   -0.042943    11.00000   -1.20000
AFIX   0
C5    1    0.114975    0.171804   -0.007534    11.00000    0.01946    0.01336 =
         0.01240    0.00405    0.00374   -0.00035
AFIX  43
H5    2    0.032168    0.075998   -0.062278    11.00000   -1.20000
AFIX   0
C6    1    0.065975    0.301596    0.062976    11.00000    0.01426    0.01445 =
         0.01031    0.00542    0.00245    0.00095
C7    1    0.193618    0.440515    0.139688    11.00000    0.01348    0.01422 =
         0.01113    0.00633    0.00440    0.00388
C8    1   -0.053133    0.494391    0.157896    11.00000    0.01023    0.01842 =
         0.01473    0.00712    0.00466    0.00228
AFIX  43
H8    2   -0.132945    0.549426    0.184158    11.00000   -1.20000
AFIX   0
C9    1   -0.091303    0.339660    0.076712    11.00000    0.01184    0.01597 =
         0.01465    0.00443    0.00270    0.00064
AFIX  43
H9    2   -0.201586    0.269632    0.036490    11.00000   -1.20000
AFIX   0
C10   1    0.239904    0.701158    0.296637    11.00000    0.00727    0.01314 =
         0.01202    0.00317    0.00314    0.00090
C11   1    0.308985    0.658810    0.424349    11.00000    0.01353    0.01122 =
         0.01131    0.00261    0.00453    0.00188
C12   1    0.238136    0.580474    0.584213    11.00000    0.02043    0.02953 =
         0.01800    0.01449    0.00758    0.00567
AFIX 137
H12A  2    0.306617    0.497586    0.575723    11.00000   -1.50000
H12B  2    0.137398    0.538497    0.600588    11.00000   -1.50000
H12C  2    0.308040    0.676703    0.656158    11.00000   -1.50000
AFIX   0
C13   1    0.168699    0.854892    0.312970    11.00000    0.00981    0.01362 =
         0.00900    0.00403    0.00264    0.00226
C14   1    0.269526    0.982297    0.300873    11.00000    0.01003    0.01434 =
         0.01112    0.00385    0.00428    0.00367
C15   1    0.227750    1.133258    0.309326    11.00000    0.01448    0.01239 =
         0.01358    0.00415    0.00232    0.00255
AFIX  43
H15   2    0.298602    1.218228    0.300349    11.00000   -1.20000
AFIX   0
C16   1    0.077013    1.153774    0.331589    11.00000    0.01566    0.01298 =
         0.01532    0.00299    0.00436    0.00495
AFIX  43
H16   2    0.042666    1.254309    0.336776    11.00000   -1.20000
AFIX   0
C17   1   -0.023688    1.028328    0.346296    11.00000    0.01310    0.02144 =
         0.01172    0.00343    0.00507    0.00613
AFIX  43
H17   2   -0.125529    1.045238    0.361901    11.00000   -1.20000
AFIX   0
C18   1    0.021366    0.878236    0.338668    11.00000    0.00997    0.01855 =
         0.01181    0.00486    0.00441    0.00193
AFIX  43
H18   2   -0.046994    0.794323    0.350743    11.00000   -1.20000
AFIX   0
N1    3    0.122078    0.558487    0.195988    11.00000    0.00831    0.01264 =
         0.00914    0.00188    0.00172    0.00125
N2    3    0.387121    0.737467    0.258880    11.00000    0.00935    0.01310 =
         0.01735    0.00495    0.00742    0.00301
O1    4    0.622499    0.660946    0.222362    11.00000    0.01253    0.01982 =
         0.02327    0.00711    0.00942    0.00479
O2    4    0.182041    0.623141    0.465272    11.00000    0.01389    0.02382 =
         0.01489    0.01154    0.00622    0.00570
O3    4    0.456378    0.654025    0.475192    11.00000    0.01168    0.01939 =
         0.01757    0.00611    0.00356    0.00481
O4    4    0.603203    1.006883    0.396389    11.00000    0.00937    0.01697 =
         0.02006    0.00147    0.00258    0.00067
O5    4    0.468650    0.950199    0.162727    11.00000    0.02085    0.02299 =
         0.02067    0.01243    0.01344    0.00828
S1    5    0.456234    0.933542    0.279932    11.00000    0.00976    0.01271 =
         0.01429    0.00481    0.00554    0.00197
HKLF 4




REM  cyg283m in P-1
REM R1 =  0.0521 for    3257 Fo > 4sig(Fo)  and  0.0806 for all    4396 data
REM    236 parameters refined using      0 restraints

END

WGHT      0.0376      0.5415

REM Highest difference peak  0.423,  deepest hole -0.452,  1-sigma level  0.084
Q1    1   0.3563  0.9456  0.2861  11.00000  0.05    0.42
Q2    1   0.2073  0.9198  0.2780  11.00000  0.05    0.38
Q3    1   0.4051  0.5385  0.1767  11.00000  0.05    0.35
Q4    1   0.0211  1.0646  0.3011  11.00000  0.05    0.34
Q5    1   0.1288  0.3750  0.0981  11.00000  0.05    0.34
;
_shelx_res_checksum              88249
_shelx_hkl_file
;
  -1   0   0   65.69    2.17
   2   0   0  119.87    4.07
  -3   0   0   45.83    2.95
   3   0   0   44.60    2.82
   3   0   0   46.22    1.19
   3   0   0   44.21    1.19
   4   0   0    0.89    0.75
   4   0   0    1.61    0.37
   4   0   0    1.15    0.33
   5   0   0    5.11    1.56
   5   0   0    8.04    0.80
   5   0   0    7.03    0.75
   6   0   0   19.41    1.42
   6   0   0   20.20    3.17
   6   0   0   22.98    1.48
   7   0   0    1.06    0.53
   7   0   0    0.37    0.47
   8   0   0    0.66    0.61
   8   0   0    1.27    0.77
   9   0   0    1.68    0.74
   9   0   0    2.30    0.80
  10   0   0    2.00    1.17
  11   0   0   15.51    2.39
  11   0   0   14.66    2.67
  11  -1   0    2.70    1.09
  10  -1   0    2.59    0.89
  10  -1   0    2.12    0.96
   9  -1   0    1.24    0.71
   9  -1   0    3.26    0.88
   8  -1   0    4.10    0.86
   8  -1   0    2.89    0.86
   7  -1   0   -0.34    0.40
   7  -1   0    0.75    0.42
   6  -1   0   16.83    3.03
   6  -1   0   17.68    1.28
   6  -1   0   19.60    1.27
   5  -1   0   17.83    1.04
   5  -1   0   18.18    2.90
   5  -1   0   17.18    1.08
  -5   1   0   22.07    3.32
   4  -1   0  407.72   11.58
   4  -1   0  400.27    7.19
   4  -1   0  392.94    7.23
  -4   1   0  406.97   11.83
   3  -1   0    3.73    1.19
   3  -1   0    3.79    0.43
   3  -1   0    3.93    0.44
  -3   1   0    3.79    1.24
   2  -1   0  169.98    3.45
   2  -1   0  173.52    3.50
   2  -1   0  188.31    5.65
  -2   1   0  171.27    5.52
   1  -1   0  153.96    3.32
   1  -1   0  153.88    3.36
   1  -1   0  176.15    4.42
  -1   1   0  145.05    4.18
  -1   1   0  155.84    3.27
  -1   1   0  157.47    3.30
   0  -1   0    0.71    0.37
   0  -1   0    0.00    0.23
   0   1   0    0.11    0.20
   0   1   0    0.12    0.31
  -1  -1   0    2.07    0.49
  -1  -1   0    2.06    0.49
   1   1   0    1.83    0.47
   1   1   0    2.36    0.52
  -2  -1   0   99.37    2.28
  -2  -1   0  101.60    2.28
   2   1   0  103.39    2.83
   2   1   0   98.69    3.34
   3   1   0    0.73    0.41
   3   1   0    0.48    0.37
   3   1   0   -0.16    0.41
   4   1   0    1.29    0.48
   4   1   0    1.85    0.91
   4   1   0    0.74    0.43
   5   1   0   13.19    1.21
   5   1   0   11.07    1.10
   5   1   0   10.06    1.92
   6   1   0   34.56    3.33
   6   1   0   31.17    2.05
   6   1   0   31.02    2.00
   8   1   0    5.01    1.24
   9   1   0   25.63    2.36
   9   1   0   22.34    2.36
  10   1   0    4.92    1.54
  11   1   0    7.80    2.04
  11  -2   0   -0.14    1.15
  11  -2   0    9.83    1.62
  10  -2   0    2.56    0.88
  10  -2   0    3.03    1.00
   9  -2   0    2.51    0.88
   9  -2   0    1.61    0.78
   8  -2   0   10.02    1.48
   8  -2   0   10.64    1.47
   7  -2   0    3.89    0.87
   7  -2   0    4.37    0.95
   6  -2   0    1.19    0.51
   6  -2   0    1.37    0.56
  -6   2   0    0.35    0.76
   5  -2   0    2.93    1.25
   5  -2   0    5.04    0.86
   5  -2   0    3.87    0.74
  -5   2   0    3.91    1.49
   4  -2   0   99.83    3.16
   4  -2   0  106.49    5.58
  -4   2   0   95.25    5.44
   3  -2   0  193.74    7.05
   3  -2   0  196.37    4.84
  -3   2   0  184.13    7.01
   2  -2   0  412.20    8.41
  -2   2   0  427.21    8.08
  -2   2   0  398.35   10.21
  -2   2   0  422.53    8.11
   1  -2   0   51.35    2.24
   1  -2   0   54.73    2.30
  -1   2   0   50.24    2.19
  -1   2   0   52.72    2.63
   0  -2   0  104.10    3.33
   0  -2   0   98.69    3.25
   0   2   0  102.92    3.33
   0   2   0   95.76    3.28
  -1  -2   0  194.15    5.08
  -1  -2   0  197.69    5.07
   1   2   0  203.99    5.27
   1   2   0  198.40    5.21
  -2  -2   0   21.06    1.39
   2   2   0   19.17    1.52
   2   2   0   22.87    1.64
  -3  -2   0   10.87    0.89
  -3  -2   0    9.67    0.83
   3   2   0    9.67    1.34
   3   2   0    7.09    1.18
   3   2   0    8.46    1.26
   4   2   0    0.42    0.43
   4   2   0   -0.05    0.45
   4   2   0    0.41    0.44
   5   2   0   -0.06    0.44
   5   2   0    0.60    0.65
   5   2   0    0.08    0.45
   6   2   0   21.76    2.00
   6   2   0   23.39    2.08
   6   2   0   25.83    2.76
   7   2   0   25.99    2.37
   7   2   0   28.89    2.46
   8   2   0    6.10    1.41
   8   2   0    6.91    1.54
   9   2   0   11.29    2.13
  10   2   0   13.51    2.53
  10   2   0   19.04    2.62
  11  -3   0    3.22    1.14
  10  -3   0    2.64    1.05
  10  -3   0    2.54    1.02
   9  -3   0   19.36    2.12
   9  -3   0   18.76    1.94
   8  -3   0    6.23    1.38
   8  -3   0    5.42    1.18
   7  -3   0   53.39    2.81
   7  -3   0   48.33    3.19
  -7   3   0   49.55    5.34
   6  -3   0   55.80    2.77
   6  -3   0   55.85    2.92
  -6   3   0   53.40    5.03
   5  -3   0   38.91    2.29
   5  -3   0   39.66    2.36
  -5   3   0   37.26    3.87
   4  -3   0   47.81    2.54
   4  -3   0   49.20    2.53
  -4   3   0   46.30    3.90
   3  -3   0   85.09    3.40
   3  -3   0   76.30    3.28
  -3   3   0   77.75    4.65
  -3   3   0   84.79    3.00
  -3   3   0   82.98    2.93
   2  -3   0   25.89    1.91
   2  -3   0   25.57    1.88
  -2   3   0   25.50    1.78
  -2   3   0   23.65    1.76
  -2   3   0   23.67    2.25
   1  -3   0  763.57   14.94
   1  -3   0  744.08   14.72
  -1   3   0  750.98   14.77
  -1   3   0  724.02   14.59
  -1   3   0  761.57   15.35
   0  -3   0  282.33    7.26
   0  -3   0  284.63    7.21
   0   3   0  269.73    7.20
   0   3   0  269.51    7.22
  -1  -3   0  231.06    6.41
  -1  -3   0  221.80    6.31
   1   3   0  241.46    6.73
   1   3   0  215.93    6.38
  -2  -3   0  114.75    4.17
  -2  -3   0  115.71    4.10
   2   3   0  115.29    4.53
   2   3   0  115.35    4.46
  -3  -3   0   51.15    2.48
  -3  -3   0   51.99    2.48
   3   3   0   50.44    2.92
   3   3   0   49.33    3.03
   3   3   0   50.20    2.38
  -4  -3   0    9.68    0.89
   4   3   0    8.38    1.41
   4   3   0    7.48    1.42
   4   3   0    8.42    1.52
   5   3   0  102.45    4.72
   5   3   0   98.77    4.55
   5   3   0   98.41    4.55
   6   3   0  106.33    5.06
   6   3   0   98.89    4.80
   7   3   0   57.89    3.85
   7   3   0   55.84    3.82
   8   3   0    1.38    1.21
   8   3   0    6.37    1.81
   9   3   0    8.39    2.04
   9   3   0    7.58    1.91
  10   3   0   -1.94    1.28
  10   3   0    2.99    1.67
  11  -4   0   25.12    3.16
  11  -4   0   27.89    2.75
  10  -4   0    6.07    1.55
   9  -4   0   36.08    2.89
   9  -4   0   32.36    2.70
   8  -4   0   73.07    3.89
   8  -4   0   76.37    4.04
   7  -4   0   34.20    2.62
   7  -4   0   36.48    2.65
  -7   4   0   36.96    4.66
   6  -4   0   21.24    2.05
   6  -4   0   18.19    1.85
  -6   4   0   19.62    3.87
   5  -4   0   54.48    3.12
   5  -4   0   51.71    3.07
  -5   4   0   50.57    4.67
   4  -4   0    3.95    1.09
   4  -4   0    2.97    0.98
  -4   4   0    1.96    0.67
  -4   4   0    3.13    1.36
  -4   4   0    3.35    0.78
   3  -4   0   52.09    3.01
   3  -4   0   51.12    3.03
  -3   4   0   52.15    2.76
  -3   4   0   48.95    2.73
  -3   4   0   52.47    4.02
   2  -4   0   45.20    2.83
   2  -4   0   44.60    2.92
  -2   4   0   40.80    2.63
  -2   4   0   38.30    3.06
   1  -4   0  124.18    4.89
   1  -4   0  126.51    4.99
  -1   4   0  116.44    4.72
  -1   4   0  121.46    4.89
  -1   4   0  139.41    5.30
   0  -4   0   46.41    2.93
   0  -4   0   39.85    2.76
   0   4   0   44.43    2.96
   0   4   0   46.03    3.02
  -1  -4   0   48.04    3.01
  -1  -4   0   49.04    3.03
   1   4   0   41.59    2.88
   1   4   0   47.70    3.16
  -2  -4   0   16.79    1.75
  -2  -4   0   15.70    2.09
   2   4   0   14.16    2.16
   2   4   0   16.64    2.24
  -3  -4   0   86.17    3.82
   3   4   0   99.38    4.73
   3   4   0   90.20    2.99
   3   4   0   93.18    4.68
  -4  -4   0   29.89    2.05
  -4  -4   0   28.21    1.97
   4   4   0   23.52    1.68
   4   4   0   29.46    2.64
   4   4   0   28.58    2.64
   5   4   0   79.88    4.61
   5   4   0   78.81    4.49
   6   4   0   77.26    4.81
   6   4   0   88.51    5.65
   7   4   0   27.73    3.01
   7   4   0   25.01    3.39
   8   4   0    4.73    1.74
   8   4   0    6.76    1.61
   9   4   0   -0.88    1.63
   9   4   0    0.49    1.38
  10   4   0    8.41    2.77
  10   4   0    8.90    2.03
  11  -5   0    0.59    1.53
  11  -5   0    3.01    1.26
  10  -5   0   10.67    2.03
  10  -5   0    4.62    1.52
   9  -5   0   35.58    3.13
   9  -5   0   40.94    3.28
   8  -5   0   11.77    2.13
   8  -5   0   15.63    2.37
  -8   5   0   22.65    5.22
   7  -5   0   41.06    3.17
   7  -5   0   44.99    3.28
  -7   5   0   37.04    5.76
   6  -5   0   19.89    2.18
   6  -5   0   21.19    2.28
  -6   5   0   17.63    3.63
   5  -5   0   46.18    3.32
   5  -5   0   49.04    3.35
  -5   5   0   50.58    2.40
  -5   5   0   46.09    2.31
  -5   5   0   47.26    4.68
   4  -5   0    0.24    0.58
   4  -5   0    1.44    0.88
  -4   5   0    1.16    1.16
  -4   5   0    2.53    0.89
   3  -5   0   99.01    4.94
   3  -5   0  105.81    4.96
  -3   5   0  111.08    6.24
  -3   5   0  106.07    4.65
  -3   5   0  103.38    4.61
   2  -5   0    2.61    1.04
   2  -5   0    0.82    0.79
  -2   5   0    1.35    0.85
  -2   5   0    2.83    1.06
  -2   5   0    0.54    0.88
   1  -5   0   12.69    2.12
   1  -5   0   10.29    1.94
  -1   5   0   13.08    2.09
  -1   5   0   13.89    2.27
  -1   5   0   10.24    1.82
   0  -5   0    4.64    1.28
   0  -5   0    4.77    1.38
   0   5   0    5.67    1.52
   0   5   0    6.04    1.24
   0   5   0    5.44    1.42
  -1  -5   0   19.30    2.59
  -1  -5   0   15.65    2.28
   1   5   0   17.53    2.62
   1   5   0   21.62    2.87
  -2  -5   0   82.26    4.25
  -2  -5   0   80.11    4.33
   2   5   0   82.50    4.67
   2   5   0   84.74    4.83
  -3  -5   0   20.56    2.63
   3   5   0   22.78    2.57
   3   5   0   21.84    3.05
   3   5   0   18.74    0.94
  -4  -5   0    9.35    1.60
  -4  -5   0    8.73    1.60
   4   5   0    6.88    1.79
   4   5   0   10.23    2.12
  -5  -5   0   21.21    1.67
   5   5   0   22.65    3.19
   5   5   0   21.32    3.21
   6   5   0    1.46    1.09
   6   5   0   -0.64    0.75
   7   5   0    3.71    1.64
   8   5   0    3.75    1.54
   8   5   0    3.09    2.11
   9   5   0    5.99    2.55
   9   5   0    1.75    1.41
  11  -6   0    6.43    2.19
  11  -6   0    4.93    1.83
  10  -6   0   35.62    3.68
  10  -6   0   38.32    4.09
   9  -6   0   21.46    3.07
   9  -6   0   27.69    2.99
   8  -6   0   24.54    2.72
   8  -6   0   20.72    3.10
  -8   6   0   23.43    4.78
   7  -6   0   26.02    2.96
   7  -6   0   41.55    3.52
  -7   6   0   49.41    5.59
   6  -6   0    3.38    1.28
   6  -6   0    4.99    1.56
  -6   6   0    3.67    0.59
  -6   6   0    5.43    2.34
  -6   6   0    3.04    0.48
   5  -6   0   47.35    3.74
  -5   6   0   51.86    3.04
  -5   6   0   45.88    4.81
  -5   6   0   53.47    3.09
   4  -6   0    2.50    1.20
   4  -6   0    3.25    1.34
  -4   6   0    3.02    1.07
  -4   6   0    2.97    1.04
  -4   6   0    2.80    1.64
   3  -6   0    4.62    1.42
   3  -6   0    4.72    1.45
  -3   6   0    2.33    1.06
  -3   6   0    6.28    1.59
  -3   6   0    4.65    1.64
   2  -6   0    2.25    1.17
   2  -6   0    1.10    0.85
  -2   6   0    3.63    1.28
  -2   6   0    0.80    1.00
  -2   6   0    3.62    1.34
   1  -6   0    0.87    0.81
   1  -6   0   -1.15    0.54
  -1   6   0   -0.51    0.39
  -1   6   0    0.21    0.60
  -1   6   0    0.66    0.77
   0  -6   0   47.63    3.71
   0  -6   0   62.42    4.17
   0   6   0   57.66    4.17
   0   6   0   56.77    4.07
   0   6   0   56.51    3.48
  -1  -6   0   45.89    3.64
  -1  -6   0   45.33    3.50
   1   6   0   50.08    2.82
   1   6   0   46.02    3.83
   1   6   0   49.42    3.89
  -2  -6   0   12.21    2.22
  -2  -6   0   16.76    2.58
   2   6   0   12.32    2.46
   2   6   0   14.14    1.15
   2   6   0   15.31    2.62
  -3  -6   0   77.50    4.43
   3   6   0   75.26    5.08
   3   6   0   73.46    5.04
  -4  -6   0   57.68    3.70
  -4  -6   0   48.69    3.37
   4   6   0   57.92    4.52
   4   6   0   49.28    4.26
  -5  -6   0   11.21    1.66
  -5  -6   0   10.79    1.64
   5   6   0   13.39    2.72
   5   6   0   12.94    2.72
   6   6   0   15.48    2.91
   6   6   0    9.42    2.40
   7   6   0   17.62    3.19
   7   6   0   17.32    3.46
   8   6   0   11.12    2.66
  11  -7   0    8.90    2.46
  10  -7   0    1.31    1.44
  10  -7   0    2.70    1.21
   9  -7   0   21.30    3.39
   9  -7   0   16.52    2.93
   8  -7   0   44.74    3.88
   7  -7   0   13.23    2.66
   7  -7   0   17.12    3.00
  -7   7   0   13.81    3.59
   6  -7   0    4.34    1.57
   6  -7   0    3.54    1.43
  -6   7   0    0.26    1.07
  -6   7   0    3.78    1.02
   5  -7   0   -0.15    0.77
   5  -7   0   -0.50    0.65
  -5   7   0   -0.12    1.37
  -5   7   0    0.68    0.91
  -5   7   0    0.38    0.80
   4  -7   0    8.17    2.12
   4  -7   0    8.71    2.05
  -4   7   0   10.58    2.74
  -4   7   0    8.59    1.91
  -4   7   0    9.34    2.03
   3  -7   0   23.90    3.53
   3  -7   0   17.71    2.97
  -3   7   0   27.34    4.18
  -3   7   0   18.04    2.91
  -3   7   0   17.99    3.25
   2  -7   0   77.98    5.06
   2  -7   0   82.58    5.31
  -2   7   0   78.86    5.05
  -2   7   0   86.32    5.21
  -2   7   0   90.23    5.78
   1  -7   0  124.03    6.55
   1  -7   0  133.21    6.66
  -1   7   0  126.90    6.64
  -1   7   0  120.90    6.27
  -1   7   0  131.17    6.65
   0  -7   0    0.61    0.89
   0  -7   0   -1.65    0.71
   0   7   0    1.94    1.15
   0   7   0    0.25    1.01
   0   7   0    1.86    0.97
  -1  -7   0   37.98    3.66
  -1  -7   0   41.54    3.52
   1   7   0   40.27    2.73
   1   7   0   39.33    3.73
   1   7   0   42.73    4.02
  -2  -7   0   51.69    4.09
  -2  -7   0   39.08    3.57
   2   7   0   40.55    3.94
   2   7   0   39.73    3.89
   2   7   0   40.90    1.90
  -3  -7   0    1.51    1.06
  -3  -7   0   -0.47    0.76
   3   7   0    0.28    0.92
   3   7   0   -1.04    0.86
  -4  -7   0    2.84    1.26
  -4  -7   0    3.70    1.51
   4   7   0    6.82    2.10
   4   7   0    5.90    1.67
  -5  -7   0   37.12    2.99
  -5  -7   0   41.40    3.22
   5   7   0   36.47    4.13
   5   7   0   41.52    4.32
   6   7   0   30.49    4.60
   6   7   0   38.92    5.32
   7   7   0   -1.40    1.21
   8   7   0    4.85    2.01
  10  -8   0    9.02    2.45
   9  -8   0   65.94    5.49
   9  -8   0   51.03    4.80
   8  -8   0    6.61    1.90
   8  -8   0    8.48    2.37
   7  -8   0    2.49    1.52
   7  -8   0    1.19    1.38
  -7   8   0    1.40    1.08
   6  -8   0    7.12    2.29
   6  -8   0    6.55    1.98
  -6   8   0    8.17    1.69
  -6   8   0    5.05    1.49
  -6   8   0    9.94    2.66
   5  -8   0   40.45    4.06
   5  -8   0   40.39    4.14
  -5   8   0   39.01    3.44
  -5   8   0   40.82    5.94
   4  -8   0    8.22    2.59
   4  -8   0    6.21    1.95
  -4   8   0    6.03    1.96
  -4   8   0    4.80    2.06
  -4   8   0    5.85    1.86
   3  -8   0   28.20    3.99
  -3   8   0   32.31    3.97
  -3   8   0   31.88    3.37
  -3   8   0   33.38    3.46
   2  -8   0    5.46    2.03
   2  -8   0    7.41    2.23
  -2   8   0    3.74    1.62
  -2   8   0    4.20    1.47
  -2   8   0    6.36    1.92
   1  -8   0    2.51    1.44
   1  -8   0    4.31    1.74
  -1   8   0    2.62    1.26
  -1   8   0    7.22    2.04
  -1   8   0    2.52    1.31
   0  -8   0   19.03    3.17
   0  -8   0   20.21    4.07
   0   8   0   20.05    3.66
   0   8   0   21.26    3.47
   0   8   0   19.84    2.86
  -1  -8   0   27.86    4.74
  -1  -8   0   21.29    3.43
   1   8   0   20.07    3.53
   1   8   0   25.19    2.25
   1   8   0   21.95    3.75
  -2  -8   0   29.36    4.68
  -2  -8   0   28.59    3.90
   2   8   0   23.70    3.89
   2   8   0   27.24    4.06
  -3  -8   0    3.06    1.64
   3   8   0    3.24    1.45
   3   8   0    2.50    1.26
  -4  -8   0    6.45    2.10
  -4  -8   0    6.72    1.99
   4   8   0    5.47    2.20
   4   8   0    5.74    2.15
  -5  -8   0    1.95    1.27
   5   8   0    1.28    1.48
   6   8   0   19.32    4.40
   7   8   0    5.59    2.21
  10  -9   0   19.40    4.11
   9  -9   0    2.89    2.13
   8  -9   0    7.84    2.57
   7  -9   0    2.57    1.58
  -7   9   0    4.22    1.18
  -7   9   0    0.72    0.87
   6  -9   0    3.31    1.29
   6  -9   0   -1.22    1.41
  -6   9   0    0.87    1.19
  -6   9   0    2.52    1.86
   5  -9   0   11.63    2.87
   5  -9   0   19.26    3.59
  -5   9   0   11.60    2.50
  -5   9   0   11.91    2.42
  -5   9   0   16.71    3.84
   4  -9   0   26.95    4.31
   4  -9   0   38.10    4.91
  -4   9   0   24.54    5.43
  -4   9   0   35.39    3.77
  -4   9   0   30.42    4.89
   3  -9   0    7.16    2.45
   3  -9   0    6.05    2.24
  -3   9   0   10.03    2.36
  -3   9   0    8.50    2.58
  -3   9   0    7.92    2.52
   2  -9   0   27.23    4.14
  -2   9   0   25.83    4.04
  -2   9   0   23.86    3.96
  -2   9   0   22.06    3.76
   1  -9   0    0.42    0.81
  -1   9   0    0.21    1.04
  -1   9   0    2.43    1.34
  -1   9   0    3.05    1.28
   0  -9   0   -0.24    1.51
   0  -9   0   -0.68    1.01
   0   9   0    1.01    1.07
   0   9   0   -0.29    1.10
   0   9   0    0.72    1.14
  -1  -9   0    6.18    2.11
  -1  -9   0    5.19    1.98
   1   9   0    6.87    2.46
   1   9   0    5.88    2.19
  -2  -9   0    7.68    2.36
  -2  -9   0    6.44    2.40
   2   9   0    6.54    2.28
  -3  -9   0   26.25    3.80
   3   9   0   27.07    4.62
  -4  -9   0    0.01    1.35
  -4  -9   0    1.03    1.82
   4   9   0    4.88    1.84
  -5  -9   0   -0.77    1.62
  -5  -9   0    5.03    2.12
   5   9   0   -0.07    1.42
   8 -10   0    4.36    2.01
  -7  10   0    6.46    1.89
  -7  10   0    4.52    1.44
   6 -10   0    1.82    1.14
  -6  10   0    2.10    1.90
  -6  10   0    1.19    1.54
   5 -10   0    5.32    2.00
  -5  10   0    5.89    2.16
  -5  10   0    4.00    1.85
  -5  10   0    4.64    2.30
   4 -10   0   11.18    3.06
  -4  10   0   20.08    3.59
  -4  10   0   19.68    4.11
   3 -10   0   28.82    4.69
  -3  10   0   24.20    4.20
  -3  10   0   23.93    4.24
  -3  10   0   32.52    4.45
   2 -10   0   21.40    4.01
  -2  10   0   26.33    4.38
  -2  10   0   26.08    4.32
  -2  10   0   26.84    4.30
   1 -10   0    5.45    1.98
  -1  10   0    5.58    2.34
   0 -10   0   28.91    4.67
   0  10   0   27.95    4.43
  -1 -10   0    5.24    2.20
   1  10   0    7.56    2.65
  -2 -10   0    1.38    1.63
  -3 -10   0    5.67    2.42
   3  10   0   -2.79    1.42
  -4 -10   0   51.03    5.66
  -4 -10   0   49.00    4.82
  -5 -10   0   -1.43    2.20
  -7  11   0    6.24    2.21
   6 -11   0   20.40    4.35
  -6  11   0   15.41    3.47
  -6  11   0   15.73    3.25
   5 -11   0   -1.72    1.15
  -5  11   0    5.34    2.72
  -5  11   0   -0.46    1.45
   4 -11   0   20.98    4.21
  -4  11   0   17.22    3.92
  -4  11   0   24.34    4.10
   3 -11   0    7.41    2.77
  -3  11   0    5.24    2.31
  -3  11   0    2.52    2.14
   2 -11   0    5.87    2.69
  -2  11   0   13.85    3.42
  -2  11   0   10.23    2.85
   1 -11   0   -0.86    1.69
  -1  11   0    1.41    2.13
   0 -11   0   -0.77    1.39
   0  11   0   -0.12    1.89
  -1 -11   0   -0.32    2.00
   1  11   0    7.29    2.66
  -2 -11   0    2.27    1.91
  -4 -11   0    0.75    3.10
  -6  12   0   16.79    3.83
  -5  12   0   -4.10    3.05
  -4  12   0   47.66    5.01
  -3  12   0    2.33    2.29
  -1  12  -1    7.73    2.62
  -2  12  -1    1.34    1.96
  -2  12  -1    1.32    2.11
  -3  12  -1   20.36    4.11
  -3  12  -1   17.51    4.23
  -4  12  -1    7.33    2.61
  -5  12  -1    4.65    2.09
  -6  12  -1    8.20    3.25
  -4 -11   1    1.04    2.12
   2  11  -1    2.49    2.18
  -2 -11   1    0.96    1.79
   1  11  -1    0.17    1.62
  -1 -11   1    7.40    2.80
   0  11  -1   14.75    3.62
   0 -11   1   10.49    3.22
  -1  11  -1   14.58    3.31
  -1  11  -1    2.89    1.77
  -2  11  -1    8.49    2.54
  -2  11  -1    8.66    2.69
  -3  11  -1   -1.82    1.65
  -3  11  -1    2.01    1.59
   3 -11   1   -0.81    1.10
  -4  11  -1   -1.28    1.92
  -4  11  -1    0.74    1.41
   4 -11   1   -0.55    1.45
  -5  11  -1    2.18    1.73
  -5  11  -1    0.88    2.10
   5 -11   1    2.11    1.08
  -6  11  -1   10.81    2.88
  -6  11  -1    5.23    2.98
   6 -11   1    7.19    2.35
  -7  11  -1    3.32    1.97
  -5 -10   1    4.35    2.59
   4  10  -1   14.65    3.52
  -4 -10   1   23.02    3.76
  -4 -10   1   20.65    4.75
   3  10  -1   23.42    4.53
  -3 -10   1   34.57    4.93
  -3 -10   1   33.01    4.54
   2  10  -1   20.22    3.85
  -2 -10   1   30.70    4.53
  -2 -10   1   31.84    4.75
   1  10  -1   19.87    3.78
   1  10  -1   22.78    2.56
  -1 -10   1   19.02    3.77
  -1 -10   1   23.74    4.01
   0  10  -1   17.95    3.04
   0  10  -1   16.50    3.45
   0 -10   1   11.19    2.65
   0 -10   1   18.60    3.71
  -1  10  -1    0.12    0.88
  -1  10  -1    0.16    1.43
  -1  10  -1   -1.79    0.95
   1 -10   1    2.02    1.64
   1 -10   1    2.88    1.77
  -2  10  -1    0.98    1.48
  -2  10  -1    6.72    2.17
  -2  10  -1   -1.53    1.62
   2 -10   1    4.34    1.96
   2 -10   1    0.87    1.72
  -3  10  -1    0.38    1.62
  -3  10  -1    1.70    1.31
  -3  10  -1    2.47    1.74
   3 -10   1    0.55    1.19
  -4  10  -1    2.46    1.89
  -4  10  -1    2.92    1.53
  -4  10  -1    2.54    1.77
   4 -10   1    1.16    1.39
  -5  10  -1    2.53    1.69
  -5  10  -1    2.81    1.77
  -5  10  -1    1.51    1.57
   5 -10   1    3.58    1.47
  -6  10  -1    2.33    1.67
  -6  10  -1   -0.60    1.67
   6 -10   1    0.42    1.46
  -7  10  -1    5.27    1.51
  -7  10  -1    3.68    1.75
   7 -10   1    8.06    2.85
   8 -10   1   14.09    3.33
   6   9  -1   -0.99    1.38
  -6  -9   1    2.75    1.54
  -5  -9   1    2.90    1.79
  -5  -9   1    0.21    1.28
   4   9  -1   16.89    3.40
  -4  -9   1   15.51    3.00
   3   9  -1   32.13    4.87
  -3  -9   1   31.92    4.44
  -3  -9   1   27.07    4.04
   2   9  -1   21.82    3.82
   2   9  -1   22.00    2.06
   2   9  -1   21.92    4.05
  -2  -9   1   30.42    4.05
  -2  -9   1   24.94    3.97
   1   9  -1    1.62    1.44
   1   9  -1   -2.35    1.14
   1   9  -1    1.65    0.87
  -1  -9   1    2.59    1.58
   0   9  -1    0.52    0.96
   0   9  -1    0.03    0.96
   0  -9   1   -0.80    0.51
   0  -9   1    1.60    1.05
  -1   9  -1   -0.26    0.99
  -1   9  -1    1.49    1.18
  -1   9  -1    1.63    1.00
   1  -9   1    0.23    1.17
   1  -9   1   -0.40    0.74
  -2   9  -1   15.88    3.32
  -2   9  -1   18.90    3.40
  -2   9  -1   20.65    3.62
   2  -9   1   20.75    3.52
   2  -9   1   11.61    2.87
  -3   9  -1    4.99    1.85
  -3   9  -1    5.86    2.24
  -3   9  -1    5.97    2.19
   3  -9   1    2.32    1.71
   3  -9   1    5.37    2.09
  -4   9  -1   37.12    3.72
  -4   9  -1   34.18    3.80
  -4   9  -1   29.37    5.04
   4  -9   1   38.47    4.06
  -5   9  -1    6.01    2.30
  -5   9  -1    5.77    1.79
  -5   9  -1    7.00    2.03
   5  -9   1    1.59    1.54
   5  -9   1    2.75    1.34
  -6   9  -1    7.96    2.66
  -6   9  -1   14.34    2.47
   6  -9   1   17.22    3.10
   6  -9   1   14.03    3.01
  -7   9  -1   -0.46    0.71
  -7   9  -1    0.20    0.78
   7  -9   1    1.25    1.67
   8  -9   1    4.01    1.99
   9  -9   1   35.03    5.13
  10  -9   1   31.30    4.96
   7   8  -1    0.37    1.59
   6   8  -1    7.20    1.87
   5   8  -1   16.11    3.44
  -5  -8   1   16.13    2.47
  -5  -8   1   17.06    2.43
   4   8  -1   11.50    2.63
   4   8  -1   11.03    2.84
  -4  -8   1   14.38    2.70
   3   8  -1    5.61    1.16
   3   8  -1    3.29    1.84
   3   8  -1    5.34    1.66
  -3  -8   1    0.76    1.15
  -3  -8   1    8.14    2.09
   2   8  -1   -1.55    0.92
   2   8  -1    0.52    1.28
   2   8  -1   -0.47    0.47
  -2  -8   1   -1.65    0.87
  -2  -8   1    0.15    1.20
   1   8  -1    1.83    1.14
   1   8  -1    5.91    1.94
   1   8  -1    4.01    1.23
  -1  -8   1    2.28    1.27
  -1  -8   1    3.09    1.55
   0   8  -1   31.98    3.62
   0   8  -1   40.32    3.56
   0   8  -1   32.72    3.66
   0  -8   1   33.65    3.43
   0  -8   1   33.73    4.52
  -1   8  -1   -0.40    0.76
  -1   8  -1    3.61    1.61
  -1   8  -1    3.47    1.51
   1  -8   1    1.62    1.17
   1  -8   1    1.83    1.22
  -2   8  -1   26.68    3.80
  -2   8  -1   25.66    3.72
   2  -8   1   20.64    3.43
   2  -8   1   21.37    3.50
  -3   8  -1   38.98    4.37
  -3   8  -1   34.93    3.48
  -3   8  -1   30.62    3.37
   3  -8   1   32.21    3.51
   3  -8   1   36.89    3.87
  -4   8  -1   -1.06    0.63
  -4   8  -1   -0.92    0.98
  -4   8  -1   -0.41    0.95
   4  -8   1   -2.30    0.79
  -5   8  -1    3.30    1.83
  -5   8  -1    4.28    1.43
   5  -8   1    3.38    1.74
   5  -8   1    2.33    1.38
  -6   8  -1    6.73    1.59
  -6   8  -1    6.97    1.59
   6  -8   1    6.02    2.03
   6  -8   1    5.75    1.90
  -7   8  -1    2.24    1.96
   7  -8   1    0.84    1.21
   7  -8   1    1.18    1.16
   8  -8   1    5.57    2.01
   8  -8   1    5.45    1.96
   9  -8   1   12.55    2.86
   9  -8   1   11.71    3.48
  10  -8   1    0.57    1.74
  11  -8   1   12.90    2.60
   9   7  -1    1.74    1.88
   8   7  -1    1.75    1.51
   7   7  -1   23.29    3.92
   6   7  -1   82.41    6.07
   6   7  -1   77.05    6.18
   5   7  -1    8.04    2.18
   5   7  -1   10.26    2.48
  -5  -7   1    5.85    1.35
  -5  -7   1    9.51    1.76
   4   7  -1    5.61    1.96
   4   7  -1    7.05    1.97
  -4  -7   1    5.10    1.73
   3   7  -1    6.56    1.79
   3   7  -1   11.12    2.46
  -3  -7   1    9.75    2.05
  -3  -7   1    7.68    1.96
   2   7  -1  118.32    6.73
   2   7  -1  117.05    6.53
  -2  -7   1  118.08    6.04
  -2  -7   1  116.11    6.15
   1   7  -1    7.65    2.06
   1   7  -1    5.81    1.84
  -1  -7   1    4.88    1.48
  -1  -7   1    2.09    1.21
   0   7  -1   -0.64    0.50
   0   7  -1   -0.59    0.55
   0   7  -1   -0.06    0.71
   0  -7   1    0.97    1.10
   0  -7   1    0.34    0.88
  -1   7  -1    0.03    0.63
  -1   7  -1   -0.35    0.77
  -1   7  -1    0.24    0.83
   1  -7   1    0.06    0.54
   1  -7   1   -0.38    0.65
  -2   7  -1   40.54    3.51
  -2   7  -1   45.76    4.16
  -2   7  -1   43.74    3.64
   2  -7   1   40.35    3.71
   2  -7   1   46.06    3.75
  -3   7  -1   15.99    3.14
  -3   7  -1   12.35    2.89
  -3   7  -1   15.28    2.59
   3  -7   1   14.60    2.53
   3  -7   1   14.16    2.62
  -4   7  -1   44.16    4.73
  -4   7  -1   37.27    3.21
  -4   7  -1   45.33    3.47
   4  -7   1   46.79    4.04
   4  -7   1   38.52    3.42
  -5   7  -1   36.47    2.93
  -5   7  -1   33.47    2.90
  -5   7  -1   40.81    4.81
   5  -7   1   30.00    3.18
   5  -7   1   38.16    3.66
  -6   7  -1   21.92    4.32
  -6   7  -1   11.43    2.05
   6  -7   1   16.01    2.78
   6  -7   1   20.18    3.24
  -7   7  -1   18.71    4.19
   7  -7   1   11.00    2.31
   7  -7   1   22.91    3.22
   8  -7   1   29.14    3.86
   9  -7   1   -0.99    1.13
   9  -7   1    2.19    1.53
  10  -7   1    1.35    1.44
  10  -7   1    4.31    2.20
  11  -7   1   11.81    2.64
   9   6  -1    1.44    1.80
   8   6  -1   15.24    3.12
   8   6  -1   19.54    3.57
   7   6  -1   -1.31    0.96
   7   6  -1    3.34    1.54
   6   6  -1   -0.48    1.02
   5   6  -1    0.77    1.11
   5   6  -1    1.25    1.00
   5   6  -1    0.47    0.42
  -5  -6   1    1.65    0.76
  -5  -6   1    0.30    0.73
   4   6  -1    1.68    1.09
   4   6  -1   -1.37    0.67
  -4  -6   1   -0.02    0.76
   3   6  -1   11.16    2.34
   3   6  -1   12.03    2.39
  -3  -6   1   10.53    2.09
  -3  -6   1   10.43    1.98
   2   6  -1    3.80    1.30
   2   6  -1    1.28    1.22
  -2  -6   1    5.63    1.50
  -2  -6   1    4.96    1.52
   1   6  -1   55.13    4.63
   1   6  -1   44.07    3.67
  -1  -6   1   48.24    3.57
  -1  -6   1   50.70    3.56
   0   6  -1   27.79    2.84
   0   6  -1   28.29    2.85
   0  -6   1   32.97    2.89
   0  -6   1   31.92    2.96
  -1   6  -1  236.56    8.50
  -1   6  -1  238.34    8.70
  -1   6  -1  230.28    8.31
   1  -6   1  234.59    8.27
   1  -6   1  233.67    8.55
  -2   6  -1   50.65    3.66
  -2   6  -1   48.46    3.98
  -2   6  -1   50.56    3.52
   2  -6   1   49.91    3.80
   2  -6   1   47.29    3.52
  -3   6  -1  141.55    7.54
  -3   6  -1  138.54    5.93
  -3   6  -1  152.84    6.26
   3  -6   1  135.68    6.40
   3  -6   1  143.37    6.29
  -4   6  -1   73.04    3.99
  -4   6  -1   82.44    4.34
  -4   6  -1   95.26    6.52
   4  -6   1   83.29    4.71
   4  -6   1   76.96    4.61
  -5   6  -1    6.20    1.31
  -5   6  -1    5.03    1.32
  -5   6  -1    7.31    2.43
   5  -6   1    7.11    1.77
  -6   6  -1   15.62    0.95
  -6   6  -1   19.65    4.07
   6  -6   1   21.84    3.07
   6  -6   1   21.19    2.98
  -7   6  -1   22.07    4.61
   7  -6   1   21.30    3.04
   7  -6   1   18.25    2.83
  -8   6  -1    6.07    2.63
   8  -6   1    9.42    2.15
   8  -6   1    8.21    2.10
   9  -6   1    1.62    1.27
   9  -6   1    3.10    1.35
  10  -6   1   -0.30    1.07
  10  -6   1   -2.78    1.24
  11  -6   1    3.36    1.47
  10   5  -1    2.78    1.54
   9   5  -1    6.78    1.99
   9   5  -1    4.37    2.98
   8   5  -1   11.79    2.46
   7   5  -1    5.92    1.81
   7   5  -1    8.62    2.09
   6   5  -1    4.30    1.55
   6   5  -1    5.80    1.31
   6   5  -1    7.80    1.87
   5   5  -1    7.77    1.81
   5   5  -1    5.92    1.26
   5   5  -1    3.68    1.47
  -5  -5   1    5.12    0.90
  -5  -5   1    3.98    0.92
   4   5  -1    4.55    1.51
   4   5  -1    3.79    1.27
  -4  -5   1    3.84    1.10
  -4  -5   1    3.62    1.00
   3   5  -1   11.62    2.13
   3   5  -1   12.99    2.24
  -3  -5   1   14.52    2.04
  -3  -5   1   11.59    1.97
   2   5  -1   23.61    2.39
   2   5  -1   27.80    2.68
  -2  -5   1   24.30    2.36
  -2  -5   1   28.86    2.42
   1   5  -1    9.48    1.83
   1   5  -1   10.26    1.95
  -1  -5   1   10.65    1.89
  -1  -5   1    6.83    1.51
   0   5  -1   71.59    4.07
   0   5  -1   73.17    4.05
   0  -5   1   74.71    4.06
   0  -5   1   69.32    3.83
  -1   5  -1   11.16    1.93
  -1   5  -1   18.06    2.03
   1  -5   1   14.59    2.30
   1  -5   1   19.15    1.99
  -2   5  -1   94.42    5.25
  -2   5  -1   74.68    4.01
  -2   5  -1   75.98    4.03
   2  -5   1   71.74    3.97
   2  -5   1   76.28    4.24
  -3   5  -1   35.92    3.48
  -3   5  -1   33.16    2.61
  -3   5  -1   35.83    2.60
   3  -5   1   36.44    2.83
   3  -5   1   37.14    2.94
  -4   5  -1   -0.02    0.51
  -4   5  -1    0.77    0.94
  -4   5  -1    0.08    0.56
   4  -5   1   -0.24    0.48
   4  -5   1    0.57    0.62
  -5   5  -1   26.83    1.74
  -5   5  -1   28.83    4.43
  -5   5  -1   27.26    1.79
   5  -5   1   26.20    2.56
   5  -5   1   28.53    2.55
  -6   5  -1  182.28   10.05
   6  -5   1  151.75    6.27
   6  -5   1  150.87    6.35
   7  -5   1    6.49    1.67
   7  -5   1    3.94    1.21
  -8   5  -1   -1.13    0.88
   8  -5   1   -1.67    0.71
   8  -5   1    0.92    1.00
   9  -5   1    0.20    0.96
   9  -5   1   -0.94    1.00
  10  -5   1   11.55    2.25
  10  -5   1   12.92    2.58
  11  -5   1   -0.67    1.88
  11  -5   1    5.48    2.39
  10   4  -1    3.33    1.85
  10   4  -1    6.93    1.56
   9   4  -1    3.64    1.37
   9   4  -1    2.65    1.44
   8   4  -1    4.81    1.82
   8   4  -1    7.74    1.85
   7   4  -1   25.78    2.72
   7   4  -1   33.66    3.17
   7   4  -1   28.38    3.20
   6   4  -1    8.19    1.81
   6   4  -1    9.73    1.90
   6   4  -1   10.91    2.18
   5   4  -1   38.32    3.03
   5   4  -1   38.84    2.98
   5   4  -1   33.72    2.69
   4   4  -1    1.30    0.95
   4   4  -1    2.49    0.96
  -4  -4   1    1.68    0.68
  -4  -4   1    1.15    0.56
   3   4  -1   54.19    3.35
   3   4  -1   61.29    3.59
  -3  -4   1   58.13    2.97
  -3  -4   1   63.79    3.16
   2   4  -1   25.88    2.29
   2   4  -1   25.40    2.22
  -2  -4   1   22.73    1.97
  -2  -4   1   24.66    2.12
   1   4  -1  288.49    8.26
   1   4  -1  268.11    8.07
  -1  -4   1  299.26    8.14
  -1  -4   1  288.23    7.87
   0   4  -1   78.11    3.76
   0   4  -1   74.83    3.77
   0  -4   1   77.77    3.70
   0  -4   1   76.47    3.78
  -1   4  -1  246.98    7.27
  -1   4  -1  251.62    7.36
   1  -4   1  253.50    7.36
   1  -4   1  250.76    7.53
  -2   4  -1   -0.26    0.47
  -2   4  -1    0.57    0.75
  -2   4  -1   -0.16    0.51
   2  -4   1    0.27    0.62
   2  -4   1    0.14    0.62
  -3   4  -1   33.24    3.25
  -3   4  -1   34.77    2.26
  -3   4  -1   29.70    2.09
   3  -4   1   30.92    2.37
   3  -4   1   29.51    2.36
  -4   4  -1    8.97    2.26
  -4   4  -1   11.47    1.44
  -4   4  -1    9.49    1.25
   4  -4   1    8.00    1.46
   4  -4   1   10.47    1.71
  -5   4  -1   41.52    5.08
   5  -4   1   40.09    2.71
   5  -4   1   42.08    2.90
  -6   4  -1   17.75    3.71
   6  -4   1   22.60    2.22
   6  -4   1   21.31    2.10
  -7   4  -1   63.19    6.13
   7  -4   1   71.24    3.85
   7  -4   1   72.83    4.05
  -8   4  -1    0.86    1.13
   8  -4   1    0.92    0.76
   8  -4   1    0.71    0.89
   9  -4   1    2.17    1.27
   9  -4   1    4.74    1.68
  10  -4   1   12.83    2.46
  10  -4   1   17.78    2.68
  11  -4   1   13.29    2.45
  11  -4   1   15.37    2.74
  11   3  -1   21.66    3.47
  10   3  -1    4.05    1.66
  10   3  -1    3.87    1.38
   9   3  -1    4.33    1.29
   9   3  -1    6.75    1.67
   8   3  -1    0.03    0.79
   8   3  -1    1.74    0.93
   7   3  -1   41.20    3.74
   7   3  -1   42.22    3.06
   7   3  -1   38.49    2.98
   6   3  -1  137.91    5.40
   6   3  -1  137.19    6.39
   6   3  -1  138.44    5.49
   5   3  -1  162.26    6.49
   5   3  -1  163.11    5.72
   5   3  -1  168.21    5.85
   4   3  -1    3.49    0.92
  -4  -3   1    2.10    0.35
  -4  -3   1    2.30    0.36
   3   3  -1   33.49    2.30
   3   3  -1   37.54    2.38
  -3  -3   1   37.24    1.94
   2   3  -1  107.76    4.11
   2   3  -1  105.53    4.04
  -2  -3   1  107.29    3.84
  -2  -3   1  100.25    3.66
   1   3  -1    2.39    0.75
   1   3  -1    3.03    0.97
  -1  -3   1    2.50    0.82
  -1  -3   1    2.71    0.86
   0   3  -1  312.14    7.83
   0   3  -1  323.71    7.91
   0  -3   1  326.36    7.81
   0  -3   1  321.17    7.91
  -1   3  -1  416.16    9.45
  -1   3  -1  424.24    9.52
   1  -3   1  452.10    9.73
   1  -3   1  416.65    9.63
  -2   3  -1   18.52    2.04
  -2   3  -1   16.37    1.51
  -2   3  -1   18.18    1.56
   2  -3   1   18.11    1.62
   2  -3   1   18.02    1.67
  -3   3  -1  104.24    3.46
  -3   3  -1  103.01    5.40
  -3   3  -1  107.48    3.49
   3  -3   1  108.96    3.94
   3  -3   1  104.27    4.03
  -4   3  -1   51.09    1.58
  -4   3  -1   56.06    4.30
  -4   3  -1   52.79    1.61
   4  -3   1   49.89    2.79
   4  -3   1   54.95    2.77
  -5   3  -1    3.97    1.54
   5  -3   1    2.50    0.82
   5  -3   1    3.69    0.95
  -6   3  -1   18.80    3.52
   6  -3   1   17.84    1.69
  -7   3  -1   53.53    5.51
   7  -3   1   61.55    3.29
   7  -3   1   63.80    3.47
  -8   3  -1   24.66    4.75
   8  -3   1   26.90    2.43
   8  -3   1   28.19    2.39
   9  -3   1   10.56    1.79
   9  -3   1   10.96    1.88
  10  -3   1   10.20    1.91
  11  -3   1   -0.54    1.46
  11  -3   1    7.36    1.96
  11   2  -1   12.10    2.45
  10   2  -1    4.13    1.28
   9   2  -1    0.44    0.63
   9   2  -1    0.56    0.85
   8   2  -1    7.39    1.57
   8   2  -1    7.43    1.51
   8   2  -1   12.17    2.71
   7   2  -1    3.06    1.37
   7   2  -1    0.22    0.53
   7   2  -1    1.64    0.87
   6   2  -1   13.10    1.44
   6   2  -1   11.87    1.61
   6   2  -1   11.16    2.24
   5   2  -1    0.91    0.47
   5   2  -1    1.05    0.86
   5   2  -1    0.52    0.47
   4   2  -1  171.67    4.90
   4   2  -1  171.78    6.32
   4   2  -1  173.32    4.89
   3   2  -1    1.16    0.54
   3   2  -1    1.04    0.51
  -3  -2   1    0.73    0.21
  -3  -2   1    0.98    0.26
   2   2  -1  156.85    4.34
   2   2  -1  161.66    4.42
  -2  -2   1  160.08    3.97
  -2  -2   1  158.92    4.03
   1   2  -1   75.13    2.76
   1   2  -1   68.96    2.67
  -1  -2   1   70.16    2.59
   0   2  -1   75.90    2.75
   0   2  -1   67.43    2.63
   0  -2   1   65.94    2.51
   0  -2   1   71.09    2.63
  -1   2  -1   51.50    2.62
  -1   2  -1   51.97    2.23
   1  -2   1   48.30    2.24
   1  -2   1   52.63    2.24
  -2   2  -1    0.10    0.38
  -2   2  -1    0.08    0.50
  -2   2  -1    0.49    0.48
   2  -2   1    0.60    0.47
   2  -2   1    0.17    0.49
  -3   2  -1    5.82    0.61
  -3   2  -1    6.17    1.56
  -3   2  -1    5.96    0.60
   3  -2   1    4.38    0.88
   3  -2   1    5.53    0.93
  -4   2  -1   83.99    5.08
   4  -2   1   88.79    3.18
   4  -2   1   93.64    3.37
  -5   2  -1   17.67    2.99
   5  -2   1   16.98    1.44
   5  -2   1   17.57    1.48
  -6   2  -1   46.32    4.56
   6  -2   1   45.74    2.46
   6  -2   1   50.96    2.70
  -7   2  -1   90.10    6.92
   7  -2   1   95.72    3.91
   8  -2   1   75.45    3.80
   8  -2   1   67.30    3.57
   9  -2   1    0.72    0.87
   9  -2   1    3.25    1.05
  10  -2   1   13.64    2.25
  10  -2   1   15.00    2.33
  11  -2   1    6.41    1.84
  11  -2   1    3.79    1.83
  11   1  -1   15.23    2.42
  11   1  -1    8.78    2.06
  10   1  -1    3.60    1.11
  10   1  -1    1.19    1.05
   9   1  -1   21.54    1.98
   9   1  -1   20.99    1.97
   8   1  -1   58.93    2.97
   8   1  -1   56.85    5.03
   7   1  -1    1.25    0.55
   7   1  -1    1.46    1.41
   6   1  -1   11.85    1.08
   6   1  -1   11.79    1.05
   6   1  -1   14.51    2.67
   5   1  -1    5.28    1.48
   5   1  -1    5.14    0.72
   5   1  -1    6.83    0.73
   4   1  -1   37.24    2.95
   4   1  -1   37.27    1.41
   4   1  -1   38.51    1.44
   3   1  -1   15.35    0.81
   2   1  -1   91.17    2.25
   2   1  -1   92.93    2.28
   1   1  -1   23.15    1.07
   1   1  -1   23.86    1.09
  -1  -1   1   22.23    1.01
  -1  -1   1   22.91    0.98
  -1   1  -1  388.86    7.32
  -1   1  -1  386.31    7.23
   1  -1   1  401.62    7.51
  -2   1  -1  165.96    3.58
  -2   1  -1  185.24    5.70
  -2   1  -1  167.16    3.55
   2  -1   1  167.74    4.07
   2  -1   1  172.21    4.01
  -3   1  -1   10.68    1.83
   3  -1   1    9.51    0.93
   3  -1   1   10.38    0.93
  -4   1  -1   23.85    2.60
   4  -1   1   22.71    1.46
   4  -1   1   20.45    1.34
  -5   1  -1  191.46    8.40
   5  -1   1  203.51    5.28
   5  -1   1  201.40    5.42
  -6   1  -1    6.00    1.89
   6  -1   1    9.44    1.36
   6  -1   1    8.54    1.28
   7  -1   1    9.72    1.48
   7  -1   1    8.19    1.59
   8  -1   1    2.32    0.92
   8  -1   1    4.64    1.20
   9  -1   1    0.19    0.83
   9  -1   1   -0.92    0.70
  10  -1   1    5.40    1.78
  10  -1   1    6.91    2.26
  11  -1   1    4.53    1.37
  11   0  -1    1.28    0.95
  11   0  -1   -0.92    0.77
  10   0  -1    0.87    0.83
   9   0  -1    8.01    1.29
   9   0  -1    9.14    1.32
   8   0  -1   17.36    1.42
   8   0  -1   22.83    4.01
   8   0  -1   20.23    1.48
   7   0  -1   10.65    2.85
   7   0  -1   10.50    0.92
   6   0  -1  117.49    2.74
   6   0  -1  130.24    6.92
   6   0  -1  114.99    2.74
   5   0  -1    2.37    1.12
   4   0  -1  365.43   10.70
   3   0  -1   23.51    2.19
  -1   0  -1  269.04    5.33
  -1   0  -1  275.48    5.29
   1   0   1  270.70    5.49
   1   0   1  279.16    5.41
  -2   0  -1   29.23    1.15
  -2   0  -1   31.81    1.17
  -2   0  -1   27.18    2.26
   2   0   1   30.35    1.43
   2   0   1   32.05    1.52
  -3   0  -1    0.92    0.70
   3   0   1    1.69    0.54
   3   0   1    1.66    0.60
  -4   0  -1   21.29    2.32
   4   0   1   20.69    1.46
   4   0   1   22.45    1.48
  -5   0  -1  185.11    7.82
   5   0   1  180.99    5.15
   5   0   1  188.18    5.36
   6   0   1   28.86    2.02
   6   0   1   30.92    2.16
   7   0   1   54.45    3.04
   7   0   1   59.52    3.31
   8   0   1   31.63    2.64
   8   0   1   37.89    2.75
   9   0   1   21.11    2.28
   9   0   1   17.14    2.43
  10   0   1   20.62    2.96
  11   0   1    0.60    1.21
  11  -1  -1    0.40    0.77
  10  -1  -1   24.86    1.95
  10  -1  -1   26.78    1.96
   9  -1  -1   11.30    1.49
   9  -1  -1   14.83    1.34
   8  -1  -1   -0.06    0.36
   8  -1  -1   -0.53    0.26
   8  -1  -1    1.14    1.34
   7  -1  -1   92.72    2.65
   7  -1  -1   96.10    2.79
   7  -1  -1  103.70    6.84
   6  -1  -1    0.04    0.16
   6  -1  -1    0.14    0.61
   6  -1  -1    0.24    0.18
   5  -1  -1   99.87    5.77
   4  -1  -1   -0.17    0.60
   3  -1  -1   31.36    2.70
  -3   1   1   36.36    2.79
   2  -1  -1   83.30    3.76
   2  -1  -1   89.64    2.20
   2  -1  -1   91.94    2.19
  -2   1   1   87.60    3.79
   1  -1  -1    3.20    0.73
   1  -1  -1    3.04    0.56
   1  -1  -1    3.15    0.60
  -1   1   1    3.38    0.60
  -1   1   1    2.69    0.54
   0  -1  -1   47.19    1.86
   0  -1  -1   43.94    1.86
   0   1   1   44.59    1.82
   0   1   1   44.78    1.88
  -2  -1  -1    1.04    0.48
  -2  -1  -1    1.25    0.52
  -2  -1  -1    0.01    0.39
   2   1   1    0.08    0.41
   2   1   1    0.01    0.42
  -3  -1  -1   88.13    2.32
  -3  -1  -1   82.60    2.28
   3   1   1   88.52    3.27
   3   1   1   85.66    3.18
   4   1   1   60.90    2.82
   4   1   1   62.12    2.90
   5   1   1  132.15    4.60
   5   1   1  125.14    4.62
   6   1   1   88.51    3.97
   6   1   1   92.49    4.16
   7   1   1   12.01    1.95
   8   1   1    5.17    1.34
   9   1   1   -0.87    0.91
   9   1   1   -0.55    1.18
  10   1   1    0.42    1.10
  11   1   1    8.55    2.76
  11  -2  -1   39.64    2.68
  11  -2  -1   42.45    2.84
  10  -2  -1   22.47    1.92
   9  -2  -1   34.49    2.18
   9  -2  -1   39.82    2.24
   8  -2  -1   75.19    3.02
   8  -2  -1   75.23    2.89
   7  -2  -1    7.63    1.00
   7  -2  -1    8.92    2.51
   7  -2  -1    7.16    0.99
   6  -2  -1   34.72    3.82
   6  -2  -1   31.76    1.64
   5  -2  -1    3.48    0.69
   5  -2  -1    2.91    0.60
   5  -2  -1    4.26    1.56
  -5   2   1    2.68    1.29
   4  -2  -1   53.01    2.08
   4  -2  -1   55.71    2.12
   4  -2  -1   43.60    3.58
  -4   2   1   52.46    4.01
   3  -2  -1   26.96    2.53
   3  -2  -1   31.02    1.63
  -3   2   1   29.92    2.69
   2  -2  -1   97.63    3.24
   2  -2  -1  101.44    3.33
  -2   2   1  104.63    3.15
  -2   2   1  106.12    4.49
  -2   2   1  101.45    3.07
   1  -2  -1  129.19    3.98
   1  -2  -1  131.76    3.99
   1  -2  -1  127.33    4.20
  -1   2   1  131.92    4.00
  -1   2   1  130.96    3.92
   0  -2  -1   17.54    1.43
   0  -2  -1   16.73    1.39
   0   2   1   15.99    1.47
   0   2   1   16.03    1.04
   0   2   1   18.45    1.57
  -1  -2  -1   18.27    1.57
  -1  -2  -1   21.70    1.67
   1   2   1   18.36    1.59
   1   2   1   18.28    1.62
  -2  -2  -1   12.44    1.30
  -2  -2  -1   10.71    1.16
   2   2   1   12.57    1.63
   2   2   1   14.39    1.47
  -3  -2  -1   42.98    2.09
  -3  -2  -1   45.50    2.15
   3   2   1   48.36    2.69
   3   2   1   48.66    2.72
  -4  -2  -1   16.89    0.89
  -4  -2  -1   16.65    0.90
   4   2   1   16.83    1.72
   4   2   1   19.44    2.64
   5   2   1    0.12    0.50
   5   2   1    0.16    0.60
   6   2   1  182.88    6.71
   6   2   1  188.95    6.69
   7   2   1   -0.10    0.72
   8   2   1    0.95    1.20
   8   2   1    2.26    1.13
   9   2   1    2.28    1.42
   9   2   1   -2.55    1.05
  10   2   1    4.27    1.71
  11   2   1    3.12    3.02
  11  -3  -1    3.00    1.16
  11  -3  -1    3.72    1.06
  10  -3  -1   17.92    1.88
  10  -3  -1   13.82    1.99
   9  -3  -1   21.01    1.93
   9  -3  -1   16.64    2.02
   8  -3  -1   16.60    1.63
   8  -3  -1   15.58    1.55
   7  -3  -1   51.08    2.68
   7  -3  -1   50.58    2.65
   6  -3  -1   13.21    1.36
   6  -3  -1   12.38    2.80
   6  -3  -1   12.51    1.60
  -6   3   1   10.95    2.67
   5  -3  -1    0.46    0.45
   5  -3  -1    0.77    0.92
   5  -3  -1    0.44    0.40
  -5   3   1    0.12    0.76
   4  -3  -1    4.50    0.97
   4  -3  -1    4.44    1.56
   4  -3  -1    4.52    0.97
  -4   3   1    6.08    1.74
   3  -3  -1  247.79    6.68
   3  -3  -1  249.36    6.73
   3  -3  -1  262.33    8.82
  -3   3   1  260.91    6.22
  -3   3   1  245.57    8.78
  -3   3   1  262.70    6.23
   2  -3  -1  239.61    6.59
   2  -3  -1  237.57    6.61
   2  -3  -1  247.00    7.64
  -2   3   1  229.72    6.33
  -2   3   1  239.01    7.72
  -2   3   1  234.36    6.29
   1  -3  -1    0.23    0.44
   1  -3  -1    0.66    0.55
  -1   3   1    0.30    0.61
  -1   3   1    0.69    0.55
  -1   3   1    0.37    0.59
   0  -3  -1    4.27    1.03
   0  -3  -1    3.87    1.14
   0   3   1    5.39    0.88
   0   3   1    5.70    1.28
   0   3   1    6.19    1.23
  -1  -3  -1    8.29    1.42
  -1  -3  -1   11.13    1.61
   1   3   1    6.83    1.61
   1   3   1    9.83    1.56
  -2  -3  -1  274.79    7.48
   2   3   1  274.97    7.95
   2   3   1  290.78    8.19
  -3  -3  -1    7.00    1.24
  -3  -3  -1    5.72    1.16
   3   3   1    5.56    1.31
   3   3   1    3.22    1.03
  -4  -3  -1   44.35    2.23
  -4  -3  -1   45.70    2.28
   4   3   1   45.47    3.15
   4   3   1   45.99    3.17
   5   3   1  115.00    5.30
   5   3   1  115.90    5.42
   6   3   1   17.68    2.68
   6   3   1   14.68    2.42
   7   3   1    9.22    1.99
   7   3   1   12.64    2.36
   8   3   1    3.45    1.25
   8   3   1    6.43    1.73
   9   3   1    1.25    1.60
  10   3   1   -5.31    1.84
  10   3   1    6.98    1.95
  11  -4  -1   20.96    2.17
  10  -4  -1   38.65    2.99
  10  -4  -1   44.95    3.13
   9  -4  -1    4.98    1.30
   9  -4  -1    5.12    1.23
   8  -4  -1   14.29    2.05
   8  -4  -1   18.37    1.96
   7  -4  -1   58.83    3.30
   7  -4  -1   60.13    3.39
   6  -4  -1    3.92    1.12
   6  -4  -1    2.19    0.88
  -6   4   1    0.70    1.21
   5  -4  -1    1.31    0.66
   5  -4  -1    2.75    0.92
  -5   4   1    1.56    1.26
   4  -4  -1  125.12    4.87
   4  -4  -1  125.16    4.94
  -4   4   1  118.12    3.98
  -4   4   1  121.56    4.04
  -4   4   1  111.05    6.44
   3  -4  -1    9.77    1.72
   3  -4  -1   13.61    1.97
  -3   4   1   12.01    1.71
  -3   4   1    9.83    1.54
  -3   4   1   10.37    2.15
   2  -4  -1  108.29    4.64
   2  -4  -1  112.16    4.76
  -2   4   1  109.88    5.30
  -2   4   1  114.39    4.64
  -2   4   1  114.56    4.60
   1  -4  -1  176.75    6.20
   1  -4  -1  175.91    6.19
  -1   4   1  175.53    6.10
  -1   4   1  178.25    6.24
  -1   4   1  177.21    6.17
   0  -4  -1  285.59    8.35
   0  -4  -1  291.66    8.36
   0   4   1  299.56    8.60
   0   4   1  292.76    8.55
   0   4   1  246.27    7.74
  -1  -4  -1   69.13    3.80
  -1  -4  -1   72.61    3.80
   1   4   1   71.88    4.02
   1   4   1   70.72    3.94
  -2  -4  -1   65.83    3.68
  -2  -4  -1   64.47    3.59
   2   4   1   63.98    3.87
   2   4   1   64.36    3.83
  -3  -4  -1   43.82    2.87
  -3  -4  -1   46.38    2.91
   3   4   1   40.53    3.16
   3   4   1   41.65    3.21
  -4  -4  -1   47.59    3.19
  -4  -4  -1   35.13    2.38
   4   4   1   34.48    3.01
   4   4   1   26.93    2.78
  -5  -4  -1    2.09    1.02
  -5  -4  -1    0.98    0.54
   5   4   1    1.80    1.02
   5   4   1   -0.92    0.55
   6   4   1    1.51    1.16
   6   4   1    3.58    1.36
   7   4   1    1.16    1.10
   7   4   1    0.38    1.07
   8   4   1   20.48    3.32
   8   4   1   15.16    3.05
   9   4   1    7.66    1.78
   9   4   1    1.81    1.57
  10   4   1   12.68    2.67
  11  -5  -1    1.21    1.12
  11  -5  -1    3.56    1.20
  10  -5  -1   19.09    2.83
  10  -5  -1   24.44    2.54
   9  -5  -1   25.36    2.67
   8  -5  -1    1.65    0.90
   8  -5  -1    0.84    0.87
   7  -5  -1   -0.19    0.77
   7  -5  -1    1.36    0.79
  -7   5   1    1.40    1.45
   6  -5  -1    1.23    0.74
   6  -5  -1    0.16    0.70
  -6   5   1    0.49    1.28
   5  -5  -1  151.45    6.11
   5  -5  -1  152.54    6.27
  -5   5   1  151.87    4.64
  -5   5   1  147.35    4.57
  -5   5   1  155.24    8.63
   4  -5  -1   80.29    4.36
   4  -5  -1   98.21    4.89
  -4   5   1   88.62    4.00
  -4   5   1   79.44    5.73
  -4   5   1   90.97    4.07
   3  -5  -1  100.68    5.00
   3  -5  -1  106.85    5.02
  -3   5   1  102.23    4.68
  -3   5   1   98.62    5.87
  -3   5   1  105.87    4.70
   2  -5  -1   66.94    4.05
   2  -5  -1   69.86    4.05
  -2   5   1   62.44    3.77
  -2   5   1   59.63    3.68
  -2   5   1   62.93    4.20
   1  -5  -1  112.92    5.32
   1  -5  -1   98.86    4.92
  -1   5   1  112.61    5.28
  -1   5   1   97.36    4.94
  -1   5   1  100.95    4.84
   0  -5  -1    0.56    0.74
   0  -5  -1    0.34    0.58
   0   5   1   -0.42    0.55
   0   5   1    0.15    0.42
   0   5   1    0.03    0.58
  -1  -5  -1    1.38    0.94
  -1  -5  -1    0.65    0.65
   1   5   1    2.28    1.17
   1   5   1    2.12    1.09
  -2  -5  -1    0.64    0.96
  -2  -5  -1   -0.14    0.63
   2   5   1    0.71    0.91
   2   5   1    0.26    0.76
  -3  -5  -1   10.41    1.91
  -3  -5  -1    9.01    1.68
   3   5   1   12.30    2.34
   3   5   1    9.89    2.12
  -4  -5  -1    2.98    1.09
  -4  -5  -1    0.99    0.83
   4   5   1   -0.08    0.77
   4   5   1    2.16    1.14
   5   5   1   26.75    3.77
   5   5   1   17.62    2.91
   6   5   1   22.27    3.52
   6   5   1   21.66    3.30
   7   5   1   16.58    3.30
   7   5   1   23.12    3.62
   8   5   1    4.61    1.61
   8   5   1    4.22    2.03
   9   5   1   37.34    4.21
  11  -6  -1   -1.01    1.27
  11  -6  -1    0.15    1.59
  10  -6  -1   -1.02    0.99
  10  -6  -1    2.37    1.36
   9  -6  -1    5.93    1.71
   9  -6  -1    9.16    2.09
   8  -6  -1    2.13    1.03
   8  -6  -1   -0.21    0.81
   7  -6  -1   24.79    3.32
   7  -6  -1   19.00    2.84
  -7   6   1   17.67    3.96
   6  -6  -1   21.39    3.05
   6  -6  -1   24.05    2.66
  -6   6   1   22.05    4.25
  -6   6   1   15.37    1.39
  -6   6   1   22.56    1.34
   5  -6  -1   20.29    3.00
  -5   6   1   22.44    4.08
  -5   6   1   22.01    2.07
  -5   6   1   23.51    2.17
   4  -6  -1   28.22    2.91
  -4   6   1   21.73    2.36
  -4   6   1   20.96    4.23
  -4   6   1   20.52    2.21
   3  -6  -1  193.18    7.83
  -3   6   1  185.32    7.27
  -3   6   1  202.73    9.03
  -3   6   1  188.30    7.27
   2  -6  -1   61.94    4.29
  -2   6   1   60.63    4.38
  -2   6   1   58.72    4.04
  -2   6   1   61.65    4.08
   1  -6  -1   22.09    3.15
  -1   6   1   27.32    2.86
  -1   6   1   24.34    3.32
  -1   6   1   23.99    2.47
   0  -6  -1   23.30    3.71
   0  -6  -1   25.37    3.36
   0   6   1   27.25    2.94
   0   6   1   25.96    2.23
   0   6   1   27.95    2.92
  -1  -6  -1   12.88    2.51
  -1  -6  -1   14.90    2.55
   1   6   1   20.36    3.11
   1   6   1   15.32    2.80
  -2  -6  -1    1.34    1.04
  -2  -6  -1    4.05    1.46
   2   6   1    5.46    1.66
   2   6   1    1.39    1.22
  -3  -6  -1   24.22    2.67
  -3  -6  -1   24.53    3.52
   3   6   1   20.61    3.53
   3   6   1   21.15    3.34
  -4  -6  -1   -0.37    0.71
  -4  -6  -1    1.32    0.95
   4   6   1    0.62    0.93
   4   6   1   -0.73    0.91
  -5  -6  -1    3.59    1.17
  -5  -6  -1    1.92    0.95
   5   6   1    4.74    1.91
   5   6   1    2.21    1.21
   6   6   1   -0.32    1.30
   6   6   1    3.62    1.52
   7   6   1    3.75    1.86
   8   6   1   19.94    3.54
   9   6   1    9.58    3.39
  11  -7  -1    5.28    1.88
  10  -7  -1    1.10    1.55
   9  -7  -1    3.59    1.42
   9  -7  -1    3.67    1.51
   8  -7  -1    4.34    1.68
   7  -7  -1   16.86    2.82
   7  -7  -1   18.98    3.11
   6  -7  -1   56.11    4.40
   6  -7  -1   55.97    4.47
  -6   7   1   50.07    2.97
  -6   7   1   57.59    5.88
   5  -7  -1   49.24    4.13
   5  -7  -1   46.18    4.02
  -5   7   1   42.75    3.26
  -5   7   1   46.25    5.05
  -5   7   1   47.62    3.44
   4  -7  -1   53.02    4.29
   4  -7  -1   50.92    4.22
  -4   7   1   58.04    4.09
  -4   7   1   58.35    5.32
  -4   7   1   59.10    4.07
   3  -7  -1   35.11    3.52
   3  -7  -1   34.95    3.47
  -3   7   1   36.87    3.98
  -3   7   1   31.38    3.22
  -3   7   1   32.90    3.20
   2  -7  -1   -0.09    0.64
   2  -7  -1    2.65    1.22
  -2   7   1    0.98    0.92
  -2   7   1    0.93    0.86
  -2   7   1   -0.30    0.62
   1  -7  -1   11.34    2.34
   1  -7  -1   11.29    2.39
  -1   7   1   11.36    2.41
  -1   7   1   14.12    2.47
  -1   7   1   16.09    2.75
   0  -7  -1    3.06    1.36
   0  -7  -1    1.50    1.15
   0   7   1    1.89    0.86
   0   7   1    1.25    1.06
   0   7   1   -0.14    0.65
  -1  -7  -1   82.21    5.31
  -1  -7  -1   80.45    5.26
   1   7   1   84.58    5.71
   1   7   1   78.66    5.55
  -2  -7  -1   27.54    3.74
  -2  -7  -1   19.84    3.06
   2   7   1   23.55    3.74
  -3  -7  -1   10.04    2.34
   3   7   1    6.16    1.96
   3   7   1    1.30    1.65
  -4  -7  -1   10.86    2.19
  -4  -7  -1   14.84    2.58
   4   7   1   10.62    2.51
  -5  -7  -1    0.65    1.02
  -5  -7  -1   -2.52    1.02
   5   7   1    2.71    1.92
   5   7   1    0.92    1.15
   6   7   1   10.31    2.47
  11  -8  -1    4.12    1.80
  10  -8  -1    3.12    1.58
   9  -8  -1   -1.71    1.04
   9  -8  -1   -1.67    1.48
   8  -8  -1   25.63    3.86
   8  -8  -1   24.33    3.80
   7  -8  -1   26.51    3.99
   7  -8  -1   23.90    3.74
  -7   8   1   20.17    4.53
   6  -8  -1   31.49    4.32
   6  -8  -1   30.96    4.29
  -6   8   1   30.52    2.81
  -6   8   1   27.95    2.72
  -6   8   1   24.34    4.86
   5  -8  -1   25.24    3.94
   5  -8  -1   27.31    3.92
  -5   8   1   30.35    3.13
  -5   8   1   30.82    3.19
  -5   8   1   22.41    4.23
   4  -8  -1   41.84    4.18
   4  -8  -1   36.21    3.93
  -4   8   1   27.98    4.74
  -4   8   1   39.14    3.69
  -4   8   1   38.47    3.74
   3  -8  -1   42.15    4.11
   3  -8  -1   38.82    4.01
  -3   8   1   30.41    4.10
  -3   8   1   31.13    3.88
  -3   8   1   33.55    4.25
   2  -8  -1   16.19    3.14
   2  -8  -1   16.11    3.23
  -2   8   1   14.82    2.87
  -2   8   1   20.11    3.46
  -2   8   1   18.90    3.24
   1  -8  -1    9.50    2.44
   1  -8  -1   11.91    2.55
  -1   8   1   11.20    2.57
  -1   8   1   10.74    2.50
  -1   8   1    6.43    1.84
   0  -8  -1   41.39    4.20
   0  -8  -1   35.03    3.70
   0   8   1   43.87    4.39
   0   8   1   35.95    3.85
  -1  -8  -1   -1.50    1.09
  -1  -8  -1    0.13    1.21
   1   8   1    3.25    1.65
   1   8   1    0.74    1.39
  -2  -8  -1   33.00    4.25
  -2  -8  -1   28.39    4.06
   2   8   1   23.26    3.98
   2   8   1   27.90    4.37
  -3  -8  -1    8.10    2.45
   3   8   1    6.31    2.36
   3   8   1    6.78    2.47
  -4  -8  -1    3.87    1.87
  -4  -8  -1    4.02    1.61
   4   8   1    7.56    2.21
  -5  -8  -1   -0.15    1.73
  -5  -8  -1    3.51    1.48
   5   8   1    1.70    1.53
  -6  -8  -1   -0.34    1.02
   6   8   1    1.29    1.74
  10  -9  -1   32.90    5.10
   9  -9  -1   14.74    3.25
   8  -9  -1   12.27    2.98
   7  -9  -1   -0.35    1.43
  -7   9   1   -0.44    1.03
  -7   9   1    2.50    1.81
   6  -9  -1   11.96    3.10
   6  -9  -1   18.41    3.57
  -6   9   1   20.09    4.27
  -6   9   1   14.29    2.45
  -6   9   1   19.98    2.82
   5  -9  -1    8.80    2.62
   5  -9  -1    8.01    2.30
  -5   9   1    5.67    2.03
  -5   9   1    7.90    2.39
  -5   9   1    4.87    2.08
   4  -9  -1    3.36    1.52
   4  -9  -1    1.70    1.15
  -4   9   1    2.27    1.45
  -4   9   1    1.44    1.18
  -4   9   1    0.15    1.13
   3  -9  -1   28.25    4.26
   3  -9  -1   19.13    3.81
  -3   9   1   21.60    3.89
  -3   9   1   23.05    3.77
  -3   9   1   20.88    3.56
   2  -9  -1   -0.61    0.86
   2  -9  -1    0.03    0.97
  -2   9   1   -1.25    1.11
  -2   9   1    1.19    1.18
   1  -9  -1   -0.23    1.37
   1  -9  -1   -1.12    0.89
  -1   9   1    0.50    1.17
  -1   9   1   -1.02    1.16
   0  -9  -1    4.00    2.03
   0  -9  -1    2.69    1.83
   0   9   1   -3.00    1.59
   0   9   1    4.36    1.74
  -1  -9  -1    1.54    1.78
  -1  -9  -1    3.58    1.57
   1   9   1    5.72    2.45
   1   9   1    3.75    1.75
  -2  -9  -1   16.38    3.47
  -2  -9  -1   15.55    3.10
   2   9   1   20.27    3.97
  -3  -9  -1    3.81    1.80
  -3  -9  -1    7.13    2.76
   3   9   1    5.12    2.30
  -4  -9  -1   17.69    3.31
  -4  -9  -1   23.13    3.73
   4   9   1   31.26    5.07
  -5  -9  -1   26.35    4.42
   8 -10  -1   -0.53    1.43
  -7  10   1   -0.60    1.74
  -7  10   1   -0.86    1.14
   6 -10  -1    9.75    2.93
  -6  10   1   10.86    3.11
  -6  10   1   10.43    2.85
   5 -10  -1    6.07    2.04
  -5  10   1    5.65    1.95
  -5  10   1    2.54    1.95
   4 -10  -1    7.00    2.06
  -4  10   1    2.16    1.50
  -4  10   1    5.35    2.16
   3 -10  -1   -1.56    0.89
  -3  10   1   -0.69    1.70
  -3  10   1   -1.62    1.26
   2 -10  -1    9.75    2.83
  -2  10   1    7.44    2.43
   1 -10  -1    0.11    1.24
  -1  10   1    1.44    1.10
   0 -10  -1    9.64    2.49
   0  10   1    5.93    2.46
  -1 -10  -1   42.92    4.70
   2  10   1   -2.50    1.44
  -3 -10  -1   38.93    4.30
   3  10   1   28.21    5.90
  -4 -10  -1    1.82    2.06
  -7  11   1    3.66    2.55
   6 -11  -1    4.75    2.63
  -6  11   1    6.19    2.38
   5 -11  -1    9.70    2.74
  -5  11   1    8.50    4.07
  -5  11   1    6.63    2.26
   4 -11  -1   49.38    5.41
  -4  11   1   35.86    5.11
   3 -11  -1    8.06    3.10
  -3  11   1    2.43    1.91
   2 -11  -1   15.39    3.29
   1 -11  -1   15.49    3.41
  -1  11   1   14.87    3.69
   0 -11  -1    4.73    2.31
   0  11   1    2.16    1.29
  -1 -11  -1   20.46    3.93
  -3 -11  -1    0.50    1.89
  -6  12   1   18.40    4.22
  -5  12   1   -0.14    1.80
  -4  12   1    3.71    2.08
  -2 -12   2    9.39    3.44
   1  12  -2    3.16    2.43
  -1 -12   2    1.23    2.54
   0  12  -2    1.94    1.84
   0 -12   2    3.36    2.59
  -1  12  -2   -0.75    1.68
  -1  12  -2   -1.30    1.58
   1 -12   2    4.80    2.90
  -2  12  -2    2.76    1.93
  -2  12  -2    0.68    1.94
  -3  12  -2   -3.02    1.68
  -4  12  -2   46.79    7.55
  -5  12  -2   18.88    3.72
  -6  12  -2   -1.30    2.51
  -3 -11   2    2.58    2.39
   2  11  -2    2.37    1.61
   2  11  -2    0.81    0.89
  -2 -11   2   -0.64    1.44
   1  11  -2   13.71    2.65
   1  11  -2   20.84    4.17
  -1 -11   2   21.77    4.13
   0  11  -2    1.12    1.20
   0 -11   2    4.84    2.17
  -1  11  -2    7.22    2.42
  -1  11  -2    3.52    2.04
   1 -11   2    2.58    1.93
  -2  11  -2    3.51    1.60
  -2  11  -2    5.36    2.13
   2 -11   2    6.12    2.15
  -3  11  -2    5.92    2.24
  -3  11  -2    2.11    1.82
  -4  11  -2   27.12    5.23
  -4  11  -2   23.94    6.41
  -4  11  -2   18.48    3.51
   4 -11   2   24.19    4.24
  -5  11  -2    3.07    2.32
  -5  11  -2    2.96    1.99
   5 -11   2    5.34    2.05
  -6  11  -2    1.39    1.77
  -6  11  -2    3.38    2.71
  -7  11  -2   -0.12    1.86
  -5 -10   2   10.50    3.04
   4  10  -2   15.58    3.57
  -4 -10   2   13.93    4.03
   3  10  -2    8.37    3.09
  -3 -10   2   11.56    2.99
  -3 -10   2   11.88    2.73
   2  10  -2    3.88    1.31
   2  10  -2    4.65    1.93
  -2 -10   2    1.32    1.55
  -2 -10   2    4.53    2.20
   1  10  -2    6.24    2.07
   1  10  -2    3.38    1.40
  -1 -10   2    6.62    2.56
  -1 -10   2    0.70    1.61
   0  10  -2    8.35    2.44
   0  10  -2    6.03    2.55
   0  10  -2    5.89    2.03
   0 -10   2   10.04    2.42
   0 -10   2    8.44    2.68
  -1  10  -2   14.39    3.25
  -1  10  -2    8.37    2.39
  -1  10  -2    6.03    2.36
   1 -10   2    9.95    2.75
   1 -10   2   11.05    2.75
  -2  10  -2   18.30    3.58
  -2  10  -2   19.53    3.71
  -2  10  -2   17.68    3.78
   2 -10   2   15.71    3.28
   2 -10   2   17.56    3.38
  -3  10  -2   20.36    4.28
  -3  10  -2   16.93    3.56
  -3  10  -2   17.00    3.42
   3 -10   2   15.27    3.32
  -4  10  -2   -2.51    1.08
  -4  10  -2   -1.90    1.45
  -4  10  -2    1.12    1.52
   4 -10   2    0.58    1.14
  -5  10  -2    6.56    1.95
  -5  10  -2    9.43    2.40
  -5  10  -2   12.51    3.36
   5 -10   2   11.54    2.92
  -6  10  -2   14.86    2.99
  -6  10  -2   15.13    2.84
   6 -10   2   12.00    2.91
  -7  10  -2   -1.16    1.52
  -7  10  -2    0.57    1.22
   8 -10   2   11.99    3.22
   6   9  -2    1.54    1.43
  -6  -9   2    0.92    0.97
  -6  -9   2   -0.41    1.51
   5   9  -2   -1.14    1.23
  -5  -9   2    0.98    1.69
  -5  -9   2    0.24    1.20
   4   9  -2    4.31    1.98
  -4  -9   2    4.71    2.00
   3   9  -2    5.35    1.94
   3   9  -2    2.09    0.79
   3   9  -2    2.75    1.54
  -3  -9   2    1.08    1.63
  -3  -9   2    0.81    1.40
   2   9  -2    8.07    2.30
   2   9  -2    6.40    2.06
   2   9  -2    7.99    1.72
  -2  -9   2    6.24    2.07
  -2  -9   2    3.21    1.76
   1   9  -2    0.91    0.87
   1   9  -2   -1.56    0.84
  -1  -9   2   -0.15    0.89
  -1  -9   2    0.42    1.16
   0   9  -2    7.96    2.33
   0   9  -2    3.46    1.61
   0   9  -2    3.13    1.49
   0  -9   2    6.14    1.82
   0  -9   2    0.54    1.19
  -1   9  -2  105.18    6.76
  -1   9  -2   96.83    6.46
  -1   9  -2   94.86    6.47
   1  -9   2   94.43    6.24
   1  -9   2   99.14    6.63
  -2   9  -2   12.16    2.92
  -2   9  -2    7.66    2.43
  -2   9  -2    7.02    2.09
   2  -9   2    9.34    2.62
   2  -9   2    9.37    2.23
  -3   9  -2   33.00    4.55
  -3   9  -2   23.80    4.41
  -3   9  -2   28.74    4.12
   3  -9   2   19.13    3.58
   3  -9   2   29.15    4.16
  -4   9  -2   25.28    4.68
  -4   9  -2   35.35    3.58
  -4   9  -2   30.02    4.10
   4  -9   2   29.10    4.38
  -5   9  -2   13.41    2.57
  -5   9  -2    9.59    3.05
  -5   9  -2   12.15    2.44
   5  -9   2   10.55    2.72
   5  -9   2    9.66    2.57
  -6   9  -2   -0.53    0.96
  -6   9  -2   -1.88    1.33
   6  -9   2    3.38    1.34
   6  -9   2    0.50    1.18
  -7   9  -2   -0.48    0.89
  -7   9  -2   -1.92    1.26
   7  -9   2    1.11    1.33
   8  -9   2    0.21    1.29
  10  -9   2    5.50    2.15
   8   8  -2    2.08    2.12
   7   8  -2    1.50    1.52
   6   8  -2   -0.35    1.23
   5   8  -2    1.61    1.56
   5   8  -2    2.50    1.65
  -5  -8   2    1.45    1.39
  -5  -8   2    2.57    1.18
   4   8  -2    3.21    1.46
  -4  -8   2    3.00    1.22
   3   8  -2   41.05    4.12
   3   8  -2   40.68    4.19
  -3  -8   2   43.59    3.86
  -3  -8   2   31.80    3.35
   2   8  -2    6.69    2.04
   2   8  -2    5.47    1.83
  -2  -8   2    7.47    2.11
  -2  -8   2    4.56    1.74
   1   8  -2   90.03    5.99
  -1  -8   2   83.34    5.47
  -1  -8   2   92.53    5.84
   0   8  -2   20.39    3.26
   0   8  -2   16.74    3.06
   0  -8   2   18.65    3.15
   0  -8   2   17.73    3.05
  -1   8  -2   12.38    2.63
  -1   8  -2   10.64    2.47
  -1   8  -2   16.60    3.01
   1  -8   2   14.31    2.70
   1  -8   2   15.05    2.85
  -2   8  -2    1.79    1.44
  -2   8  -2    3.60    1.46
  -2   8  -2    2.63    1.43
   2  -8   2    3.48    1.49
   2  -8   2    3.35    1.42
  -3   8  -2   21.93    3.31
  -3   8  -2   26.28    4.33
  -3   8  -2   22.34    3.33
   3  -8   2   18.68    3.25
   3  -8   2   16.51    3.10
  -4   8  -2   -0.28    0.82
  -4   8  -2    0.15    1.14
  -4   8  -2   -1.38    0.95
   4  -8   2    0.38    1.02
  -5   8  -2    1.49    0.92
  -5   8  -2   -1.92    0.89
   5  -8   2    0.89    1.09
   5  -8   2    2.02    1.26
  -6   8  -2   19.58    2.20
  -6   8  -2   15.15    2.12
  -6   8  -2   15.58    3.71
   6  -8   2   17.53    3.03
   6  -8   2   16.27    3.17
   7  -8   2    9.08    2.24
   8  -8   2   -1.11    1.09
   8  -8   2    1.06    1.20
   9  -8   2    5.51    2.13
  10  -8   2   20.33    3.67
   9   7  -2   -3.61    1.55
   8   7  -2   10.48    2.29
   7   7  -2   -1.00    1.30
   7   7  -2   -0.19    1.65
   6   7  -2   -0.08    0.52
   6   7  -2    0.95    1.20
   6   7  -2   -1.92    1.26
   5   7  -2    6.86    2.05
   5   7  -2    8.98    1.44
   5   7  -2   10.98    2.58
  -5  -7   2    9.26    1.72
  -5  -7   2    5.93    1.47
   4   7  -2   -0.28    1.07
   4   7  -2    2.11    1.18
  -4  -7   2    0.19    0.89
  -4  -7   2    4.75    1.48
   3   7  -2   22.60    3.49
   3   7  -2   23.08    3.37
  -3  -7   2   22.05    3.02
   2   7  -2    2.56    1.51
   2   7  -2    2.15    1.22
  -2  -7   2    4.12    1.36
   1   7  -2   46.80    3.91
   1   7  -2   48.37    4.15
  -1  -7   2   51.11    3.93
  -1  -7   2   51.70    4.04
   0   7  -2    1.45    0.97
   0   7  -2    0.89    1.01
   0  -7   2    1.23    1.01
   0  -7   2   -0.25    0.73
  -1   7  -2   63.61    4.39
  -1   7  -2   56.69    4.27
   1  -7   2   53.83    4.26
   1  -7   2   51.88    3.95
  -2   7  -2   80.31    4.97
  -2   7  -2   86.03    5.81
  -2   7  -2   77.24    4.86
   2  -7   2   82.29    5.24
   2  -7   2   79.21    5.03
  -3   7  -2   38.95    4.14
  -3   7  -2   47.40    3.71
  -3   7  -2   34.28    3.99
   3  -7   2   41.26    3.61
   3  -7   2   50.85    4.12
  -4   7  -2   -0.07    0.77
  -4   7  -2    0.78    0.70
  -4   7  -2    2.07    1.07
   4  -7   2    1.38    1.12
   4  -7   2   -1.11    0.93
  -5   7  -2   -0.43    0.67
  -5   7  -2   -1.41    0.53
  -5   7  -2   -0.12    0.87
   5  -7   2    0.15    0.89
   5  -7   2   -0.23    0.87
  -6   7  -2   23.74    4.60
   6  -7   2   24.80    3.59
   6  -7   2   23.29    3.45
  -7   7  -2    3.67    2.16
   7  -7   2    9.56    2.56
   7  -7   2    8.33    2.19
   8  -7   2   -1.47    1.19
   8  -7   2    2.66    1.45
   9  -7   2    2.52    1.54
   9  -7   2    2.73    2.08
  10  -7   2    1.64    1.39
  11  -7   2    1.88    1.82
  10   6  -2    0.35    1.93
   9   6  -2    7.85    2.00
   8   6  -2    4.48    1.43
   7   6  -2    1.40    1.34
   7   6  -2    6.54    1.86
   6   6  -2    3.05    1.30
   6   6  -2    2.30    1.29
   6   6  -2    4.74    1.72
   5   6  -2   90.49    5.57
   5   6  -2   91.41    5.61
   4   6  -2   11.63    2.42
   4   6  -2   10.17    2.14
  -4  -6   2   10.61    1.78
   3   6  -2    7.53    1.96
   3   6  -2    9.64    2.08
  -3  -6   2    7.63    1.67
  -3  -6   2   10.02    1.94
   2   6  -2    1.96    1.05
  -2  -6   2    1.48    0.99
  -2  -6   2    0.02    0.80
   1   6  -2   64.52    4.32
   1   6  -2   68.77    4.36
  -1  -6   2   59.89    4.00
  -1  -6   2   65.60    4.08
   0   6  -2   15.70    2.53
   0   6  -2   13.19    2.32
   0  -6   2   11.91    2.14
   0  -6   2   12.20    2.20
  -1   6  -2   12.67    2.27
  -1   6  -2    9.78    2.00
   1  -6   2    9.83    1.94
   1  -6   2   10.06    2.08
  -2   6  -2   22.95    2.51
  -2   6  -2   26.94    2.66
   2  -6   2   21.60    2.94
   2  -6   2   25.60    2.76
  -3   6  -2   73.89    4.28
  -3   6  -2   76.10    5.54
  -3   6  -2   75.94    4.31
   3  -6   2   81.27    4.68
   3  -6   2   80.09    4.78
  -4   6  -2    0.85    1.01
  -4   6  -2   -0.63    0.49
  -4   6  -2    0.52    0.78
   4  -6   2   -1.24    0.63
   4  -6   2   -0.42    0.58
  -5   6  -2    2.18    0.96
  -5   6  -2    2.65    0.94
  -5   6  -2    4.42    1.96
   5  -6   2    3.14    1.31
   5  -6   2    1.55    1.14
  -6   6  -2   54.55    5.78
   6  -6   2   51.92    3.92
   6  -6   2   61.94    4.39
  -7   6  -2   35.96    5.85
   7  -6   2   48.35    4.05
   7  -6   2   42.62    3.63
  -8   6  -2   54.55    6.50
   8  -6   2   60.87    4.47
   8  -6   2   57.35    4.57
   9  -6   2   32.78    3.64
  10  -6   2    2.45    1.50
  11  -6   2    1.94    1.91
  10   5  -2    0.21    1.29
  10   5  -2    1.46    2.18
   9   5  -2    4.21    1.67
   8   5  -2   10.26    2.13
   8   5  -2   18.56    2.95
   8   5  -2    9.37    2.21
   7   5  -2   22.42    3.19
   7   5  -2   20.70    2.59
   7   5  -2   19.84    3.08
   6   5  -2    7.66    1.96
   6   5  -2    6.13    1.64
   6   5  -2    6.80    1.63
   5   5  -2    6.01    1.62
   5   5  -2    7.21    1.75
  -5  -5   2    3.87    0.67
   4   5  -2   13.78    2.29
   4   5  -2   12.06    2.13
  -4  -5   2   12.57    1.72
   3   5  -2   27.99    2.73
   3   5  -2   34.00    2.92
  -3  -5   2   32.14    2.43
  -3  -5   2   32.88    2.52
   2   5  -2    0.11    0.53
   2   5  -2    0.17    0.62
  -2  -5   2    0.32    0.66
  -2  -5   2    0.32    0.51
   1   5  -2   43.28    3.21
   1   5  -2   46.75    3.30
  -1  -5   2   46.21    3.19
  -1  -5   2   41.63    2.93
   0   5  -2    6.57    1.57
   0   5  -2    3.98    1.16
   0  -5   2    4.20    1.27
   0  -5   2    8.09    1.61
  -1   5  -2    1.10    0.82
  -1   5  -2    1.21    0.84
   1  -5   2    1.13    0.88
   1  -5   2    1.27    0.79
  -2   5  -2  104.31    4.86
  -2   5  -2  110.54    4.89
   2  -5   2  116.35    5.33
   2  -5   2  117.01    5.18
  -3   5  -2   21.50    2.15
  -3   5  -2   26.93    3.06
  -3   5  -2   23.62    2.15
   3  -5   2   23.72    2.37
   3  -5   2   23.10    2.43
  -4   5  -2   17.09    1.69
  -4   5  -2   16.01    3.07
  -4   5  -2   15.18    2.00
   4  -5   2   12.97    2.14
   4  -5   2   15.14    2.37
  -5   5  -2   34.36    2.12
  -5   5  -2   26.26    4.20
  -5   5  -2   34.74    2.09
   5  -5   2   35.97    3.10
   5  -5   2   36.19    2.92
  -6   5  -2   45.63    5.00
   6  -5   2   49.10    3.57
   6  -5   2   47.49    3.58
  -7   5  -2    5.10    2.31
   7  -5   2    3.34    1.37
  -8   5  -2   21.50    4.67
   8  -5   2   10.62    2.31
   8  -5   2   12.48    2.41
   9  -5   2   -0.80    0.97
   9  -5   2   -0.58    1.00
  10  -5   2   33.59    3.77
  11  -5   2    8.02    2.01
  11   4  -2    0.77    1.69
  10   4  -2    1.26    1.35
  10   4  -2    3.63    1.77
   9   4  -2    1.79    1.19
   8   4  -2    7.34    1.88
   8   4  -2    7.51    1.87
   8   4  -2   12.93    2.65
   7   4  -2    5.36    1.68
   7   4  -2    6.71    1.60
   7   4  -2    4.01    1.42
   6   4  -2    6.02    1.48
   6   4  -2    7.06    1.56
   6   4  -2    3.55    1.48
   5   4  -2  145.80    5.84
   5   4  -2  150.41    5.87
   4   4  -2   20.11    2.04
   4   4  -2   22.38    2.17
  -4  -4   2   19.72    1.45
  -4  -4   2   21.95    1.50
   3   4  -2    7.52    1.48
   3   4  -2    7.39    1.48
  -3  -4   2    8.92    1.37
  -3  -4   2   10.26    1.52
   2   4  -2   31.02    2.40
   2   4  -2   29.01    2.36
  -2  -4   2   31.26    2.21
   1   4  -2   77.90    3.88
   1   4  -2   79.96    3.89
  -1  -4   2   78.34    3.67
  -1  -4   2   76.66    3.69
   0   4  -2    0.46    0.55
   0   4  -2    1.46    0.74
   0  -4   2    0.88    0.77
   0  -4   2    1.50    0.85
  -1   4  -2   25.12    2.09
  -1   4  -2   25.51    2.21
   1  -4   2   26.57    2.17
   1  -4   2   26.14    2.27
  -2   4  -2    4.15    1.27
  -2   4  -2    3.43    1.04
   2  -4   2    2.35    0.88
   2  -4   2    2.92    1.04
  -3   4  -2   39.28    2.44
  -3   4  -2   35.13    2.37
  -3   4  -2   41.60    3.67
   3  -4   2   39.00    2.80
   3  -4   2   38.08    2.69
  -4   4  -2    7.12    2.02
  -4   4  -2    6.76    1.14
  -4   4  -2    7.90    1.24
   4  -4   2    9.14    1.63
   4  -4   2    9.55    1.73
  -5   4  -2   27.90    1.09
  -5   4  -2   27.15    3.47
   5  -4   2   29.00    2.42
   5  -4   2   28.60    2.52
  -6   4  -2   49.24    5.10
   6  -4   2   42.24    3.21
   6  -4   2   41.19    2.93
  -7   4  -2    3.91    1.99
   7  -4   2    3.59    1.15
   7  -4   2    5.26    1.48
  -8   4  -2   11.76    3.34
   8  -4   2   12.72    2.39
   8  -4   2    6.34    1.94
  -9   4  -2   23.01    4.75
   9  -4   2   26.28    2.81
   9  -4   2   21.77    3.16
  10  -4   2    2.41    1.40
  11  -4   2   30.00    4.00
  11   3  -2   -1.05    1.01
  10   3  -2    3.44    1.21
  10   3  -2    3.87    1.28
   9   3  -2   13.72    2.37
   9   3  -2   16.74    3.36
   9   3  -2   20.70    2.14
   8   3  -2    3.12    1.15
   8   3  -2    4.45    1.30
   8   3  -2    3.21    1.51
   7   3  -2   26.30    2.30
   7   3  -2   25.50    2.25
   7   3  -2   24.59    3.12
   6   3  -2  231.41    7.01
   6   3  -2  224.63    6.91
   6   3  -2  236.54    9.12
   5   3  -2   11.24    1.62
   4   3  -2    1.35    0.62
   4   3  -2    1.16    0.62
   3   3  -2   -0.09    0.38
   3   3  -2    0.56    0.53
  -3  -3   2   -0.16    0.35
  -3  -3   2    0.52    0.45
   2   3  -2   15.52    1.51
   2   3  -2   16.73    1.61
  -2  -3   2   17.49    1.45
  -2  -3   2   16.33    1.45
   1   3  -2  113.68    4.07
   1   3  -2  104.37    4.01
  -1  -3   2  105.42    3.93
  -1  -3   2  107.74    3.84
   0   3  -2    0.31    0.49
   0   3  -2    0.18    0.43
   0  -3   2    0.20    0.43
   0  -3   2    0.19    0.49
  -1   3  -2   11.15    1.54
  -1   3  -2   11.79    1.58
   1  -3   2   13.22    1.44
   1  -3   2   12.24    1.65
  -2   3  -2    1.19    0.62
  -2   3  -2    0.21    0.58
   2  -3   2    1.81    0.76
   2  -3   2    1.91    0.82
  -3   3  -2   24.53    1.68
  -3   3  -2   26.67    2.81
  -3   3  -2   22.58    1.67
   3  -3   2   26.53    2.13
   3  -3   2   23.66    1.91
  -4   3  -2   37.11    1.69
  -4   3  -2   42.31    3.74
  -4   3  -2   28.88    1.79
   4  -3   2   32.21    2.76
   4  -3   2   34.27    2.35
  -5   3  -2   25.79    3.29
   5  -3   2   24.03    2.01
   5  -3   2   22.92    2.05
  -6   3  -2   67.53    5.73
   6  -3   2   74.64    3.72
   6  -3   2   67.96    3.74
  -7   3  -2   17.12    3.69
   7  -3   2   20.28    2.04
   7  -3   2   18.85    2.13
  -8   3  -2  154.38   10.00
   8  -3   2  163.47    6.40
   8  -3   2  162.12    6.53
   9  -3   2   11.27    2.38
   9  -3   2    7.72    1.80
  10  -3   2    2.22    1.14
  10  -3   2   -1.76    0.97
  11   2  -2   -1.20    1.00
  10   2  -2    7.63    1.76
  10   2  -2   13.12    2.08
   9   2  -2    5.84    1.25
   9   2  -2    5.28    2.11
   9   2  -2    6.76    1.41
   8   2  -2   33.88    3.92
   8   2  -2   35.82    2.44
   7   2  -2   56.57    4.77
   7   2  -2   55.24    2.81
   7   2  -2   58.15    2.86
   6   2  -2   65.78    2.83
   6   2  -2   64.71    2.81
   6   2  -2   60.93    4.55
   5   2  -2   15.83    1.29
   5   2  -2   15.16    1.28
   5   2  -2   18.88    2.80
   4   2  -2    1.33    0.52
   4   2  -2    0.45    0.38
   3   2  -2    9.65    1.01
   3   2  -2   12.00    1.09
   2   2  -2   31.40    1.76
   2   2  -2   31.50    1.75
  -2  -2   2   30.03    1.54
  -2  -2   2   30.49    1.52
   1   2  -2    5.04    0.95
   1   2  -2    4.78    0.92
  -1  -2   2    5.57    0.98
  -1  -2   2    4.63    0.84
   0  -2   2  527.27   10.58
  -1   2  -2    0.66    0.61
  -1   2  -2    0.97    0.67
   1  -2   2    1.55    0.75
   1  -2   2    0.45    0.58
  -2   2  -2   64.11    2.53
  -2   2  -2   64.09    2.63
   2  -2   2   68.02    2.83
   2  -2   2   61.54    2.82
  -3   2  -2   60.35    2.29
  -3   2  -2   69.43    4.14
   3  -2   2   60.71    2.76
   3  -2   2   62.40    2.91
  -4   2  -2   27.10    2.86
   4  -2   2   28.99    1.98
   4  -2   2   26.95    2.00
  -5   2  -2  123.32    6.92
   5  -2   2  128.84    4.60
   5  -2   2  126.13    4.72
   6  -2   2   14.75    1.66
   6  -2   2   12.85    1.92
  -7   2  -2   57.40    5.36
   7  -2   2   56.57    3.45
   7  -2   2   53.08    3.26
   8  -2   2   30.31    2.63
   8  -2   2   26.72    2.58
   9  -2   2    2.55    1.12
  10  -2   2    8.40    2.16
  10  -2   2    7.92    2.07
  11  -2   2    8.93    2.42
  11   1  -2   10.49    1.76
  11   1  -2   10.42    1.65
  10   1  -2   14.68    1.59
  10   1  -2   11.67    2.00
   9   1  -2   37.22    4.53
   9   1  -2   43.25    2.36
   9   1  -2   42.97    2.42
   8   1  -2    9.49    2.62
   8   1  -2   12.08    1.17
   8   1  -2    8.68    1.17
   7   1  -2    2.00    1.10
   6   1  -2   24.80    2.99
   6   1  -2   23.45    1.12
   5   1  -2   -0.17    0.51
   5   1  -2    0.22    0.17
   4   1  -2   79.02    1.80
   3   1  -2  111.71    2.47
   3   1  -2  113.03    2.52
   2   1  -2   47.52    1.62
   2   1  -2   48.51    1.66
  -2  -1   2   47.16    1.13
   1   1  -2   18.60    1.14
   1   1  -2   18.30    1.18
  -1  -1   2   18.50    1.14
  -1  -1   2   19.29    1.11
   0   1  -2   11.56    1.06
   0   1  -2   12.39    1.04
   0  -1   2   12.41    1.13
   0  -1   2   11.11    1.04
  -1   1  -2  256.11    6.62
  -1   1  -2  264.85    5.82
   1  -1   2  252.59    5.95
   1  -1   2  259.34    6.02
  -2   1  -2    0.46    0.45
  -2   1  -2    0.31    0.50
   2  -1   2    0.39    0.48
   2  -1   2   -0.02    0.45
  -3   1  -2   17.08    1.08
  -3   1  -2   14.76    1.88
  -3   1  -2   16.09    1.00
   3  -1   2   16.64    1.47
   3  -1   2   18.72    1.49
  -4   1  -2  121.91    5.92
   4  -1   2  114.88    4.06
   4  -1   2  118.38    4.23
  -5   1  -2   12.44    2.48
   5  -1   2    9.33    1.47
   5  -1   2   11.64    1.60
  -6   1  -2   12.70    2.72
   6  -1   2   15.00    2.04
   6  -1   2   13.00    1.81
  -7   1  -2    2.86    1.67
   7  -1   2    2.68    1.08
   7  -1   2    3.81    1.14
   8  -1   2    1.66    1.04
   8  -1   2    2.21    0.87
   9  -1   2   -1.06    0.80
  10  -1   2   11.19    2.12
  10  -1   2    8.86    2.00
  11   0  -2   -0.20    0.59
  11   0  -2   -1.04    0.62
  10   0  -2   29.39    1.86
   9   0  -2   -0.26    0.34
   9   0  -2   -0.13    1.08
   9   0  -2    0.41    0.39
   8   0  -2    7.03    2.22
   8   0  -2    7.29    0.66
   8   0  -2    8.43    0.71
   7   0  -2    5.66    1.99
   6   0  -2    9.40    2.32
   5   0  -2   51.64    4.07
   2   0  -2  315.94    5.60
   2   0  -2  300.11    5.51
   1   0  -2   70.02    2.26
   1   0  -2   69.55    2.20
  -1   0   2   70.39    2.18
   0   0  -2  261.84    5.80
   0   0  -2  262.04    5.69
   0   0   2  265.53    5.73
   0   0   2  251.77    5.77
  -1   0  -2  130.01    3.66
   1   0   2  133.89    3.96
   1   0   2  127.56    3.75
  -2   0  -2    0.33    0.45
   2   0   2    0.01    0.43
   2   0   2    0.30    0.47
  -3   0  -2    5.72    0.75
  -3   0  -2    6.10    0.84
  -3   0  -2    6.24    1.31
   3   0   2    8.47    1.31
   3   0   2    6.34    1.10
  -4   0  -2    3.40    1.18
   4   0   2    3.89    0.94
   4   0   2    3.29    0.94
  -5   0  -2    0.45    0.85
   5   0   2    0.58    0.55
   6   0   2    4.27    1.22
   6   0   2    3.72    1.15
   7   0   2   13.00    2.10
   7   0   2   12.65    2.06
   8   0   2   21.97    2.35
   8   0   2   17.14    2.54
   9   0   2   -0.63    1.01
   9   0   2    4.54    1.42
  10   0   2    9.80    2.23
  11   0   2    8.60    2.37
  11  -1  -2   12.48    1.27
  10  -1  -2    9.19    0.98
  10  -1  -2   10.03    1.09
   9  -1  -2    1.69    0.51
   9  -1  -2    3.18    1.97
   8  -1  -2  126.69    3.02
   8  -1  -2  144.64    8.76
   8  -1  -2  128.70    2.95
   7  -1  -2   13.62    3.08
   6  -1  -2   10.21    2.50
   5  -1  -2    1.37    1.12
   4  -1  -2   49.53    3.76
   3  -1  -2  297.04    9.20
   3  -1  -2  321.60    5.97
   3  -1  -2  319.38    5.93
   2  -1  -2   85.72    2.64
   2  -1  -2   89.18    2.72
  -2   1   2   89.06    2.43
  -2   1   2   83.10    2.37
   1  -1  -2   -0.30    0.48
   1  -1  -2   -0.11    0.46
  -1   1   2    0.21    0.50
  -1   1   2   -0.20    0.44
   0  -1  -2  492.96   10.06
   0  -1  -2  495.66    9.97
   0   1   2  495.80   10.04
   0   1   2  497.45   10.16
  -1  -1  -2   63.53    2.69
  -1  -1  -2   61.20    2.72
   1   1   2   65.27    2.85
  -2  -1  -2   -0.26    0.37
  -2  -1  -2   -0.13    0.30
  -2  -1  -2   -0.40    0.42
   2   1   2    0.22    0.50
   2   1   2    0.20    0.56
  -3  -1  -2    2.26    0.63
  -3  -1  -2    2.56    0.67
  -3  -1  -2    1.84    0.73
   3   1   2    2.11    0.75
   3   1   2    1.41    0.63
  -4  -1  -2   91.85    2.41
  -4  -1  -2   89.18    4.44
  -4  -1  -2   90.67    2.41
   4   1   2   96.59    4.94
   4   1   2   93.10    4.00
   5   1   2   18.08    1.95
   5   1   2   13.13    1.95
   6   1   2    2.12    0.88
   6   1   2    1.91    0.84
   7   1   2    6.94    1.70
   8   1   2   14.20    2.48
   9   1   2    5.75    1.76
   9   1   2    1.19    1.03
  10   1   2    8.15    2.07
  10   1   2    5.41    2.45
  11   1   2   22.82    4.55
  11  -2  -2    2.24    0.70
  11  -2  -2    0.45    0.71
  10  -2  -2    2.67    0.78
  10  -2  -2    3.80    0.88
   9  -2  -2   -2.01    0.93
   9  -2  -2   -0.28    0.52
   9  -2  -2   -0.08    0.45
   8  -2  -2    1.83    0.55
   8  -2  -2    3.63    1.83
   8  -2  -2    2.01    0.60
   7  -2  -2    4.33    0.75
   7  -2  -2    5.64    2.09
   6  -2  -2   29.34    3.57
   6  -2  -2   27.93    1.44
   5  -2  -2   26.84    1.46
   5  -2  -2   32.20    3.47
   4  -2  -2  281.99    6.38
   4  -2  -2  276.10    6.25
   4  -2  -2  278.09    9.84
   3  -2  -2  177.17    7.01
   3  -2  -2  199.08    5.09
   3  -2  -2  189.73    5.02
  -3   2   2  188.88    4.21
  -3   2   2  184.09    4.16
   2  -2  -2  220.60    5.88
   2  -2  -2  218.55    5.78
   2  -2  -2  245.23    7.35
  -2   2   2  220.86    5.60
  -2   2   2  224.03    5.70
   1  -2  -2  435.87    9.40
   1  -2  -2  425.12    9.46
   1  -2  -2  393.55    9.32
  -1   2   2  434.26    9.32
  -1   2   2  412.33    9.34
   0  -2  -2    6.58    1.24
   0  -2  -2    5.99    0.73
   0  -2  -2    6.18    1.20
   0   2   2    6.45    1.22
   0   2   2    4.69    1.03
  -1  -2  -2  354.58    8.58
  -1  -2  -2  346.09    8.44
   1   2   2  350.16    8.74
   1   2   2  340.61    8.69
  -2  -2  -2    2.08    0.77
  -2  -2  -2    2.19    0.82
   2   2   2    1.68    0.79
  -3  -2  -2    2.47    0.76
  -3  -2  -2    1.65    0.62
   3   2   2    0.95    0.67
   3   2   2    2.13    0.91
  -4  -2  -2   10.17    1.08
  -4  -2  -2    9.58    1.04
   4   2   2    5.90    1.32
   4   2   2   11.38    1.89
   5   2   2   38.38    2.95
   5   2   2   36.66    2.98
   6   2   2   -0.67    0.58
   6   2   2    1.15    0.87
   7   2   2   66.03    4.46
   7   2   2   64.84    4.32
   8   2   2    1.07    1.26
   8   2   2    6.39    1.72
   9   2   2   11.05    2.54
  10   2   2   33.29    4.49
  10   2   2   28.53    4.15
  11  -3  -2   16.60    1.68
  11  -3  -2   16.21    1.78
  10  -3  -2    3.16    0.93
  10  -3  -2    1.77    0.79
   9  -3  -2   17.46    1.59
   9  -3  -2   16.88    1.61
   8  -3  -2    5.93    2.18
   8  -3  -2    4.48    0.98
   8  -3  -2    2.68    0.91
   7  -3  -2   27.09    1.91
   7  -3  -2   23.56    1.85
   7  -3  -2   30.21    4.80
   6  -3  -2   48.24    2.57
   6  -3  -2   53.91    4.93
   6  -3  -2   52.76    2.69
   5  -3  -2   76.52    3.27
   5  -3  -2   80.66    5.55
   5  -3  -2   69.70    3.14
   4  -3  -2   16.32    2.71
   4  -3  -2   15.23    1.51
   4  -3  -2   18.97    1.68
  -4   3   2   15.66    0.99
  -4   3   2   16.69    1.01
   3  -3  -2   82.50    3.60
   3  -3  -2   85.60    4.80
   3  -3  -2   88.45    3.72
  -3   3   2   81.41    3.20
  -3   3   2   78.09    3.22
   2  -3  -2   28.29    2.18
   2  -3  -2   26.77    2.06
   2  -3  -2   26.05    2.39
  -2   3   2   25.92    2.02
  -2   3   2   27.10    2.05
   1  -3  -2    3.29    1.07
   1  -3  -2    2.90    0.89
  -1   3   2    5.33    1.44
  -1   3   2    5.32    1.21
   0  -3  -2   15.41    2.06
   0  -3  -2   19.14    1.91
   0   3   2   19.08    1.84
   0   3   2   20.37    1.95
  -1  -3  -2  124.99    5.02
  -1  -3  -2  134.80    5.14
   1   3   2  125.64    5.20
   1   3   2  133.00    5.23
  -2  -3  -2    4.85    1.20
  -2  -3  -2    3.83    1.10
   2   3   2    3.64    1.15
   2   3   2    4.39    1.25
  -3  -3  -2  161.43    5.54
  -3  -3  -2  170.70    5.69
   3   3   2  167.28    6.54
   3   3   2  164.82    6.42
  -4  -3  -2    2.11    0.77
  -4  -3  -2    1.31    0.76
   4   3   2    2.56    1.11
   4   3   2    3.19    1.25
  -5  -3  -2   43.56    1.74
   5   3   2   42.33    3.40
   5   3   2   49.72    3.72
   6   3   2    4.09    1.49
   6   3   2    0.65    0.94
   7   3   2   55.46    4.38
   7   3   2   49.42    4.04
   8   3   2    5.45    1.82
   9   3   2    7.15    2.01
   9   3   2    3.95    1.98
  10   3   2    0.60    1.42
  11  -4  -2    2.42    0.95
  11  -4  -2   -1.36    0.94
  10  -4  -2   -1.12    0.63
  10  -4  -2    2.44    0.96
   9  -4  -2    0.16    0.58
   8  -4  -2    1.78    0.94
   8  -4  -2    1.36    0.67
   7  -4  -2    4.29    1.12
   7  -4  -2    3.11    1.69
   7  -4  -2    3.71    1.15
   6  -4  -2   88.21    6.46
   6  -4  -2   86.16    4.09
   6  -4  -2   86.28    4.14
   5  -4  -2  150.07    5.65
   5  -4  -2  149.07    5.56
   5  -4  -2  148.97    7.93
   4  -4  -2   42.14    3.87
   4  -4  -2   37.50    2.69
   4  -4  -2   39.14    2.80
  -4   4   2   39.89    3.85
  -4   4   2   42.55    2.41
  -4   4   2   40.50    2.32
   3  -4  -2   53.74    3.28
   3  -4  -2   53.80    3.30
   3  -4  -2   56.08    4.04
  -3   4   2   55.23    3.69
  -3   4   2   50.46    2.95
  -3   4   2   56.44    4.16
   2  -4  -2    3.30    1.02
   2  -4  -2    2.70    1.06
   2  -4  -2    1.62    0.91
  -2   4   2    2.86    1.12
  -2   4   2    2.59    1.06
  -2   4   2    2.89    0.99
   1  -4  -2   21.65    2.25
   1  -4  -2   19.56    2.11
  -1   4   2   21.00    2.12
  -1   4   2   23.97    2.22
   0  -4  -2   70.39    3.99
   0  -4  -2   72.23    4.00
   0   4   2   73.36    4.13
   0   4   2   75.74    4.10
  -1  -4  -2   39.37    2.99
  -1  -4  -2   41.67    3.05
   1   4   2   38.68    3.11
   1   4   2   43.19    3.25
  -2  -4  -2   19.11    2.10
  -2  -4  -2   22.86    2.29
   2   4   2   23.17    2.53
   2   4   2   23.68    2.48
  -3  -4  -2   14.38    2.19
  -3  -4  -2   16.06    2.24
   3   4   2   16.34    2.60
   3   4   2   14.18    2.40
  -4  -4  -2   18.59    1.99
  -4  -4  -2   20.81    2.05
   4   4   2   18.32    2.97
   4   4   2   19.96    2.92
  -5  -4  -2    4.01    0.90
  -5  -4  -2    3.52    0.79
   5   4   2    5.10    1.52
   5   4   2    1.54    1.35
   6   4   2   12.05    2.60
   6   4   2   11.60    2.49
   7   4   2   28.69    4.02
   7   4   2   32.09    4.31
   8   4   2   13.66    2.90
   8   4   2    5.36    2.41
   9   4   2    4.12    2.11
  10   4   2    1.83    2.11
  11  -5  -2    6.86    1.82
  11  -5  -2    3.73    1.69
  10  -5  -2    2.29    1.11
  10  -5  -2   -0.04    0.92
   9  -5  -2   38.52    3.25
   8  -5  -2   14.23    2.34
   8  -5  -2   10.68    2.04
   7  -5  -2   49.66    3.55
   7  -5  -2   57.85    3.79
   6  -5  -2    0.93    0.65
   6  -5  -2   -0.40    0.64
   5  -5  -2   92.17    4.87
   5  -5  -2  101.52    4.99
  -5   5   2   90.21    6.52
   4  -5  -2   22.59    2.38
   4  -5  -2   21.63    2.34
  -4   5   2   22.30    2.11
  -4   5   2   22.63    2.12
  -4   5   2   22.61    3.69
   3  -5  -2   40.70    3.21
   3  -5  -2   49.80    3.51
  -3   5   2   48.04    3.23
  -3   5   2   39.70    3.70
  -3   5   2   45.15    3.18
   2  -5  -2   23.98    2.48
   2  -5  -2   24.40    2.47
  -2   5   2   23.63    2.38
  -2   5   2   24.85    2.44
  -2   5   2   22.98    2.56
   1  -5  -2   95.25    5.03
   1  -5  -2   92.37    4.92
  -1   5   2   98.65    5.15
  -1   5   2   82.62    4.71
   0  -5  -2   74.67    4.41
   0  -5  -2   76.90    4.53
   0   5   2   77.32    4.57
   0   5   2   81.00    4.83
  -1  -5  -2   54.90    3.76
  -1  -5  -2   55.88    3.92
   1   5   2   47.18    3.82
   1   5   2   47.90    4.36
  -2  -5  -2   24.40    2.58
   2   5   2   20.89    3.16
   2   5   2   30.01    3.06
  -3  -5  -2   64.10    4.08
  -3  -5  -2   65.56    4.15
   3   5   2   65.49    4.65
   3   5   2   68.44    4.84
  -4  -5  -2   18.52    2.55
  -4  -5  -2   18.45    2.47
   4   5   2   15.95    2.91
   4   5   2   20.35    3.37
  -5  -5  -2   21.87    2.09
   5   5   2   24.07    4.17
   5   5   2   21.65    3.42
   6   5   2    3.24    1.50
   6   5   2    2.20    1.34
   7   5   2   -0.35    1.37
   7   5   2    1.19    1.15
   8   5   2   11.38    2.48
   9   5   2    3.38    1.37
  11  -6  -2   15.24    2.72
  10  -6  -2    2.02    1.23
  10  -6  -2   -0.03    1.15
   9  -6  -2   17.17    2.55
   9  -6  -2   16.62    2.85
   8  -6  -2    3.36    1.27
   8  -6  -2    2.33    1.45
   7  -6  -2   15.30    2.58
   7  -6  -2   12.16    2.42
   6  -6  -2    7.40    1.82
   6  -6  -2    6.19    1.73
  -6   6   2    4.11    0.83
  -6   6   2    3.12    0.78
   5  -6  -2   11.26    2.14
   5  -6  -2    9.90    2.20
  -5   6   2   15.63    2.12
  -5   6   2   10.78    1.87
  -5   6   2    8.42    2.56
   4  -6  -2   10.84    2.21
   4  -6  -2   10.80    2.23
  -4   6   2   15.16    2.30
  -4   6   2   10.85    2.76
  -4   6   2   10.28    1.94
   3  -6  -2    0.23    0.79
   3  -6  -2    1.31    1.00
  -3   6   2   -0.31    0.76
  -3   6   2    1.25    0.92
  -3   6   2   -0.85    0.65
   2  -6  -2   -0.46    0.62
   2  -6  -2   -0.28    0.85
  -2   6   2    0.36    1.00
  -2   6   2    0.03    0.55
   1  -6  -2  106.69    5.74
   1  -6  -2  115.74    6.04
  -1   6   2  104.73    5.87
  -1   6   2  100.27    5.72
   0  -6  -2  106.47    5.80
   0  -6  -2   98.18    5.62
   0   6   2   97.96    5.80
   0   6   2  108.46    6.10
  -1  -6  -2   -0.02    0.51
  -1  -6  -2   -0.79    0.73
   1   6   2    0.91    0.93
  -2  -6  -2  192.06    8.03
   2   6   2  200.51    8.95
   2   6   2  186.63    8.53
  -3  -6  -2    7.46    1.98
  -3  -6  -2    7.69    1.90
   3   6   2    5.70    2.01
   3   6   2    7.34    2.32
  -4  -6  -2   10.53    2.04
   4   6   2   12.88    2.78
   4   6   2   12.73    2.76
  -5  -6  -2    7.43    1.61
  -5  -6  -2    9.61    1.75
   5   6   2    8.10    2.75
   5   6   2    7.29    2.22
   6   6   2   11.92    2.89
   6   6   2   18.43    3.50
   7   6   2    0.38    1.54
   8   6   2   -3.67    1.64
  11  -7  -2    7.83    1.97
  11  -7  -2    6.87    2.55
  10  -7  -2   -2.13    1.00
   9  -7  -2   -2.90    1.26
   9  -7  -2    1.55    1.14
   8  -7  -2    0.22    1.11
   7  -7  -2    1.80    1.22
   7  -7  -2    5.97    1.81
   6  -7  -2    0.85    0.99
   6  -7  -2    1.25    1.17
  -6   7   2   -0.22    0.71
  -6   7   2    0.85    0.78
   5  -7  -2    6.74    1.95
   5  -7  -2    7.79    2.19
  -5   7   2    8.20    1.82
  -5   7   2    5.80    1.72
   4  -7  -2    1.00    1.05
   4  -7  -2    1.83    1.02
  -4   7   2    1.07    1.17
  -4   7   2    0.32    0.84
   3  -7  -2   -0.19    0.59
   3  -7  -2    0.75    0.92
  -3   7   2   -0.94    0.64
  -3   7   2    1.06    0.96
   2  -7  -2  117.52    6.55
   2  -7  -2  114.18    6.39
  -2   7   2  110.51    6.24
  -2   7   2  110.01    6.29
   1  -7  -2    4.32    1.63
   1  -7  -2    3.59    1.44
  -1   7   2    5.05    1.61
  -1   7   2    1.23    1.19
   0  -7  -2    5.89    1.88
   0  -7  -2    5.54    1.70
   0   7   2    4.63    1.76
   0   7   2    4.52    1.84
  -1  -7  -2   42.70    4.04
  -1  -7  -2   53.03    4.44
   1   7   2   44.61    4.47
   1   7   2   49.08    4.51
  -2  -7  -2   31.02    3.52
   2   7   2   35.63    4.89
   2   7   2   35.55    3.91
  -3  -7  -2    3.01    1.71
  -3  -7  -2    4.16    1.55
   3   7   2    2.87    1.57
  -4  -7  -2    0.36    1.26
  -4  -7  -2    2.25    1.34
   4   7   2    4.21    1.71
   4   7   2    4.02    1.59
  -5  -7  -2    4.03    1.45
   5   7   2    1.63    1.40
   6   7   2   10.41    3.17
   7   7   2   -1.29    1.50
  11  -8  -2   18.09    3.18
  10  -8  -2   17.34    3.35
   9  -8  -2   40.29    4.96
   9  -8  -2   42.98    4.16
   8  -8  -2    4.99    2.01
   8  -8  -2   10.96    2.80
   7  -8  -2    2.33    1.28
  -7   8   2    2.48    0.65
  -7   8   2    0.04    0.58
   6  -8  -2    6.71    1.93
   6  -8  -2    6.09    2.10
  -6   8   2    5.93    1.60
  -6   8   2    7.10    1.75
   5  -8  -2    4.19    1.59
   5  -8  -2    1.15    1.28
  -5   8   2    1.60    1.24
  -5   8   2    0.60    1.01
   4  -8  -2    0.38    0.75
   4  -8  -2   -1.11    0.85
  -4   8   2   -0.20    1.04
  -4   8   2   -0.05    1.05
   3  -8  -2    2.66    1.18
   3  -8  -2    1.96    1.36
  -3   8   2    4.34    1.52
  -3   8   2    0.52    1.25
   2  -8  -2    0.11    0.99
   2  -8  -2    0.05    0.67
  -2   8   2    0.77    1.09
  -2   8   2    0.82    1.18
   1  -8  -2   12.58    3.00
   1  -8  -2   10.71    2.47
  -1   8   2   12.57    2.75
  -1   8   2   15.83    3.24
   0  -8  -2   29.81    4.20
   0  -8  -2   21.24    3.54
   0   8   2   23.57    3.94
   0   8   2   26.56    4.19
  -1  -8  -2   19.24    3.47
  -1  -8  -2   12.94    2.88
   1   8   2   20.41    3.81
   1   8   2   14.95    3.18
  -2  -8  -2   60.37    4.97
   2   8   2   55.55    5.42
   2   8   2   62.80    5.73
  -3  -8  -2   15.95    2.98
  -3  -8  -2    9.61    2.67
   3   8   2    9.48    2.77
  -4  -8  -2   -0.05    1.23
  -4  -8  -2   -0.45    1.39
   4   8   2   -1.89    1.06
  -5  -8  -2    0.73    1.59
  -5  -8  -2   -0.48    1.93
  10  -9  -2    5.81    2.33
   9  -9  -2   -0.14    1.56
   8  -9  -2   -0.78    1.18
   7  -9  -2    7.15    2.28
  -7   9   2    3.14    1.16
  -7   9   2    5.63    1.50
   6  -9  -2    3.52    1.87
  -6   9   2    4.82    1.80
  -6   9   2    2.27    1.20
   5  -9  -2   15.13    3.19
   5  -9  -2   14.81    3.44
  -5   9   2   15.21    2.96
  -5   9   2   16.35    3.17
   4  -9  -2    5.82    2.15
   4  -9  -2    2.52    1.66
  -4   9   2    6.20    2.18
  -4   9   2    5.18    2.17
   3  -9  -2    2.57    1.69
   3  -9  -2    0.23    1.23
  -3   9   2    1.16    1.22
  -3   9   2    6.95    2.14
   2  -9  -2   45.05    4.93
   2  -9  -2   60.39    5.49
  -2   9   2   55.12    4.99
  -2   9   2   62.71    5.35
   1  -9  -2   29.88    4.48
   1  -9  -2   33.08    4.80
  -1   9   2   31.62    4.82
  -1   9   2   28.90    4.40
   0  -9  -2   12.29    2.95
   0  -9  -2   11.87    2.72
   0   9   2   15.01    3.34
   0   9   2   14.99    3.56
  -1  -9  -2   19.20    3.67
  -1  -9  -2   14.73    3.36
   1   9   2   21.62    4.02
  -2  -9  -2   30.95    4.37
   2   9   2   33.12    5.32
  -3  -9  -2    8.97    2.72
  -3  -9  -2    9.53    2.70
   3   9   2    8.51    2.49
  -4  -9  -2   10.49    2.64
  -4  -9  -2   14.82    3.56
   4   9   2   11.30    3.12
  -5  -9  -2    1.85    2.27
   8 -10  -2   20.15    4.05
   7 -10  -2    4.15    2.71
  -7  10   2   -0.44    1.57
  -7  10   2    5.79    3.56
  -6  10   2    3.49    2.18
  -6  10   2    7.79    2.46
   5 -10  -2    0.78    1.66
  -5  10   2   -0.57    1.33
  -5  10   2    0.85    2.02
   4 -10  -2   -0.42    1.15
  -4  10   2   -1.78    1.21
  -4  10   2   -2.63    1.70
   3 -10  -2   -0.16    1.57
  -3  10   2    3.61    1.82
  -3  10   2    1.99    2.29
   2 -10  -2   13.69    3.20
  -2  10   2    6.89    2.06
   1 -10  -2   14.66    3.39
   0 -10  -2   17.85    3.60
  -1 -10  -2    3.17    1.90
   1  10   2   -1.73    1.29
   2  10   2    1.10    2.02
  -3 -10  -2   -3.96    1.41
  -4 -10  -2   10.32    3.30
  -7  11   2   -3.77    3.98
  -6  11   2   23.50    3.61
  -6  11   2   20.94    4.36
  -5  11   2    4.68    1.98
   4 -11  -2   26.55    4.85
  -4  11   2   26.36    4.58
   3 -11  -2    7.72    2.40
   2 -11  -2    3.29    1.83
  -2  11   2    1.21    1.41
   1 -11  -2    0.09    1.79
  -1  11   2    0.80    1.75
   0 -11  -2    4.26    2.56
  -6  12   2    0.54    2.82
  -5  12   2    6.74    3.09
  -3 -12   3    7.50    2.58
  -2 -12   3    5.95    2.71
   1  12  -3   -0.38    1.48
  -1 -12   3    1.98    2.37
   0  12  -3    1.71    1.58
   0 -12   3   -0.97    0.86
  -1  12  -3    2.04    1.93
   1 -12   3    2.19    2.08
  -2  12  -3   -0.98    1.65
  -2  12  -3    7.09    2.49
   2 -12   3    3.29    2.27
  -3  12  -3    2.06    2.04
  -5  12  -3   -2.68    1.61
  -6  12  -3    4.07    2.53
  -5 -11   3    1.69    2.98
  -4 -11   3    2.41    3.63
   3  11  -3   -0.24    1.51
   3  11  -3    0.67    0.99
  -3 -11   3    0.95    1.85
   2  11  -3   -2.11    1.32
   2  11  -3    1.75    1.44
  -2 -11   3    4.50    2.28
   1  11  -3    0.47    1.46
   1  11  -3    5.83    1.59
  -1 -11   3    0.89    1.63
   0  11  -3   13.05    3.03
   0  11  -3   13.07    3.17
   0 -11   3   15.98    3.49
  -1  11  -3   -2.02    1.10
  -1  11  -3    0.67    1.35
   1 -11   3    0.60    1.70
  -2  11  -3   10.89    3.40
  -2  11  -3   11.97    3.22
   2 -11   3   14.30    3.00
  -3  11  -3   31.97    5.01
  -3  11  -3   30.41    5.59
  -4  11  -3    0.91    1.37
  -4  11  -3   -0.01    2.12
   4 -11   3    1.12    1.51
  -5  11  -3   24.38    4.38
  -5  11  -3   33.05    4.60
   5 -11   3   26.07    4.76
  -6  11  -3   -0.60    1.58
  -6  11  -3    0.41    2.53
   6 -11   3    1.89    1.86
  -7  11  -3    3.25    2.12
   5  10  -3    1.66    2.11
  -5 -10   3   -3.41    2.17
   4  10  -3   -0.64    0.61
   4  10  -3    1.41    1.59
  -4 -10   3    1.88    1.87
  -4 -10   3    0.10    1.65
   3  10  -3    9.75    1.82
   3  10  -3    9.71    2.69
  -3 -10   3   11.83    2.89
  -3 -10   3    9.29    3.22
   2  10  -3    0.08    1.09
   2  10  -3   -0.88    0.80
  -2 -10   3   -0.17    1.34
  -2 -10   3   -0.61    1.40
   1  10  -3    1.63    1.53
   1  10  -3    3.77    1.69
  -1 -10   3   -0.26    1.68
  -1 -10   3    3.94    1.85
   0  10  -3    3.10    1.57
   0  10  -3    2.89    1.75
   0  10  -3    0.34    1.26
   0 -10   3    0.88    1.61
   0 -10   3    0.58    1.40
  -1  10  -3    3.22    1.63
  -1  10  -3   -1.07    0.76
  -1  10  -3   -1.72    1.35
   1 -10   3   -1.75    1.45
   1 -10   3   -0.18    0.69
  -2  10  -3   73.67    6.59
  -2  10  -3   66.88    6.01
  -2  10  -3   75.29    5.99
   2 -10   3   72.95    6.13
   2 -10   3   75.87    6.02
  -3  10  -3    2.34    1.36
  -3  10  -3    1.20    1.48
  -3  10  -3    0.03    1.53
   3 -10   3    2.94    1.80
  -4  10  -3   15.91    3.93
  -4  10  -3   14.67    3.30
  -4  10  -3   11.71    2.74
   4 -10   3   18.59    3.81
  -5  10  -3    0.35    1.12
  -5  10  -3    2.47    1.88
   5 -10   3   -1.28    1.16
  -6  10  -3    2.06    1.79
  -6  10  -3    0.97    1.50
   6 -10   3    2.99    1.80
  -7  10  -3    2.13    1.63
  -7  10  -3   -0.05    1.25
   7 -10   3    2.51    1.80
   8 -10   3    2.97    1.87
   7   9  -3    3.52    1.63
  -6  -9   3    0.77    1.08
  -6  -9   3    1.03    1.17
   5   9  -3   -0.37    1.25
  -5  -9   3    0.59    1.13
  -5  -9   3   -0.09    1.57
   4   9  -3    0.60    1.15
  -4  -9   3   -0.37    1.06
  -4  -9   3   -2.64    1.17
   3   9  -3   31.81    4.65
   3   9  -3   28.59    4.36
  -3  -9   3   25.55    3.80
  -3  -9   3   31.92    3.58
   2   9  -3   16.79    3.24
   2   9  -3   17.83    3.54
  -2  -9   3   18.45    3.28
  -2  -9   3   16.96    3.12
   1   9  -3    9.58    2.68
   1   9  -3   12.60    3.32
  -1  -9   3   12.84    2.80
  -1  -9   3   13.96    2.77
   0   9  -3   35.91    4.07
   0   9  -3   34.55    4.63
   0  -9   3   30.88    4.29
   0  -9   3   31.82    4.47
  -1   9  -3    2.15    1.33
  -1   9  -3    1.38    1.17
  -1   9  -3    0.37    1.11
   1  -9   3    3.12    1.45
   1  -9   3    0.12    0.88
  -2   9  -3   26.34    4.30
  -2   9  -3   28.02    4.23
  -2   9  -3   27.49    4.06
   2  -9   3   30.78    4.44
   2  -9   3   27.42    3.91
  -3   9  -3    0.35    0.98
  -3   9  -3    3.73    1.50
  -3   9  -3    2.97    1.77
   3  -9   3    1.58    1.37
   3  -9   3    2.99    1.70
  -4   9  -3   -0.15    0.93
  -4   9  -3   -0.08    1.16
  -4   9  -3    1.30    1.22
   4  -9   3    0.72    0.89
   4  -9   3    0.34    1.31
  -5   9  -3    5.72    1.82
  -5   9  -3    5.09    1.96
  -5   9  -3    2.57    1.62
   5  -9   3    3.39    1.90
   5  -9   3    7.53    2.06
  -6   9  -3    5.67    1.64
   6  -9   3    1.85    1.56
   6  -9   3    9.42    2.51
  -7   9  -3    2.88    1.07
  -7   9  -3    3.55    1.25
   7  -9   3    3.45    1.55
   8  -9   3    2.88    1.06
   9  -9   3   29.17    4.27
   8   8  -3    0.17    1.78
   7   8  -3   18.28    3.47
   6   8  -3    8.10    1.69
   6   8  -3   12.79    3.11
   6   8  -3   12.47    3.71
   5   8  -3   17.38    3.14
   5   8  -3   30.77    4.41
   4   8  -3    3.24    1.36
   4   8  -3    5.69    2.19
  -4  -8   3    4.34    1.50
  -4  -8   3    3.25    1.44
   3   8  -3    0.42    0.86
   3   8  -3    0.79    0.78
  -3  -8   3    1.01    1.14
  -3  -8   3    1.27    1.11
   2   8  -3    3.83    1.78
   2   8  -3    4.10    1.89
  -2  -8   3    3.13    1.47
  -2  -8   3    4.05    1.56
   1   8  -3    1.45    1.09
   1   8  -3    1.05    1.05
  -1  -8   3    0.94    0.99
  -1  -8   3    1.20    0.93
   0   8  -3    0.14    0.75
   0   8  -3    1.67    1.21
   0  -8   3   -0.34    0.69
   0  -8   3   -0.43    0.55
  -1   8  -3    2.27    1.63
  -1   8  -3    3.73    1.79
   1  -8   3    3.34    1.64
   1  -8   3    6.87    1.98
  -2   8  -3   30.09    4.00
  -2   8  -3   33.71    3.52
   2  -8   3   32.73    3.48
   2  -8   3   35.11    3.69
  -3   8  -3   23.67    3.48
  -3   8  -3   22.79    3.52
  -3   8  -3   26.24    4.27
   3  -8   3   19.55    3.46
   3  -8   3   24.14    3.56
  -4   8  -3   17.69    2.93
  -4   8  -3   17.66    3.81
  -4   8  -3   19.83    3.09
   4  -8   3   18.99    3.93
   4  -8   3   14.58    2.82
  -5   8  -3    1.44    1.04
  -5   8  -3    1.93    1.52
   5  -8   3    1.56    1.09
   5  -8   3    3.02    1.48
  -6   8  -3   39.08    6.09
  -6   8  -3   37.49    3.00
   6  -8   3   47.69    4.54
   6  -8   3   50.75    4.46
   7  -8   3   13.70    2.86
   7  -8   3    9.43    2.78
   8  -8   3    7.49    2.83
   8  -8   3    4.94    2.16
   9  -8   3    9.48    2.27
   9   7  -3   -2.44    1.55
   8   7  -3   12.34    3.10
   7   7  -3   10.88    2.49
   7   7  -3    6.35    1.53
   7   7  -3   10.01    2.43
   6   7  -3   10.45    2.22
   6   7  -3    8.63    1.77
   6   7  -3   11.01    2.63
   5   7  -3   26.31    3.74
  -5  -7   3   27.23    2.39
   4   7  -3    4.59    1.71
   4   7  -3    5.80    1.94
  -4  -7   3    3.48    1.19
  -4  -7   3    4.34    1.49
   3   7  -3    1.37    1.27
   3   7  -3    3.21    1.41
  -3  -7   3    3.31    1.21
  -3  -7   3    2.19    1.14
   2   7  -3    0.67    0.92
   2   7  -3    0.94    1.05
  -2  -7   3   -1.10    0.64
  -2  -7   3    0.72    0.96
   1   7  -3    1.33    0.93
   1   7  -3   -0.42    0.72
  -1  -7   3    0.29    0.67
  -1  -7   3   -0.09    0.64
   0   7  -3  131.83    6.62
   0   7  -3  113.20    6.11
   0  -7   3  127.94    6.53
   0  -7   3  119.58    6.08
  -1   7  -3   39.76    3.62
  -1   7  -3   45.18    3.73
   1  -7   3   43.27    3.83
   1  -7   3   43.63    3.78
  -2   7  -3    0.09    0.80
  -2   7  -3    1.33    1.03
   2  -7   3    0.98    1.14
   2  -7   3    0.26    0.70
  -3   7  -3    1.22    1.09
  -3   7  -3    0.07    0.78
   3  -7   3    0.24    1.02
   3  -7   3    1.98    1.19
  -4   7  -3    9.29    2.07
  -4   7  -3    7.28    2.29
  -4   7  -3    9.30    1.92
   4  -7   3    8.72    2.11
   4  -7   3    9.71    2.22
  -5   7  -3    0.22    0.71
  -5   7  -3   -0.51    0.76
  -5   7  -3    2.01    1.54
   5  -7   3   -0.35    0.93
   5  -7   3    1.66    1.11
  -6   7  -3    8.06    2.61
  -6   7  -3    8.01    1.36
  -6   7  -3    4.85    1.30
   6  -7   3   11.76    2.59
   6  -7   3    9.52    2.27
  -7   7  -3   38.18    6.03
   7  -7   3   49.19    4.38
   7  -7   3   58.44    4.73
   8  -7   3   16.12    2.82
   8  -7   3    9.93    2.51
   9  -7   3   19.98    3.36
   9  -7   3   14.32    3.09
  10  -7   3    3.44    1.62
  10   6  -3   12.69    2.86
   9   6  -3    6.11    2.06
   9   6  -3    4.98    1.77
   8   6  -3    0.00    0.94
   8   6  -3   -0.46    1.32
   8   6  -3    0.54    1.09
   7   6  -3    1.03    0.99
   7   6  -3    1.27    1.08
   7   6  -3    0.52    1.16
   6   6  -3   15.60    2.90
   6   6  -3   16.86    2.86
   5   6  -3    0.42    0.99
   5   6  -3    3.32    1.26
  -5  -6   3    2.03    0.80
  -5  -6   3    1.64    0.64
   4   6  -3   -1.38    0.61
   4   6  -3   -0.04    0.66
  -4  -6   3   -0.32    0.65
  -4  -6   3    0.93    0.73
   3   6  -3    8.28    2.10
   3   6  -3    9.14    2.00
  -3  -6   3   12.22    2.08
  -3  -6   3   12.38    2.17
   2   6  -3   42.91    3.51
   2   6  -3   40.33    3.56
  -2  -6   3   34.66    2.99
  -2  -6   3   43.19    3.31
   1   6  -3    1.18    0.76
   1   6  -3    2.32    1.14
  -1  -6   3    0.87    0.86
  -1  -6   3    4.49    1.46
   0   6  -3    1.73    1.00
   0   6  -3    2.77    1.12
   0  -6   3    2.57    1.14
   0  -6   3    1.25    0.88
  -1   6  -3    1.76    1.00
  -1   6  -3    1.63    1.06
   1  -6   3    2.24    1.03
   1  -6   3    0.80    0.83
  -2   6  -3   17.97    2.65
  -2   6  -3   15.82    2.48
   2  -6   3   16.90    2.80
   2  -6   3   17.18    2.63
  -3   6  -3   42.43    3.24
  -3   6  -3   44.16    3.34
   3  -6   3   45.84    3.65
  -4   6  -3    1.11    1.03
  -4   6  -3    2.00    1.15
  -4   6  -3    2.00    0.99
   4  -6   3    1.52    1.13
   4  -6   3    0.89    1.00
  -5   6  -3   49.39    5.24
  -5   6  -3   49.59    3.09
  -5   6  -3   46.99    3.11
   5  -6   3   51.18    4.10
   5  -6   3   51.72    3.97
  -6   6  -3    6.04    2.32
  -6   6  -3    3.34    0.95
  -6   6  -3    4.27    0.82
   6  -6   3    7.02    1.95
   6  -6   3    6.08    1.68
  -7   6  -3    8.27    2.62
   7  -6   3    3.01    1.45
   7  -6   3    5.96    1.75
   8  -6   3   14.04    2.57
   9  -6   3    1.99    1.44
   9  -6   3    4.13    1.85
  10  -6   3    4.28    1.68
  10  -6   3    1.34    2.19
  11  -6   3    1.18    1.86
  10   5  -3    6.41    1.74
   9   5  -3    0.67    1.05
   9   5  -3   -2.95    1.13
   9   5  -3    0.26    1.19
   8   5  -3   27.26    3.99
   8   5  -3   35.80    3.30
   8   5  -3   26.55    3.62
   7   5  -3   45.09    3.71
   7   5  -3   41.63    3.70
   7   5  -3   44.04    4.01
   6   5  -3   14.53    2.42
   5   5  -3    4.78    1.47
   5   5  -3    5.28    1.51
  -5  -5   3    4.52    0.91
  -5  -5   3    4.17    0.64
   4   5  -3   17.82    2.56
   4   5  -3   17.69    2.52
  -4  -5   3   15.62    1.66
   3   5  -3    0.81    0.74
   3   5  -3    0.50    0.69
  -3  -5   3    1.09    0.67
  -3  -5   3    0.95    0.71
   2   5  -3    0.24    0.59
   2   5  -3    0.02    0.52
  -2  -5   3    0.08    0.53
  -2  -5   3    0.42    0.66
   1   5  -3    1.35    0.98
   1   5  -3    0.85    0.83
  -1  -5   3    0.18    0.69
  -1  -5   3    1.28    0.92
   0   5  -3   68.32    3.94
   0   5  -3   66.75    3.91
   0  -5   3   72.01    4.08
   0  -5   3   63.46    3.79
  -1   5  -3   67.25    3.95
  -1   5  -3   65.05    3.80
   1  -5   3   59.15    3.71
   1  -5   3   65.67    3.93
  -2   5  -3    3.80    1.19
  -2   5  -3    5.24    1.40
   2  -5   3    2.31    1.02
   2  -5   3    5.35    1.46
  -3   5  -3   18.95    2.04
  -3   5  -3   21.21    2.09
   3  -5   3   19.93    2.70
   3  -5   3   20.07    2.76
  -4   5  -3   33.11    3.83
  -4   5  -3   32.29    2.44
  -4   5  -3   27.29    2.37
   4  -5   3   33.63    2.92
   4  -5   3   27.01    2.74
  -5   5  -3   38.13    2.41
  -5   5  -3   32.37    4.00
   5  -5   3   34.52    3.00
   5  -5   3   41.61    3.40
  -6   5  -3    1.15    1.43
   6  -5   3    2.70    1.15
   6  -5   3    0.25    0.87
  -7   5  -3    1.89    1.40
   7  -5   3    1.73    1.20
   7  -5   3    1.42    0.93
  -8   5  -3   15.88    4.01
   8  -5   3   18.85    2.89
   8  -5   3   16.69    2.89
   9  -5   3    1.16    1.50
  10  -5   3    3.40    1.64
  11   4  -3   10.30    2.38
  10   4  -3    0.42    1.51
  10   4  -3    1.35    0.90
   9   4  -3    3.74    1.79
   9   4  -3    2.58    1.34
   9   4  -3    7.72    1.70
   8   4  -3   13.39    2.95
   8   4  -3   18.02    2.68
   8   4  -3   17.23    2.49
   7   4  -3   -0.01    0.82
   7   4  -3    0.29    0.61
   7   4  -3    0.24    0.79
   6   4  -3   80.87    4.22
   6   4  -3   89.93    4.48
   5   4  -3   46.91    3.11
   5   4  -3   49.51    3.20
   4   4  -3   19.96    2.02
   4   4  -3   21.91    2.14
  -4  -4   3   22.37    1.53
  -4  -4   3   20.56    1.48
   3   4  -3    6.61    1.37
   3   4  -3    8.62    1.56
  -3  -4   3    7.08    1.24
  -3  -4   3    8.49    1.35
   2   4  -3  264.75    7.85
   2   4  -3  279.82    8.13
  -2  -4   3  287.48    7.66
   1   4  -3  188.57    6.37
   1   4  -3  187.67    6.25
  -1  -4   3  197.94    6.26
  -1  -4   3  193.00    6.36
   0   4  -3   80.94    3.96
   0   4  -3   83.34    3.93
   0  -4   3   76.05    3.89
   0  -4   3   77.24    3.80
  -1   4  -3  140.77    5.38
  -1   4  -3  128.43    5.07
   1  -4   3  140.77    5.50
   1  -4   3  137.94    5.29
  -2   4  -3   14.15    2.05
  -2   4  -3   10.88    1.75
   2  -4   3   11.95    1.95
   2  -4   3   12.53    1.88
  -3   4  -3    0.28    0.58
  -3   4  -3   -0.36    0.59
   3  -4   3    0.76    0.78
   3  -4   3    0.71    0.66
  -4   4  -3   16.26    3.02
  -4   4  -3   24.18    1.92
  -4   4  -3   25.19    1.90
   4  -4   3   24.26    2.47
   4  -4   3   24.18    2.31
  -5   4  -3    5.83    0.86
  -5   4  -3    8.84    2.45
   5  -4   3    8.26    1.70
   5  -4   3    7.52    1.70
  -6   4  -3    6.13    2.25
   6  -4   3    7.27    1.70
   6  -4   3    3.54    1.27
  -7   4  -3    2.81    2.17
   7  -4   3    8.49    1.84
   8  -4   3   10.00    2.10
   8  -4   3   11.09    2.34
   9  -4   3    6.75    2.07
   9  -4   3    6.60    1.98
  10  -4   3   12.53    2.40
  10  -4   3   11.31    2.52
  11  -4   3   12.72    2.64
  11   3  -3   -1.53    1.14
  10   3  -3   15.24    2.18
  10   3  -3   19.63    3.93
  10   3  -3   15.43    2.66
   9   3  -3    3.41    1.05
   9   3  -3    5.32    2.06
   9   3  -3    1.43    1.07
   8   3  -3   14.57    2.97
   8   3  -3   10.98    1.77
   8   3  -3    8.86    1.70
   7   3  -3   24.53    2.11
   7   3  -3   28.34    2.26
   7   3  -3   26.27    3.34
   6   3  -3    1.33    0.65
   6   3  -3    0.98    0.97
   5   3  -3   11.94    1.63
   5   3  -3   12.44    1.67
   4   3  -3   40.78    2.41
   4   3  -3   38.89    2.41
   3   3  -3    7.14    1.24
   3   3  -3    8.82    1.43
  -3  -3   3    8.50    1.13
  -3  -3   3    9.24    1.16
   2   3  -3   -0.58    0.40
   2   3  -3   -0.41    0.40
  -2  -3   3    0.35    0.53
  -2  -3   3    0.20    0.45
   1   3  -3    1.70    0.80
   1   3  -3    3.41    1.02
  -1  -3   3    3.38    0.87
  -1  -3   3    2.90    0.85
   0   3  -3    5.82    1.17
   0   3  -3    5.02    1.17
   0  -3   3    5.58    1.16
   0  -3   3    4.56    1.17
  -1   3  -3   19.68    1.81
  -1   3  -3   22.72    1.94
   1  -3   3   18.77    1.82
   1  -3   3   20.77    1.86
  -2   3  -3   23.92    1.96
  -2   3  -3   18.09    1.66
   2  -3   3   20.69    1.89
  -3   3  -3    1.09    0.66
  -3   3  -3    1.91    0.77
   3  -3   3    1.71    0.81
   3  -3   3    0.76    0.61
  -4   3  -3    0.50    0.41
  -4   3  -3    0.39    0.76
  -4   3  -3    0.81    0.52
   4  -3   3   -0.01    0.49
   4  -3   3    0.55    0.61
  -5   3  -3    1.28    1.05
   5  -3   3   -0.04    0.71
   5  -3   3    0.78    0.73
  -6   3  -3   20.64    3.71
   6  -3   3   16.30    2.42
   6  -3   3   12.89    2.04
  -7   3  -3   12.26    3.09
   7  -3   3    6.98    1.60
   7  -3   3    8.46    1.83
  -8   3  -3    2.05    1.78
   8  -3   3    5.63    1.58
   8  -3   3    2.48    1.39
   9  -3   3   13.72    2.48
   9  -3   3   13.00    2.25
  10  -3   3   18.71    3.11
  11  -3   3    0.04    1.81
  11   2  -3   13.99    2.09
  11   2  -3   17.34    1.96
  10   2  -3    6.38    1.29
  10   2  -3    4.55    2.23
  10   2  -3    5.91    1.23
   9   2  -3   12.65    1.71
   9   2  -3    8.71    2.62
   8   2  -3   13.56    1.40
   8   2  -3   10.58    2.54
   8   2  -3   12.22    1.36
   7   2  -3  168.02    4.92
   7   2  -3  166.20    4.91
   7   2  -3  170.20    8.63
   6   2  -3   25.73    1.62
   6   2  -3   25.95    3.13
   6   2  -3   28.53    1.73
   5   2  -3    4.10    0.77
   5   2  -3    4.80    0.85
   4   2  -3    1.33    0.53
   4   2  -3    2.16    0.60
   3   2  -3    6.70    1.03
   3   2  -3    7.95    1.13
  -3  -2   3    6.27    0.53
  -3  -2   3    7.02    0.60
   2   2  -3  104.70    3.61
   2   2  -3  109.97    3.60
  -2  -2   3  105.25    3.35
  -2  -2   3  111.67    3.85
   1   2  -3  392.99    8.62
   1   2  -3  402.95    8.87
  -1  -2   3  386.61    8.61
  -1  -2   3  393.58    8.50
   0   2  -3  364.30    8.44
   0   2  -3  356.76    8.24
   0  -2   3  370.30    8.29
   0  -2   3  362.93    8.50
  -1   2  -3    2.88    0.81
  -1   2  -3    1.54    0.74
   1  -2   3    2.36    0.89
   1  -2   3    2.69    0.81
  -2   2  -3    7.83    1.25
  -2   2  -3    8.12    1.28
   2  -2   3    9.02    1.41
   2  -2   3    8.62    1.44
  -3   2  -3    0.80    0.58
  -3   2  -3    1.04    0.57
   3  -2   3    1.83    0.74
   3  -2   3    1.20    0.66
  -4   2  -3   95.90    5.64
  -4   2  -3   98.69    3.08
   4  -2   3   90.84    4.04
   4  -2   3  108.02    4.51
  -5   2  -3   16.29    3.00
   5  -2   3   16.58    1.83
   5  -2   3   18.20    1.90
  -6   2  -3   21.59    3.72
   6  -2   3   20.53    2.11
   6  -2   3   18.83    2.08
  -7   2  -3    4.55    2.04
   7  -2   3    5.42    1.42
   7  -2   3    2.93    1.24
  -8   2  -3   34.13    5.38
   8  -2   3   37.43    3.73
   8  -2   3   40.92    3.38
   9  -2   3   -0.11    1.07
   9  -2   3    2.10    0.86
  10  -2   3    6.91    2.04
  11  -2   3    6.34    2.30
  11   1  -3    5.10    1.06
  11   1  -3    4.52    1.09
  10   1  -3    1.66    1.83
  10   1  -3    1.16    0.59
  10   1  -3    2.50    0.62
   9   1  -3    0.64    0.40
   9   1  -3    1.58    0.47
   8   1  -3   10.39    0.90
   8   1  -3   10.28    2.75
   7   1  -3   32.51    3.79
   7   1  -3   31.04    1.30
   7   1  -3   30.61    1.35
   6   1  -3   -0.29    0.15
   6   1  -3   -0.02    0.17
   6   1  -3   -0.88    0.68
   5   1  -3    2.26    0.35
   5   1  -3    1.29    0.29
   4   1  -3    0.52    0.26
   4   1  -3    0.08    0.24
   3   1  -3  115.67    3.13
   3   1  -3  113.47    3.03
   2   1  -3  194.32    5.48
   2   1  -3  193.12    4.71
  -2  -1   3  200.55    4.46
  -2  -1   3  200.73    4.44
   1   1  -3  120.24    3.79
   1   1  -3  122.11    3.66
  -1  -1   3  116.30    3.65
  -1  -1   3  123.20    3.63
  -1   1  -3  195.90    5.34
  -1   1  -3  199.88    5.51
   1  -1   3  196.07    5.65
   1  -1   3  204.96    5.55
  -2   1  -3    2.34    0.75
  -2   1  -3    2.32    0.81
   2  -1   3    0.79    0.64
   2  -1   3    1.77    0.76
  -3   1  -3   65.90    2.68
  -3   1  -3   62.50    2.69
   3  -1   3   60.85    3.17
   3  -1   3   61.46    3.05
  -4   1  -3   67.27    2.33
  -4   1  -3   71.54    2.34
  -4   1  -3   71.17    4.55
   4  -1   3   73.18    3.50
   4  -1   3   70.32    3.66
  -5   1  -3   81.69    5.39
   5  -1   3   77.96    4.05
   5  -1   3   72.20    3.74
  -6   1  -3   61.06    5.13
   6  -1   3   59.91    3.76
   6  -1   3   62.05    3.68
  -7   1  -3    4.13    1.85
   7  -1   3    5.50    1.50
   7  -1   3    4.69    1.41
   8  -1   3    0.63    0.98
   8  -1   3    0.65    0.91
   9  -1   3   11.38    2.19
   9  -1   3   12.07    2.15
  10  -1   3   14.82    3.27
  10  -1   3   12.26    2.83
  11  -1   3   10.04    3.06
  11   0  -3    0.98    0.41
  11   0  -3    1.86    0.58
  10   0  -3    0.69    0.30
  10   0  -3    0.24    0.42
  10   0  -3   -2.67    0.94
   9   0  -3   11.94    0.68
   9   0  -3   12.60    3.27
   8   0  -3   16.61    3.54
   7   0  -3   34.59    4.01
   5   0  -3   66.00    4.79
   4   0  -3  137.22    2.66
   4   0  -3  133.21    2.61
   3   0  -3   49.01    1.76
   3   0  -3   50.05    1.82
   2   0  -3   34.52    1.68
   2   0  -3   31.18    1.72
  -2   0   3   33.66    1.51
  -2   0   3   32.91    1.52
   1   0  -3   35.33    1.92
   1   0  -3   32.36    1.87
  -1   0   3   33.01    1.88
  -1   0   3   35.26    1.81
   0   0  -3   63.52    2.79
   0   0  -3   67.13    2.78
   0   0   3   65.98    2.92
   0   0   3   69.66    2.88
  -1   0  -3  344.47    8.14
  -1   0  -3  337.18    7.89
   1   0   3  340.17    8.29
   1   0   3  354.39    8.16
  -2   0  -3   13.17    1.32
  -2   0  -3   14.11    1.41
   2   0   3   11.06    1.52
   2   0   3   11.41    1.63
  -3   0  -3  100.48    4.56
  -3   0  -3   94.25    3.45
  -3   0  -3   96.43    3.52
   3   0   3  102.68    4.11
   3   0   3   91.93    4.78
  -4   0  -3   -0.19    0.60
  -4   0  -3    1.07    0.46
   4   0   3   -0.26    0.46
   4   0   3    1.66    0.72
  -5   0  -3   38.58    3.49
   5   0   3   34.88    2.65
   5   0   3   35.30    2.79
  -6   0  -3   67.42    5.09
   6   0   3   65.65    3.93
   6   0   3   68.08    4.15
   7   0   3    1.23    1.11
   7   0   3    0.14    1.02
   8   0   3    2.45    1.35
   8   0   3    3.96    1.55
   9   0   3   22.07    3.43
  11  -1  -3    2.14    0.44
  10  -1  -3    3.17    0.45
  10  -1  -3   -0.63    1.54
  10  -1  -3    2.78    0.44
   9  -1  -3    1.21    1.46
   9  -1  -3    0.32    0.21
   8  -1  -3   28.86    4.63
   7  -1  -3   -0.17    0.77
   6  -1  -3    1.22    0.18
   6  -1  -3    1.24    0.98
   5  -1  -3    1.11    1.05
   5  -1  -3    1.85    0.37
   5  -1  -3    1.96    0.37
   4  -1  -3  173.51    4.05
   4  -1  -3  171.17    4.11
   4  -1  -3  168.61    7.38
   3  -1  -3   13.46    1.12
   3  -1  -3   12.34    1.29
  -3   1   3   12.58    0.66
  -3   1   3   14.43    0.68
   2  -1  -3  132.01    4.12
   2  -1  -3  131.43    4.04
  -2   1   3  132.61    3.87
  -2   1   3  130.18    3.87
   1  -1  -3   47.81    2.47
  -1   1   3   41.18    2.27
  -1   1   3   45.13    2.44
   0  -1  -3  237.80    6.49
   0  -1  -3  228.32    6.32
   0   1   3  228.14    6.49
   0   1   3  232.91    6.44
  -1  -1  -3  213.94    6.18
  -1  -1  -3  210.17    6.04
   1   1   3  206.56    6.17
   1   1   3  214.02    6.43
  -2  -1  -3  228.98    6.57
  -2  -1  -3  237.41    6.51
   2   1   3  237.61    8.30
   2   1   3  227.69    6.82
  -3  -1  -3    8.45    1.33
  -3  -1  -3    8.84    1.41
  -3  -1  -3    8.84    1.37
   3   1   3    9.76    1.65
   3   1   3    7.47    1.50
  -4  -1  -3   14.90    1.87
  -4  -1  -3   17.77    1.43
  -4  -1  -3   17.58    1.42
   4   1   3   19.53    2.06
   4   1   3   16.89    2.31
  -5  -1  -3    0.85    0.70
   5   1   3    0.86    0.68
   5   1   3    1.22    0.85
   6   1   3   50.85    3.76
   6   1   3   45.51    3.45
   7   1   3   28.30    3.11
   8   1   3    0.02    0.91
   9   1   3    3.60    1.78
   9   1   3    4.56    1.82
  10   1   3    6.54    2.42
  10   1   3    4.45    2.03
  11  -2  -3    3.88    0.81
  11  -2  -3    5.55    0.82
  10  -2  -3    6.31    2.61
  10  -2  -3    6.59    0.91
  10  -2  -3    5.96    0.87
   9  -2  -3   11.20    3.16
   9  -2  -3   10.99    1.05
   9  -2  -3   10.52    1.02
   8  -2  -3   15.92    3.57
   8  -2  -3   15.50    1.19
   8  -2  -3   14.36    1.14
   7  -2  -3   94.75    7.03
   7  -2  -3  104.53    3.28
   7  -2  -3  103.70    3.21
   6  -2  -3    7.40    1.01
   6  -2  -3    5.34    1.87
   6  -2  -3    7.08    1.04
   5  -2  -3    4.64    0.88
   5  -2  -3    4.18    0.84
   5  -2  -3    5.82    1.87
   4  -2  -3   53.09    4.18
   4  -2  -3   48.96    2.44
   4  -2  -3   50.75    2.41
   3  -2  -3   19.88    1.66
   3  -2  -3   20.35    1.62
  -3   2   3   20.19    1.42
  -3   2   3   22.34    1.50
   2  -2  -3   22.09    1.88
   2  -2  -3   22.00    1.83
  -2   2   3   20.72    1.73
  -2   2   3   23.09    1.76
   1  -2  -3   15.57    1.67
   1  -2  -3   13.12    1.47
  -1   2   3   16.39    1.74
  -1   2   3   13.31    1.79
   0  -2  -3   10.59    1.67
   0   2   3    9.02    1.58
  -1  -2  -3    1.17    0.74
  -1  -2  -3    1.00    0.71
   1   2   3    0.19    0.60
   1   2   3    0.25    0.67
  -2  -2  -3    1.01    0.68
  -2  -2  -3    0.89    0.65
  -2  -2  -3    1.25    0.38
   2   2   3   -0.32    0.56
   2   2   3   -0.08    0.57
  -3  -2  -3  152.82    5.26
  -3  -2  -3  147.26    5.27
   3   2   3  152.22    6.04
   3   2   3  145.43    6.01
  -4  -2  -3   36.82    2.32
  -4  -2  -3   36.64    2.30
   4   2   3   37.97    3.03
   4   2   3   36.66    3.04
   5   2   3   73.35    4.55
   5   2   3   65.54    4.25
   6   2   3   65.39    4.48
   6   2   3   70.36    4.75
   7   2   3   36.84    3.67
   7   2   3   39.28    3.65
   8   2   3   19.12    3.16
   9   2   3    7.49    2.37
   9   2   3    4.13    1.91
  10   2   3    0.71    1.61
  11  -3  -3   30.75    2.22
  11  -3  -3   29.31    2.21
  10  -3  -3   10.78    3.43
  10  -3  -3    7.44    1.26
   9  -3  -3   33.53    5.78
   9  -3  -3   36.83    2.37
   9  -3  -3   46.39    2.57
   8  -3  -3    3.21    0.90
   8  -3  -3    1.85    1.69
   8  -3  -3    1.15    0.75
   7  -3  -3    7.57    1.24
   7  -3  -3    5.61    1.15
   7  -3  -3    8.27    2.56
   6  -3  -3    9.80    1.50
   6  -3  -3    6.83    2.33
   6  -3  -3    9.25    1.42
   5  -3  -3    3.61    0.92
   5  -3  -3    3.22    0.95
   5  -3  -3    2.83    1.50
   4  -3  -3   15.24    2.81
   4  -3  -3   20.77    1.87
   4  -3  -3   19.11    2.08
  -4   3   3   19.40    1.39
  -4   3   3   19.88    1.85
   3  -3  -3  129.72    6.20
   3  -3  -3  131.42    5.04
   3  -3  -3  133.62    5.02
  -3   3   3  144.99    4.74
  -3   3   3  143.36    4.86
   2  -3  -3    2.18    0.98
   2  -3  -3    1.33    0.82
   2  -3  -3    2.50    0.96
  -2   3   3    2.15    0.81
  -2   3   3    1.07    0.71
   1  -3  -3   67.07    3.38
   1  -3  -3   80.47    3.98
   1  -3  -3   79.31    3.98
  -1   3   3   77.70    3.97
  -1   3   3   80.07    3.89
   0  -3  -3  102.36    4.68
   0  -3  -3   99.74    4.59
   0  -3  -3   89.37    3.13
   0   3   3  101.71    4.74
   0   3   3  100.94    4.60
  -1  -3  -3   16.54    1.87
  -1  -3  -3   15.51    2.20
   1   3   3   15.01    2.20
   1   3   3   14.16    2.21
  -2  -3  -3   40.60    2.94
  -2  -3  -3   41.51    2.94
   2   3   3   39.72    3.10
   2   3   3   40.86    3.13
  -3  -3  -3  118.04    4.92
  -3  -3  -3  103.26    4.71
   3   3   3  106.03    5.41
   3   3   3  113.96    5.64
  -4  -3  -3    6.18    1.31
  -4  -3  -3    5.44    1.27
   4   3   3    7.92    1.95
  -5  -3  -3   34.16    2.07
   5   3   3   36.86    3.41
   5   3   3   41.05    3.65
   6   3   3    3.68    1.60
   6   3   3    2.81    1.55
   7   3   3    0.58    1.21
   8   3   3    2.81    1.30
   8   3   3   -0.57    1.65
   9   3   3   -0.08    1.90
  10   3   3    6.13    2.05
  12  -4  -3   -1.03    1.59
  11  -4  -3   19.03    2.07
  11  -4  -3   19.10    2.43
  10  -4  -3    2.80    0.98
  10  -4  -3    2.12    0.94
   9  -4  -3    0.48    0.97
   9  -4  -3    0.10    1.98
   9  -4  -3    2.69    1.03
   8  -4  -3   11.18    1.82
   8  -4  -3   14.45    2.05
   8  -4  -3    9.56    2.85
   7  -4  -3   51.65    3.30
   7  -4  -3   45.64    3.06
   7  -4  -3   65.24    5.97
   6  -4  -3   27.10    4.44
   6  -4  -3   24.47    2.33
   6  -4  -3   24.38    2.28
   5  -4  -3   -0.15    0.77
   5  -4  -3    0.70    0.60
   5  -4  -3    1.26    0.75
  -5   4   3    0.29    0.33
  -5   4   3   -0.55    0.33
   4  -4  -3   -0.14    0.74
   4  -4  -3    0.95    0.76
   4  -4  -3    0.21    0.65
  -4   4   3    0.64    0.62
  -4   4   3    0.19    0.48
   3  -4  -3   24.12    2.72
   3  -4  -3   21.40    2.26
   3  -4  -3   19.70    2.17
  -3   4   3   24.06    2.21
  -3   4   3   25.50    2.18
   2  -4  -3   16.25    2.38
   2  -4  -3   15.88    2.02
   2  -4  -3   12.48    2.04
  -2   4   3   16.70    2.33
  -2   4   3   14.82    2.20
   1  -4  -3  103.31    5.05
   1  -4  -3  103.33    5.06
   1  -4  -3  104.60    4.34
  -1   4   3   94.78    4.78
  -1   4   3  109.52    5.16
   0  -4  -3   48.75    3.53
   0  -4  -3   46.14    3.41
   0   4   3   48.90    3.51
   0   4   3   47.89    3.41
  -1  -4  -3   54.32    3.70
   1   4   3   48.74    3.72
   1   4   3   55.27    3.84
  -2  -4  -3  100.57    5.07
  -2  -4  -3   97.15    5.01
   2   4   3  104.40    5.61
   2   4   3  104.13    6.44
  -3  -4  -3   10.53    1.98
  -3  -4  -3   14.66    2.40
   3   4   3    9.61    2.18
   3   4   3    8.44    2.01
  -4  -4  -3    4.36    1.30
  -4  -4  -3    5.06    1.44
   4   4   3    4.08    1.41
   4   4   3    1.86    1.25
  -5  -4  -3   -1.33    0.54
  -5  -4  -3    0.80    0.77
   5   4   3   -1.08    0.72
   5   4   3    0.68    1.22
   6   4   3    2.79    1.55
   6   4   3    3.86    1.56
   7   4   3    3.03    1.66
   7   4   3    5.13    2.10
   8   4   3   12.99    3.04
  11  -5  -3    1.91    1.28
  11  -5  -3    3.27    1.72
  10  -5  -3   14.44    2.17
  10  -5  -3   16.76    2.53
   9  -5  -3   22.26    2.50
   8  -5  -3    5.92    2.58
   8  -5  -3    7.52    1.79
   8  -5  -3    7.15    1.64
   7  -5  -3    1.48    1.34
   7  -5  -3    2.56    1.17
   7  -5  -3   -0.08    0.77
   6  -5  -3   11.81    2.12
   6  -5  -3   10.37    1.98
   6  -5  -3   11.67    2.96
   5  -5  -3   38.24    3.18
   5  -5  -3   38.06    4.15
   5  -5  -3   41.02    3.24
  -5   5   3   46.75    4.22
  -5   5   3   36.68    2.46
   4  -5  -3   24.27    3.20
   4  -5  -3   27.72    3.33
   4  -5  -3   20.53    2.87
  -4   5   3   20.85    2.12
  -4   5   3   27.10    2.39
   3  -5  -3   23.83    2.59
   3  -5  -3   28.59    2.77
   3  -5  -3   28.86    3.07
  -3   5   3   25.65    2.47
  -3   5   3   24.72    2.51
   2  -5  -3   15.57    2.53
   2  -5  -3   12.80    2.39
  -2   5   3   12.76    2.32
  -2   5   3   16.18    2.54
   1  -5  -3    5.00    1.62
   1  -5  -3    4.27    1.39
  -1   5   3    2.66    1.28
  -1   5   3    4.03    1.32
   0  -5  -3   67.29    4.41
   0  -5  -3   62.30    5.06
   0   5   3   60.10    4.35
   0   5   3   62.71    4.42
   1   5   3   85.51    5.18
   1   5   3   82.14    5.18
  -2  -5  -3    9.68    2.44
  -2  -5  -3    7.80    1.85
   2   5   3    9.17    2.28
   2   5   3   10.23    2.30
  -3  -5  -3   53.81    3.93
   3   5   3   52.39    4.29
   3   5   3   50.33    4.32
  -4  -5  -3    9.05    1.97
  -4  -5  -3   13.22    2.36
   4   5   3   10.86    2.43
  -5  -5  -3    1.58    1.00
  -5  -5  -3    1.26    1.00
   5   5   3    6.57    1.94
   5   5   3    2.14    1.29
   6   5   3    0.38    1.23
   6   5   3    1.63    1.14
   7   5   3    0.24    1.58
  11  -6  -3   -3.37    1.39
  10  -6  -3   -0.40    1.04
  10  -6  -3    2.92    1.38
   9  -6  -3    3.10    1.27
   9  -6  -3    0.08    1.06
   8  -6  -3    1.53    1.13
   8  -6  -3   -0.75    0.78
   7  -6  -3   25.59    2.84
   7  -6  -3   20.97    3.17
   6  -6  -3    9.53    2.05
   6  -6  -3    5.07    1.62
  -6   6   3    1.99    0.77
  -6   6   3    3.87    0.88
   5  -6  -3    2.00    0.99
   5  -6  -3    0.64    0.86
  -5   6   3    0.77    0.64
  -5   6   3    1.63    0.93
   4  -6  -3   96.38    5.61
   4  -6  -3   96.80    5.58
  -4   6   3   98.95    5.14
  -4   6   3  100.03    5.20
   3  -6  -3    3.55    1.40
   3  -6  -3    1.83    1.16
  -3   6   3    2.39    1.21
  -3   6   3    3.72    1.47
   2  -6  -3  196.78    8.30
   2  -6  -3  191.33    8.22
  -2   6   3  191.81    8.09
  -2   6   3  195.64    8.09
   1  -6  -3  164.54    7.69
   1  -6  -3  172.29    7.83
  -1   6   3  173.66    7.86
  -1   6   3  187.55    8.16
   0  -6  -3    7.57    2.08
   0  -6  -3    9.73    2.17
   0   6   3   12.29    2.54
   0   6   3   11.95    2.51
  -1  -6  -3   12.58    2.61
   1   6   3   10.73    2.35
   1   6   3    9.52    2.34
  -2  -6  -3    1.94    1.18
  -2  -6  -3    1.31    1.02
   2   6   3    0.04    1.12
  -3  -6  -3    0.92    1.14
  -3  -6  -3    0.80    0.89
   3   6   3   -1.89    0.82
   3   6   3   -1.15    0.64
  -4  -6  -3    0.80    1.12
  -4  -6  -3   -0.91    0.95
   4   6   3    1.88    1.51
   4   6   3    1.67    1.20
  -5  -6  -3   -0.83    0.98
  -5  -6  -3   -0.38    1.16
   5   6   3   -1.47    1.06
   5   6   3   -1.54    1.23
   6   6   3    3.50    1.38
   7   6   3   22.01    4.40
  11  -7  -3    7.00    3.60
  11  -7  -3    4.29    1.73
  10  -7  -3    2.38    1.37
  10  -7  -3   -1.91    1.65
   9  -7  -3   10.89    2.43
   9  -7  -3   10.80    2.46
   8  -7  -3   10.11    2.25
   8  -7  -3    7.86    2.28
   7  -7  -3    9.09    2.19
   6  -7  -3   38.67    3.90
   6  -7  -3   42.76    4.01
  -6   7   3   40.75    2.94
  -6   7   3   34.64    2.82
   5  -7  -3   16.07    2.95
   5  -7  -3   17.08    3.01
  -5   7   3   21.91    2.99
  -5   7   3   22.98    2.60
   4  -7  -3   19.21    3.30
   4  -7  -3   15.99    3.03
  -4   7   3   13.82    2.50
  -4   7   3   18.15    2.89
   3  -7  -3   38.10    3.90
   3  -7  -3   35.44    3.75
  -3   7   3   40.64    3.82
  -3   7   3   39.92    3.78
   2  -7  -3   11.26    2.49
   2  -7  -3    8.57    2.28
  -2   7   3    8.35    2.18
  -2   7   3    9.67    2.40
   1  -7  -3   12.92    2.84
   1  -7  -3   12.18    2.58
  -1   7   3   12.21    2.76
  -1   7   3   12.39    2.71
   0  -7  -3    2.88    1.68
   0   7   3    0.63    1.12
   0   7   3    0.42    1.02
  -1  -7  -3   25.75    3.83
   1   7   3   26.08    4.07
   1   7   3   27.11    4.20
  -2  -7  -3    8.39    2.29
  -2  -7  -3    7.69    2.43
   2   7   3   10.02    2.69
  -3  -7  -3   10.47    2.37
  -3  -7  -3   11.88    2.86
   3   7   3   13.10    3.16
   3   7   3    8.04    2.46
  -4  -7  -3   -0.07    1.67
  -4  -7  -3    1.85    1.35
   4   7   3    2.31    1.45
  -5  -7  -3    8.59    2.08
  -5  -7  -3    6.05    2.13
   5   7   3   12.57    3.21
   6   7   3   21.23    4.48
  10  -8  -3    8.30    2.38
   9  -8  -3    7.79    2.18
   8  -8  -3    7.50    2.26
   8  -8  -3   11.90    2.68
   7  -8  -3   -0.06    1.46
  -7   8   3    0.14    1.10
  -7   8   3    0.49    0.69
   6  -8  -3   11.58    2.74
  -6   8   3    9.87    2.01
  -6   8   3   11.96    2.19
   5  -8  -3   16.62    3.16
   5  -8  -3   16.17    3.82
  -5   8   3   21.76    3.30
  -5   8   3   16.11    3.03
   4  -8  -3   20.65    3.56
   4  -8  -3   29.08    4.32
  -4   8   3   28.08    3.87
  -4   8   3   23.10    3.69
   3  -8  -3    3.00    1.31
   3  -8  -3    0.51    1.29
  -3   8   3    1.19    1.33
  -3   8   3    3.58    1.53
   2  -8  -3    3.91    1.95
   2  -8  -3    6.42    2.12
  -2   8   3    4.21    1.78
  -2   8   3    2.29    1.51
   1  -8  -3    1.15    1.54
   1  -8  -3    0.44    1.25
  -1   8   3    1.05    1.16
  -1   8   3   -1.30    1.03
   0  -8  -3    0.33    1.49
   0   8   3   -0.05    0.87
   0   8   3    2.71    1.49
   1   8   3    6.43    2.07
   1   8   3    5.79    1.72
  -2  -8  -3    3.93    1.63
   2   8   3    1.33    1.45
  -3  -8  -3    0.88    1.54
   3   8   3    4.19    1.68
  -4  -8  -3    3.73    2.22
  -4  -8  -3    2.13    1.73
   4   8   3    2.56    1.81
  -5  -8  -3    0.23    2.68
  10  -9  -3    5.36    2.51
   8  -9  -3   65.87    5.86
   7  -9  -3   11.69    3.00
  -7   9   3    6.00    1.45
  -7   9   3    6.55    1.84
   6  -9  -3    6.08    2.37
  -6   9   3    7.20    2.01
  -6   9   3    4.67    2.21
   5  -9  -3   25.99    4.30
  -5   9   3   27.49    3.78
  -5   9   3   26.98    3.90
   4  -9  -3    1.17    1.32
  -4   9   3    4.10    1.80
  -4   9   3   -1.19    1.22
   3  -9  -3    2.95    1.30
  -3   9   3    2.79    1.74
  -3   9   3    2.38    1.62
   2  -9  -3   12.01    2.79
  -2   9   3   10.70    2.82
  -2   9   3    8.10    2.38
   1  -9  -3    1.47    1.67
  -1   9   3    2.46    1.70
   0  -9  -3    0.95    1.47
   0   9   3    0.28    1.12
   1   9   3    0.86    1.81
  -2  -9  -3   17.81    3.45
   2   9   3   15.52    3.37
  -3  -9  -3   -1.45    1.74
   3   9   3    1.13    1.66
  -4  -9  -3   73.42    5.64
  -4  -9  -3   62.27    6.19
   8 -10  -3    1.08    2.51
   7 -10  -3    4.94    1.83
  -7  10   3    1.69    1.48
  -7  10   3    4.59    3.87
   6 -10  -3    0.79    1.10
  -6  10   3   -0.32    1.59
  -6  10   3   -0.89    2.37
   5 -10  -3   -1.65    1.94
  -5  10   3    0.19    1.47
  -5  10   3   -1.08    1.85
  -4  10   3   -1.61    1.69
  -4  10   3   -2.91    1.08
  -3  10   3    3.53    1.92
  -2  10   3    4.69    2.11
   0 -10  -3   -0.43    1.47
   0  10   3    1.70    1.71
   1  10   3    5.46    2.18
  -2 -10  -3   -3.72    1.22
  -3 -10  -3    9.26    2.91
  -6  11   3    1.92    1.93
  -6  11   3    7.89    3.84
  -5  11   3   -0.55    1.63
  -3  11   3   12.04    3.08
  -2  11   3    3.26    2.76
  -6  12   3   -1.14    3.59
  -5  12   3    9.76    3.49
  -3 -12   4   -5.41    2.03
   2  12  -4   -2.06    1.42
  -2 -12   4    7.38    2.13
   1  12  -4    3.90    2.22
  -1 -12   4    2.86    2.50
   0  12  -4    3.08    2.50
   0  12  -4    8.87    2.59
   0 -12   4    5.53    2.87
  -1  12  -4    3.06    2.14
  -1  12  -4    3.71    2.06
   1 -12   4    4.77    2.34
  -2  12  -4    7.66    2.47
   2 -12   4    1.74    1.97
  -3  12  -4    4.86    2.30
  -5  12  -4   -1.48    1.98
  -6  12  -4    6.70    3.00
   4  11  -4   19.65    2.38
  -4 -11   4   10.33    2.91
  -4 -11   4   14.01    3.69
   3  11  -4   38.58    5.83
  -3 -11   4   38.55    5.18
   2  11  -4    4.63    1.65
   2  11  -4    1.51    1.66
  -2 -11   4    5.69    2.61
   1  11  -4   13.31    2.85
  -1 -11   4    9.71    2.99
   0  11  -4    2.61    1.61
   0  11  -4    5.23    1.75
   0 -11   4   12.17    3.15
  -1  11  -4    6.13    1.94
  -1  11  -4    0.13    1.71
   1 -11   4    3.20    1.70
  -2  11  -4    5.71    2.51
  -2  11  -4    7.47    2.57
   2 -11   4   13.50    3.17
  -3  11  -4   -2.03    1.23
  -3  11  -4    0.90    1.53
  -4  11  -4   -3.82    1.84
  -4  11  -4    0.11    1.30
   4 -11   4   -0.28    1.71
  -5  11  -4    9.58    2.65
  -5  11  -4    8.76    3.19
   5 -11   4    7.05    3.35
  -6  11  -4    6.36    2.91
  -6  11  -4    7.07    2.37
   5  10  -4    5.51    2.02
  -5 -10   4    2.05    2.15
   4  10  -4   16.73    3.93
  -4 -10   4   18.65    3.27
  -4 -10   4   23.53    3.70
   3  10  -4    4.89    2.05
  -3 -10   4    6.08    2.31
   2  10  -4    8.75    2.67
  -2 -10   4    6.55    2.30
  -2 -10   4    8.19    2.41
   1  10  -4    0.10    1.11
  -1 -10   4    0.33    1.36
  -1 -10   4    2.12    1.66
   0  10  -4   -0.38    1.11
   0  10  -4    4.57    2.05
   0 -10   4    1.97    1.72
   0 -10   4   -0.31    1.35
  -1  10  -4   -0.10    1.53
  -1  10  -4   -0.85    1.08
  -1  10  -4    2.38    1.35
   1 -10   4   -0.05    1.03
   1 -10   4    0.24    1.16
  -2  10  -4    6.47    2.11
  -2  10  -4    8.42    2.35
  -2  10  -4    3.21    2.10
   2 -10   4    7.58    2.51
   2 -10   4    8.42    2.60
  -3  10  -4    7.77    3.12
  -3  10  -4    5.92    2.14
  -3  10  -4    7.23    2.63
   3 -10   4    5.98    2.40
  -4  10  -4   25.57    4.24
  -4  10  -4   17.01    3.14
  -4  10  -4   23.86    4.72
   4 -10   4   32.20    5.06
  -5  10  -4   -0.63    1.25
  -5  10  -4   -1.98    1.56
   5 -10   4    0.93    1.87
  -6  10  -4   -0.66    1.20
  -6  10  -4   -0.55    1.74
   6 -10   4    2.05    1.37
  -7  10  -4    2.85    1.51
  -7  10  -4    1.05    1.65
   7 -10   4    3.89    1.73
   7   9  -4   15.13    1.72
   7   9  -4   28.30    4.66
   6   9  -4    4.71    1.63
  -6  -9   4    4.30    1.96
  -6  -9   4    3.88    1.55
   5   9  -4   17.36    3.62
   4   9  -4    7.82    2.41
   4   9  -4   12.08    2.83
  -4  -9   4    5.90    2.02
  -4  -9   4    6.50    1.90
   3   9  -4   20.65    3.78
   3   9  -4   23.60    4.11
  -3  -9   4   24.70    3.59
  -3  -9   4   19.26    3.86
   2   9  -4    2.66    1.23
   2   9  -4    5.38    1.99
  -2  -9   4   -0.38    1.12
  -2  -9   4    5.71    1.90
   1   9  -4    1.37    1.30
   1   9  -4   -1.16    1.16
  -1  -9   4    0.78    1.43
  -1  -9   4   -0.45    0.96
   0   9  -4    7.67    2.27
   0   9  -4    7.92    2.39
   0  -9   4    6.26    1.87
   0  -9   4    8.53    2.30
  -1   9  -4    0.50    1.20
  -1   9  -4   -1.17    0.64
   1  -9   4    2.83    1.33
   1  -9   4   -0.44    1.21
  -2   9  -4    2.48    1.44
  -2   9  -4    8.61    2.29
   2  -9   4    3.28    1.52
   2  -9   4    6.55    2.23
  -3   9  -4    7.69    2.39
  -3   9  -4    8.65    2.33
  -3   9  -4   10.19    2.64
   3  -9   4    5.35    1.72
  -4   9  -4   21.91    3.92
  -4   9  -4   25.10    3.80
   4  -9   4   20.39    3.71
   4  -9   4   15.90    2.91
  -5   9  -4    1.84    1.45
  -5   9  -4    3.68    2.02
  -5   9  -4    2.67    1.33
   5  -9   4    1.08    1.11
   5  -9   4    1.24    1.16
  -6   9  -4    4.56    3.43
   6  -9   4   14.63    3.16
  -7   9  -4    0.43    0.90
  -7   9  -4    2.16    1.87
   7  -9   4    1.82    1.71
   9  -9   4    3.81    2.51
   9   8  -4    1.23    1.92
   8   8  -4    2.54    1.32
   8   8  -4    5.24    3.66
   7   8  -4   53.91    4.09
   7   8  -4   53.83    5.04
   6   8  -4   38.95    4.27
   6   8  -4   32.14    4.52
   5   8  -4    5.97    2.37
   5   8  -4    3.38    1.87
  -5  -8   4    6.79    1.65
   4   8  -4   24.05    3.88
   4   8  -4   22.75    3.71
  -4  -8   4   26.72    2.90
  -4  -8   4   27.44    3.07
   3   8  -4    6.38    1.96
   3   8  -4    7.59    1.99
  -3  -8   4    6.12    1.67
  -3  -8   4    5.72    1.90
   2   8  -4    7.55    2.11
   2   8  -4    8.72    2.91
  -2  -8   4    6.98    2.02
  -2  -8   4    7.51    2.06
   1   8  -4   10.13    2.60
   1   8  -4    7.69    2.07
  -1  -8   4    9.08    2.29
  -1  -8   4    5.26    1.71
   0   8  -4   21.16    3.45
   0   8  -4   30.87    3.46
   0  -8   4   24.98    3.46
   0  -8   4   27.32    3.93
  -1   8  -4    1.89    1.52
  -1   8  -4    2.97    1.52
   1  -8   4    2.61    1.60
   1  -8   4    3.04    1.35
  -2   8  -4    2.75    1.27
  -2   8  -4    4.06    1.62
   2  -8   4    3.42    1.56
   2  -8   4    4.59    1.54
  -3   8  -4    0.05    1.15
  -3   8  -4    2.53    1.44
  -3   8  -4   -0.90    0.80
   3  -8   4    1.24    1.08
  -4   8  -4   24.41    3.44
  -4   8  -4   23.45    4.71
  -4   8  -4   31.02    4.03
   4  -8   4   22.98    3.49
   4  -8   4   29.48    4.29
  -5   8  -4   43.66    3.71
  -5   8  -4   48.35    3.80
   5  -8   4   43.33    4.34
   5  -8   4   44.96    4.32
  -6   8  -4    1.14    0.93
  -6   8  -4    0.60    1.81
  -6   8  -4    1.32    1.17
   6  -8   4   -0.47    0.88
   7  -8   4   -0.43    1.35
   7  -8   4   -0.04    1.37
   8  -8   4   11.92    2.99
   9  -8   4   -1.42    1.53
  10  -8   4    0.68    2.25
  10   7  -4    2.11    2.17
   9   7  -4    3.01    2.04
   9   7  -4    4.13    1.76
   8   7  -4   -0.46    1.16
   8   7  -4    2.72    1.73
   8   7  -4    0.01    1.19
   7   7  -4    0.76    1.04
   7   7  -4   -0.72    1.18
   6   7  -4    1.61    1.05
   6   7  -4    0.09    1.01
   5   7  -4   -0.48    1.10
   5   7  -4   -0.22    0.99
  -5  -7   4    0.10    0.74
   4   7  -4    5.14    1.78
  -4  -7   4    7.54    1.69
  -4  -7   4    6.99    1.76
   3   7  -4   -1.15    0.53
   3   7  -4    1.35    0.97
  -3  -7   4   -0.67    0.71
  -3  -7   4    1.05    0.76
   2   7  -4   11.16    2.44
   2   7  -4   11.00    2.36
  -2  -7   4   10.17    2.03
  -2  -7   4   13.45    2.39
   1   7  -4   79.77    5.13
   1   7  -4   83.42    5.27
  -1  -7   4   79.19    4.91
  -1  -7   4   71.12    4.81
   0   7  -4   11.79    2.46
   0   7  -4   18.52    3.18
   0  -7   4   13.97    2.62
   0  -7   4    9.30    2.30
  -1   7  -4   10.33    2.21
  -1   7  -4    7.98    1.99
   1  -7   4   13.54    2.69
   1  -7   4   10.49    2.35
  -2   7  -4    0.08    0.73
  -2   7  -4    1.83    1.13
   2  -7   4   -0.03    0.96
   2  -7   4   -1.58    0.80
  -3   7  -4   96.08    5.48
  -3   7  -4   96.53    5.42
   3  -7   4   97.81    5.98
   3  -7   4   96.08    5.80
  -4   7  -4   10.53    2.79
  -4   7  -4   10.83    2.09
  -4   7  -4    8.04    1.96
   4  -7   4    9.20    2.17
   4  -7   4    9.27    2.33
  -5   7  -4   35.81    3.02
  -5   7  -4   36.68    3.13
  -5   7  -4   28.90    5.08
   5  -7   4   31.48    3.55
   5  -7   4   31.20    3.38
  -6   7  -4   13.70    1.96
  -6   7  -4   13.53    3.62
  -6   7  -4   17.59    2.28
   6  -7   4   14.80    2.92
   6  -7   4   19.32    3.29
   7  -7   4    0.81    1.27
   7  -7   4   -0.47    1.07
   8  -7   4    7.75    2.13
   8  -7   4    6.40    2.28
   9  -7   4    1.92    1.38
  10  -7   4    3.21    2.33
  10   6  -4    0.23    1.29
   9   6  -4   -1.30    1.37
   9   6  -4   -0.23    1.15
   8   6  -4   16.84    3.13
   8   6  -4   26.25    3.73
   8   6  -4   20.91    3.44
   7   6  -4   -0.55    1.16
   7   6  -4    0.86    1.07
   7   6  -4   -0.46    0.90
   6   6  -4   48.13    4.05
   6   6  -4   49.69    4.00
   5   6  -4    4.47    1.48
   5   6  -4    3.79    1.38
  -5  -6   4    2.70    0.92
   4   6  -4    1.61    1.04
   4   6  -4    1.94    1.12
  -4  -6   4    0.65    0.79
  -4  -6   4    0.05    0.67
   3   6  -4    0.40    0.67
   3   6  -4    0.02    0.76
  -3  -6   4    0.43    0.71
  -3  -6   4   -1.22    0.41
   2   6  -4    7.25    1.78
  -2  -6   4   10.18    2.01
  -2  -6   4    6.10    1.71
   1   6  -4    2.87    1.33
   1   6  -4    0.96    0.88
  -1  -6   4    0.97    0.86
  -1  -6   4    4.41    1.34
   0   6  -4    0.41    0.62
   0   6  -4   -0.51    0.34
   0  -6   4   -0.66    0.60
   0  -6   4    0.10    0.60
  -1   6  -4    1.65    1.19
  -1   6  -4    2.89    1.17
   1  -6   4    1.66    1.02
   1  -6   4    1.82    1.10
  -2   6  -4   57.37    3.95
  -2   6  -4   59.55    4.04
   2  -6   4   68.60    4.57
  -3   6  -4    6.25    1.71
  -3   6  -4    7.28    1.83
   3  -6   4    9.95    2.29
   3  -6   4    6.62    1.90
  -4   6  -4   23.36    4.30
  -4   6  -4   21.44    2.41
  -4   6  -4   24.43    2.41
   4  -6   4   20.89    3.21
   4  -6   4   24.03    3.30
  -5   6  -4    1.62    0.87
  -5   6  -4   -0.06    0.79
  -5   6  -4    0.84    1.27
   5  -6   4    0.86    0.72
   5  -6   4   -0.16    0.76
  -6   6  -4   26.72    4.87
   6  -6   4   20.02    3.07
   6  -6   4   19.16    3.15
  -7   6  -4    1.84    1.51
   7  -6   4    2.41    1.50
   7  -6   4    1.16    1.40
   8  -6   4    3.87    1.46
   8  -6   4    4.01    1.61
   9  -6   4   -3.10    1.54
   9  -6   4    2.29    1.56
  10  -6   4    2.72    1.71
  11   5  -4   -1.35    2.24
  10   5  -4   -2.84    1.03
  10   5  -4    1.58    1.69
  10   5  -4   -1.19    1.52
   9   5  -4    3.39    1.67
   9   5  -4    8.34    2.53
   9   5  -4    4.87    1.60
   8   5  -4    4.17    1.95
   8   5  -4    3.13    1.44
   8   5  -4    3.03    1.37
   7   5  -4    1.09    1.31
   7   5  -4    1.02    0.95
   7   5  -4    0.82    0.93
   6   5  -4   16.62    2.50
   6   5  -4   15.75    2.47
   5   5  -4   70.17    4.29
   5   5  -4   78.09    4.51
  -5  -5   4   71.48    2.34
   4   5  -4    3.57    1.17
   4   5  -4    2.76    1.16
  -4  -5   4    3.63    1.07
   3   5  -4    3.42    1.22
   3   5  -4    5.30    1.41
  -3  -5   4    7.49    1.56
  -3  -5   4    5.43    1.30
   2   5  -4   58.77    3.78
   2   5  -4   56.61    3.67
  -2  -5   4   58.02    3.54
  -2  -5   4   55.99    3.37
   1   5  -4  213.06    7.42
   1   5  -4  200.08    7.38
  -1  -5   4  203.54    7.07
  -1  -5   4  207.72    7.30
   0   5  -4  145.66    5.99
   0   5  -4  144.75    6.16
   0  -5   4  150.85    6.05
   0  -5   4  147.93    6.16
  -1   5  -4   98.02    4.79
  -1   5  -4   91.93    4.82
   1  -5   4   99.26    5.04
   1  -5   4   96.04    4.87
  -2   5  -4   30.01    2.73
  -2   5  -4   26.27    2.49
   2  -5   4   23.43    2.49
   2  -5   4   25.13    2.68
  -3   5  -4    4.99    1.40
  -3   5  -4    4.80    1.38
   3  -5   4    4.72    1.53
   3  -5   4    5.24    1.48
  -4   5  -4    6.20    1.40
  -4   5  -4    7.52    2.22
  -4   5  -4    8.25    1.60
   4  -5   4    7.84    1.78
   4  -5   4    7.61    1.85
  -5   5  -4    3.56    1.34
  -5   5  -4    4.25    1.19
  -5   5  -4    3.54    1.82
   5  -5   4    2.64    1.18
   5  -5   4    5.95    1.58
  -6   5  -4   44.41    5.26
   6  -5   4   46.21    3.75
   6  -5   4   45.56    3.85
  -7   5  -4   52.07    6.18
   7  -5   4   54.37    4.09
   7  -5   4   60.07    4.55
  -8   5  -4    3.75    2.19
   8  -5   4    5.36    1.67
   8  -5   4    2.51    1.22
   9  -5   4    2.03    1.92
   9  -5   4    4.76    1.83
  10  -5   4   10.19    2.18
  10  -5   4    3.26    2.40
  11  -5   4    7.83    2.87
  11   4  -4    4.91    1.50
  11   4  -4    5.06    2.59
  10   4  -4   -0.24    1.53
  10   4  -4    3.08    1.39
  10   4  -4    1.52    0.94
   9   4  -4    3.76    1.60
   9   4  -4    6.23    1.58
   9   4  -4   10.26    2.63
   8   4  -4    1.63    1.46
   8   4  -4    1.22    0.93
   8   4  -4    1.99    0.97
   7   4  -4    0.36    0.62
   7   4  -4   -0.44    0.58
   6   4  -4   81.79    4.17
   6   4  -4   81.05    4.18
   5   4  -4   50.78    3.18
   5   4  -4   51.55    3.26
   4   4  -4   11.85    1.87
   4   4  -4   14.19    2.01
  -4  -4   4   10.90    1.16
  -4  -4   4   13.33    1.25
   3   4  -4   46.47    3.03
   3   4  -4   51.21    3.15
  -3  -4   4   49.50    2.69
  -3  -4   4   49.67    2.76
   2   4  -4   33.80    2.63
   2   4  -4   32.65    2.54
  -2  -4   4   31.08    2.30
  -2  -4   4   31.88    2.39
   1   4  -4   38.10    2.77
   1   4  -4   40.21    2.85
  -1  -4   4   41.46    2.85
  -1  -4   4   38.67    2.62
   0   4  -4    9.84    1.75
   0   4  -4    7.14    1.47
   0  -4   4    8.98    1.70
   0  -4   4    7.76    1.54
  -1   4  -4   -0.33    0.61
  -1   4  -4   -0.94    0.47
   1  -4   4    0.93    0.64
   1  -4   4    0.07    0.50
  -2   4  -4    0.34    0.61
  -2   4  -4    0.53    0.69
   2  -4   4    0.00    0.61
   2  -4   4    0.28    0.79
  -3   4  -4   26.94    2.25
  -3   4  -4   25.04    2.30
   3  -4   4   27.84    2.68
   3  -4   4   26.73    2.40
  -4   4  -4   -0.04    0.55
  -4   4  -4    0.56    0.68
   4  -4   4    0.72    0.82
   4  -4   4   -0.15    0.64
  -5   4  -4   31.38    3.91
  -5   4  -4   29.41    1.93
   5  -4   4   30.78    2.80
   5  -4   4   32.20    2.96
  -6   4  -4   68.02    6.23
   6  -4   4   58.81    4.61
   6  -4   4   65.84    4.48
  -7   4  -4    6.37    2.54
   7  -4   4    7.91    1.94
   7  -4   4    8.15    2.00
  -8   4  -4   -2.23    1.72
   8  -4   4    3.28    1.29
   8  -4   4    1.68    1.09
   9  -4   4    3.16    1.58
   9  -4   4    5.28    1.72
  10  -4   4   15.05    3.15
  10  -4   4   15.30    3.14
  11   3  -4    0.92    0.96
  11   3  -4   -1.17    2.02
  10   3  -4   10.95    3.08
  10   3  -4    9.88    1.79
  10   3  -4    8.28    1.64
   9   3  -4    1.63    0.74
   9   3  -4    1.66    0.69
   9   3  -4   -1.41    1.12
   8   3  -4   -0.15    0.51
   8   3  -4   -0.11    0.60
   7   3  -4   40.55    2.66
   7   3  -4   39.73    4.29
   7   3  -4   40.07    2.58
   6   3  -4    1.90    0.68
   5   3  -4   -0.27    0.40
   5   3  -4    1.44    0.64
   4   3  -4   41.73    2.58
   4   3  -4   45.94    2.62
  -4  -3   4   42.56    1.32
  -4  -3   4   42.56    1.85
   3   3  -4   29.25    2.11
   3   3  -4   27.80    2.12
  -3  -3   4   27.89    1.78
  -3  -3   4   29.39    1.80
   2   3  -4   53.44    2.93
   2   3  -4   51.52    2.95
  -2  -3   4   51.19    2.70
  -2  -3   4   54.00    2.76
   1   3  -4    0.81    0.60
  -1  -3   4    1.22    0.63
  -1  -3   4    0.13    0.65
   0   3  -4   15.48    2.05
   0   3  -4   15.82    1.77
   0  -3   4   14.32    2.03
   0  -3   4   15.69    1.63
  -1   3  -4    3.51    1.06
  -1   3  -4    2.66    0.90
   1  -3   4    3.35    1.10
   1  -3   4    3.25    1.06
  -2   3  -4   60.37    3.24
  -2   3  -4   60.26    3.31
   2  -3   4   63.85    3.64
   2  -3   4   60.01    3.39
  -3   3  -4   40.99    2.64
  -3   3  -4   41.23    2.97
   3  -3   4   39.98    2.84
   3  -3   4   42.34    3.07
  -4   3  -4   30.33    2.12
  -4   3  -4   33.10    2.26
   4  -3   4   31.59    2.60
   4  -3   4   30.04    2.68
  -5   3  -4    2.95    1.51
  -5   3  -4    1.56    0.53
   5  -3   4    1.10    0.92
   5  -3   4    2.77    0.99
  -6   3  -4   33.12    4.19
   6  -3   4   23.97    2.61
   6  -3   4   28.47    2.90
  -7   3  -4    4.47    2.05
   7  -3   4    3.74    1.40
   7  -3   4    5.01    1.57
  -8   3  -4    5.02    2.60
   8  -3   4    5.94    1.92
   8  -3   4    7.18    1.83
  -9   3  -4   -1.66    2.06
   9  -3   4    0.55    1.51
  10  -3   4    4.27    1.70
  10  -3   4   -0.99    1.43
  11  -3   4    0.64    1.54
  11   2  -4   18.17    1.78
  11   2  -4   17.93    1.88
  11   2  -4   19.84    4.32
  10   2  -4   16.73    1.63
  10   2  -4   13.06    1.98
  10   2  -4   19.19    3.96
   9   2  -4    9.23    1.44
   9   2  -4   13.31    1.48
   8   2  -4    2.44    1.66
   8   2  -4    3.46    0.88
   8   2  -4    4.85    0.92
   7   2  -4    3.82    0.86
   7   2  -4    3.37    0.78
   7   2  -4    3.72    1.64
   6   2  -4   43.50    2.21
   6   2  -4   43.64    2.18
   5   2  -4    0.40    0.41
   5   2  -4   -0.56    0.30
   4   2  -4  145.97    4.37
   4   2  -4  145.40    4.47
   3   2  -4    8.99    1.33
   3   2  -4   10.12    1.35
  -3  -2   4   10.57    0.96
  -3  -2   4    8.85    0.90
   2   2  -4  200.61    5.73
   2   2  -4  212.41    6.03
  -2  -2   4  222.72    5.76
  -2  -2   4  208.52    5.53
   1   2  -4    3.86    0.98
   1   2  -4    5.24    1.15
  -1  -2   4    4.55    1.05
  -1  -2   4    4.18    1.05
   0  -2   4 1000.00   19.25
  -1   2  -4   97.72    3.99
  -1   2  -4  102.18    4.18
   1  -2   4   99.23    4.94
   1  -2   4  103.68    4.21
  -2   2  -4    0.61    0.66
  -2   2  -4   -0.33    0.49
   2  -2   4    0.53    0.63
   2  -2   4    0.64    0.65
  -3   2  -4    0.77    0.59
  -3   2  -4   -0.07    0.42
   3  -2   4    0.41    0.53
   3  -2   4    0.50    0.59
  -4   2  -4   22.27    1.75
  -4   2  -4   24.30    1.77
  -4   2  -4   22.95    2.88
   4  -2   4   22.03    2.25
   4  -2   4   23.03    2.20
  -5   2  -4   49.07    4.43
  -5   2  -4   44.71    1.52
  -5   2  -4   46.10    2.22
   5  -2   4   40.58    3.15
   5  -2   4   43.82    3.15
  -6   2  -4    2.78    1.43
   6  -2   4    2.23    1.06
   6  -2   4    0.34    0.73
  -7   2  -4    4.39    1.91
   7  -2   4    6.39    1.79
   7  -2   4    5.87    1.68
  -8   2  -4    2.11    1.73
   8  -2   4    0.62    1.49
   8  -2   4    1.06    1.26
   9  -2   4    5.15    2.07
  10  -2   4   -0.29    1.76
  10  -2   4    0.04    1.29
  11   1  -4    5.10    0.94
  11   1  -4    4.67    0.82
  11   1  -4    6.67    2.64
  10   1  -4   13.06    1.19
  10   1  -4   15.49    1.17
  10   1  -4   15.13    3.64
   9   1  -4    2.22    1.78
   9   1  -4    2.21    0.56
   9   1  -4    1.27    0.62
   8   1  -4   80.27    6.50
   8   1  -4   72.46    2.37
   7   1  -4    5.43    0.75
   7   1  -4    5.08    1.92
   7   1  -4    3.64    0.59
   6   1  -4   57.24    2.03
   6   1  -4   58.13    1.97
   5   1  -4   21.79    1.29
   5   1  -4   22.46    1.25
   4   1  -4  282.65    6.10
   4   1  -4  258.10    6.65
   3   1  -4   28.08    1.75
   3   1  -4   26.67    1.65
  -3  -1   4   28.88    1.23
  -3  -1   4   27.11    1.20
   2   1  -4   10.82    1.20
   2   1  -4   11.81    1.52
  -2  -1   4   12.01    1.24
  -2  -1   4   11.50    1.15
   1   1  -4  117.47    4.08
   1   1  -4  119.39    4.25
  -1  -1   4  116.93    4.02
  -1  -1   4  123.01    4.21
   0   1  -4  146.35    5.01
   0   1  -4  146.27    4.82
   0  -1   4  157.02    5.01
   0  -1   4  155.06    5.10
  -1   1  -4  103.92    4.13
  -1   1  -4  106.25    4.08
   1  -1   4  100.35    4.24
   1  -1   4   95.83    4.01
  -2   1  -4    0.27    0.51
  -2   1  -4   -0.10    0.52
   2  -1   4    0.47    0.48
   2  -1   4   -0.02    0.55
  -3   1  -4   39.82    2.45
  -3   1  -4   38.03    2.36
   3  -1   4   44.93    3.02
   3  -1   4   41.15    2.79
  -4   1  -4   84.89    3.39
  -4   1  -4   85.91    3.38
  -4   1  -4   87.77    5.23
   4  -1   4   85.20    4.30
   4  -1   4   87.45    4.49
  -5   1  -4   71.54    5.10
   5  -1   4   60.90    3.90
   5  -1   4   57.78    3.69
   6  -1   4    1.45    1.00
   6  -1   4    0.69    0.83
  -7   1  -4   33.36    4.26
   7  -1   4   36.42    3.42
   7  -1   4   41.07    3.45
   8  -1   4   -0.64    1.21
   8  -1   4   -1.21    0.96
   9  -1   4   -0.71    1.40
   9  -1   4    3.04    1.08
  10  -1   4   12.48    2.98
  10  -1   4   12.02    3.14
  11   0  -4   -0.86    1.33
  10   0  -4   11.46    3.40
  10   0  -4   12.45    0.58
  10   0  -4   14.82    0.62
   9   0  -4   10.58    0.50
   9   0  -4   13.23    0.56
   9   0  -4   13.40    3.45
   8   0  -4    9.15    2.68
   7   0  -4    2.79    0.27
   7   0  -4    1.83    1.64
   7   0  -4    2.63    0.32
   6   0  -4   32.59    1.21
   6   0  -4   34.12    1.25
   6   0  -4   31.09    3.63
   5   0  -4   27.85    1.35
   5   0  -4   26.38    1.29
   3   0  -4   85.55    3.07
   3   0  -4   84.15    3.14
  -3   0   4   84.61    2.46
  -3   0   4   80.55    2.37
   2   0  -4   40.49    2.19
   2   0  -4   44.44    2.40
  -2   0   4   39.44    2.11
  -2   0   4   37.81    2.08
   1   0  -4   16.65    1.52
   1   0  -4   15.76    1.51
  -1   0   4   18.75    1.65
  -1   0   4   16.41    1.63
   0   0  -4   18.06    1.73
   0   0  -4   17.32    1.68
   0   0   4   18.87    1.86
   0   0   4   17.41    1.74
  -1   0  -4  310.37    8.19
  -1   0  -4  313.12    8.03
   1   0   4  299.42    8.09
  -2   0  -4    6.06    1.27
   2   0   4    5.66    1.26
   2   0   4    6.95    1.45
  -3   0  -4   47.59    2.77
  -3   0  -4   44.63    2.68
   3   0   4   46.21    3.18
   3   0   4   45.65    3.02
  -4   0  -4    1.65    0.71
  -4   0  -4    1.99    0.92
  -4   0  -4    1.47    0.65
   4   0   4    1.84    0.94
   4   0   4   -0.12    0.58
  -5   0  -4  100.63    5.78
  -5   0  -4   99.46    2.61
  -5   0  -4   97.60    2.60
   5   0   4   97.40    5.16
   5   0   4  105.27    5.14
  -6   0  -4   19.88    3.37
   6   0   4   18.86    2.85
   7   0   4   15.85    2.62
   7   0   4   18.52    3.12
   8   0   4   -0.75    1.28
   8   0   4    1.97    1.50
   9   0   4    3.29    1.50
  10   0   4    8.80    1.96
  11  -1  -4   24.62    5.15
  10  -1  -4   29.28    1.04
  10  -1  -4   30.98    5.34
  10  -1  -4   29.23    1.04
   9  -1  -4    9.27    0.68
   9  -1  -4    9.72    3.00
   9  -1  -4    8.88    0.63
   8  -1  -4    0.71    0.30
   8  -1  -4    0.28    0.31
   8  -1  -4   -0.28    0.98
   7  -1  -4    2.82    0.48
   7  -1  -4    2.27    1.37
   7  -1  -4    2.78    0.51
   6  -1  -4   28.61    1.45
   6  -1  -4   28.80    3.65
   5  -1  -4    9.10    0.96
   5  -1  -4   10.20    0.99
   5  -1  -4    7.68    2.15
   4  -1  -4   68.99    2.80
   4  -1  -4   68.98    2.84
   3  -1  -4    8.51    1.28
   3  -1  -4    8.32    1.31
  -3   1   4    9.91    1.04
   2  -1  -4   39.04    2.46
  -2   1   4   47.08    2.44
  -2   1   4   41.36    2.38
   1  -1  -4  103.73    4.15
   1  -1  -4  101.44    4.23
  -1   1   4  104.34    4.14
  -1   1   4  113.80    4.38
   0  -1  -4  106.43    4.47
   0  -1  -4  108.74    5.18
   0   1   4  108.09    4.71
  -1  -1  -4   47.26    2.99
  -1  -1  -4   54.11    3.07
   1   1   4   51.46    3.09
   1   1   4   54.23    3.32
  -2  -1  -4   84.68    4.01
  -2  -1  -4   88.76    4.00
   2   1   4   87.56    4.44
   2   1   4   80.56    4.13
  -3  -1  -4    1.10    0.74
  -3  -1  -4    0.40    0.55
  -3  -1  -4   -0.16    0.37
   3   1   4    0.23    0.65
   3   1   4    1.26    0.84
  -4  -1  -4    3.54    1.01
  -4  -1  -4    3.06    1.04
   4   1   4    2.25    1.14
   4   1   4    2.36    1.07
  -5  -1  -4    3.47    1.25
  -5  -1  -4    4.05    0.84
   5   1   4    8.09    2.02
   5   1   4    4.17    1.43
   6   1   4   19.36    2.99
   6   1   4   18.78    2.91
   7   1   4    1.50    1.14
   8   1   4   -0.43    1.25
   9   1   4    5.90    2.08
   9   1   4    0.05    1.57
  10   1   4    6.98    2.95
  11  -2  -4   37.61    1.77
  11  -2  -4   36.95    1.80
  10  -2  -4    4.50    2.07
  10  -2  -4    2.98    0.70
  10  -2  -4    3.76    0.78
   9  -2  -4    7.59    1.07
   9  -2  -4    5.75    0.93
   9  -2  -4    7.96    2.87
   8  -2  -4   20.55    1.50
   8  -2  -4   23.67    1.64
   7  -2  -4   82.61    3.14
   7  -2  -4   80.96    3.20
   7  -2  -4   81.01    6.47
   6  -2  -4    0.34    0.84
   6  -2  -4    0.89    0.49
   6  -2  -4    1.45    0.63
   5  -2  -4   17.49    1.62
   5  -2  -4   19.67    1.61
   5  -2  -4   22.32    3.56
   4  -2  -4   16.02    2.71
   4  -2  -4   18.06    1.64
   4  -2  -4   16.77    1.60
  -4   2   4   18.06    1.13
  -4   2   4   20.05    1.18
   3  -2  -4  125.01    4.76
   3  -2  -4  122.18    4.63
  -3   2   4  126.67    4.28
  -3   2   4  127.21    4.38
   2  -2  -4   71.77    3.66
   2  -2  -4   74.95    3.68
  -2   2   4   77.66    3.52
  -2   2   4   75.97    3.65
   1  -2  -4    4.22    1.23
  -1   2   4    3.20    1.15
  -1   2   4    3.29    1.09
   0  -2  -4    3.46    1.10
   0  -2  -4    4.96    1.29
   0   2   4    4.42    1.20
   0   2   4    5.69    1.41
  -1  -2  -4   19.37    2.07
  -1  -2  -4   19.02    2.47
   1   2   4   18.65    2.61
   1   2   4   19.35    2.14
  -2  -2  -4   41.39    2.90
  -2  -2  -4   43.32    3.03
   2   2   4   45.01    3.32
   2   2   4   43.20    3.26
  -3  -2  -4   18.70    2.44
  -3  -2  -4   14.38    2.10
   3   2   4   14.39    2.45
   3   2   4   17.42    2.59
  -4  -2  -4    3.32    1.01
  -4  -2  -4    1.82    0.84
   4   2   4    4.87    1.49
   5   2   4   36.39    3.47
   5   2   4   40.18    3.50
   6   2   4   25.05    3.66
   6   2   4   18.70    3.16
   7   2   4    9.86    2.93
   7   2   4    5.84    1.96
   8   2   4   24.84    4.40
   8   2   4   36.44    3.96
   9   2   4    6.76    2.20
  10   2   4   -4.10    2.04
  11  -3  -4   24.19    1.92
  11  -3  -4   28.90    5.89
  11  -3  -4   21.75    2.01
  10  -3  -4   14.26    1.60
  10  -3  -4   15.68    4.06
  10  -3  -4   15.01    1.61
   9  -3  -4    0.70    0.73
   9  -3  -4    3.33    2.28
   9  -3  -4    1.18    1.04
   8  -3  -4    3.46    2.12
   8  -3  -4    1.57    0.80
   7  -3  -4  239.08    7.09
   7  -3  -4  249.18   11.96
   6  -3  -4   54.88    3.10
   6  -3  -4   55.48    3.18
   6  -3  -4   61.81    5.47
   5  -3  -4    1.23    0.70
   5  -3  -4    1.66    1.13
   5  -3  -4    1.53    0.73
   4  -3  -4   47.27    4.19
   4  -3  -4   48.10    3.05
   4  -3  -4   49.98    3.07
  -4   3   4   48.49    2.55
  -4   3   4   48.39    2.52
   3  -3  -4    0.61    0.71
   3  -3  -4    2.71    1.02
   3  -3  -4    1.80    1.08
  -3   3   4    2.57    0.90
  -3   3   4    2.56    0.93
   2  -3  -4   24.12    2.45
   2  -3  -4   21.02    2.10
   2  -3  -4   19.84    2.17
  -2   3   4   18.37    1.93
  -2   3   4   18.80    2.06
   1  -3  -4   46.06    3.21
   1  -3  -4   47.82    3.32
   1  -3  -4   41.66    2.78
  -1   3   4   46.22    3.23
  -1   3   4   47.40    3.21
   0  -3  -4   13.07    2.18
   0  -3  -4   11.96    1.24
   0   3   4    9.39    1.90
   0   3   4   12.20    2.07
  -1  -3  -4    1.22    0.29
  -1  -3  -4    1.64    0.87
  -1  -3  -4    0.88    0.86
   1   3   4    1.00    0.89
   1   3   4    0.24    0.61
  -2  -3  -4   74.87    4.25
  -2  -3  -4   69.00    4.16
   2   3   4   77.28    4.62
   2   3   4   75.89    4.69
  -3  -3  -4    0.06    0.73
  -3  -3  -4    0.72    0.70
   3   3   4   -0.33    0.62
   3   3   4    0.93    1.03
  -4  -3  -4    0.18    0.72
  -4  -3  -4    0.55    0.75
   4   3   4   -0.76    0.89
   4   3   4    1.01    0.91
  -5  -3  -4   21.91    1.98
   5   3   4   26.34    3.84
   5   3   4   17.55    3.02
   6   3   4    9.20    2.24
   6   3   4   11.68    3.19
   7   3   4   40.87    4.48
   8   3   4   37.55    5.22
  12  -4  -4   -0.50    1.13
  11  -4  -4    3.90    1.24
  11  -4  -4    1.49    0.91
  10  -4  -4   19.87    2.16
  10  -4  -4   16.83    2.28
  10  -4  -4   20.71    4.78
   9  -4  -4    1.70    0.92
   9  -4  -4    0.14    0.73
   9  -4  -4    0.42    1.17
   8  -4  -4   10.58    1.90
   8  -4  -4    8.55    2.90
   8  -4  -4    9.23    1.88
   7  -4  -4    5.33    1.43
   7  -4  -4    4.02    1.28
   7  -4  -4    4.49    2.15
   6  -4  -4    3.17    1.09
   6  -4  -4    1.18    0.81
   6  -4  -4    0.55    0.77
   5  -4  -4   67.01    3.93
   5  -4  -4   80.48    5.93
   5  -4  -4   68.57    3.99
  -5   4   4   70.60    2.93
  -5   4   4   64.39    2.87
   4  -4  -4   43.20    4.11
   4  -4  -4   38.12    3.01
   4  -4  -4   38.43    3.01
  -4   4   4   39.59    2.72
  -4   4   4   40.57    2.76
   3  -4  -4    1.25    0.76
   3  -4  -4    0.91    0.93
   3  -4  -4    0.00    0.59
  -3   4   4    0.97    0.71
  -3   4   4    0.87    0.69
   2  -4  -4   13.10    2.22
   2  -4  -4   14.87    2.43
  -2   4   4   16.02    2.40
  -2   4   4   11.33    2.15
   1  -4  -4    8.21    1.87
   1  -4  -4    7.63    1.81
   1  -4  -4    7.70    1.47
  -1   4   4    9.88    2.12
  -1   4   4    6.65    1.59
   0  -4  -4   53.88    3.89
   0   4   4   57.51    4.10
   0   4   4   55.49    3.89
  -1  -4  -4    2.08    1.05
  -1  -4  -4    0.66    0.90
   1   4   4    2.17    1.20
   1   4   4    1.52    0.95
  -2  -4  -4   13.96    2.48
  -2  -4  -4    7.88    1.84
   2   4   4    7.78    1.98
   2   4   4    7.02    1.98
  -3  -4  -4    1.29    0.78
  -3  -4  -4    0.39    0.72
   3   4   4   -0.38    0.89
   3   4   4    0.66    0.88
  -4  -4  -4    4.08    1.53
  -4  -4  -4    2.61    1.16
   4   4   4    5.65    1.58
   4   4   4    4.30    1.57
  -5  -4  -4    2.58    1.09
  -5  -4  -4    1.17    0.90
   5   4   4    1.36    1.65
   5   4   4    2.24    1.31
   6   4   4   18.59    3.47
   6   4   4   24.12    3.89
   7   4   4    6.38    2.14
  12  -5  -4    1.58    1.83
  11  -5  -4   -2.08    0.99
  11  -5  -4   -0.45    1.07
  10  -5  -4    1.23    1.10
  10  -5  -4    2.70    1.19
   9  -5  -4   10.37    2.00
   9  -5  -4   12.43    2.38
   9  -5  -4    5.69    2.43
   8  -5  -4    1.48    0.98
   8  -5  -4    1.46    1.17
   7  -5  -4   14.48    3.43
   7  -5  -4   14.87    2.60
   6  -5  -4   17.83    2.73
   6  -5  -4   15.99    3.55
   6  -5  -4   20.03    3.43
  -6   5   4   13.87    0.98
  -6   5   4   17.72    1.12
   5  -5  -4   20.94    3.05
   5  -5  -4   24.83    3.69
   5  -5  -4   19.62    3.70
  -5   5   4   19.09    2.01
  -5   5   4   20.67    2.04
   4  -5  -4   14.78    2.88
   4  -5  -4   14.31    2.53
  -4   5   4   12.04    2.04
  -4   5   4   14.24    2.27
   3  -5  -4   24.37    2.75
   3  -5  -4   22.02    3.17
   3  -5  -4   24.77    2.87
  -3   5   4   23.22    3.10
  -3   5   4   20.45    2.87
   2  -5  -4    3.45    1.54
   2  -5  -4    2.61    1.09
   2  -5  -4    1.04    0.98
  -2   5   4    1.18    1.03
  -2   5   4    0.73    1.00
   1  -5  -4   59.90    4.38
   1  -5  -4   71.82    4.71
  -1   5   4   68.17    4.64
  -1   5   4   66.30    4.46
   0  -5  -4   49.85    4.00
   0  -5  -4   50.63    4.01
   0   5   4   54.88    4.23
   0   5   4   56.80    4.45
  -1  -5  -4   13.23    2.52
  -1  -5  -4   13.46    2.54
   1   5   4   14.14    2.77
   1   5   4   11.87    2.53
  -2  -5  -4    5.08    1.71
  -2  -5  -4    2.88    1.45
   2   5   4    0.47    1.15
   2   5   4    3.31    1.46
  -3  -5  -4   24.08    3.34
  -3  -5  -4   20.64    3.06
   3   5   4   19.02    3.42
   3   5   4   22.13    3.66
  -4  -5  -4    0.85    0.96
  -4  -5  -4    1.32    1.40
   4   5   4    0.17    0.89
   4   5   4   -0.73    1.19
  -5  -5  -4    0.90    0.97
  -5  -5  -4    0.56    1.03
   5   5   4    1.77    1.47
   5   5   4    3.62    1.63
   6   5   4    2.00    1.53
  11  -6  -4   -1.73    1.24
  11  -6  -4    0.33    1.68
  10  -6  -4    2.16    1.62
   9  -6  -4    2.59    1.22
   9  -6  -4    1.33    1.04
   8  -6  -4   36.78    3.54
   8  -6  -4   42.28    3.82
   7  -6  -4   46.10    3.98
   7  -6  -4   44.92    3.94
   7  -6  -4   47.26    5.47
   6  -6  -4   11.85    2.36
   6  -6  -4   16.65    3.60
   6  -6  -4   13.04    2.49
  -6   6   4   10.38    1.54
   5  -6  -4   76.94    5.06
   5  -6  -4   74.68    5.99
   5  -6  -4   62.99    4.59
  -5   6   4   70.87    4.22
  -5   6   4   67.05    4.06
   4  -6  -4   10.15    2.25
   4  -6  -4    5.39    1.97
   4  -6  -4   10.25    2.51
  -4   6   4    9.83    2.14
  -4   6   4    8.37    2.15
   3  -6  -4    0.60    0.91
   3  -6  -4    0.11    0.87
  -3   6   4   -0.51    0.77
  -3   6   4    2.23    1.10
   2  -6  -4   14.71    2.76
   2  -6  -4   11.86    2.46
  -2   6   4    7.66    2.03
  -2   6   4   13.22    2.70
   1  -6  -4   42.57    3.89
   1  -6  -4   45.10    3.97
  -1   6   4   37.54    3.72
  -1   6   4   34.44    3.60
   0  -6  -4   12.59    2.70
   0  -6  -4   12.14    2.49
   0   6   4   12.25    2.75
   0   6   4   18.41    3.13
  -1  -6  -4   -0.18    1.09
  -1  -6  -4    0.75    1.09
   1   6   4    5.22    1.84
   1   6   4    3.00    1.29
  -2  -6  -4   15.52    2.98
  -2  -6  -4   20.43    3.31
   2   6   4   17.51    3.30
   2   6   4   20.26    3.71
  -3  -6  -4    0.30    1.01
  -3  -6  -4    0.37    1.37
   3   6   4   -0.59    0.89
   3   6   4    1.22    1.29
  -4  -6  -4    7.92    2.07
  -4  -6  -4    5.00    1.72
   4   6   4    8.28    2.39
   4   6   4    9.07    2.56
  -5  -6  -4   -1.87    2.37
  -5  -6  -4   -0.50    1.20
   5   6   4    0.00    1.22
   6   6   4   41.69    6.88
  11  -7  -4    3.00    1.68
  10  -7  -4   10.01    2.70
  10  -7  -4    7.08    2.57
   9  -7  -4   10.38    2.35
   8  -7  -4   21.85    3.60
   8  -7  -4   14.07    2.74
   7  -7  -4    9.03    2.36
   7  -7  -4    7.99    2.43
   6  -7  -4    3.88    1.68
   6  -7  -4    3.23    1.57
  -6   7   4    5.53    1.52
  -6   7   4    2.61    1.14
   5  -7  -4   -0.63    0.63
   5  -7  -4    2.60    1.17
  -5   7   4    0.92    1.09
   4  -7  -4    9.78    2.40
   4  -7  -4   11.25    2.60
  -4   7   4    7.58    2.08
  -4   7   4    9.23    2.28
   3  -7  -4    4.68    1.79
   3  -7  -4    4.85    1.75
  -3   7   4    2.08    1.27
  -3   7   4    3.06    1.22
   2  -7  -4   20.27    3.50
   2  -7  -4   17.72    3.18
  -2   7   4   15.47    3.03
  -2   7   4   12.42    3.30
   1  -7  -4   57.35    4.95
   1  -7  -4   58.54    4.94
  -1   7   4   54.34    4.90
  -1   7   4   54.87    4.84
   0  -7  -4   38.77    4.16
   0  -7  -4   48.32    4.67
   0   7   4   39.37    4.27
   0   7   4   49.90    4.81
  -1  -7  -4    5.28    2.00
  -1  -7  -4    7.06    1.93
   1   7   4    5.90    2.17
   1   7   4   13.03    3.03
  -2  -7  -4   51.40    4.60
  -2  -7  -4   48.60    4.36
   2   7   4   45.50    5.00
   2   7   4   38.11    5.24
  -3  -7  -4    4.59    2.03
  -3  -7  -4    3.19    1.62
   3   7   4    4.02    1.95
  -4  -7  -4   -0.87    1.84
  -4  -7  -4    2.98    1.68
   4   7   4    5.31    1.80
  -5  -7  -4    3.66    2.25
  -5  -7  -4   -1.82    1.58
   5   7   4   -2.84    1.59
  10  -8  -4   31.03    4.49
   9  -8  -4    2.14    1.56
   8  -8  -4    8.03    2.27
   8  -8  -4    8.99    2.51
   7  -8  -4    1.85    1.19
   7  -8  -4    4.78    1.67
  -7   8   4    0.34    0.84
   6  -8  -4    1.43    1.17
   6  -8  -4   -2.25    0.98
  -6   8   4    0.10    1.16
  -6   8   4   -0.85    1.46
   5  -8  -4   -0.35    1.13
   5  -8  -4    1.45    1.36
  -5   8   4    0.71    1.03
  -5   8   4    1.08    1.21
   4  -8  -4   -1.21    1.25
   4  -8  -4   -0.28    1.12
  -4   8   4    0.18    1.41
  -4   8   4   -1.38    1.14
   3  -8  -4   -0.18    1.27
   3  -8  -4    0.05    1.13
  -3   8   4    2.12    1.45
  -3   8   4   -1.82    1.32
   2  -8  -4   14.48    2.85
   2  -8  -4   14.66    3.11
  -2   8   4    7.98    2.56
  -2   8   4   14.49    3.18
   1  -8  -4    0.21    1.58
   1  -8  -4   -1.65    0.83
  -1   8   4    1.37    1.14
  -1   8   4   -0.38    1.27
   0  -8  -4   -1.75    1.12
   0   8   4    0.86    1.42
   0   8   4   -1.15    1.29
  -1  -8  -4    3.10    1.81
  -1  -8  -4    1.93    1.83
   1   8   4    2.35    1.72
  -2  -8  -4   40.97    5.39
  -2  -8  -4   44.81    4.57
   2   8   4   47.76    5.20
  -3  -8  -4    5.03    2.09
  -3  -8  -4   -1.61    1.48
   3   8   4    3.33    1.47
  -4  -8  -4    5.44    2.30
  -4  -8  -4    6.02    2.57
   4   8   4    2.49    1.90
  -5  -8  -4    7.79    2.92
  10  -9  -4    1.48    2.10
   9  -9  -4   10.49    2.85
   8  -9  -4    3.62    2.19
   7  -9  -4    4.76    1.67
  -7   9   4   -0.26    1.07
  -7   9   4    2.71    1.67
   6  -9  -4    7.32    2.96
  -6   9   4    3.10    1.82
  -6   9   4    8.94    2.32
   5  -9  -4   -0.51    1.22
  -5   9   4    0.39    1.66
  -5   9   4   -1.51    1.20
   4  -9  -4   26.81    4.47
  -4   9   4   24.95    4.64
  -4   9   4   17.48    3.34
   3  -9  -4    6.28    2.39
  -3   9   4    5.58    2.21
  -3   9   4    4.13    2.15
   2  -9  -4    1.95    1.74
  -2   9   4    5.43    1.93
   1  -9  -4    1.39    1.66
  -1   9   4    2.21    1.42
   0   9   4   39.34    5.71
  -1  -9  -4   21.47    4.17
   1   9   4   32.28    5.37
  -2  -9  -4    3.21    2.02
   2   9   4   -0.99    1.70
  -3  -9  -4    7.18    2.83
  -4  -9  -4   -6.05    2.18
   7 -10  -4   -0.74    1.74
  -7  10   4   -4.83    2.29
  -7  10   4    1.43    1.81
   6 -10  -4   19.59    3.65
  -6  10   4    9.67    3.19
  -6  10   4    8.63    2.66
   5 -10  -4   -0.60    1.40
  -5  10   4    3.13    2.46
  -5  10   4   -0.61    1.77
   4 -10  -4    5.73    2.45
  -4  10   4    7.18    2.47
   3 -10  -4    3.00    2.47
  -3  10   4   11.51    3.10
   2 -10  -4   28.44    4.86
  -2  10   4   28.53    5.92
   1 -10  -4   32.09    5.20
  -1  10   4   34.86    5.54
   0  10   4   14.12    3.56
  -1 -10  -4    0.47    1.97
  -2 -10  -4    2.28    2.34
  -3 -10  -4    4.39    3.57
  -6  11   4   17.73    3.61
  -4  11   4   -1.48    1.59
  -3  11   4   14.25    4.58
  -4 -12   5   13.09    5.56
  -3 -12   5    8.17    2.68
   2  12  -5   15.07    2.82
  -2 -12   5   26.41    4.61
  -1 -12   5    5.97    2.82
   0  12  -5   -1.72    1.43
   0  12  -5   -0.64    2.03
   0 -12   5   -3.13    1.77
  -1  12  -5   -0.45    1.49
   1 -12   5    2.18    1.58
  -2  12  -5    1.16    1.77
  -3  12  -5   -0.99    1.71
  -4  12  -5    4.95    2.46
  -5  12  -5   -2.06    2.10
  -6  12  -5   -2.44    2.71
  -4 -11   5   25.69    4.20
  -4 -11   5   19.72    3.55
   3  11  -5   11.63    3.22
  -3 -11   5   13.49    2.94
   2  11  -5    0.05    1.32
  -2 -11   5    0.00    1.54
  -1 -11   5    3.68    2.15
   0  11  -5   48.67    5.27
   0 -11   5   41.50    5.61
  -1  11  -5    3.16    1.90
  -1  11  -5   -1.14    1.43
   1 -11   5    0.29    1.27
  -2  11  -5   13.90    3.24
   2 -11   5   14.04    3.44
  -3  11  -5   20.46    3.92
   3 -11   5   18.93    3.86
  -4  11  -5    7.55    2.52
   4 -11   5    6.88    3.07
  -5  11  -5   -1.39    1.76
  -5  11  -5    1.24    2.73
   5 -11   5   -0.44    2.00
  -6  11  -5    0.48    2.02
  -6  11  -5    3.81    3.46
   6  10  -5   -0.57    1.75
  -6 -10   5    0.19    2.63
   5  10  -5    5.51    2.36
  -5 -10   5    3.87    2.05
   4  10  -5   -0.43    1.34
  -4 -10   5    1.61    1.91
  -4 -10   5   -1.85    1.36
   3  10  -5    1.51    1.54
  -3 -10   5    4.33    1.88
   2  10  -5   40.53    4.48
  -2 -10   5   43.53    4.47
  -2 -10   5   38.82    5.11
   1  10  -5    0.86    1.15
  -1 -10   5    0.83    1.32
  -1 -10   5    4.85    1.94
   0  10  -5   42.72    4.49
   0  10  -5   41.13    5.57
   0 -10   5   29.56    4.61
   0 -10   5   38.43    4.32
  -1  10  -5   65.54    5.69
  -1  10  -5   59.14    5.37
   1 -10   5   63.92    5.72
   1 -10   5   60.79    5.60
  -2  10  -5    3.18    1.64
  -2  10  -5    8.08    2.51
   2 -10   5    6.28    2.27
  -3  10  -5   31.75    4.53
  -3  10  -5   38.69    5.07
  -3  10  -5   34.42    5.54
   3 -10   5   37.70    5.53
  -4  10  -5    1.49    1.39
   4 -10   5    1.70    1.57
  -5  10  -5   -1.70    1.29
  -5  10  -5   -1.97    1.73
   5 -10   5    0.31    1.10
  -6  10  -5    3.44    2.01
  -6  10  -5   -1.80    2.20
   6 -10   5    2.33    1.76
  -7  10  -5   -2.15    1.34
   7 -10   5    0.96    1.30
   7   9  -5    8.05    2.44
   6   9  -5    9.17    2.41
  -6  -9   5    4.32    1.14
  -6  -9   5    5.87    1.28
   5   9  -5    3.72    1.84
  -5  -9   5    4.17    2.17
  -5  -9   5    2.95    1.60
   4   9  -5    0.89    1.15
   4   9  -5   -1.75    1.22
  -4  -9   5    0.05    1.40
  -4  -9   5    1.56    1.46
   3   9  -5   15.50    3.25
   3   9  -5   23.67    4.14
  -3  -9   5   19.36    4.06
  -3  -9   5   18.27    3.19
   2   9  -5    1.35    1.49
   2   9  -5    0.91    1.15
  -2  -9   5   -1.77    0.97
  -2  -9   5    0.10    1.11
   1   9  -5   25.53    4.11
   1   9  -5   32.05    5.45
  -1  -9   5   29.07    4.29
  -1  -9   5   24.52    3.79
   0   9  -5   -0.11    1.04
   0   9  -5   -0.13    1.32
   0  -9   5   -1.32    1.33
   0  -9   5    3.55    1.57
  -1   9  -5   -0.78    0.87
  -1   9  -5    1.21    1.17
   1  -9   5   -1.68    1.09
   1  -9   5   -1.23    1.01
  -2   9  -5    5.75    1.78
  -2   9  -5    7.05    2.36
   2  -9   5    6.34    2.03
  -3   9  -5   -0.56    1.16
  -3   9  -5   -0.07    1.11
   3  -9   5    1.20    1.42
   3  -9   5    0.73    1.13
  -4   9  -5    1.77    1.31
  -4   9  -5    2.13    1.91
  -4   9  -5    2.18    1.39
   4  -9   5    1.43    1.34
   4  -9   5    1.97    1.33
  -5   9  -5    2.72    1.80
  -5   9  -5    2.13    1.41
   5  -9   5    1.58    2.05
   5  -9   5    3.04    1.63
  -6   9  -5   30.87    3.36
  -6   9  -5   29.26    3.16
   6  -9   5   32.64    4.97
  -7   9  -5    2.02    1.16
  -7   9  -5    3.46    1.24
   7  -9   5    9.42    2.61
   8  -9   5    4.32    1.90
   9   8  -5   -1.39    1.60
   8   8  -5   16.88    3.50
   8   8  -5   20.05    3.41
   7   8  -5    5.52    2.01
   6   8  -5   12.27    2.83
   6   8  -5   14.30    2.99
   5   8  -5    0.02    1.21
  -5  -8   5    0.20    0.86
  -5  -8   5   -0.67    0.90
   4   8  -5   -2.73    1.07
   4   8  -5    0.44    0.74
  -4  -8   5   -1.22    0.90
  -4  -8   5   -1.53    0.81
   3   8  -5    0.13    0.83
   3   8  -5   -0.98    0.69
  -3  -8   5   -0.86    0.87
  -3  -8   5    1.07    1.11
   2   8  -5   28.07    4.06
   2   8  -5   16.28    3.20
  -2  -8   5   23.68    3.55
  -2  -8   5   25.67    3.58
   1   8  -5   68.16    5.31
  -1  -8   5   73.02    5.20
  -1  -8   5   72.61    4.95
   0   8  -5    6.44    1.95
   0   8  -5    6.26    1.96
   0  -8   5    6.92    1.99
   0  -8   5    9.02    2.25
  -1   8  -5  121.14    6.87
  -1   8  -5  110.49    6.50
   1  -8   5  114.47    6.94
   1  -8   5  117.01    6.66
  -2   8  -5   29.54    4.11
  -2   8  -5   34.25    3.62
   2  -8   5   29.84    4.17
   2  -8   5   36.00    5.58
  -3   8  -5   18.42    3.21
  -3   8  -5   14.73    2.82
   3  -8   5   17.80    3.30
   3  -8   5   19.67    3.55
  -4   8  -5   15.63    3.85
  -4   8  -5   11.66    2.60
  -4   8  -5   14.87    2.78
   4  -8   5   11.77    2.82
   4  -8   5   11.71    2.79
  -5   8  -5   -1.13    1.25
  -5   8  -5    1.79    1.16
  -5   8  -5    2.79    1.23
   5  -8   5    3.64    1.43
  -6   8  -5    6.41    1.66
  -6   8  -5    6.98    1.66
   6  -8   5    9.58    2.43
   6  -8   5    4.89    2.02
   7  -8   5   -0.55    1.08
   8  -8   5   -1.76    1.14
   9  -8   5   -0.13    1.40
   9   7  -5    0.52    1.10
   9   7  -5   -1.37    1.54
   8   7  -5    2.83    1.69
   8   7  -5    2.77    1.90
   8   7  -5    3.08    1.83
   7   7  -5    6.74    1.91
   7   7  -5    2.56    1.65
   6   7  -5    1.25    1.51
   6   7  -5    0.72    1.21
   5   7  -5   46.02    4.14
   5   7  -5   35.75    3.67
  -5  -7   5   43.95    2.97
   4   7  -5   -1.25    0.93
   4   7  -5   -0.73    0.72
  -4  -7   5   -0.89    0.84
  -4  -7   5   -1.07    0.78
   3   7  -5   26.64    3.69
   3   7  -5   30.46    3.30
  -3  -7   5   27.09    2.83
  -3  -7   5   20.07    3.40
   2   7  -5   12.49    2.63
   2   7  -5   19.88    3.23
  -2  -7   5   16.75    2.64
  -2  -7   5   17.93    2.80
   1   7  -5  117.61    6.42
   1   7  -5  122.40    6.61
  -1  -7   5  122.84    6.16
  -1  -7   5  123.73    6.50
   0   7  -5   -0.34    0.68
   0   7  -5    0.01    0.81
   0  -7   5   -0.18    1.00
   0  -7   5    0.31    0.94
  -1   7  -5   -0.76    0.48
  -1   7  -5   -0.21    0.66
   1  -7   5    1.00    0.90
   1  -7   5    0.40    0.98
  -2   7  -5   37.65    3.62
  -2   7  -5   42.37    3.68
   2  -7   5   39.72    3.78
   2  -7   5   41.42    3.94
  -3   7  -5   62.14    4.41
  -3   7  -5   54.51    4.26
   3  -7   5   61.70    4.89
   3  -7   5   57.10    4.58
  -4   7  -5   28.82    3.05
  -4   7  -5   27.60    2.94
   4  -7   5   29.53    3.32
   4  -7   5   26.27    3.96
  -5   7  -5   17.27    4.03
  -5   7  -5   14.01    2.34
  -5   7  -5   13.80    2.25
   5  -7   5   13.04    2.93
   5  -7   5   14.29    2.84
  -6   7  -5   36.68    5.90
  -6   7  -5   37.88    2.86
   6  -7   5   34.99    3.88
   6  -7   5   41.85    4.14
   7  -7   5   31.19    4.45
   7  -7   5   35.67    3.88
   8  -7   5   16.03    3.10
   9  -7   5   27.33    4.47
  10  -7   5   -1.04    2.20
  10   6  -5    6.76    2.52
  10   6  -5   10.94    2.61
  10   6  -5   16.40    3.16
   9   6  -5   -2.06    1.15
   9   6  -5   -4.29    1.41
   8   6  -5   18.73    3.15
   8   6  -5   19.13    3.70
   7   6  -5    0.67    1.00
   7   6  -5    1.57    1.15
   6   6  -5   11.74    2.47
   6   6  -5   11.10    2.41
   5   6  -5    2.01    1.04
   5   6  -5   -0.03    0.53
  -5  -6   5    0.81    0.66
  -5  -6   5   -0.88    0.54
   4   6  -5    1.09    1.12
   4   6  -5    1.89    0.99
  -4  -6   5    2.80    1.07
  -4  -6   5    3.26    1.13
   3   6  -5    3.17    1.19
   3   6  -5    1.20    1.04
  -3  -6   5    3.39    1.13
  -3  -6   5    1.49    0.89
   2   6  -5    1.63    1.04
   2   6  -5    0.49    0.73
  -2  -6   5    0.46    0.72
  -2  -6   5    0.63    0.83
   1   6  -5  116.09    5.87
  -1  -6   5  119.19    5.87
  -1  -6   5  119.91    5.68
   0   6  -5    2.39    1.24
   0  -6   5    1.35    0.88
   0  -6   5    0.64    0.89
  -1   6  -5   20.05    3.47
  -1   6  -5   16.54    2.69
   1  -6   5   21.40    3.09
   1  -6   5   16.13    2.67
  -2   6  -5    1.39    0.97
  -2   6  -5    0.31    0.81
   2  -6   5    0.21    0.74
   2  -6   5    1.57    1.21
  -3   6  -5   62.95    4.20
  -3   6  -5   49.94    3.81
   3  -6   5   57.37    4.25
   3  -6   5   62.63    4.61
  -4   6  -5   38.49    3.16
  -4   6  -5   35.91    3.18
   4  -6   5   38.53    3.57
   4  -6   5   37.34    3.67
  -5   6  -5   -0.76    0.71
  -5   6  -5    0.83    0.97
  -5   6  -5    1.69    1.01
   5  -6   5    0.21    0.93
   5  -6   5    0.94    1.12
  -6   6  -5    3.70    1.47
  -6   6  -5    7.74    3.29
  -6   6  -5    7.73    1.42
   6  -6   5   12.09    2.87
   6  -6   5    8.00    2.04
  -7   6  -5    8.75    3.12
   7  -6   5   12.42    2.78
   7  -6   5   11.55    2.79
   8  -6   5    3.92    1.74
   8  -6   5    4.64    2.18
   9  -6   5    2.59    1.70
  11   5  -5    1.70    2.65
  11   5  -5    2.48    1.61
  10   5  -5    1.43    1.62
  10   5  -5   -1.12    1.50
   9   5  -5    4.93    1.78
   9   5  -5    7.99    2.02
   9   5  -5    4.69    2.80
   8   5  -5   20.71    2.98
   8   5  -5   13.60    2.54
   8   5  -5   12.62    3.09
   7   5  -5    8.66    1.91
   7   5  -5    4.63    1.56
   6   5  -5    0.38    0.98
   6   5  -5    0.25    0.76
   5   5  -5  137.84    5.94
   5   5  -5  127.82    5.94
  -5  -5   5  101.20    4.66
   4   5  -5    8.08    1.73
   4   5  -5    4.86    1.49
  -4  -5   5    5.19    1.18
  -4  -5   5    6.38    1.31
   3   5  -5   39.99    3.14
   3   5  -5   40.70    3.22
  -3  -5   5   42.55    2.93
  -3  -5   5   39.64    2.82
   2   5  -5   50.33    3.54
   2   5  -5   47.51    3.55
  -2  -5   5   44.23    3.09
  -2  -5   5   46.04    3.30
   1   5  -5    5.91    1.58
   1   5  -5    7.50    1.79
  -1  -5   5    5.29    1.56
  -1  -5   5    5.59    1.47
   0   5  -5   74.14    4.30
   0   5  -5   69.59    4.31
   0  -5   5   68.47    4.26
   0  -5   5   72.44    4.17
  -1   5  -5   50.24    3.55
  -1   5  -5   57.95    3.89
   1  -5   5   61.66    4.13
   1  -5   5   53.84    3.73
  -2   5  -5   28.85    2.65
  -2   5  -5   31.84    2.89
   2  -5   5   27.54    2.79
   2  -5   5   32.94    3.15
  -3   5  -5   18.01    2.61
  -3   5  -5   19.43    2.72
   3  -5   5   16.82    2.75
  -4   5  -5    5.82    1.50
  -4   5  -5    5.62    1.45
   4  -5   5    4.65    1.51
   4  -5   5    4.45    1.45
  -5   5  -5   20.19    2.10
  -5   5  -5   21.05    4.22
  -5   5  -5   16.87    1.90
   5  -5   5   18.65    2.84
   5  -5   5   15.47    2.85
  -6   5  -5   32.61    5.24
  -6   5  -5   23.75    1.49
   6  -5   5   25.51    3.50
   6  -5   5   25.88    3.87
  -7   5  -5    1.33    1.53
   7  -5   5    2.91    1.54
   7  -5   5    1.23    1.26
   8  -5   5    2.42    1.82
   8  -5   5    1.08    1.51
   9  -5   5   -1.10    1.72
   9  -5   5   -0.29    1.72
  10  -5   5   -0.31    1.84
  11   4  -5    3.58    1.19
  11   4  -5   -0.81    2.21
  10   4  -5   17.90    2.54
  10   4  -5   12.11    3.14
  10   4  -5    9.63    2.03
   9   4  -5   25.92    4.66
   9   4  -5   27.20    2.66
   8   4  -5   26.48    2.57
   8   4  -5   20.50    2.31
   8   4  -5   18.49    3.85
   7   4  -5   48.23    3.36
   7   4  -5   49.56    3.30
   6   4  -5   38.76    2.84
   6   4  -5   32.57    2.74
   5   4  -5   -0.85    0.56
   5   4  -5   -0.08    0.58
   4   4  -5   46.21    3.07
   4   4  -5   41.42    2.99
  -4  -4   5   42.39    2.28
  -4  -4   5   40.39    2.27
   3   4  -5    5.78    1.34
   3   4  -5    7.68    1.57
  -3  -4   5    7.48    1.32
   2   4  -5   29.71    2.61
   2   4  -5   29.05    2.49
  -2  -4   5   24.34    2.09
  -2  -4   5   25.64    2.19
   1   4  -5    9.96    1.78
   1   4  -5    9.85    1.89
  -1  -4   5    9.36    1.69
  -1  -4   5    6.55    1.51
   0   4  -5   16.95    2.40
   0   4  -5   15.68    2.28
   0  -4   5   17.96    2.52
   0  -4   5   17.71    2.35
  -1   4  -5   80.70    4.34
  -1   4  -5   83.43    4.28
   1  -4   5   80.59    4.53
   1  -4   5   83.78    4.32
  -2   4  -5   -0.52    0.29
  -2   4  -5    0.46    0.71
   2  -4   5    0.03    0.47
   2  -4   5    0.61    0.89
  -3   4  -5   26.67    2.44
  -3   4  -5   29.27    2.58
   3  -4   5   31.18    2.80
   3  -4   5   31.28    2.92
  -4   4  -5  183.74    6.47
  -4   4  -5  179.83    6.29
   4  -4   5  174.47    7.43
   4  -4   5  172.15    7.10
  -5   4  -5   43.87    4.72
  -5   4  -5   36.07    2.53
   5  -4   5   40.64    3.36
   5  -4   5   44.32    3.76
  -6   4  -5   54.98    5.69
   6  -4   5   48.80    3.88
   6  -4   5   49.64    4.14
  -7   4  -5    0.48    1.35
   7  -4   5    1.92    1.16
   7  -4   5    1.92    1.41
  -8   4  -5   78.82    7.88
   8  -4   5   82.79    5.80
   8  -4   5   67.48    4.96
   9  -4   5    2.84    1.65
   9  -4   5    3.14    1.97
  10  -4   5   -2.31    1.42
  12   3  -5    1.29    3.04
  11   3  -5    7.35    1.76
  11   3  -5    8.71    1.69
  11   3  -5   12.83    3.33
  10   3  -5   44.76    5.39
  10   3  -5   32.32    2.75
  10   3  -5   27.86    2.53
   9   3  -5   13.46    3.32
   9   3  -5   13.89    1.95
   9   3  -5   13.07    1.92
   8   3  -5   23.68    2.07
   8   3  -5   17.54    3.65
   8   3  -5   24.33    2.28
   7   3  -5   23.02    2.06
   7   3  -5   19.47    1.86
   6   3  -5   23.96    2.05
   6   3  -5   24.02    2.04
   5   3  -5   20.51    1.93
   5   3  -5   20.14    2.11
   4   3  -5   12.88    1.77
   4   3  -5   14.12    1.96
  -4  -3   5    8.34    1.41
  -4  -3   5   14.18    1.07
   3   3  -5   20.68    1.90
   3   3  -5   17.37    1.85
  -3  -3   5   20.97    1.72
  -3  -3   5   20.36    1.69
   2   3  -5    9.71    1.62
   2   3  -5   13.49    1.97
  -2  -3   5   10.74    1.64
  -2  -3   5   14.52    2.18
   1   3  -5   54.76    3.25
   1   3  -5   51.48    3.06
  -1  -3   5   48.49    2.97
  -1  -3   5   59.60    3.36
   0   3  -5  115.03    4.85
   0   3  -5  114.65    4.97
   0  -3   5  117.53    5.09
   0  -3   5  123.97    4.97
  -1   3  -5  167.71    6.23
  -1   3  -5  177.76    6.23
   1  -3   5  173.69    6.28
   1  -3   5  171.69    6.49
  -2   3  -5   12.42    1.91
  -2   3  -5   12.76    2.02
   2  -3   5   15.90    2.29
   2  -3   5   15.18    2.34
  -3   3  -5   47.73    3.08
  -3   3  -5   49.28    3.09
   3  -3   5   50.22    3.41
   3  -3   5   45.78    3.44
  -4   3  -5    9.80    1.64
  -4   3  -5   11.50    1.86
   4  -3   5    9.61    1.99
   4  -3   5   10.51    2.00
  -5   3  -5   17.52    1.68
  -5   3  -5   26.61    4.22
  -5   3  -5   17.55    1.58
   5  -3   5   18.16    2.85
  -6   3  -5   16.01    3.71
   6  -3   5    1.80    1.07
  -7   3  -5   -1.38    1.08
   7  -3   5    0.58    0.84
   7  -3   5   -0.58    1.04
  -8   3  -5    6.95    2.85
   8  -3   5   10.19    2.57
   9  -3   5   11.15    2.39
   9  -3   5   10.48    2.83
  10  -3   5    3.41    2.15
  12   2  -5    6.74    3.11
  11   2  -5   27.45    2.42
  11   2  -5   20.94    4.38
  11   2  -5   20.86    1.84
  10   2  -5   11.51    1.74
  10   2  -5   10.09    3.27
  10   2  -5   13.02    1.64
   9   2  -5   13.08    1.66
   9   2  -5   10.62    1.51
   9   2  -5   13.64    3.67
   8   2  -5    4.36    0.93
   8   2  -5    3.12    1.69
   8   2  -5    3.91    0.84
   7   2  -5   14.07    1.35
   7   2  -5   12.11    1.31
   6   2  -5   96.72    3.61
   6   2  -5   93.26    3.66
   5   2  -5   81.07    3.32
   5   2  -5   84.60    3.49
   4   2  -5    1.42    0.61
   4   2  -5    1.66    0.76
   3   2  -5    8.67    1.39
   3   2  -5   10.18    1.52
  -3  -2   5    8.39    1.17
  -3  -2   5    8.75    1.20
   2   2  -5   19.43    1.80
   2   2  -5   15.21    1.68
  -2  -2   5   16.46    1.64
  -2  -2   5   19.36    1.69
   1   2  -5  115.16    4.72
   1   2  -5  111.04    4.59
  -1  -2   5  115.38    4.46
   0   2  -5  119.26    4.75
   0   2  -5  115.27    4.85
   0  -2   5  125.62    4.82
   0  -2   5  121.76    4.93
  -1   2  -5   18.24    1.82
  -1   2  -5   16.72    1.81
   1  -2   5   19.75    1.92
   1  -2   5   14.25    2.08
  -2   2  -5   23.09    2.14
  -2   2  -5   23.75    2.12
   2  -2   5   21.46    2.10
   2  -2   5   22.21    2.28
  -3   2  -5    0.39    0.67
  -3   2  -5    0.22    0.60
   3  -2   5    1.48    0.89
   3  -2   5    1.88    0.84
  -4   2  -5   30.69    2.34
  -4   2  -5   32.77    2.36
   4  -2   5   32.63    2.84
   4  -2   5   31.53    2.92
  -5   2  -5   18.62    3.97
  -5   2  -5   17.65    1.52
   5  -2   5   22.82    2.55
   5  -2   5   19.68    3.19
  -6   2  -5    4.45    1.94
   6  -2   5    3.16    1.22
   6  -2   5    1.95    1.00
  -7   2  -5   -1.70    1.09
   7  -2   5   -0.48    0.95
   7  -2   5    0.98    1.12
  -8   2  -5   10.42    2.67
   8  -2   5   10.31    2.33
   8  -2   5    7.32    2.62
   9  -2   5    9.69    2.11
   9  -2   5    3.07    1.89
  10  -2   5    3.04    1.84
  12   1  -5   25.13    5.52
  11   1  -5    8.31    1.01
  11   1  -5   10.57    0.92
  11   1  -5    3.89    2.32
  10   1  -5   50.96    5.95
  10   1  -5   47.21    2.13
  10   1  -5   49.65    2.10
   9   1  -5    7.56    0.99
   9   1  -5    3.98    2.34
   9   1  -5    7.18    0.92
   8   1  -5    1.81    0.53
   8   1  -5    1.83    0.56
   8   1  -5    6.05    1.96
   7   1  -5   10.10    2.59
   7   1  -5   11.72    1.08
   7   1  -5    9.88    0.97
   6   1  -5    0.49    0.44
   6   1  -5    0.09    0.32
   5   1  -5    1.47    0.56
   5   1  -5    1.76    0.60
   4   1  -5   -0.18    0.40
   4   1  -5    0.39    0.46
   3   1  -5    0.53    0.59
   3   1  -5   -0.20    0.51
  -3  -1   5    0.11    0.46
   2   1  -5    2.12    0.89
   2   1  -5    0.30    0.59
  -2  -1   5    1.81    0.72
  -2  -1   5    1.12    0.66
   1   1  -5    4.45    1.18
  -1  -1   5    3.55    0.94
  -1  -1   5    3.71    1.12
   0   1  -5  263.25    7.49
   0   1  -5  261.32    7.73
   0  -1   5  259.64    7.72
   0  -1   5  263.27    7.55
  -1   1  -5  100.65    4.50
  -1   1  -5  102.32    4.44
   1  -1   5   99.04    4.43
   1  -1   5  112.05    4.87
  -2   1  -5   22.96    2.07
  -2   1  -5   21.34    2.08
   2  -1   5   22.91    2.24
   2  -1   5   19.15    2.07
  -3   1  -5   24.12    2.20
  -3   1  -5   24.06    2.08
   3  -1   5   24.05    2.37
   3  -1   5   24.92    2.48
  -4   1  -5    7.97    1.48
  -4   1  -5   10.47    1.66
  -4   1  -5    9.41    2.12
   4  -1   5    7.68    1.71
   4  -1   5    8.98    1.90
  -5   1  -5    7.05    1.87
  -5   1  -5    6.57    1.07
  -5   1  -5    5.69    1.01
   5  -1   5    6.25    1.71
  -6   1  -5   10.13    2.53
   6  -1   5    5.27    1.71
   6  -1   5   14.14    2.63
  -7   1  -5    0.01    1.39
   7  -1   5    1.04    1.21
   7  -1   5    1.83    1.28
   8  -1   5   -0.42    1.11
   8  -1   5    3.14    1.47
   9  -1   5    2.22    1.55
   9  -1   5   -2.06    2.06
  10  -1   5    0.40    2.16
  12   0  -5   16.87    4.68
  11   0  -5   22.48    4.85
  10   0  -5   24.58    4.93
  10   0  -5   21.86    1.06
  10   0  -5   21.86    1.02
   9   0  -5    9.01    0.79
   9   0  -5   12.48    3.22
   9   0  -5    8.33    0.73
   8   0  -5   56.89    2.09
   8   0  -5   60.72    5.93
   7   0  -5   28.07    1.57
   7   0  -5   26.03    4.39
   6   0  -5    1.07    0.52
   5   0  -5    1.83    0.61
   5   0  -5    2.26    0.61
   4   0  -5  143.89    4.56
   4   0  -5  140.22    4.66
   3   0  -5  133.06    4.75
   3   0  -5  133.91    4.62
  -3   0   5  129.32    4.10
  -3   0   5  137.17    4.16
   2   0  -5   36.46    2.45
   2   0  -5   34.15    2.35
  -2   0   5   34.23    2.27
  -2   0   5   32.11    2.20
   1   0  -5    0.46    0.54
   1   0  -5   -0.06    0.40
  -1   0   5   -0.05    0.62
   0   0  -5   29.22    2.36
   0   0  -5   27.70    2.28
   0   0   5   27.54    2.31
   0   0   5   22.52    2.11
  -1   0  -5   -0.05    0.54
  -1   0  -5    0.59    0.77
   1   0   5   -0.29    0.54
   1   0   5    1.08    0.85
  -2   0  -5    2.29    0.97
  -2   0  -5    2.64    0.98
   2   0   5    0.84    0.63
   2   0   5    1.88    0.92
  -3   0  -5    2.73    1.02
  -3   0  -5    0.94    0.80
   3   0   5    1.21    0.84
   3   0   5    0.99    0.82
  -4   0  -5   16.01    2.17
  -4   0  -5   13.52    2.34
  -4   0  -5   15.69    1.71
   4   0   5   16.01    2.63
   4   0   5   18.17    2.72
  -5   0  -5   46.54    4.08
   5   0   5   51.19    3.86
   5   0   5   51.81    4.06
  -6   0  -5   16.48    3.11
   6   0   5   16.27    2.89
   6   0   5   17.14    2.79
   7   0   5   16.67    3.22
   7   0   5   17.13    2.85
   8   0   5    2.46    1.67
   8   0   5    7.42    2.29
   9   0   5    4.02    1.94
  11  -1  -5    2.80    0.36
  11  -1  -5    1.02    2.39
  11  -1  -5    3.11    0.37
  10  -1  -5    7.88    2.80
   9  -1  -5   -0.03    1.53
   9  -1  -5    0.62    0.39
   9  -1  -5    1.56    0.51
   8  -1  -5    5.15    0.92
   8  -1  -5    6.08    2.79
   8  -1  -5    5.78    0.89
   7  -1  -5   13.53    1.21
   7  -1  -5   14.18    1.27
   7  -1  -5   11.46    2.97
   6  -1  -5    1.12    0.51
   6  -1  -5    0.86    0.43
   6  -1  -5    1.46    1.30
   5  -1  -5   13.13    1.39
   5  -1  -5   12.47    1.32
   4  -1  -5  147.82    4.99
   4  -1  -5  143.38    5.01
  -4   1   5  147.97    3.74
  -4   1   5  143.67    3.69
   3  -1  -5    9.18    1.59
  -3   1   5    7.93    1.28
  -3   1   5    7.73    1.26
   2  -1  -5   31.01    2.40
   2  -1  -5   30.96    2.44
  -2   1   5   28.30    2.18
   1  -1  -5    9.50    1.77
   1  -1  -5   10.24    1.70
  -1   1   5   10.11    1.73
  -1   1   5   10.82    1.87
   0  -1  -5    0.16    0.49
   0  -1  -5   -0.42    0.31
   0   1   5   -0.16    0.40
  -1  -1  -5  113.91    4.96
  -1  -1  -5  105.24    4.90
   1   1   5  106.97    5.18
  -2  -1  -5    5.67    1.46
  -2  -1  -5    9.67    1.79
   2   1   5    8.65    1.72
   2   1   5    6.58    1.66
  -3  -1  -5    0.27    0.77
  -3  -1  -5    0.96    0.79
   3   1   5    0.64    0.85
   3   1   5    0.50    0.75
  -4  -1  -5    0.36    0.68
  -4  -1  -5    0.19    0.67
  -4  -1  -5    1.17    0.85
   4   1   5    1.12    0.89
   4   1   5    1.95    1.16
  -5  -1  -5   15.27    2.48
  -5  -1  -5   12.45    1.64
   5   1   5   17.49    2.82
   5   1   5   13.96    2.72
   6   1   5    3.19    1.38
   7   1   5   -0.91    1.16
   8   1   5    4.19    2.08
   8   1   5    1.97    1.37
   9   1   5   13.77    3.23
  12  -2  -5   22.06    1.32
  11  -2  -5   19.98    4.85
  11  -2  -5   20.01    1.47
  11  -2  -5   19.02    1.52
  10  -2  -5    4.85    2.03
  10  -2  -5    2.74    0.73
  10  -2  -5    2.55    0.73
   9  -2  -5   12.99    1.60
   9  -2  -5   11.94    1.23
   9  -2  -5   10.61    3.24
   8  -2  -5   12.37    1.33
   8  -2  -5   12.27    1.67
   8  -2  -5   12.84    3.30
   7  -2  -5   10.99    1.60
   7  -2  -5   13.10    3.09
   7  -2  -5   13.82    1.44
   6  -2  -5  313.51    8.25
   6  -2  -5  292.77   12.50
   6  -2  -5  305.50    8.10
   5  -2  -5    5.10    1.89
   5  -2  -5    8.04    1.46
   5  -2  -5    7.23    1.60
   4  -2  -5   14.34    1.95
   4  -2  -5   11.74    1.82
  -4   2   5   13.42    1.33
  -4   2   5   12.78    1.30
   3  -2  -5    7.02    1.46
   3  -2  -5    6.56    1.50
  -3   2   5    4.94    1.16
   2  -2  -5   87.18    4.35
  -2   2   5   84.86    4.20
  -2   2   5   83.00    3.99
   1  -2  -5   20.45    2.26
   1  -2  -5   20.40    2.12
  -1   2   5   23.61    2.31
  -1   2   5   20.74    2.27
   0  -2  -5    1.55    0.78
   0  -2  -5   -0.16    0.49
   0   2   5    0.01    0.70
   0   2   5    0.95    0.66
  -1  -2  -5   26.60    2.55
  -1  -2  -5   22.38    2.32
   1   2   5   21.27    2.90
   1   2   5   22.23    2.39
  -2  -2  -5    1.06    0.80
  -2  -2  -5   -0.36    0.55
   2   2   5   -0.04    0.74
   2   2   5    0.10    0.67
  -3  -2  -5    9.67    1.90
  -3  -2  -5   10.44    1.96
  -3  -2  -5    8.54    1.31
   3   2   5    4.61    1.59
   3   2   5    9.54    2.03
  -4  -2  -5   10.51    1.95
  -4  -2  -5    7.13    1.62
  -4  -2  -5    7.16    1.38
   4   2   5    5.28    1.64
   4   2   5    7.27    2.04
  -5  -2  -5   11.12    1.59
  -5  -2  -5    8.27    1.46
   5   2   5    9.67    2.45
   5   2   5   11.60    2.46
   6   2   5   -0.08    1.08
   6   2   5   -0.24    0.93
   7   2   5   39.62    4.25
   7   2   5   43.12    4.39
   8   2   5   -2.93    1.47
   9   2   5   -0.21    1.43
  12  -3  -5    7.58    1.31
  11  -3  -5    0.01    0.71
  11  -3  -5    0.69    1.79
  11  -3  -5   -0.09    0.74
  10  -3  -5    1.67    2.12
  10  -3  -5    2.22    1.00
  10  -3  -5    5.68    1.22
   9  -3  -5    2.05    2.08
   9  -3  -5    3.89    1.04
   9  -3  -5    3.98    1.01
   8  -3  -5   13.01    3.51
   8  -3  -5   13.89    1.98
   8  -3  -5   10.88    1.74
   7  -3  -5   23.36    2.20
   7  -3  -5   21.92    2.12
   7  -3  -5   24.69    4.33
   6  -3  -5    9.52    2.67
   6  -3  -5    8.73    1.69
   6  -3  -5    7.75    1.62
   5  -3  -5   75.63    5.89
   5  -3  -5   71.65    3.93
   5  -3  -5   73.76    4.03
  -5   3   5   76.22    2.76
   4  -3  -5   42.59    4.03
   4  -3  -5   38.74    2.96
   4  -3  -5   42.60    3.10
  -4   3   5   41.20    2.61
   3  -3  -5   30.15    2.73
   3  -3  -5   28.50    3.09
   3  -3  -5   29.79    2.66
  -3   3   5   32.20    2.54
  -3   3   5   28.36    2.46
   2  -3  -5    5.64    1.56
   2  -3  -5    3.78    1.23
  -2   3   5    2.41    0.98
  -2   3   5    3.28    1.24
   1  -3  -5    1.15    0.91
  -1   3   5    0.14    0.68
  -1   3   5    1.07    0.65
   0  -3  -5    2.74    1.08
   0  -3  -5    4.14    1.31
   0   3   5    0.93    0.97
   0   3   5    3.08    1.21
  -1  -3  -5   24.69    2.60
  -1  -3  -5   24.81    2.62
   1   3   5   27.57    2.92
  -2  -3  -5    4.20    1.47
  -2  -3  -5    5.25    1.52
   2   3   5    7.39    1.89
   2   3   5    4.76    1.56
  -3  -3  -5   23.47    2.56
  -3  -3  -5   27.12    2.82
   3   3   5   27.07    3.75
   3   3   5   17.70    3.16
  -4  -3  -5    4.41    1.42
  -4  -3  -5    5.73    1.52
   4   3   5    5.92    1.84
   4   3   5    8.91    2.37
  -5  -3  -5   -1.74    0.69
  -5  -3  -5   -0.44    0.78
   5   3   5   -0.31    1.16
   5   3   5    0.81    1.01
   6   3   5   22.38    3.94
   6   3   5   25.96    4.02
   7   3   5   90.45    6.59
   8   3   5    4.41    2.14
  12  -4  -5    1.43    1.13
  11  -4  -5    0.61    1.00
  11  -4  -5    1.40    2.40
  11  -4  -5   -2.45    0.99
  10  -4  -5    0.89    1.66
  10  -4  -5    2.23    1.06
  10  -4  -5    0.22    0.91
   9  -4  -5   64.11    4.00
   9  -4  -5   71.33    4.16
   9  -4  -5   76.23    7.46
   8  -4  -5   22.71    2.48
   8  -4  -5   25.03    4.79
   8  -4  -5   29.13    2.62
   7  -4  -5    0.22    0.80
   7  -4  -5    1.98    1.10
   6  -4  -5   15.23    3.34
   6  -4  -5   21.64    2.35
   6  -4  -5   13.83    2.29
   5  -4  -5  111.19    5.44
   5  -4  -5  113.04    7.22
   5  -4  -5  118.75    5.64
  -5   4   5  108.52    4.25
   4  -4  -5    1.52    0.91
   4  -4  -5    0.49    0.79
   4  -4  -5    0.96    0.80
  -4   4   5    0.45    0.66
  -4   4   5   -0.29    0.48
   3  -4  -5   12.85    2.30
   3  -4  -5   11.85    2.46
   3  -4  -5   12.81    2.30
  -3   4   5   17.38    2.61
  -3   4   5   20.18    2.27
   2  -4  -5   16.27    2.65
   2  -4  -5   16.74    2.69
   2  -4  -5   17.73    2.24
  -2   4   5   16.75    2.62
  -2   4   5   15.22    2.49
   1  -4  -5    1.99    0.87
   1  -4  -5    2.18    1.10
  -1   4   5    0.45    0.72
  -1   4   5    1.92    1.28
   0  -4  -5   13.12    1.29
   0  -4  -5   13.40    2.55
   0  -4  -5   12.62    2.39
   0   4   5   14.83    2.63
   0   4   5   14.01    2.57
  -1  -4  -5   32.40    3.20
  -1  -4  -5   37.94    3.39
   1   4   5   29.47    3.12
   1   4   5   27.68    3.82
  -2  -4  -5    0.90    0.84
  -2  -4  -5   -0.74    0.87
   2   4   5    2.33    1.29
   2   4   5    0.13    1.09
  -3  -4  -5   39.73    3.53
  -3  -4  -5   40.65    3.58
   3   4   5   41.30    3.88
   3   4   5   38.23    4.00
  -4  -4  -5   -0.93    1.11
  -4  -4  -5   -1.23    0.75
   4   4   5    0.69    0.90
   4   4   5    1.55    1.29
  -5  -4  -5    6.67    1.65
  -5  -4  -5    5.56    1.52
   5   4   5    4.60    2.04
   5   4   5    8.34    2.44
   6   4   5    2.24    1.27
   7   4   5   12.37    3.34
   8   4   5    3.03    2.04
  12  -5  -5    3.23    1.53
  11  -5  -5    0.21    1.41
  11  -5  -5    2.51    1.21
  10  -5  -5    2.30    1.09
  10  -5  -5    2.41    2.04
  10  -5  -5    1.42    0.93
   9  -5  -5   10.36    2.15
   9  -5  -5   10.27    2.27
   9  -5  -5    8.39    3.13
   8  -5  -5    2.88    1.87
   8  -5  -5    0.62    1.02
   8  -5  -5    3.02    1.35
   7  -5  -5   16.41    2.66
   7  -5  -5   14.09    2.54
   7  -5  -5   16.97    3.64
   6  -5  -5    7.96    1.95
   6  -5  -5   10.87    2.95
   6  -5  -5    6.04    1.85
  -6   5   5    9.63    1.32
   5  -5  -5   41.65    4.46
   5  -5  -5   42.78    3.66
   5  -5  -5   43.30    3.64
  -5   5   5   40.67    2.94
  -5   5   5   38.46    2.88
   4  -5  -5    2.33    1.22
   4  -5  -5    1.60    1.22
   4  -5  -5    0.34    0.87
  -4   5   5   -0.17    0.74
  -4   5   5   -0.50    0.79
   3  -5  -5   12.60    2.49
   3  -5  -5   11.95    2.39
   3  -5  -5   10.39    2.28
  -3   5   5   10.63    2.24
  -3   5   5   10.18    2.22
   2  -5  -5    0.56    0.62
   2  -5  -5    1.47    0.97
   2  -5  -5    0.34    0.67
  -2   5   5    0.21    0.92
  -2   5   5    0.61    0.96
   1  -5  -5   19.11    1.97
   1  -5  -5   15.97    2.87
   1  -5  -5   18.31    3.03
  -1   5   5   17.99    3.02
  -1   5   5   19.35    3.07
   0  -5  -5   80.74    5.40
   0  -5  -5   79.40    5.23
   0   5   5   83.10    5.41
   0   5   5   84.34    5.61
  -1  -5  -5   -0.22    0.81
  -1  -5  -5    1.42    1.02
   1   5   5   -0.82    0.88
   1   5   5    0.19    0.94
  -2  -5  -5   48.13    4.13
  -2  -5  -5   47.53    4.12
   2   5   5   42.39    4.30
   2   5   5   47.68    4.54
  -3  -5  -5    4.39    1.69
  -3  -5  -5    3.78    1.67
   3   5   5    3.22    1.77
   3   5   5    3.33    1.57
  -4  -5  -5    0.04    1.34
  -4  -5  -5    1.36    1.32
   4   5   5    2.34    1.65
   4   5   5    0.56    1.05
  -5  -5  -5    0.53    1.22
   5   5   5    0.93    1.43
  -6  -5  -5    3.71    1.65
   6   5   5   -1.74    1.54
   7   5   5    3.09    2.15
  11  -6  -5    5.48    1.51
  10  -6  -5    4.25    1.69
  10  -6  -5    2.30    1.76
   9  -6  -5    0.91    1.27
   9  -6  -5    2.09    1.66
   8  -6  -5    4.93    2.16
   8  -6  -5    3.94    1.53
   8  -6  -5    4.84    1.65
   7  -6  -5   37.61    5.85
   7  -6  -5   35.66    3.68
   7  -6  -5   37.86    3.68
   6  -6  -5    2.17    1.40
   6  -6  -5    2.87    1.55
  -6   6   5    2.71    1.08
  -6   6   5    1.06    0.79
   5  -6  -5   16.83    3.39
   5  -6  -5   22.90    3.55
   5  -6  -5   21.59    3.27
  -5   6   5   14.01    2.34
  -5   6   5   22.26    2.94
   4  -6  -5    1.52    1.13
   4  -6  -5    0.66    0.84
   4  -6  -5    1.47    1.34
  -4   6   5    2.19    1.07
  -4   6   5    1.27    1.11
   3  -6  -5   -0.01    0.90
   3  -6  -5    2.69    1.22
   3  -6  -5    0.81    1.10
  -3   6   5    0.87    0.95
   2  -6  -5   42.09    3.98
   2  -6  -5   34.81    3.59
  -2   6   5   34.46    3.65
  -2   6   5   45.03    4.16
   1  -6  -5    0.64    1.12
  -1   6   5    1.87    1.24
  -1   6   5    1.69    1.13
   0  -6  -5   10.10    2.42
   0   6   5   17.29    3.22
   0   6   5   15.52    3.17
  -1  -6  -5   16.85    3.26
  -1  -6  -5   21.34    3.47
   1   6   5   15.55    3.31
   1   6   5   13.66    2.88
  -2  -6  -5    5.66    2.00
  -2  -6  -5    9.51    2.40
   2   6   5    9.28    2.48
   2   6   5    8.80    2.57
  -3  -6  -5    2.81    1.69
  -3  -6  -5   -1.23    1.40
   3   6   5    3.45    1.85
   3   6   5    3.39    1.27
  -4  -6  -5   -0.91    1.59
   4   6   5   -0.89    1.04
  -5  -6  -5    5.30    1.89
  -5  -6  -5    5.53    2.11
   5   6   5    2.00    1.64
  11  -7  -5    6.41    2.37
  10  -7  -5    8.52    2.62
  10  -7  -5    9.01    2.73
   9  -7  -5   49.56    4.79
   9  -7  -5   58.20    4.97
   8  -7  -5    2.87    1.32
   7  -7  -5    6.07    2.12
   7  -7  -5    8.13    2.21
  -7   7   5    7.69    1.57
  -7   7   5    4.92    1.35
   6  -7  -5   -0.91    0.98
   6  -7  -5    1.18    1.18
  -6   7   5    1.09    0.94
  -6   7   5   -1.36    0.66
   5  -7  -5    2.66    1.59
   5  -7  -5    1.18    1.19
  -5   7   5   -0.70    0.79
  -5   7   5    0.35    0.85
   4  -7  -5    4.69    1.76
   4  -7  -5    3.92    1.70
  -4   7   5    4.07    1.66
  -4   7   5    3.44    1.78
   3  -7  -5   10.72    2.40
   3  -7  -5    4.18    1.80
  -3   7   5    6.17    1.74
   2  -7  -5   18.95    3.43
   2  -7  -5   13.15    2.74
  -2   7   5   14.27    2.84
  -2   7   5   19.63    3.53
   1  -7  -5    6.32    1.94
   1  -7  -5   10.66    2.83
  -1   7   5    8.19    2.65
  -1   7   5    4.65    2.10
   0   7   5    1.42    1.30
   0   7   5    1.21    1.14
  -1  -7  -5    0.02    1.25
  -1  -7  -5    0.09    1.48
   1   7   5    1.89    1.62
   1   7   5   -0.11    0.92
  -2  -7  -5   19.95    3.48
  -2  -7  -5   24.85    4.10
   2   7   5   20.89    4.04
  -3  -7  -5    2.95    1.97
  -3  -7  -5    3.97    2.12
   3   7   5    2.78    1.83
  -4  -7  -5    7.63    2.68
  -4  -7  -5    8.20    2.23
   4   7   5   12.17    2.67
  10  -8  -5    2.29    1.93
   9  -8  -5   -2.76    1.53
   8  -8  -5    0.60    1.36
   7  -8  -5    5.15    1.97
  -7   8   5    0.04    1.20
  -7   8   5    0.26    0.90
   6  -8  -5    0.39    1.06
   6  -8  -5    0.31    2.04
  -6   8   5    2.29    1.27
  -6   8   5    2.80    1.42
   5  -8  -5    6.13    2.57
   5  -8  -5   11.05    2.48
  -5   8   5    6.89    2.23
  -5   8   5    6.93    2.30
   4  -8  -5    2.02    1.53
   4  -8  -5    3.14    1.54
  -4   8   5    2.75    1.87
  -4   8   5    2.84    1.46
   3  -8  -5   13.03    3.07
   3  -8  -5   10.87    2.87
  -3   8   5   13.26    3.12
   2  -8  -5   46.61    4.90
   2  -8  -5   44.51    4.87
  -2   8   5   44.96    4.78
  -2   8   5   55.15    5.27
   1  -8  -5    4.47    2.23
  -1   8   5    4.44    2.35
   0   8   5    1.41    1.58
  -1  -8  -5   14.23    3.05
   1   8   5   10.56    3.35
  -2  -8  -5    6.35    2.44
   2   8   5   15.81    3.74
  -3  -8  -5    3.45    2.15
   3   8   5    1.34    2.82
  -4  -8  -5   -0.88    1.90
   9  -9  -5    9.94    3.38
   8  -9  -5    7.46    2.49
  -7   9   5    3.84    1.69
   6  -9  -5    5.57    2.20
  -6   9   5    3.86    1.98
   5  -9  -5   -1.47    1.01
  -5   9   5   -1.09    1.80
  -5   9   5    2.48    1.45
   4  -9  -5   -3.52    1.50
  -4   9   5   -0.85    1.47
  -4   9   5    1.07    1.87
   3  -9  -5    1.02    1.38
  -3   9   5    0.21    1.24
   2  -9  -5   -0.05    1.80
  -2   9   5    6.72    2.60
  -1   9   5    9.66    3.22
   0   9   5    0.99    2.64
  -1  -9  -5    1.05    1.56
   1   9   5    1.81    2.15
  -3  -9  -5    3.97    2.86
  -4  -9  -5    3.17    5.17
  -7  10   5   -0.91    2.57
  -6  10   5   13.96    4.18
  -6  10   5   15.56    3.20
  -5  10   5    4.09    1.70
   4 -10  -5   15.23    3.84
  -4  10   5   18.74    3.64
   3 -10  -5    0.30    1.39
  -3  10   5   -0.52    1.42
  -2  10   5    8.62    2.29
  -6  11   5   -1.67    2.43
  -5  11   5    3.25    2.49
  -3 -12   6    3.12    2.39
  -2 -12   6    6.43    2.53
  -1 -12   6    7.10    2.61
   0  12  -6   29.28    5.88
   0 -12   6   23.29    4.36
  -1  12  -6   11.49    3.28
   1 -12   6   19.48    4.75
  -2  12  -6    3.11    1.99
  -3  12  -6   13.48    3.58
  -4  12  -6    1.57    2.09
  -6  12  -6   -2.21    3.53
  -5 -11   6    3.69    2.63
  -4 -11   6    2.30    2.85
  -4 -11   6    0.46    1.99
   3  11  -6    4.34    2.01
  -3 -11   6    9.28    3.02
   2  11  -6    9.83    2.83
  -2 -11   6   13.02    3.08
   1  11  -6   30.01    5.88
  -1 -11   6   41.42    5.49
   0  11  -6    0.14    1.41
   0 -11   6    1.82    1.67
  -1  11  -6    2.47    1.50
   1 -11   6    1.19    1.72
  -2  11  -6   72.63    6.30
  -3  11  -6    3.86    2.20
   3 -11   6    3.43    2.08
  -4  11  -6   16.87    3.53
   4 -11   6   14.26    3.66
  -5  11  -6    0.63    2.79
  -5  11  -6    7.75    2.33
  -6  11  -6   -2.46    1.90
   6  10  -6    5.13    2.23
  -6 -10   6   -0.12    1.34
   5  10  -6   -3.10    1.03
  -5 -10   6   -0.62    1.56
  -5 -10   6   -1.84    2.04
   4  10  -6    3.72    1.85
  -4 -10   6   -0.89    2.08
  -4 -10   6    1.93    1.97
   3  10  -6  118.41    8.11
  -3 -10   6  116.95    7.20
   2  10  -6   13.29    3.31
  -2 -10   6   11.32    2.99
   1  10  -6   13.12    3.17
  -1 -10   6   12.27    2.79
  -1 -10   6   11.48    2.80
   0  10  -6    8.00    3.18
   0  10  -6   15.43    3.48
   0 -10   6   17.00    3.64
   0 -10   6   15.30    3.29
  -1  10  -6    4.00    1.88
  -1  10  -6    1.95    1.73
   1 -10   6   -1.13    1.92
   1 -10   6    3.91    1.72
  -2  10  -6    3.87    1.72
  -2  10  -6    5.28    2.21
   2 -10   6    2.63    1.80
  -3  10  -6    2.61    1.92
  -3  10  -6    0.96    1.64
  -3  10  -6   -1.63    0.94
   3 -10   6    0.56    1.69
  -4  10  -6    4.00    2.28
  -4  10  -6    4.13    1.95
   4 -10   6    2.76    1.36
  -5  10  -6   16.36    3.42
  -5  10  -6   20.43    3.45
  -6  10  -6    1.67    2.42
   6 -10   6    2.78    1.87
  -7  10  -6    4.96    2.35
   8   9  -6   -1.20    1.88
   6   9  -6    2.02    1.65
  -6  -9   6   -0.13    1.04
   5   9  -6   26.99    4.36
  -5  -9   6   26.62    3.38
  -5  -9   6   22.75    3.00
   4   9  -6    8.78    2.78
   4   9  -6   11.17    2.85
  -4  -9   6   17.22    2.87
  -4  -9   6   11.10    2.73
   3   9  -6    1.12    1.15
   3   9  -6   -0.61    1.10
  -3  -9   6    0.06    1.31
  -3  -9   6   -0.74    1.20
   2   9  -6    2.22    1.24
   2   9  -6    1.72    1.65
  -2  -9   6   -0.07    1.28
  -2  -9   6    0.39    1.16
   1   9  -6    0.40    0.94
  -1  -9   6    0.70    1.51
  -1  -9   6    0.55    1.25
   0   9  -6   18.78    3.53
   0   9  -6   12.10    2.68
   0  -9   6    7.87    2.47
   0  -9   6   18.53    3.29
  -1   9  -6   -0.66    0.98
  -1   9  -6    1.70    1.30
   1  -9   6    0.80    0.75
  -2   9  -6   14.41    3.16
  -2   9  -6   12.02    2.77
   2  -9   6   10.99    2.44
   2  -9   6   11.59    3.04
  -3   9  -6    0.50    1.02
  -3   9  -6    0.07    1.25
   3  -9   6    0.51    1.27
   3  -9   6    1.04    1.13
  -4   9  -6   11.58    2.85
  -4   9  -6    6.11    2.45
  -4   9  -6   13.61    2.94
   4  -9   6   14.80    3.30
   4  -9   6   19.88    3.82
  -5   9  -6   -1.59    1.59
   5  -9   6   -3.42    1.04
  -6   9  -6   65.72    4.60
   6  -9   6   62.40    5.97
  -7   9  -6    0.76    1.29
  -7   9  -6   -3.61    1.65
   7  -9   6    5.70    2.33
   9   8  -6   -4.20    2.35
   9   8  -6    5.28    1.85
   8   8  -6   22.50    3.94
   8   8  -6   20.33    4.52
   7   8  -6   31.24    4.50
   6   8  -6   17.29    3.38
   6   8  -6   19.91    3.52
  -6  -8   6   12.66    1.29
   5   8  -6   36.32    4.02
  -5  -8   6   40.32    3.26
   4   8  -6   -1.44    1.13
   4   8  -6    1.15    1.08
  -4  -8   6   -1.96    1.06
  -4  -8   6    1.23    1.28
   3   8  -6   10.28    2.52
   3   8  -6    6.56    2.13
  -3  -8   6    8.92    2.13
  -3  -8   6    4.01    1.81
   2   8  -6    5.45    1.95
   2   8  -6    5.81    1.95
  -2  -8   6    4.74    1.82
  -2  -8   6    5.17    1.71
   1   8  -6    9.37    2.49
   1   8  -6    4.26    1.74
  -1  -8   6    4.15    1.68
  -1  -8   6    5.56    1.77
   0   8  -6   19.90    3.50
   0  -8   6   14.50    3.43
   0  -8   6   13.24    2.68
  -1   8  -6   24.93    3.88
   1  -8   6   29.19    4.29
   1  -8   6   21.34    3.42
  -2   8  -6    5.74    1.83
  -2   8  -6    3.96    1.79
   2  -8   6    6.71    2.25
   2  -8   6    3.31    1.55
  -3   8  -6    0.34    1.22
  -3   8  -6    0.00    1.34
   3  -8   6    3.54    1.65
   3  -8   6    0.94    0.85
  -4   8  -6    5.80    2.03
  -4   8  -6    7.38    2.09
   4  -8   6    9.83    2.83
  -5   8  -6   -1.23    0.97
  -5   8  -6    0.19    1.35
  -5   8  -6    0.09    1.22
   5  -8   6    1.39    1.22
   5  -8   6    1.82    1.34
  -6   8  -6   10.35    2.74
  -6   8  -6    6.59    1.70
   6  -8   6    7.80    2.39
   7  -8   6   48.36    5.08
   8  -8   6    5.78    2.74
  10   7  -6    3.66    1.96
   9   7  -6   35.64    4.91
   9   7  -6   36.38    4.58
   8   7  -6   10.44    2.74
   8   7  -6    8.61    2.39
   7   7  -6   26.23    3.90
   7   7  -6   32.92    4.49
   6   7  -6   14.74    2.92
   6   7  -6   11.19    2.65
   5   7  -6    0.94    1.25
   5   7  -6    0.73    1.06
  -5  -7   6    0.79    0.90
  -5  -7   6    1.50    0.89
   4   7  -6   -0.55    0.89
   4   7  -6    0.45    0.98
  -4  -7   6    1.43    0.95
  -4  -7   6    1.41    0.99
   3   7  -6   29.79    3.30
   3   7  -6   23.51    3.68
  -3  -7   6   37.83    3.35
  -3  -7   6   32.45    3.12
   2   7  -6    6.07    1.92
   2   7  -6    7.10    2.05
  -2  -7   6    4.30    1.74
  -2  -7   6    6.33    1.77
   1   7  -6    2.17    1.25
   1   7  -6    4.43    1.64
  -1  -7   6    1.45    0.90
  -1  -7   6    2.78    1.37
   0   7  -6   21.08    3.28
   0   7  -6   21.69    3.30
   0  -7   6   26.52    3.73
   0  -7   6   24.06    3.33
  -1   7  -6    1.32    1.10
  -1   7  -6    2.49    1.33
   1  -7   6    1.16    1.23
   1  -7   6    1.98    1.18
  -2   7  -6   29.78    3.38
  -2   7  -6   37.93    3.62
   2  -7   6   29.53    4.12
   2  -7   6   31.38    3.39
  -3   7  -6   68.55    4.74
  -3   7  -6   58.46    4.47
   3  -7   6   59.70    4.71
   3  -7   6   63.33    5.25
  -4   7  -6   77.81    4.96
  -4   7  -6   74.01    4.80
   4  -7   6   85.68    5.73
   4  -7   6   72.78    5.50
  -5   7  -6   47.96    3.84
  -5   7  -6   50.42    5.99
   5  -7   6   53.33    4.74
   5  -7   6   51.38    4.70
  -6   7  -6    9.60    1.88
  -6   7  -6    8.38    3.44
  -6   7  -6    7.05    1.68
   6  -7   6   12.92    2.87
   6  -7   6   12.61    2.68
   7  -7   6    4.70    1.70
   7  -7   6   -0.92    1.56
   8  -7   6    2.34    1.88
   9  -7   6    1.99    1.91
  10   6  -6   20.76    4.38
  10   6  -6   18.79    3.52
  10   6  -6   25.33    3.88
   9   6  -6    7.96    2.32
   9   6  -6    3.14    2.04
   9   6  -6    5.21    1.99
   8   6  -6   26.28    3.82
   7   6  -6   27.43    3.09
   7   6  -6   21.20    3.26
   6   6  -6   -0.68    0.93
   6   6  -6    0.61    0.98
   5   6  -6    4.98    1.50
   5   6  -6    3.67    1.40
  -5  -6   6    2.85    0.96
   4   6  -6    0.02    0.95
   4   6  -6    0.97    0.96
  -4  -6   6    0.16    0.72
  -4  -6   6   -0.68    0.66
   3   6  -6   22.99    3.21
   3   6  -6   20.21    3.12
  -3  -6   6   27.12    2.62
  -3  -6   6   26.66    2.64
   2   6  -6    1.98    1.19
   2   6  -6    0.85    0.90
  -2  -6   6    0.32    0.74
  -2  -6   6    1.02    0.94
   1   6  -6    3.66    1.28
   1   6  -6    3.21    1.38
  -1  -6   6    3.36    1.39
   0   6  -6   99.04    5.64
   0   6  -6  106.22    5.62
   0  -6   6   91.03    5.27
   0  -6   6  104.90    5.79
  -1   6  -6    5.66    1.60
  -1   6  -6    6.64    1.80
   1  -6   6    7.87    1.99
   1  -6   6    6.68    1.84
  -2   6  -6    3.44    1.43
  -2   6  -6    5.79    1.71
   2  -6   6    4.10    1.61
   2  -6   6    3.20    1.32
  -3   6  -6   12.48    2.54
  -3   6  -6   14.83    2.61
   3  -6   6   12.18    2.62
   3  -6   6   12.53    2.49
  -4   6  -6   44.77    3.57
  -4   6  -6   52.93    4.07
   4  -6   6   49.01    4.34
   4  -6   6   55.88    4.45
  -5   6  -6    1.53    1.32
  -5   6  -6    1.29    1.12
  -5   6  -6    0.74    0.89
   5  -6   6    2.95    1.56
  -6   6  -6   -1.02    1.68
  -6   6  -6    1.09    0.99
  -6   6  -6    0.84    1.00
   6  -6   6   -0.35    1.14
   6  -6   6   -0.93    1.03
   7  -6   6    1.14    1.67
   7  -6   6    1.19    1.68
   8  -6   6    7.54    1.67
   9  -6   6    1.37    1.59
  10  -6   6   10.03    2.95
  11   5  -6    8.77    2.07
  11   5  -6   10.36    3.75
  10   5  -6    1.09    2.16
  10   5  -6    3.27    1.67
  10   5  -6    3.18    1.63
   9   5  -6    7.24    1.71
   9   5  -6    6.39    2.66
   9   5  -6    8.81    1.98
   8   5  -6   32.48    3.16
   8   5  -6   30.59    3.21
   7   5  -6    4.35    1.49
   7   5  -6    3.91    1.30
   6   5  -6  100.76    5.25
   5   5  -6    1.44    0.97
   5   5  -6   -0.42    0.58
  -5  -5   6    0.03    0.43
  -5  -5   6    0.41    0.71
   4   5  -6   30.18    2.86
   4   5  -6   35.15    3.12
  -4  -5   6   33.35    2.47
  -4  -5   6   33.39    2.47
   3   5  -6   -0.16    0.45
   3   5  -6    0.11    0.78
  -3  -5   6    1.00    0.76
  -3  -5   6   -0.21    0.58
   2   5  -6   68.57    4.28
   2   5  -6   67.14    4.38
  -2  -5   6   71.90    4.04
  -2  -5   6   60.95    3.88
   1   5  -6   78.65    4.71
   1   5  -6   74.55    4.43
  -1  -5   6   74.05    4.31
  -1  -5   6   67.91    4.28
   0   5  -6   24.79    2.66
   0   5  -6   23.98    2.62
   0  -5   6   25.36    2.64
   0  -5   6   22.37    2.37
  -1   5  -6   27.63    2.88
  -1   5  -6   22.90    2.56
   1  -5   6   28.45    2.79
   1  -5   6   25.95    2.93
  -2   5  -6    0.76    0.91
  -2   5  -6    2.24    1.12
   2  -5   6    1.53    0.99
   2  -5   6    1.36    0.99
  -3   5  -6    4.06    1.42
  -3   5  -6    5.93    1.61
   3  -5   6    6.29    1.86
   3  -5   6    6.45    1.88
  -4   5  -6    4.92    1.44
  -4   5  -6    7.11    1.80
   4  -5   6    6.82    1.87
   4  -5   6    1.70    1.20
  -5   5  -6   34.13    2.79
  -5   5  -6   30.95    5.07
  -5   5  -6   30.11    2.73
   5  -5   6   29.34    3.26
   5  -5   6   30.79    3.43
  -6   5  -6    5.67    1.07
  -6   5  -6   16.00    3.76
   6  -5   6    8.95    2.17
  -7   5  -6    3.45    2.16
   7  -5   6    6.52    2.02
   7  -5   6    2.73    1.48
   8  -5   6   24.71    3.82
   8  -5   6   22.41    3.87
   9  -5   6   -3.93    1.65
  10  -5   6    4.67    2.42
  11   4  -6    1.34    1.09
  11   4  -6   -0.66    2.33
  10   4  -6   26.49    2.65
  10   4  -6   28.21    2.72
  10   4  -6   26.44    4.89
   9   4  -6   17.25    3.71
   9   4  -6   19.13    2.67
   8   4  -6    8.22    1.82
   8   4  -6   13.00    2.12
   7   4  -6    1.12    0.86
   7   4  -6    0.33    0.75
   6   4  -6    1.05    0.72
   6   4  -6    2.85    1.05
   5   4  -6   19.16    2.60
   5   4  -6   23.17    2.28
   4   4  -6   14.31    2.18
   4   4  -6   14.16    2.21
  -4  -4   6   17.38    1.64
  -4  -4   6   15.80    1.56
   3   4  -6    9.14    1.84
   3   4  -6    8.21    1.68
  -3  -4   6    7.89    1.51
  -3  -4   6    8.01    1.55
   2   4  -6   62.98    3.97
   2   4  -6   71.02    4.00
  -2  -4   6   64.97    3.63
  -2  -4   6   64.06    3.71
   1   4  -6   29.94    2.75
   1   4  -6   23.45    2.42
  -1  -4   6   26.01    2.44
  -1  -4   6   29.76    2.64
   0   4  -6  150.05    6.45
   0   4  -6  161.81    6.43
   0  -4   6  159.41    6.39
   0  -4   6  160.94    6.65
  -1   4  -6  110.48    5.41
  -1   4  -6  109.92    5.25
   1  -4   6  108.35    5.29
   1  -4   6  114.78    5.73
  -2   4  -6    0.30    0.77
  -2   4  -6    0.43    0.86
   2  -4   6    1.49    0.92
   2  -4   6    0.14    0.79
  -3   4  -6   16.19    2.43
  -3   4  -6   13.59    2.28
   3  -4   6   17.94    3.19
   3  -4   6   16.43    2.71
  -4   4  -6   41.73    3.09
  -4   4  -6   33.00    2.88
   4  -4   6   32.70    3.24
   4  -4   6   33.64    3.35
  -5   4  -6   34.15    4.35
  -5   4  -6   33.79    2.63
  -5   4  -6   30.38    2.62
   5  -4   6   31.08    3.19
   5  -4   6   34.69    3.49
  -6   4  -6   12.67    1.09
  -6   4  -6   19.83    4.09
   6  -4   6   20.95    3.08
   6  -4   6   20.91    3.29
  -7   4  -6   -1.64    1.74
   7  -4   6   -0.68    1.09
   7  -4   6    2.20    1.21
   8  -4   6   -1.75    1.21
   8  -4   6    2.82    1.50
   9  -4   6   10.49    3.17
  10  -4   6    6.62    2.59
  12   3  -6   -0.37    3.11
  11   3  -6   24.08    2.50
  11   3  -6   22.50    4.88
  11   3  -6   28.53    2.56
  10   3  -6   16.43    2.24
  10   3  -6   14.59    2.16
  10   3  -6   16.92    4.14
   9   3  -6    6.81    1.50
   9   3  -6   11.03    3.10
   9   3  -6    6.51    1.35
   8   3  -6    0.29    0.64
   8   3  -6    0.34    0.63
   7   3  -6   33.58    2.58
   7   3  -6   31.79    2.43
   6   3  -6   46.48    2.94
   6   3  -6   47.79    3.05
   5   3  -6   21.07    2.10
   5   3  -6   22.14    2.01
   4   3  -6  178.29    6.37
   4   3  -6  181.19    6.21
  -4  -3   6  183.16    5.04
  -4  -3   6  179.64    5.08
   3   3  -6   56.04    3.30
   3   3  -6   60.18    3.52
  -3  -3   6   62.43    3.16
   2   3  -6   76.43    4.12
   2   3  -6   79.77    4.03
  -2  -3   6   71.73    3.64
  -2  -3   6   73.85    3.80
   1   3  -6  242.31    8.01
   1   3  -6  238.46    7.68
  -1  -3   6  244.73    7.85
  -1  -3   6  240.53    7.55
   0   3  -6  227.75    7.50
   0   3  -6  226.86    7.78
   0  -3   6  227.51    7.81
   0  -3   6  210.44    7.27
  -1   3  -6    2.69    1.01
  -1   3  -6    1.86    0.92
   1  -3   6    1.28    0.84
   1  -3   6   -0.26    0.60
  -2   3  -6    2.40    1.09
  -2   3  -6    2.34    1.04
   2  -3   6    3.68    1.23
   2  -3   6    1.96    1.12
  -3   3  -6   27.49    2.57
  -3   3  -6   23.89    2.35
   3  -3   6   30.63    3.02
   3  -3   6   28.62    2.84
  -4   3  -6   21.23    2.27
  -4   3  -6   24.52    2.43
   4  -3   6   23.67    3.29
   4  -3   6   23.34    3.11
  -5   3  -6   20.93    2.11
  -5   3  -6   20.11    3.72
   5  -3   6   19.82    3.22
   5  -3   6   19.74    2.97
  -6   3  -6    7.95    2.51
   6  -3   6    8.78    2.07
   6  -3   6    6.27    1.92
  -7   3  -6    7.52    2.66
   7  -3   6   11.17    2.54
   7  -3   6    8.42    2.27
  -8   3  -6   19.44    4.35
   8  -3   6   20.92    3.31
   8  -3   6   13.78    3.12
   9  -3   6   10.03    2.70
  10  -3   6   12.56    3.84
  12   2  -6   17.66    4.60
  11   2  -6    5.03    1.21
  11   2  -6    1.58    2.60
  11   2  -6    6.54    1.26
  10   2  -6    5.60    1.17
  10   2  -6    2.03    1.84
  10   2  -6    5.11    1.25
   9   2  -6    0.68    1.51
   9   2  -6    5.66    1.11
   8   2  -6    9.14    1.47
   8   2  -6    9.94    1.60
   8   2  -6    9.76    2.76
   7   2  -6    8.04    1.35
   7   2  -6    4.28    1.03
   6   2  -6   33.17    2.30
   6   2  -6   35.39    2.41
   5   2  -6   29.41    2.23
   4   2  -6   -0.62    0.27
   4   2  -6    0.40    0.55
  -4  -2   6   -0.22    0.29
   3   2  -6   18.61    1.85
   3   2  -6   21.26    2.08
  -3  -2   6   22.56    1.83
  -3  -2   6   22.04    1.86
   2   2  -6  233.35    7.53
   2   2  -6  239.51    7.34
  -2  -2   6  247.18    7.29
  -2  -2   6  230.81    6.98
   1   2  -6   66.40    3.77
   1   2  -6   65.97    3.60
  -1  -2   6   65.26    3.68
  -1  -2   6   62.88    3.52
   0   2  -6   66.05    3.69
   0   2  -6   61.26    3.70
   0  -2   6   68.43    3.94
   0  -2   6   58.32    3.55
  -1   2  -6    6.19    1.58
  -1   2  -6    5.89    1.44
   1  -2   6    6.04    1.55
   1  -2   6    5.47    1.50
  -2   2  -6   15.26    2.39
  -2   2  -6   15.80    2.33
   2  -2   6   16.71    2.50
   2  -2   6   16.89    2.58
  -3   2  -6   49.71    3.37
  -3   2  -6   42.04    3.09
   3  -2   6   50.03    3.67
   3  -2   6   44.86    3.54
  -4   2  -6   40.32    2.86
  -4   2  -6   41.58    3.03
   4  -2   6   41.22    3.51
   4  -2   6   43.15    3.63
  -5   2  -6   25.00    4.00
  -5   2  -6   21.24    1.98
  -5   2  -6   27.88    2.52
   5  -2   6   20.36    3.20
   5  -2   6   23.92    3.34
  -6   2  -6   -0.05    1.02
   6  -2   6    1.39    1.12
   6  -2   6    2.03    1.00
  -7   2  -6    2.55    1.95
   7  -2   6    1.13    0.94
   7  -2   6   -1.07    0.89
  -8   2  -6   -1.79    2.17
   8  -2   6   -0.37    1.22
   8  -2   6    0.90    1.48
   9  -2   6   10.79    2.92
  10  -2   6    9.74    3.17
  12   1  -6   19.65    5.51
  11   1  -6    1.99    0.60
  11   1  -6    1.19    0.61
  11   1  -6   -0.24    1.61
  10   1  -6    0.46    0.44
  10   1  -6    0.58    1.44
  10   1  -6   -0.22    0.44
   9   1  -6    2.71    0.66
   9   1  -6    1.74    0.64
   9   1  -6    2.43    1.87
   8   1  -6    3.11    0.80
   8   1  -6    3.99    1.92
   8   1  -6    2.73    0.71
   7   1  -6   10.80    1.22
   7   1  -6   14.40    1.39
   6   1  -6   65.71    3.02
   6   1  -6   68.17    3.16
   5   1  -6   87.48    3.66
   5   1  -6   93.23    3.90
   4   1  -6   22.83    1.99
   4   1  -6   23.02    2.25
  -4  -1   6   22.45    1.36
   3   1  -6   52.20    3.01
   3   1  -6   51.46    3.13
  -3  -1   6   50.72    2.74
   2   1  -6    0.43    0.67
   2   1  -6   -0.04    0.53
  -2  -1   6    0.07    0.51
  -2  -1   6   -0.40    0.40
   1   1  -6   13.02    2.11
   1   1  -6   12.73    1.97
  -1  -1   6   11.86    1.91
  -1  -1   6   15.46    2.13
   0   1  -6  119.83    5.27
   0   1  -6  117.55    5.03
   0  -1   6  124.38    5.23
   0  -1   6  115.33    5.25
  -1   1  -6   77.43    4.18
  -1   1  -6   73.43    4.01
   1  -1   6   76.04    4.39
   1  -1   6   75.92    4.20
  -2   1  -6    1.69    0.92
  -2   1  -6   -0.02    0.73
   2  -1   6    1.31    0.95
   2  -1   6    1.72    0.79
  -3   1  -6    6.68    1.45
  -3   1  -6    5.95    1.44
   3  -1   6    2.71    1.09
   3  -1   6    5.82    1.63
  -4   1  -6   46.82    3.13
  -4   1  -6   44.54    3.10
   4  -1   6   46.50    3.90
   4  -1   6   40.70    3.48
  -5   1  -6   15.52    3.01
  -5   1  -6   11.90    1.84
  -5   1  -6   14.89    1.68
   5  -1   6   11.82    2.45
   5  -1   6   11.81    2.56
  -6   1  -6   51.88    5.07
   6  -1   6   49.04    4.41
   6  -1   6   48.13    4.17
  -7   1  -6    1.90    1.70
   7  -1   6    0.89    1.30
   7  -1   6   -0.03    1.21
  -8   1  -6   18.60    3.69
   8  -1   6   15.13    3.29
   8  -1   6   16.81    3.55
   9  -1   6    7.36    2.15
  11   0  -6    0.52    2.12
  10   0  -6    4.85    0.79
  10   0  -6    0.71    1.91
  10   0  -6    3.95    0.73
   9   0  -6    4.24    0.79
   9   0  -6    2.17    0.73
   9   0  -6    1.71    2.29
   8   0  -6    3.72    0.89
   8   0  -6    3.94    0.85
   7   0  -6    7.32    1.27
   7   0  -6    6.87    2.29
   7   0  -6    5.85    1.04
   6   0  -6   21.00    1.83
   6   0  -6   19.89    1.70
   5   0  -6   44.73    2.70
   5   0  -6   45.49    2.60
   4   0  -6  317.19    9.77
   4   0  -6  362.07    9.28
  -4   0   6  348.68    7.60
  -4   0   6  346.75    8.06
   3   0  -6   25.27    2.25
   3   0  -6   31.90    2.41
  -3   0   6   26.69    2.03
  -3   0   6   26.82    2.03
   2   0  -6   69.31    3.83
   2   0  -6   64.00    3.54
  -2   0   6   65.51    3.53
   1   0  -6   21.90    2.18
   1   0  -6   24.69    2.40
  -1   0   6   23.69    2.16
  -1   0   6   23.13    2.32
   0   0  -6   33.17    2.73
   0   0  -6   29.27    2.55
   0   0   6   28.66    2.63
   0   0   6   28.93    2.59
  -1   0  -6  489.16   12.59
  -1   0  -6  521.65   13.11
   1   0   6  526.16   13.64
   1   0   6  496.51   13.05
  -2   0  -6   22.86    2.39
  -2   0  -6   28.62    2.58
   2   0   6   25.20    2.58
   2   0   6   27.05    2.76
  -3   0  -6    1.12    0.77
  -3   0  -6    0.20    0.77
   3   0   6    0.08    0.94
   3   0   6    1.89    1.06
  -4   0  -6   18.48    2.85
  -4   0  -6   18.17    2.37
  -4   0  -6   19.82    2.18
   4   0   6   16.02    2.77
   4   0   6   18.86    2.99
  -5   0  -6    4.57    1.24
  -5   0  -6    4.06    1.18
  -5   0  -6    3.40    1.47
   5   0   6    6.19    1.63
   5   0   6    2.71    1.49
   6   0   6   13.27    2.55
  -7   0  -6    2.75    1.77
   7   0   6    8.72    2.43
   7   0   6    0.22    1.99
   8   0   6    3.24    1.73
   9   0   6   -3.43    1.80
  11  -1  -6    4.49    0.74
  11  -1  -6    5.57    0.87
  10  -1  -6   11.30    1.23
  10  -1  -6   12.17    1.56
  10  -1  -6   12.30    3.67
   9  -1  -6   29.21    5.57
   9  -1  -6   29.77    2.09
   8  -1  -6   22.47    4.46
   8  -1  -6   19.42    1.80
   7  -1  -6   23.04    4.26
   7  -1  -6   22.34    1.94
   6  -1  -6   31.61    2.32
   5  -1  -6  102.03    4.42
   4  -1  -6   53.98    3.19
   4  -1  -6   57.40    3.37
  -4   1   6   58.31    2.72
  -4   1   6   57.19    2.67
   3  -1  -6    1.27    0.79
   3  -1  -6    2.63    1.01
  -3   1   6    1.38    0.82
  -3   1   6    2.03    0.86
   2  -1  -6   -0.29    0.65
   2  -1  -6    0.64    0.75
  -2   1   6    0.67    0.71
  -2   1   6   -0.77    0.55
   1  -1  -6   46.92    3.32
   1  -1  -6   48.30    3.37
  -1   1   6   47.77    3.40
  -1   1   6   44.51    3.21
   0  -1  -6    0.30    0.53
   0  -1  -6    0.69    0.66
   0   1   6    0.13    0.59
  -1  -1  -6    6.69    1.58
  -1  -1  -6    5.69    1.60
   1   1   6    7.97    1.78
  -2  -1  -6    7.05    1.71
  -2  -1  -6    7.81    1.70
   2   1   6    6.29    1.69
  -3  -1  -6   67.18    4.05
  -3  -1  -6   66.61    4.13
   3   1   6   66.74    4.63
   3   1   6   75.67    4.81
  -4  -1  -6    9.14    1.84
  -4  -1  -6   11.78    1.96
   4   1   6    9.55    2.15
   4   1   6    5.63    1.71
  -5  -1  -6    9.34    1.96
  -5  -1  -6   12.14    1.84
  -5  -1  -6   10.51    1.63
   5   1   6    8.05    2.30
   6   1   6    7.62    2.32
   7   1   6    7.69    2.38
   8   1   6   17.38    3.71
   9   1   6   12.79    3.18
  12  -2  -6   -0.26    0.60
  11  -2  -6   18.77    4.61
  11  -2  -6   21.10    1.77
  10  -2  -6   22.24    5.05
  10  -2  -6   15.16    1.60
   9  -2  -6   13.96    1.96
   9  -2  -6   15.88    1.62
   9  -2  -6   13.23    3.65
   8  -2  -6    2.49    1.01
   8  -2  -6    0.59    0.63
   8  -2  -6   -0.13    1.37
   7  -2  -6   69.33    6.35
   7  -2  -6   77.56    3.94
   7  -2  -6   78.21    3.82
   6  -2  -6    1.35    0.87
   6  -2  -6   -0.18    0.70
   6  -2  -6    2.14    0.85
   5  -2  -6    2.05    0.93
   5  -2  -6    2.81    0.98
  -5   2   6    1.65    0.52
   4  -2  -6    1.29    0.80
  -4   2   6   -0.69    0.49
   3  -2  -6   45.10    3.25
  -3   2   6   42.29    2.99
  -3   2   6   39.36    2.78
   2  -2  -6    0.39    0.67
   2  -2  -6    0.36    0.71
  -2   2   6    1.04    0.89
  -2   2   6    2.49    1.06
   1  -2  -6   45.09    3.42
   1  -2  -6   42.36    3.28
  -1   2   6   45.39    3.42
  -1   2   6   49.24    3.57
   0  -2  -6    1.96    1.10
   0  -2  -6    3.14    1.26
   0   2   6    2.01    1.09
   0   2   6    2.62    1.18
  -1  -2  -6   39.96    3.38
  -1  -2  -6   35.51    3.10
   1   2   6   47.50    3.93
   1   2   6   38.17    3.97
  -2  -2  -6   13.02    2.26
  -2  -2  -6   14.53    2.49
   2   2   6   15.29    2.76
   2   2   6   11.44    2.44
  -3  -2  -6    6.99    1.81
  -3  -2  -6    8.39    1.90
  -3  -2  -6    7.61    1.35
   3   2   6    5.22    1.88
   3   2   6    8.09    2.26
  -4  -2  -6    1.99    1.23
  -4  -2  -6    1.82    0.98
  -4  -2  -6    0.10    0.49
   4   2   6    0.74    1.13
   4   2   6   -0.57    0.84
  -5  -2  -6    2.69    1.08
  -5  -2  -6    1.98    1.09
   5   2   6    4.69    1.61
   5   2   6    3.12    1.75
   6   2   6    0.76    1.37
   6   2   6    0.92    1.22
   7   2   6   -2.06    1.14
  11  -3  -6   48.51    3.10
  11  -3  -6   47.35    3.17
  11  -3  -6   51.22    7.76
  10  -3  -6    1.49    0.80
  10  -3  -6    0.45    0.76
  10  -3  -6    2.48    2.08
   9  -3  -6    3.69    1.15
   9  -3  -6    2.91    1.18
   9  -3  -6    2.73    2.30
   8  -3  -6    0.32    0.72
   8  -3  -6    0.93    1.13
   8  -3  -6    0.35    0.69
   7  -3  -6    0.40    1.76
   7  -3  -6    4.44    1.35
   7  -3  -6    1.99    0.97
   6  -3  -6   16.32    2.48
   6  -3  -6   17.66    3.80
   6  -3  -6   14.10    2.22
   5  -3  -6    0.75    0.99
   5  -3  -6   -0.01    0.48
   5  -3  -6    1.55    0.74
  -5   3   6   -0.66    0.39
  -5   3   6    0.13    0.51
   4  -3  -6   18.74    3.38
   4  -3  -6   19.26    2.82
   4  -3  -6   16.59    2.59
  -4   3   6   19.06    2.00
  -4   3   6   19.07    2.39
   3  -3  -6   29.38    2.87
  -3   3   6   25.11    2.46
  -3   3   6   31.14    2.76
   2  -3  -6   -0.04    0.57
  -2   3   6    0.71    0.87
  -2   3   6   -0.31    0.66
   1  -3  -6    3.63    1.45
  -1   3   6    1.97    0.92
  -1   3   6    1.78    1.23
   0  -3  -6  153.38    6.95
   0  -3  -6  149.60    6.81
   0   3   6  153.16    7.20
   0   3   6  134.61    6.67
  -1  -3  -6   17.82    2.86
  -1  -3  -6   18.06    2.84
   1   3   6   21.45    3.30
   1   3   6   16.59    2.90
  -2  -3  -6   29.54    3.13
  -2  -3  -6   35.62    1.50
  -2  -3  -6   42.72    3.59
   2   3   6   33.82    3.54
   2   3   6   40.92    3.96
  -3  -3  -6    6.25    1.73
  -3  -3  -6    5.22    1.80
   3   3   6    5.72    1.83
   3   3   6    6.27    2.15
  -4  -3  -6    6.40    1.84
  -4  -3  -6    6.12    2.20
   4   3   6    7.38    1.85
   4   3   6    9.19    2.39
  -5  -3  -6    0.86    1.08
  -5  -3  -6    0.19    1.10
   5   3   6    4.32    1.89
   5   3   6    3.09    1.30
   6   3   6    2.88    1.90
   7   3   6    4.59    1.85
  12  -4  -6    4.97    1.69
  11  -4  -6   26.42    5.70
  11  -4  -6   25.26    3.33
  11  -4  -6   20.74    2.67
  10  -4  -6    4.18    3.28
  10  -4  -6    4.25    1.55
  10  -4  -6    8.03    1.58
   9  -4  -6   31.78    5.89
   9  -4  -6   42.25    3.39
   9  -4  -6   43.11    3.92
   8  -4  -6    0.47    0.77
   8  -4  -6    0.32    1.31
   7  -4  -6    8.22    2.00
   7  -4  -6    6.34    2.53
   6  -4  -6    1.05    0.87
   6  -4  -6    0.46    1.08
   6  -4  -6    0.42    0.69
  -6   4   6    0.46    0.42
  -6   4   6    0.72    0.47
   5  -4  -6   20.93    2.96
   5  -4  -6   26.85    4.32
   5  -4  -6   20.30    2.98
  -5   4   6   20.11    2.09
  -5   4   6   21.74    2.11
   4  -4  -6   11.05    2.52
   4  -4  -6   13.83    2.52
   4  -4  -6   12.98    2.38
  -4   4   6   12.73    2.22
  -4   4   6   16.79    2.45
   3  -4  -6   36.78    3.66
   3  -4  -6   25.34    3.47
   3  -4  -6   37.78    3.49
  -3   4   6   35.16    3.10
  -3   4   6   35.91    3.29
   2  -4  -6   -0.58    0.58
   2  -4  -6   -0.41    0.62
  -2   4   6   -0.86    0.82
  -2   4   6    2.07    1.03
   1  -4  -6    0.46    0.62
   1  -4  -6    0.38    0.67
   1  -4  -6    0.59    0.56
  -1   4   6   -0.99    0.56
   0  -4  -6  117.18    4.35
   0  -4  -6  116.86    6.38
   0  -4  -6  116.25    6.27
   0   4   6  104.76    6.28
   0   4   6  116.44    6.43
  -1  -4  -6   15.04    2.83
  -1  -4  -6   16.51    3.02
   1   4   6   16.89    3.26
   1   4   6   14.54    2.94
  -2  -4  -6   28.98    3.08
  -2  -4  -6   31.69    3.42
   2   4   6   28.34    4.09
   2   4   6   20.09    3.54
  -3  -4  -6   17.39    3.11
  -3  -4  -6   18.55    2.95
   3   4   6   16.60    3.09
   3   4   6   19.79    3.63
  -4  -4  -6   -0.76    1.23
  -4  -4  -6   -0.43    1.09
   4   4   6    3.37    1.80
   4   4   6    2.89    1.59
  -5  -4  -6   -1.37    1.33
   5   4   6    0.05    1.58
   6   4   6   12.68    3.26
   7   4   6   14.22    3.53
  11  -5  -6    2.32    1.61
  11  -5  -6   -2.78    1.13
  10  -5  -6    4.63    1.46
  10  -5  -6    5.28    1.81
  10  -5  -6    4.27    2.65
   9  -5  -6   12.93    2.66
   9  -5  -6   12.09    2.51
   9  -5  -6   10.61    3.38
   8  -5  -6   31.39    3.37
   8  -5  -6   31.76    5.72
   8  -5  -6   27.85    3.76
   7  -5  -6    8.92    2.31
   7  -5  -6    9.40    2.31
   7  -5  -6    8.38    2.80
   6  -5  -6    6.63    2.45
   6  -5  -6    6.74    1.96
   6  -5  -6    4.62    1.57
  -6   5   6    4.92    1.19
   5  -5  -6    3.61    1.85
   5  -5  -6    4.85    1.69
   5  -5  -6    4.52    1.52
  -5   5   6    2.62    1.08
  -5   5   6    6.69    1.61
   4  -5  -6  183.49    9.03
   4  -5  -6  173.56    7.91
   4  -5  -6  154.83    7.64
  -4   5   6  156.70    7.23
  -4   5   6  164.25    7.23
   3  -5  -6    0.20    1.08
   3  -5  -6   -0.76    0.80
   3  -5  -6   -0.50    0.62
  -3   5   6   -0.04    0.88
  -3   5   6   -1.36    0.65
   2  -5  -6  103.58    5.54
   2  -5  -6  118.85    6.71
  -2   5   6  110.91    6.42
  -2   5   6  106.66    6.11
   1  -5  -6   22.76    2.21
   1  -5  -6   19.98    3.28
   1  -5  -6   17.74    3.03
  -1   5   6   19.83    3.38
  -1   5   6   23.22    3.56
   0  -5  -6    4.13    1.47
   0  -5  -6    1.01    0.94
  -1  -5  -6    9.03    2.37
   1   5   6   12.49    2.89
   1   5   6   13.22    3.08
  -2  -5  -6    5.81    2.04
  -2  -5  -6    9.18    2.35
   2   5   6    8.36    2.53
  -3  -5  -6    5.40    1.81
  -3  -5  -6    4.96    2.13
   3   5   6    4.31    2.06
   3   5   6    3.94    1.82
  -4  -5  -6   13.27    2.68
   4   5   6   12.78    2.85
  -5  -5  -6   -0.57    1.55
  -5  -5  -6    3.59    1.68
   5   5   6    7.15    2.50
   6   5   6   -2.08    1.94
  11  -6  -6    2.10    1.84
  11  -6  -6   -0.48    1.87
  10  -6  -6   -0.63    2.24
  10  -6  -6    5.22    1.80
   9  -6  -6    9.16    2.40
   9  -6  -6   14.70    2.74
   9  -6  -6    8.62    3.35
   8  -6  -6    3.64    1.54
   8  -6  -6    3.21    2.32
   8  -6  -6    0.69    1.31
   7  -6  -6    8.05    2.26
   7  -6  -6   10.29    2.67
   7  -6  -6    9.45    3.11
   6  -6  -6   20.02    4.04
   6  -6  -6   23.60    4.59
   6  -6  -6   24.17    3.81
  -6   6   6   20.29    2.27
  -6   6   6   22.85    2.35
   5  -6  -6    0.87    1.26
   5  -6  -6    2.52    1.21
   5  -6  -6   -0.71    1.02
  -5   6   6    0.59    0.88
  -5   6   6    2.83    2.28
   4  -6  -6    4.71    1.82
   4  -6  -6    4.27    1.55
   4  -6  -6    1.74    1.48
  -4   6   6    2.41    1.56
  -4   6   6    7.40    2.03
   3  -6  -6    2.17    1.56
   3  -6  -6    4.28    1.60
   3  -6  -6    2.53    1.67
  -3   6   6    4.66    1.74
  -3   6   6    2.53    1.46
   2  -6  -6    0.92    0.85
   2  -6  -6    1.31    1.02
  -2   6   6    0.39    1.20
  -2   6   6    0.96    1.63
   1  -6  -6   -0.97    1.21
  -1   6   6   -0.62    1.07
  -1   6   6   -0.07    0.74
   0  -6  -6   -0.26    1.04
   0  -6  -6    1.70    1.50
   0   6   6    0.30    1.68
   0   6   6    1.39    1.11
  -1  -6  -6   14.98    3.18
  -1  -6  -6   10.92    2.40
   1   6   6   11.64    3.00
   1   6   6   11.64    2.64
  -2  -6  -6   -1.05    1.43
  -2  -6  -6   -1.59    0.99
   2   6   6    1.66    1.18
  -3  -6  -6    3.36    1.71
  -3  -6  -6    0.77    1.51
   3   6   6    0.33    1.31
  -4  -6  -6    2.64    2.05
  -4  -6  -6    5.42    2.47
   4   6   6   13.77    3.39
  -5  -6  -6   12.37    3.25
   5   6   6   10.10    3.07
  11  -7  -6    7.23    2.59
  10  -7  -6    0.17    1.14
   9  -7  -6   -3.93    2.15
   9  -7  -6    0.07    1.23
   8  -7  -6   11.29    2.56
   8  -7  -6   10.10    2.63
   7  -7  -6    9.67    2.73
   7  -7  -6   10.41    3.42
   7  -7  -6   11.74    2.87
   6  -7  -6   16.37    3.81
   6  -7  -6   15.51    3.42
   6  -7  -6   15.33    3.19
  -6   7   6   13.00    2.36
   5  -7  -6    2.25    1.25
   5  -7  -6    0.50    1.20
  -5   7   6   -1.81    0.93
  -5   7   6   -1.10    1.17
   4  -7  -6   10.91    2.70
   4  -7  -6   10.66    2.65
  -4   7   6    9.43    3.21
  -4   7   6    9.29    2.42
   3  -7  -6    6.21    2.15
   3  -7  -6    6.59    2.23
  -3   7   6    4.44    2.16
  -3   7   6    6.00    2.03
   2  -7  -6    1.58    1.08
   2  -7  -6    2.68    1.55
  -2   7   6    3.57    1.69
  -1   7   6    5.86    2.03
  -1   7   6    4.55    2.13
   0  -7  -6    1.56    1.38
   0  -7  -6    4.45    2.14
   0   7   6   -0.12    1.08
   0   7   6    2.75    1.41
  -1  -7  -6    6.81    2.40
  -1  -7  -6    4.59    1.92
   1   7   6    3.74    2.01
  -2  -7  -6    3.52    1.80
  -2  -7  -6   -0.43    1.76
   2   7   6    3.98    1.58
  -3  -7  -6   17.23    3.62
  -3  -7  -6   16.24    3.76
   3   7   6   22.03    4.41
  -4  -7  -6    9.28    2.50
  -4  -7  -6    7.17    3.65
  10  -8  -6    4.93    2.47
   9  -8  -6   32.05    5.71
   8  -8  -6   57.05    5.39
   7  -8  -6    2.76    1.53
  -7   8   6    2.12    1.37
  -7   8   6    0.33    1.46
   6  -8  -6    2.99    1.69
  -6   8   6    3.61    1.60
  -6   8   6    1.06    1.75
   5  -8  -6    8.38    2.62
  -5   8   6   11.22    2.88
  -5   8   6    3.75    2.24
   4  -8  -6    1.17    1.18
  -4   8   6    0.79    1.23
   3  -8  -6    3.02    1.76
  -3   8   6    0.09    1.71
  -3   8   6    3.39    1.77
  -2   8   6   -1.04    1.14
  -1   8   6    0.77    1.04
   0  -8  -6    1.76    1.30
   0   8   6   -1.29    1.29
  -1  -8  -6    2.48    1.78
   1   8   6    1.20    1.48
  -2  -8  -6   21.74    4.25
   2   8   6   21.18    4.68
  -3  -8  -6   10.37    3.54
  -4  -8  -6   27.65    4.22
   8  -9  -6   -0.16    1.68
   7  -9  -6    7.77    2.52
  -7   9   6    3.42    1.86
  -7   9   6    4.46    3.24
   6  -9  -6   -3.05    1.39
  -6   9   6    0.00    2.36
  -6   9   6   -0.95    1.42
   5  -9  -6    2.01    1.67
  -5   9   6   -3.29    1.88
  -5   9   6    4.58    1.91
   4  -9  -6    4.82    2.12
  -4   9   6    5.87    2.26
   3  -9  -6    0.34    1.29
  -3   9   6    0.64    1.68
   1  -9  -6    7.54    2.52
  -1   9   6   10.77    2.92
   0  -9  -6    0.99    1.63
  -1  -9  -6    4.13    2.51
  -7  10   6    8.07    3.09
  -6  10   6    5.16    2.12
  -5  10   6   -0.07    1.81
  -4  10   6    0.21    2.25
  -3  10   6    1.70    1.89
  -6  11   6   -5.39    3.00
  -3 -12   7    1.95    2.89
  -2 -12   7    3.51    2.30
  -1 -12   7    9.51    3.06
   0 -12   7    6.54    2.45
  -1  12  -7   16.38    4.19
  -2  12  -7    4.31    2.37
  -3  12  -7    7.37    2.79
  -4  12  -7    0.27    2.07
  -5  12  -7    5.04    3.15
  -5 -11   7    4.75    2.34
  -4 -11   7    2.49    2.94
  -4 -11   7   -0.62    1.83
   3  11  -7   -1.72    0.78
  -3 -11   7   -3.32    1.49
   2  11  -7   20.94    4.05
  -2 -11   7   11.12    3.26
   1  11  -7    3.52    1.81
  -1 -11   7   -0.74    1.24
   0 -11   7    2.23    1.65
  -1  11  -7    0.58    2.00
  -2  11  -7   11.88    3.03
   2 -11   7   18.03    3.92
  -3  11  -7    5.03    2.40
   3 -11   7    5.01    2.38
  -4  11  -7   28.29    4.67
  -5  11  -7    2.23    2.50
  -6  11  -7    0.20    2.58
   6  10  -7   -2.06    1.39
   5  10  -7    4.92    1.91
  -5 -10   7    4.27    2.41
   4  10  -7    3.69    1.99
  -4 -10   7    3.75    2.31
  -4 -10   7    6.32    2.22
   3  10  -7    9.69    2.62
  -3 -10   7    4.83    2.26
  -3 -10   7    7.48    2.44
   2  10  -7   34.87    5.23
  -2 -10   7   41.21    4.43
  -2 -10   7   33.39    4.62
   1  10  -7   17.15    3.55
  -1 -10   7   16.13    3.32
  -1 -10   7   26.60    4.12
   0  10  -7   13.48    3.02
   0 -10   7    6.90    2.47
   0 -10   7    9.71    3.29
  -1  10  -7    9.87    2.80
   1 -10   7   13.84    3.14
  -2  10  -7   -0.76    1.31
  -2  10  -7    1.32    1.86
   2 -10   7   -0.91    0.99
  -3  10  -7   17.01    3.38
  -3  10  -7   17.51    3.38
   3 -10   7   20.47    3.97
  -4  10  -7    6.92    2.62
  -4  10  -7    4.74    2.38
  -5  10  -7    5.34    1.94
  -5  10  -7    7.82    3.29
   5 -10   7   10.06    2.35
  -6  10  -7    6.12    2.99
  -6  10  -7    6.18    2.23
   8   9  -7   17.64    3.76
   7   9  -7   51.43    7.38
   6   9  -7    2.87    1.35
  -6  -9   7   -0.45    0.99
   5   9  -7    5.02    1.79
  -5  -9   7    2.84    1.54
  -5  -9   7    3.48    1.61
   4   9  -7    5.62    2.92
   4   9  -7   10.28    2.77
  -4  -9   7    7.78    2.06
  -4  -9   7    6.49    2.17
   3   9  -7   17.74    3.43
   3   9  -7   15.98    3.44
  -3  -9   7   18.91    3.28
  -3  -9   7   18.19    3.23
   2   9  -7   64.76    5.71
   2   9  -7   60.57    5.39
  -2  -9   7   54.76    4.69
  -2  -9   7   57.69    4.90
   1   9  -7    7.24    2.17
   1   9  -7   15.50    3.21
  -1  -9   7    8.45    2.65
  -1  -9   7    2.78    1.25
   0   9  -7   33.28    4.67
   0   9  -7   36.31    4.98
   0  -9   7   31.16    4.62
  -1   9  -7    3.95    1.65
   1  -9   7    6.47    2.05
   1  -9   7    5.39    2.08
  -2   9  -7   19.98    3.52
   2  -9   7   17.46    3.39
   2  -9   7   14.06    3.24
  -3   9  -7   11.02    2.72
  -3   9  -7    7.46    2.45
   3  -9   7    6.62    2.16
   3  -9   7   13.17    2.98
  -4   9  -7    3.44    1.69
  -4   9  -7    3.64    2.01
   4  -9   7    3.46    2.04
  -5   9  -7   18.33    3.07
  -5   9  -7   23.23    3.78
   5  -9   7   21.84    4.11
  -6   9  -7    5.53    2.12
  -6   9  -7    2.24    1.58
   6  -9   7   -3.94    1.43
  -7   9  -7    0.31    1.31
   7  -9   7   -1.13    1.52
   9   8  -7   14.60    2.77
   9   8  -7    9.29    3.42
   8   8  -7    1.50    1.32
   7   8  -7    3.71    1.50
   6   8  -7    4.85    1.99
   6   8  -7    5.64    1.83
  -6  -8   7    1.14    0.92
   5   8  -7    2.24    1.47
   5   8  -7    0.77    1.40
  -5  -8   7    3.15    1.42
  -5  -8   7    3.04    1.27
   4   8  -7   52.31    4.88
   4   8  -7   69.03    5.47
  -4  -8   7   59.58    4.44
  -4  -8   7   57.49    4.41
   3   8  -7   10.79    2.54
   3   8  -7    8.71    2.30
  -3  -8   7    5.81    2.02
  -3  -8   7   11.19    2.50
   2   8  -7    4.49    1.81
   2   8  -7    4.89    1.81
  -2  -8   7    4.65    1.67
  -2  -8   7    4.30    1.65
   1   8  -7   75.08    5.67
   1   8  -7   79.69    5.87
  -1  -8   7   72.76    5.24
   0   8  -7   24.19    3.85
   0   8  -7   31.59    4.42
   0  -8   7   34.44    3.68
   0  -8   7   25.80    3.77
  -1   8  -7   12.40    2.73
  -1   8  -7    9.21    2.36
   1  -8   7   13.36    2.73
   1  -8   7   11.52    2.76
  -2   8  -7    2.39    1.65
  -2   8  -7    2.43    1.50
   2  -8   7    0.13    1.30
   2  -8   7    1.32    1.30
  -3   8  -7   32.27    3.57
  -3   8  -7   32.88    4.53
   3  -8   7   29.19    5.15
   3  -8   7   30.57    4.56
  -4   8  -7    0.58    1.37
   4  -8   7    2.06    1.66
   4  -8   7   -0.95    1.42
  -5   8  -7    0.19    1.44
  -5   8  -7   -2.18    1.01
   5  -8   7    2.03    1.66
  -6   8  -7   13.95    3.13
   6  -8   7   15.70    3.47
   8  -8   7   -1.32    1.66
  10   7  -7   26.52    5.38
   9   7  -7    0.03    2.04
   9   7  -7    3.06    1.48
   8   7  -7   10.59    2.31
   8   7  -7   11.18    2.38
   7   7  -7    3.60    1.71
   7   7  -7    3.77    2.38
   6   7  -7   -1.46    1.02
   6   7  -7    0.56    1.10
  -6  -7   7    0.76    0.20
   5   7  -7   85.39    5.85
  -5  -7   7   90.38    4.53
  -5  -7   7   94.77    4.61
   4   7  -7    0.61    1.11
   4   7  -7    2.50    1.18
  -4  -7   7    1.48    1.08
  -4  -7   7    0.37    0.90
   3   7  -7   10.71    2.54
   3   7  -7    7.57    2.24
  -3  -7   7    9.76    2.04
  -3  -7   7    7.07    1.86
   2   7  -7   54.25    4.55
   2   7  -7   68.14    4.93
  -2  -7   7   62.02    4.39
  -2  -7   7   62.18    4.57
   1   7  -7   44.08    3.86
   1   7  -7   39.96    4.01
  -1  -7   7   44.90    3.78
  -1  -7   7   45.89    4.00
   0   7  -7    5.58    1.74
   0   7  -7    4.82    1.92
   0  -7   7    5.59    1.97
   0  -7   7    7.43    1.95
  -1   7  -7   -0.55    0.85
  -1   7  -7    3.90    1.59
   1  -7   7    2.55    1.44
   1  -7   7    2.39    1.36
  -2   7  -7   26.96    3.87
  -2   7  -7   31.04    3.51
   2  -7   7   34.20    3.57
  -3   7  -7    0.19    0.97
  -3   7  -7   -0.82    0.83
   3  -7   7   -0.12    1.21
   3  -7   7    0.00    0.94
  -4   7  -7    0.66    1.09
  -4   7  -7   -1.12    0.83
   4  -7   7    1.79    1.33
   4  -7   7    1.61    1.01
  -5   7  -7    2.72    1.31
  -5   7  -7    0.92    1.67
  -5   7  -7   -0.08    1.02
   5  -7   7   -1.43    0.99
   5  -7   7    0.64    1.58
  -6   7  -7    0.60    1.16
  -6   7  -7    0.39    1.27
   6  -7   7    0.06    1.11
   6  -7   7   -2.37    1.33
   7  -7   7    8.76    2.62
   8  -7   7   -2.94    1.62
  11   6  -7    2.74    3.01
  10   6  -7    3.86    2.22
  10   6  -7    3.74    1.65
  10   6  -7    2.93    2.81
   9   6  -7    1.21    1.07
   9   6  -7   -1.44    1.46
   9   6  -7    2.13    2.04
   8   6  -7    2.12    1.43
   7   6  -7   30.83    3.32
   7   6  -7   29.52    4.05
   6   6  -7    6.18    1.81
   6   6  -7    4.32    1.43
   5   6  -7   14.75    2.68
   5   6  -7   15.91    2.88
  -5  -6   7    9.98    1.67
   4   6  -7   31.24    3.24
   4   6  -7   23.29    3.51
  -4  -6   7   38.95    3.02
  -4  -6   7   35.62    2.89
   3   6  -7   64.38    4.54
   3   6  -7   62.39    4.63
  -3  -6   7   65.69    4.11
  -3  -6   7   64.38    4.28
   2   6  -7  134.38    6.69
   2   6  -7  124.17    6.61
  -2  -6   7  125.84    6.19
   1   6  -7  132.74    6.92
   1   6  -7  152.69    7.13
  -1  -6   7  138.82    6.78
  -1  -6   7  149.47    6.78
   0   6  -7   66.37    4.62
   0   6  -7   51.01    4.17
   0  -6   7   57.82    4.46
   0  -6   7   59.02    4.32
  -1   6  -7   11.08    2.47
  -1   6  -7   15.18    2.70
   1  -6   7   10.57    2.39
   1  -6   7   14.35    2.66
  -2   6  -7    0.08    0.75
  -2   6  -7   -0.36    0.58
   2  -6   7    0.72    0.93
   2  -6   7   -0.36    0.54
  -3   6  -7    1.38    1.12
  -3   6  -7    2.31    1.11
   3  -6   7    0.70    1.05
   3  -6   7    0.03    0.90
  -4   6  -7   24.19    3.41
  -4   6  -7   20.20    2.99
   4  -6   7   25.01    3.79
   4  -6   7   25.50    3.92
  -5   6  -7    5.72    2.64
  -5   6  -7    9.22    2.04
   5  -6   7   14.59    3.01
   5  -6   7   11.85    2.76
  -6   6  -7   11.88    2.08
  -6   6  -7   16.35    2.31
  -6   6  -7   16.83    4.30
   6  -6   7   17.72    3.32
   6  -6   7   13.33    3.18
   7  -6   7   10.08    2.73
   8  -6   7    8.81    2.58
   9  -6   7    2.84    1.81
  11   5  -7    3.37    1.85
  10   5  -7    0.65    1.58
  10   5  -7    2.97    2.17
  10   5  -7   -0.42    1.09
   9   5  -7    1.73    1.08
   9   5  -7   -0.22    1.18
   9   5  -7    2.82    1.96
   8   5  -7   13.48    2.48
   8   5  -7   14.02    2.44
   7   5  -7   20.58    2.97
   7   5  -7   21.68    3.05
   6   5  -7   44.56    3.68
   6   5  -7   44.55    3.77
   5   5  -7  136.96    6.69
   5   5  -7  142.57    6.51
   4   5  -7   85.37    4.95
  -4  -5   7   91.93    4.33
  -4  -5   7   76.41    4.01
   3   5  -7   37.08    3.25
  -3  -5   7   35.26    2.90
  -3  -5   7   36.97    2.95
   2   5  -7   14.89    2.53
  -2  -5   7   15.54    2.51
  -2  -5   7   14.11    2.32
   1   5  -7   19.52    2.88
   1   5  -7   17.45    3.23
  -1  -5   7   17.89    2.65
  -1  -5   7   19.50    2.99
   0   5  -7    5.17    1.55
   0   5  -7    7.83    2.01
   0  -5   7    5.06    1.70
   0  -5   7    8.66    2.02
  -1   5  -7   -0.25    0.86
  -1   5  -7   -0.15    0.89
   1  -5   7    0.39    0.85
   1  -5   7    0.88    1.08
  -2   5  -7    1.65    1.12
  -2   5  -7    3.19    1.50
   2  -5   7    4.25    1.46
   2  -5   7   -0.24    0.89
  -3   5  -7    2.26    1.29
  -3   5  -7    2.66    1.21
   3  -5   7    1.09    0.85
   3  -5   7    2.29    1.31
  -4   5  -7    4.60    1.52
  -4   5  -7    8.00    1.91
   4  -5   7    6.10    1.86
   4  -5   7    4.34    1.55
  -5   5  -7   19.08    2.58
  -5   5  -7   20.49    4.14
  -5   5  -7   18.04    2.56
   5  -5   7   14.20    2.87
   5  -5   7   18.02    3.27
  -6   5  -7   42.27    2.82
  -6   5  -7   42.08    6.50
   6  -5   7   40.72    3.99
   6  -5   7   38.18    4.23
   7  -5   7   -2.22    1.10
   7  -5   7    2.53    1.35
   8  -5   7   -1.65    1.30
   9  -5   7   15.65    3.67
  11   4  -7   11.13    2.26
  10   4  -7    1.17    1.07
  10   4  -7    5.28    1.52
  10   4  -7    0.94    1.89
   9   4  -7    0.23    0.84
   9   4  -7   -2.26    0.89
   9   4  -7    1.46    1.63
   8   4  -7    2.28    1.28
   8   4  -7    0.19    0.70
   7   4  -7    3.30    1.30
   7   4  -7    2.50    1.06
   6   4  -7   60.91    4.05
   6   4  -7   58.67    3.77
   5   4  -7   14.81    2.44
   5   4  -7   14.00    2.24
   4   4  -7   33.46    2.85
   4   4  -7   33.81    2.99
  -4  -4   7   39.91    2.62
  -4  -4   7   32.04    2.38
   3   4  -7   21.78    2.41
   3   4  -7   23.73    2.46
  -3  -4   7   21.85    2.24
  -3  -4   7   23.39    2.24
   2   4  -7   69.07    4.19
   2   4  -7   66.39    4.22
  -2  -4   7   73.22    4.07
  -2  -4   7   67.11    4.01
   1   4  -7   28.59    2.87
   1   4  -7   26.07    2.66
  -1  -4   7   27.60    2.65
  -1  -4   7   26.48    2.73
   0   4  -7   35.21    3.12
   0   4  -7   28.34    2.83
   0  -4   7   33.51    2.91
   0  -4   7   33.48    3.16
  -1   4  -7   24.02    3.17
  -1   4  -7   19.29    2.85
   1  -4   7   23.55    3.39
  -2   4  -7  119.11    5.78
  -2   4  -7  119.10    5.92
   2  -4   7  119.59    6.06
   2  -4   7  116.84    6.28
  -3   4  -7   11.00    2.26
  -3   4  -7   12.54    2.27
   3  -4   7   10.14    2.29
   3  -4   7   12.19    2.49
  -4   4  -7   -0.25    0.62
  -4   4  -7   -1.00    0.67
   4  -4   7    0.05    0.75
   4  -4   7    1.35    1.34
  -5   4  -7    0.03    1.38
  -5   4  -7    1.45    0.86
  -5   4  -7    0.87    0.98
   5  -4   7    3.34    1.30
   5  -4   7    0.29    1.04
  -6   4  -7   41.95    6.34
   6  -4   7   34.99    3.77
   6  -4   7   43.79    4.22
  -7   4  -7    2.21    1.84
   7  -4   7   -0.34    1.10
   7  -4   7    4.07    1.69
   8  -4   7    4.22    2.20
  11   3  -7    1.76    1.30
  11   3  -7    1.90    1.15
  10   3  -7   34.88    2.92
  10   3  -7   44.08    5.59
  10   3  -7   32.52    2.72
   9   3  -7   36.11    5.61
   9   3  -7   32.52    2.74
   9   3  -7   35.06    2.78
   8   3  -7   20.58    2.11
   8   3  -7   16.83    2.35
   7   3  -7   25.10    2.30
   7   3  -7   28.64    2.53
   6   3  -7   55.18    3.41
   6   3  -7   53.10    3.45
   5   3  -7   17.21    1.88
   5   3  -7   10.39    1.86
   4   3  -7    1.24    0.80
   4   3  -7   -0.56    0.44
  -4  -3   7    0.69    0.59
  -4  -3   7   -0.16    0.49
   3   3  -7   14.69    2.30
   3   3  -7   14.02    2.14
  -3  -3   7   17.13    2.26
  -3  -3   7   13.36    1.93
   2   3  -7   96.74    4.76
   2   3  -7  100.21    5.13
  -2  -3   7   96.24    4.59
  -2  -3   7   98.17    4.75
   1   3  -7    7.28    1.68
   1   3  -7    5.83    1.49
  -1  -3   7    6.30    1.67
  -1  -3   7    5.79    1.49
   0   3  -7  211.86    7.68
   0   3  -7  212.04    7.96
   0  -3   7  215.41    7.78
   0  -3   7  218.11    8.07
  -1   3  -7   12.86    2.21
  -1   3  -7   11.58    2.24
   1  -3   7    8.89    2.03
   1  -3   7    9.77    1.96
  -2   3  -7   19.66    2.80
  -2   3  -7   19.89    2.75
   2  -3   7   17.16    2.87
   2  -3   7   17.46    2.83
  -3   3  -7   -0.14    0.83
  -3   3  -7    2.58    1.09
   3  -3   7   -0.51    0.78
   3  -3   7    0.76    0.98
  -4   3  -7   79.54    4.50
  -4   3  -7   83.98    4.61
   4  -3   7   77.37    5.32
   4  -3   7   75.08    4.99
  -5   3  -7   47.25    5.03
  -5   3  -7   51.26    3.32
  -5   3  -7   49.61    3.42
   5  -3   7   48.16    4.23
   5  -3   7   53.49    4.56
  -6   3  -7   33.66    5.29
  -6   3  -7   25.02    1.70
   6  -3   7   26.30    4.08
   6  -3   7   23.26    3.55
  -7   3  -7   -0.69    1.47
   7  -3   7    0.14    1.28
   7  -3   7    1.06    1.28
   8  -3   7   -1.68    1.26
  11   2  -7   42.12    2.71
  11   2  -7   45.73    8.76
  11   2  -7   44.14    2.87
  10   2  -7   69.26    3.60
  10   2  -7   71.01    7.14
  10   2  -7   68.13    3.47
   9   2  -7   16.22    2.07
   9   2  -7   10.75    1.69
   9   2  -7   11.35    3.35
   8   2  -7   88.76    3.99
   8   2  -7   79.85    3.94
   7   2  -7    5.10    1.23
   7   2  -7    4.77    1.18
   6   2  -7  132.81    5.25
   6   2  -7  131.69    5.11
   5   2  -7    2.71    0.96
   5   2  -7    0.19    0.69
   4   2  -7   53.35    3.23
   4   2  -7   50.16    3.32
  -4  -2   7   47.31    2.56
   3   2  -7    0.77    0.64
   3   2  -7    0.38    0.79
  -3  -2   7   -0.23    0.53
  -3  -2   7    0.28    0.52
   2   2  -7    0.77    0.70
   2   2  -7   -0.07    0.39
  -2  -2   7    0.35    0.66
  -2  -2   7    0.82    0.75
   1   2  -7   32.79    2.92
   1   2  -7   27.91    2.60
  -1  -2   7   24.72    2.45
  -1  -2   7   29.96    2.66
   0   2  -7  147.20    6.43
   0   2  -7  162.82    6.55
   0  -2   7  163.35    6.58
   0  -2   7  173.46    6.96
  -1   2  -7   29.76    2.75
  -1   2  -7   31.17    2.82
   1  -2   7   30.09    2.85
   1  -2   7   32.71    3.02
  -2   2  -7   35.35    3.00
  -2   2  -7   41.95    3.31
   2  -2   7   39.35    3.49
  -3   2  -7  121.88    5.80
  -3   2  -7  121.05    5.63
   3  -2   7  119.21    6.38
   3  -2   7  114.97    6.08
  -4   2  -7   74.25    4.35
  -4   2  -7   67.10    4.11
   4  -2   7   71.90    4.98
   4  -2   7   68.72    4.92
  -5   2  -7    1.02    0.76
  -5   2  -7    0.38    1.15
  -5   2  -7    0.92    0.87
   5  -2   7    1.51    1.21
   5  -2   7   -0.10    0.93
  -6   2  -7    1.82    0.96
  -6   2  -7    1.08    1.61
  -6   2  -7   -0.21    0.49
   6  -2   7   -1.81    1.11
   6  -2   7    0.61    1.22
  -7   2  -7    9.24    3.13
   7  -2   7   10.55    2.71
   7  -2   7   15.13    3.07
  -8   2  -7   -2.57    2.26
   8  -2   7    0.88    1.71
   9  -2   7   -4.43    1.58
  11   1  -7   -1.01    0.51
  11   1  -7    1.97    0.73
  10   1  -7   13.20    1.77
  10   1  -7   12.35    3.79
   9   1  -7    1.12    1.57
   8   1  -7   11.09    1.71
   8   1  -7   10.36    1.68
   7   1  -7    1.14    0.62
   7   1  -7    0.35    0.56
   6   1  -7    0.53    0.53
   6   1  -7   -0.24    0.60
   5   1  -7    4.94    1.21
   5   1  -7    4.23    1.27
   4   1  -7    6.91    1.56
   4   1  -7    4.53    1.20
  -4  -1   7    5.37    1.14
  -4  -1   7    6.63    1.16
   3   1  -7   -0.56    0.35
   3   1  -7    0.42    0.56
  -3  -1   7    0.83    0.62
   2   1  -7    3.72    1.20
   2   1  -7    3.44    1.12
  -2  -1   7    3.73    1.08
  -2  -1   7    1.89    0.87
   1   1  -7   75.63    4.18
   1   1  -7   80.54    4.53
  -1  -1   7   69.40    4.10
  -1  -1   7   77.89    4.25
   0   1  -7   14.91    2.40
   0   1  -7   15.73    2.51
   0  -1   7   15.15    2.42
   0  -1   7   12.50    2.15
  -1   1  -7  138.97    6.29
  -1   1  -7  154.64    6.40
   1  -1   7  145.67    6.45
   1  -1   7  152.35    6.80
  -2   1  -7  114.37    5.48
  -2   1  -7  117.48    5.69
   2  -1   7  118.40    6.20
   2  -1   7  102.37    5.53
  -3   1  -7   15.67    2.46
  -3   1  -7   14.78    2.45
   3  -1   7   16.69    2.78
   3  -1   7   14.49    2.68
  -4   1  -7    0.91    1.01
  -4   1  -7    1.01    1.03
   4  -1   7    1.42    1.25
   4  -1   7    1.33    1.09
  -5   1  -7   49.48    3.27
  -5   1  -7   48.66    3.25
  -5   1  -7   45.70    4.53
   5  -1   7   40.23    4.00
   5  -1   7   44.98    4.90
  -6   1  -7   37.20    4.60
   6  -1   7   48.24    4.47
   6  -1   7   47.19    4.62
  -7   1  -7   -0.39    1.57
   7  -1   7    2.78    1.33
   7  -1   7    5.65    2.25
  -8   1  -7    1.11    2.46
   8  -1   7    5.59    1.92
   9  -1   7    5.00    2.60
  11   0  -7    4.22    0.82
  11   0  -7    1.72    0.89
  11   0  -7    2.55    1.92
  10   0  -7   38.24    2.33
  10   0  -7   37.97    2.41
  10   0  -7   44.51    7.08
   9   0  -7    8.91    1.57
   9   0  -7    6.61    2.82
   8   0  -7   17.07    3.89
   8   0  -7   13.95    1.58
   8   0  -7   17.29    1.85
   7   0  -7    1.72    0.75
   7   0  -7    3.41    1.01
   6   0  -7    0.77    0.61
   6   0  -7    1.10    0.70
   5   0  -7   -0.09    0.62
   5   0  -7    0.22    0.57
  -5   0   7    0.01    0.21
   4   0  -7    4.62    1.32
   4   0  -7    6.14    1.45
  -4   0   7    5.12    1.09
  -4   0   7    4.81    1.07
   3   0  -7   14.75    2.24
   3   0  -7   15.37    2.32
  -3   0   7   13.82    2.08
  -3   0   7   14.36    2.02
   2   0  -7   37.73    3.10
   2   0  -7   33.33    2.85
  -2   0   7   37.26    2.91
   1   0  -7    3.68    1.27
   1   0  -7    3.98    1.25
  -1   0   7    4.40    1.36
  -1   0   7    1.87    1.18
   0   0  -7   44.48    3.42
   0   0  -7   50.17    3.75
   0   0   7   52.09    3.81
   0   0   7   55.17    3.80
  -1   0  -7  216.63    7.94
  -1   0  -7  210.30    8.02
   1   0   7  215.13    8.53
   1   0   7  233.03    9.77
  -2   0  -7   90.83    4.93
  -2   0  -7   86.37    4.98
   2   0   7   94.99    5.37
   2   0   7   88.97    5.50
  -3   0  -7    8.14    1.92
  -3   0  -7   11.41    2.19
   3   0   7    8.99    2.27
   3   0   7   10.49    2.24
  -4   0  -7   37.30    3.10
  -4   0  -7   38.27    3.71
  -4   0  -7   38.20    3.15
   4   0   7   42.71    4.13
   4   0   7   38.69    3.78
  -5   0  -7    1.78    1.18
  -5   0  -7    0.83    1.01
  -5   0  -7    2.14    0.95
   5   0   7    3.41    1.76
   5   0   7    1.37    1.41
  -6   0  -7    0.90    0.55
  -6   0  -7    2.70    1.46
   6   0   7   -2.31    0.91
   6   0   7   -0.11    1.37
  -7   0  -7    2.24    1.70
   7   0   7    3.53    1.70
   8   0   7    4.26    1.84
  12  -1  -7   -0.48    0.61
  11  -1  -7   44.90    7.19
  11  -1  -7   43.17    2.66
  10  -1  -7    7.29    1.47
  10  -1  -7    5.51    2.38
  10  -1  -7    5.68    1.40
   9  -1  -7    3.71    1.33
   9  -1  -7    3.48    1.06
   9  -1  -7    7.41    3.19
   8  -1  -7    0.35    0.58
   8  -1  -7    1.31    0.85
   8  -1  -7   -0.67    1.00
   7  -1  -7   16.98    2.30
   7  -1  -7   22.85    4.41
   7  -1  -7   17.18    1.83
   6  -1  -7    1.00    0.78
   6  -1  -7   -0.22    0.51
   5  -1  -7   27.02    2.48
   5  -1  -7   26.29    2.43
  -5   1   7   26.88    1.60
   4  -1  -7   20.88    2.27
   4  -1  -7   20.49    2.21
  -4   1   7   23.55    2.32
  -4   1   7   25.78    2.09
   3  -1  -7  243.05    8.19
   3  -1  -7  245.19    8.41
  -3   1   7  233.55    7.70
  -3   1   7  233.59    7.56
   2  -1  -7   67.30    4.30
   2  -1  -7   72.99    4.34
  -2   1   7   67.36    4.15
  -2   1   7   68.06    4.01
   1  -1  -7   90.31    5.01
   1  -1  -7   89.78    4.89
  -1   1   7   85.80    4.86
  -1   1   7   87.86    5.01
   0  -1  -7   61.29    4.12
   0  -1  -7   63.60    4.26
   0   1   7   60.13    4.27
  -1  -1  -7   38.46    3.35
  -1  -1  -7   34.61    4.58
   1   1   7   36.92    3.57
  -2  -1  -7    1.76    1.17
  -2  -1  -7    1.53    1.31
   2   1   7    4.81    1.63
  -3  -1  -7   59.08    4.88
  -3  -1  -7   61.10    4.16
   3   1   7   57.45    4.69
  -4  -1  -7    3.99    1.20
  -4  -1  -7    2.05    0.97
  -4  -1  -7    2.55    1.22
  -5  -1  -7    4.79    1.40
  -5  -1  -7    7.25    1.72
  -5  -1  -7    8.29    1.97
   5   1   7    6.64    2.21
  -6  -1  -7   -0.62    0.59
   6   1   7    4.26    1.64
   7   1   7   25.16    4.26
   8   1   7    3.83    2.39
  12  -2  -7   15.53    1.72
  11  -2  -7   30.58    6.05
  11  -2  -7   35.74    2.58
  11  -2  -7   30.26    2.47
  10  -2  -7    0.87    1.84
  10  -2  -7    3.12    1.04
   9  -2  -7   19.65    2.56
   9  -2  -7   17.53    4.49
   8  -2  -7   34.11    5.81
   8  -2  -7   32.36    2.78
   7  -2  -7  142.63    9.74
   7  -2  -7  140.57    5.94
   6  -2  -7   48.31    5.22
   6  -2  -7   50.37    3.57
   5  -2  -7   22.36    2.41
  -5   2   7   21.93    1.82
  -5   2   7   26.21    1.94
   4  -2  -7   15.50    2.39
   4  -2  -7   15.55    2.54
  -4   2   7   13.75    2.01
  -4   2   7   16.05    2.28
   3  -2  -7    1.81    1.01
   3  -2  -7    1.96    1.03
  -3   2   7    2.31    1.10
  -3   2   7    0.62    0.81
   2  -2  -7    1.66    0.96
   2  -2  -7    0.25    0.58
  -2   2   7    0.65    0.92
  -2   2   7    0.76    0.77
   1  -2  -7    1.10    1.02
   1  -2  -7    0.18    0.84
  -1   2   7    1.95    1.12
  -1   2   7    0.13    1.00
   0  -2  -7    5.19    1.73
   0  -2  -7    9.39    2.06
   0   2   7    7.07    1.95
   0   2   7    7.28    1.95
  -1  -2  -7   57.45    4.22
  -1  -2  -7   49.69    3.97
   1   2   7   55.59    4.32
   1   2   7   58.91    4.58
  -2  -2  -7   56.35    4.16
  -2  -2  -7   57.76    4.27
   2   2   7   53.40    4.57
   2   2   7   57.74    4.70
  -3  -2  -7   15.75    1.77
  -3  -2  -7   19.14    2.92
  -3  -2  -7   13.93    2.45
   3   2   7   19.88    3.26
  -4  -2  -7   14.78    1.78
  -4  -2  -7   18.16    3.03
  -4  -2  -7   16.81    2.84
   4   2   7   12.72    2.75
   4   2   7   17.15    3.40
  -5  -2  -7   17.90    2.41
  -5  -2  -7   18.26    2.55
   5   2   7   17.16    3.32
   5   2   7   18.26    3.55
  -6  -2  -7    5.94    0.98
  -6  -2  -7    4.41    1.04
   6   2   7    8.45    2.45
  12  -3  -7    0.87    1.08
  11  -3  -7    2.02    2.11
  10  -3  -7    0.70    1.97
  10  -3  -7    2.84    1.14
   9  -3  -7   -1.66    0.78
   9  -3  -7   -0.43    1.47
   9  -3  -7   -2.02    0.66
   8  -3  -7    1.78    1.98
   8  -3  -7    6.99    1.69
   8  -3  -7    5.27    1.42
   7  -3  -7   -0.07    0.69
   7  -3  -7    0.59    0.78
   7  -3  -7   -0.20    0.89
   6  -3  -7   55.83    5.75
   6  -3  -7   61.16    4.10
   6  -3  -7   61.76    4.29
   5  -3  -7   10.90    2.20
   5  -3  -7   14.68    3.23
  -5   3   7    9.17    1.65
  -5   3   7   12.35    1.88
   4  -3  -7   10.40    2.20
  -4   3   7    9.74    1.82
  -4   3   7   10.14    1.94
   3  -3  -7    0.94    1.02
   3  -3  -7    2.34    1.13
  -3   3   7    1.71    1.12
  -3   3   7    1.24    0.95
   2  -3  -7    2.65    1.22
   2  -3  -7    0.44    0.90
  -2   3   7    1.56    0.95
  -2   3   7    1.18    0.90
   1  -3  -7    2.66    1.32
   1  -3  -7    0.81    0.89
  -1   3   7   -0.62    0.74
  -1   3   7    0.46    0.88
   0  -3  -7    2.45    1.22
   0  -3  -7   -0.51    0.85
   0   3   7    0.47    0.75
   0   3   7    2.50    1.25
  -1  -3  -7    7.61    2.00
  -1  -3  -7    6.68    2.04
   1   3   7    5.83    1.78
   1   3   7    2.15    1.55
  -2  -3  -7   11.70    2.53
  -2  -3  -7   10.61    2.30
  -2  -3  -7    9.10    1.09
   2   3   7    4.20    2.08
   2   3   7    9.31    2.52
  -3  -3  -7    1.80    1.32
  -3  -3  -7    2.33    1.27
   3   3   7    2.51    1.26
   3   3   7    2.06    1.34
  -4  -3  -7    1.16    1.11
  -4  -3  -7   -1.54    1.22
   4   3   7   -1.34    1.02
   4   3   7   -1.56    1.02
  -5  -3  -7    1.74    1.32
   5   3   7    0.39    1.40
  -6  -3  -7   -0.13    1.71
  -6  -3  -7    2.42    1.88
   6   3   7    7.05    2.35
   7   3   7   11.48    4.03
  11  -4  -7    0.23    1.09
  11  -4  -7   -1.92    1.27
  10  -4  -7    8.97    2.00
  10  -4  -7    7.83    2.04
  10  -4  -7    5.33    2.15
   9  -4  -7   22.26    5.03
   9  -4  -7   24.46    3.27
   9  -4  -7   21.19    3.14
   8  -4  -7   10.58    3.21
   8  -4  -7   12.25    2.41
   8  -4  -7   13.07    2.43
   7  -4  -7   56.94    4.23
   7  -4  -7   62.78    4.51
   7  -4  -7   61.39    6.26
   6  -4  -7    2.31    1.23
   6  -4  -7    0.65    0.84
   6  -4  -7    1.87    1.76
  -6   4   7    4.40    1.42
  -6   4   7    0.73    0.67
   5  -4  -7   13.88    2.62
   5  -4  -7   14.45    2.72
   5  -4  -7   17.04    3.59
  -5   4   7   15.69    2.32
  -5   4   7   16.74    2.44
   4  -4  -7   44.26    3.97
   4  -4  -7   52.06    4.86
   4  -4  -7   39.88    3.68
  -4   4   7   39.33    3.34
  -4   4   7   46.42    3.67
   3  -4  -7   16.59    2.91
   3  -4  -7   12.58    2.72
  -3   4   7    9.78    2.20
  -3   4   7   12.59    2.35
   2  -4  -7   19.47    3.03
   2  -4  -7   19.35    3.18
   2  -4  -7   21.15    3.30
  -2   4   7   17.86    3.06
  -2   4   7   21.68    3.43
   1  -4  -7  173.32    8.14
   1  -4  -7  180.77    8.34
  -1   4   7  173.25    8.34
  -1   4   7  171.53    8.07
   0  -4  -7    9.52    1.55
   0  -4  -7    9.92    2.43
   0  -4  -7    8.07    2.13
   0   4   7   11.56    3.03
   0   4   7    7.56    2.06
  -1  -4  -7   18.90    3.83
  -1  -4  -7   27.32    3.85
   1   4   7   27.37    4.34
   1   4   7   21.48    3.44
  -2  -4  -7   -0.16    0.98
   2   4   7    1.29    1.22
   2   4   7    4.05    1.84
  -3  -4  -7   19.41    3.28
  -3  -4  -7   21.85    4.09
   3   4   7   25.28    4.25
   3   4   7   19.14    3.72
  -4  -4  -7    3.40    1.82
  -4  -4  -7    7.91    2.17
   4   4   7    5.23    2.17
  -5  -4  -7    6.09    2.30
  -5  -4  -7    6.65    2.22
   5   4   7    9.95    3.06
  -6  -4  -7    2.82    1.80
   6   4   7    4.18    2.14
  12  -5  -7    0.42    2.66
  11  -5  -7    3.92    1.67
  11  -5  -7    2.51    1.63
  10  -5  -7   11.41    3.84
  10  -5  -7   12.86    2.54
   9  -5  -7   40.13    3.87
   9  -5  -7   25.12    5.37
   8  -5  -7   73.57    5.26
   8  -5  -7   60.54    4.87
   8  -5  -7   67.03    7.07
   7  -5  -7   13.51    2.75
   7  -5  -7   14.11    2.69
   7  -5  -7   18.14    4.26
   6  -5  -7    6.22    1.92
   6  -5  -7    6.20    1.99
  -6   5   7    4.77    1.27
  -6   5   7    4.56    1.31
   5  -5  -7  109.02    6.45
   5  -5  -7  117.12    7.89
   5  -5  -7  109.70    6.51
  -5   5   7  107.06    5.47
  -5   5   7  121.17    5.93
   4  -5  -7    0.10    1.05
   4  -5  -7    1.66    1.23
   4  -5  -7    2.17    1.23
  -4   5   7    0.20    0.99
  -4   5   7   -0.06    0.96
   3  -5  -7    5.44    1.88
   3  -5  -7    6.72    1.98
  -3   5   7    3.17    1.35
  -3   5   7    6.89    1.88
   2  -5  -7   28.73    4.05
   2  -5  -7   28.39    4.22
   2  -5  -7   33.70    3.32
  -2   5   7   29.21    4.29
  -2   5   7   30.03    3.38
   1  -5  -7   20.77    3.46
   1  -5  -7   28.18    4.13
   1  -5  -7   27.54    2.45
  -1   5   7   30.14    4.13
  -1   5   7   30.04    4.40
   0  -5  -7    2.39    1.61
   0  -5  -7    1.30    1.10
   0   5   7    2.69    1.36
   0   5   7    0.83    1.29
  -1  -5  -7    2.43    1.41
  -1  -5  -7    3.22    1.36
   1   5   7    0.48    1.67
   1   5   7    2.11    1.47
  -2  -5  -7    5.57    2.12
  -2  -5  -7    4.23    1.69
   2   5   7    7.29    2.55
   2   5   7    6.71    1.99
  -3  -5  -7    6.16    2.29
  -3  -5  -7    5.05    2.01
   3   5   7   10.09    2.87
  -4  -5  -7    4.88    1.81
  -4  -5  -7    6.20    2.49
  -5  -5  -7    4.30    2.52
   5   5   7    7.15    2.47
  11  -6  -7   23.48    3.36
  10  -6  -7   -1.13    1.42
  10  -6  -7    0.34    1.63
   9  -6  -7   20.04    3.42
   9  -6  -7   19.93    3.49
   8  -6  -7    1.90    1.48
   8  -6  -7    7.74    2.85
   7  -6  -7    5.36    1.95
   7  -6  -7    7.91    2.18
   7  -6  -7    9.88    2.92
  -7   6   7    4.13    1.03
  -7   6   7    6.96    1.59
   6  -6  -7    6.31    2.17
   6  -6  -7    7.06    1.97
   6  -6  -7    4.14    1.72
  -6   6   7    2.32    1.15
  -6   6   7    2.86    1.29
   5  -6  -7    3.09    1.67
   5  -6  -7   -0.28    1.29
   5  -6  -7    1.24    1.00
  -5   6   7    2.11    1.36
  -5   6   7    2.28    1.33
   4  -6  -7   -0.07    1.06
   4  -6  -7    0.52    0.84
   4  -6  -7   -1.17    0.92
  -4   6   7   -0.01    1.25
  -4   6   7   -1.62    0.87
   3  -6  -7   10.62    2.53
   3  -6  -7    9.25    3.06
  -3   6   7   10.52    2.69
  -3   6   7    8.34    2.34
   2  -6  -7   23.23    4.63
   2  -6  -7   23.15    3.77
  -2   6   7   27.72    4.02
  -2   6   7   37.33    4.19
   1  -6  -7   10.40    2.77
   1  -6  -7    8.23    2.15
  -1   6   7   11.58    2.54
  -1   6   7   12.46    2.99
   0  -6  -7    4.17    1.88
   0  -6  -7    2.78    1.55
   0   6   7    2.16    1.47
   0   6   7    3.55    2.10
  -1  -6  -7    2.94    1.84
  -1  -6  -7    1.94    1.33
   1   6   7   -1.94    1.32
  -2  -6  -7   11.81    2.86
  -2  -6  -7   14.54    3.31
   2   6   7   21.83    4.09
  -3  -6  -7    4.24    2.10
  -3  -6  -7    3.11    1.73
   3   6   7    1.13    0.99
  -4  -6  -7    1.82    2.70
  -4  -6  -7   -2.81    1.88
  -5  -6  -7    9.17    3.32
  10  -7  -7   17.93    3.53
   9  -7  -7    2.48    1.32
   8  -7  -7   30.26    4.65
   8  -7  -7   38.37    6.50
   7  -7  -7   17.67    3.90
   7  -7  -7   25.40    4.22
   6  -7  -7    2.15    1.52
   6  -7  -7    2.38    1.76
   6  -7  -7    2.79    1.94
  -6   7   7    1.77    1.60
  -6   7   7    0.73    1.19
   5  -7  -7    0.06    1.28
   5  -7  -7    0.11    1.26
  -5   7   7   -0.94    1.74
   4  -7  -7   -1.67    0.66
   4  -7  -7    1.81    1.06
  -4   7   7   -1.44    1.21
  -4   7   7    2.71    1.62
   3  -7  -7    4.01    2.11
  -3   7   7    3.48    1.90
  -3   7   7    2.44    1.49
  -2   7   7    3.17    1.87
  -2   7   7    3.75    2.05
   1  -7  -7    2.73    1.19
  -1   7   7    5.52    2.11
   0  -7  -7   -0.16    1.34
   0   7   7   -0.98    1.17
  -1  -7  -7   10.88    3.16
  -2  -7  -7   47.90    5.21
   2   7   7   42.47    6.08
  -3  -7  -7   -3.22    1.56
  -4  -7  -7    8.14    3.20
  10  -8  -7    4.41    3.21
   9  -8  -7   20.78    3.94
   8  -8  -7   14.50    3.42
   7  -8  -7    0.95    2.27
  -7   8   7    5.75    1.68
   6  -8  -7    2.28    1.53
  -6   8   7    1.20    1.84
  -6   8   7    5.37    2.06
   5  -8  -7    0.26    1.06
  -5   8   7    0.86    1.62
  -5   8   7    0.26    1.90
   4  -8  -7   31.31    5.23
  -4   8   7   36.42    4.96
  -4   8   7   28.00    4.32
  -3   8   7    6.78    2.46
   2  -8  -7   14.23    3.73
  -2   8   7   29.13    4.82
   1  -8  -7    5.28    2.61
  -1   8   7    9.41    3.44
   0  -8  -7   10.47    3.07
   0   8   7    7.43    2.40
  -1  -8  -7    3.80    2.17
  -2  -8  -7    1.75    2.36
  -3  -8  -7    8.46    2.86
  -7   9   7    4.73    2.17
  -6   9   7   15.84    3.12
  -6   9   7   10.00    4.95
   5  -9  -7   16.24    3.66
  -5   9   7   16.24    3.21
   4  -9  -7    1.72    1.63
  -4   9   7    0.47    1.69
  -3   9   7    5.88    2.93
  -2   9   7   14.29    3.35
  -6  10   7    1.22    2.55
  -5  10   7   -0.71    2.06
  -4  10   7   -2.93    2.23
  -4 -12   8   -2.97    3.64
  -3 -12   8   10.48    3.61
  -2 -12   8    4.02    2.29
  -1 -12   8   16.97    3.70
  -4  12  -8    6.47    3.49
  -5  12  -8    9.23    3.76
  -5 -11   8   -0.49    2.09
  -4 -11   8    3.69    2.57
  -4 -11   8    9.59    3.99
   3  11  -8    2.79    1.51
  -3 -11   8   -0.30    1.85
   2  11  -8   25.53    4.62
  -2 -11   8   21.07    3.95
   1  11  -8    2.92    1.84
  -1 -11   8    1.70    1.35
   0  11  -8   57.32    5.92
   0 -11   8   46.02    7.60
  -1  11  -8   17.31    3.86
   1 -11   8    7.28    3.07
   2 -11   8    1.44    1.90
   3 -11   8    5.80    2.88
  -4  11  -8    6.21    2.53
  -5  11  -8    1.44    2.11
   6  10  -8    0.93    1.64
   5  10  -8   -1.54    1.45
  -5 -10   8    5.63    2.11
  -4 -10   8   -1.02    1.86
  -4 -10   8    0.99    1.54
   3  10  -8   17.33    3.63
  -3 -10   8   21.42    3.90
  -3 -10   8   22.32    3.81
   2  10  -8   13.23    3.28
  -2 -10   8   15.47    3.48
  -2 -10   8   17.58    3.40
   1  10  -8   10.96    3.14
  -1 -10   8   13.61    3.08
   0  10  -8    3.33    1.95
   0 -10   8    7.29    2.40
  -1  10  -8   -0.55    1.19
   1 -10   8    2.97    1.74
  -2  10  -8    5.88    1.95
   2 -10   8    1.20    1.32
  -3  10  -8    1.17    1.73
  -4  10  -8    4.27    1.87
  -4  10  -8    4.80    2.58
   4 -10   8    6.72    2.15
  -5  10  -8   -1.21    1.69
  -5  10  -8    4.80    3.04
   5 -10   8   -0.78    1.37
  -6  10  -8    2.96    2.19
   8   9  -8    5.86    2.94
   7   9  -8   40.86    6.30
   6   9  -8   43.95    4.76
   5   9  -8   -0.01    0.93
  -5  -9   8   -0.36    1.27
  -5  -9   8   -3.34    1.06
   4   9  -8   28.90    4.40
  -4  -9   8   30.70    4.19
   3   9  -8   53.61    5.08
   3   9  -8   51.48    5.38
  -3  -9   8   53.23    4.69
  -3  -9   8   42.83    4.32
   2   9  -8   28.87    4.81
   2   9  -8   29.11    4.64
  -2  -9   8   29.17    4.33
  -2  -9   8   29.82    4.14
   1   9  -8    2.41    1.61
   1   9  -8    4.59    2.05
  -1  -9   8    6.17    2.01
   0   9  -8    0.66    1.31
   0   9  -8    3.57    1.50
   0  -9   8   -1.36    1.23
   0  -9   8    2.07    1.71
  -1   9  -8   41.43    5.37
  -1   9  -8   32.28    4.71
   1  -9   8   31.48    4.61
   1  -9   8   41.93    4.50
  -2   9  -8   -2.53    1.33
  -2   9  -8    0.64    1.25
   2  -9   8    2.96    1.33
  -3   9  -8    0.55    1.64
  -3   9  -8   -0.38    1.20
   3  -9   8    3.81    1.98
  -4   9  -8    4.60    2.01
   4  -9   8    2.27    1.91
  -5   9  -8   31.09    4.44
  -5   9  -8   28.69    4.08
   5  -9   8   33.72    6.03
  -6   9  -8    2.09    2.61
   6  -9   8    2.72    1.61
   9   8  -8    5.90    2.35
   8   8  -8   -0.34    1.35
   7   8  -8   28.63    4.25
   6   8  -8    1.84    1.37
   6   8  -8    2.30    1.75
  -6  -8   8    1.61    0.96
   5   8  -8   34.18    4.93
   5   8  -8   32.82    4.74
   4   8  -8   24.35    3.95
   4   8  -8   16.24    4.01
  -4  -8   8   21.81    3.16
  -4  -8   8   26.71    2.95
   3   8  -8    3.96    1.68
   3   8  -8    5.59    1.99
  -3  -8   8    3.98    1.70
  -3  -8   8    3.56    1.66
   2   8  -8    5.40    1.98
   2   8  -8    7.53    2.13
  -2  -8   8    5.85    1.87
   1   8  -8   19.57    3.53
   1   8  -8   25.68    4.10
  -1  -8   8   15.51    2.96
  -1  -8   8   16.35    3.24
   0   8  -8   11.67    2.68
   0   8  -8   13.64    2.98
   0  -8   8   17.11    3.20
   0  -8   8   11.62    2.66
  -1   8  -8    6.50    2.04
  -1   8  -8    5.09    2.16
   1  -8   8    5.93    2.26
   1  -8   8    6.61    2.32
  -2   8  -8   -1.39    1.11
  -2   8  -8    1.45    1.13
   2  -8   8   -0.28    1.19
   2  -8   8   -0.75    1.20
  -3   8  -8    0.99    1.21
  -3   8  -8    7.74    2.16
   3  -8   8    2.38    1.57
   3  -8   8    3.23    1.56
  -4   8  -8   61.22    4.93
  -4   8  -8   64.22    5.49
   4  -8   8   65.06    6.02
  -5   8  -8    8.14    2.62
   5  -8   8   13.27    3.06
  -6   8  -8   16.34    2.77
  -6   8  -8   13.12    2.70
   7  -8   8   33.83    5.14
  10   7  -8    8.10    3.87
  10   7  -8   10.87    2.51
   9   7  -8    8.77    2.16
   8   7  -8    8.32    2.42
   8   7  -8    7.58    2.59
   7   7  -8    0.59    1.19
   6   7  -8   41.01    4.01
   6   7  -8   36.31    4.05
   5   7  -8    1.69    1.15
   5   7  -8    1.50    1.26
  -5  -7   8    1.35    1.10
  -5  -7   8    1.84    1.11
   4   7  -8   31.84    3.60
   4   7  -8   32.09    4.36
  -4  -7   8   34.28    3.75
  -4  -7   8   29.28    2.97
   3   7  -8    1.59    1.28
  -3  -7   8    0.47    0.98
  -3  -7   8    0.65    1.03
   2   7  -8    7.91    2.59
   2   7  -8    5.75    1.95
  -2  -7   8    8.15    2.28
  -2  -7   8    4.59    1.48
   1   7  -8   60.51    5.59
   1   7  -8   61.12    4.95
  -1  -7   8   69.06    4.91
  -1  -7   8   71.42    5.14
   0   7  -8   45.97    4.34
   0   7  -8   58.59    5.55
   0  -7   8   53.57    4.73
   0  -7   8   54.62    4.57
  -1   7  -8   -0.24    1.25
   1  -7   8    3.08    1.57
   1  -7   8    2.55    1.26
  -2   7  -8   12.62    2.72
   2  -7   8   14.84    2.90
   2  -7   8   13.43    3.09
  -3   7  -8   47.78    5.09
  -3   7  -8   51.92    4.52
   3  -7   8   41.48    4.45
   3  -7   8   44.26    4.43
  -4   7  -8   35.83    3.77
  -4   7  -8   25.91    3.60
   4  -7   8   35.17    4.99
   4  -7   8   35.39    4.90
  -5   7  -8   10.02    2.38
  -5   7  -8    5.72    1.94
   5  -7   8    5.78    2.66
   5  -7   8    6.24    2.20
  -6   7  -8    8.71    2.23
   6  -7   8   13.93    3.09
  11   6  -8    3.25    3.93
  10   6  -8   12.09    2.82
  10   6  -8   13.41    4.33
  10   6  -8   20.79    3.49
   9   6  -8    0.48    1.25
   8   6  -8   18.73    3.36
   8   6  -8   15.33    3.07
   7   6  -8   14.64    2.73
   7   6  -8    9.79    2.75
   6   6  -8    7.67    2.03
   6   6  -8    3.88    1.75
   5   6  -8   50.86    4.20
   5   6  -8   53.06    4.51
  -5  -6   8   53.31    3.28
  -5  -6   8   45.94    3.10
   4   6  -8    2.08    1.15
   4   6  -8    1.82    1.29
  -4  -6   8    1.09    0.81
  -4  -6   8    2.58    1.27
   3   6  -8   73.79    5.02
   3   6  -8   71.82    5.20
  -3  -6   8   68.98    4.54
   2   6  -8    1.65    1.05
   2   6  -8    0.79    0.84
  -2  -6   8    1.17    0.88
  -2  -6   8    0.18    0.85
   1   6  -8   -0.24    0.61
   1   6  -8   -0.06    0.52
  -1  -6   8    0.60    0.94
  -1  -6   8   -0.15    0.89
   0   6  -8   30.11    3.29
   0   6  -8   31.53    3.40
   0  -6   8   33.06    3.45
   0  -6   8   34.28    3.48
  -1   6  -8    0.92    1.28
  -1   6  -8    1.20    1.01
   1  -6   8    1.55    1.08
   1  -6   8   -0.06    1.15
  -2   6  -8   36.56    3.57
  -2   6  -8   33.87    3.46
   2  -6   8   37.40    3.80
   2  -6   8   36.62    5.31
  -3   6  -8   26.70    2.96
  -3   6  -8   17.72    3.09
   3  -6   8   24.43    3.99
   3  -6   8   20.38    3.37
  -4   6  -8   15.98    2.98
  -4   6  -8   12.31    2.44
   4  -6   8   18.16    3.55
   4  -6   8   17.27    3.36
  -5   6  -8   31.24    3.31
  -5   6  -8   25.99    2.95
   5  -6   8   26.90    4.11
   5  -6   8   27.02    4.34
  -6   6  -8    4.91    1.61
  -6   6  -8    4.73    1.42
   6  -6   8    8.41    2.61
   7  -6   8    4.39    2.01
   8  -6   8   -1.22    1.81
  11   5  -8   21.41    5.43
  11   5  -8   22.24    3.19
  10   5  -8   21.01    3.44
  10   5  -8   27.68    5.59
   9   5  -8   12.25    2.37
   9   5  -8   10.08    2.28
   8   5  -8   24.82    3.54
   8   5  -8   29.34    3.76
   7   5  -8   -0.34    0.73
   7   5  -8    0.60    1.09
   6   5  -8    3.75    1.59
   6   5  -8    7.09    1.69
   5   5  -8   16.62    2.70
   5   5  -8   14.48    2.73
  -5  -5   8   16.58    2.46
  -5  -5   8   13.84    1.81
   4   5  -8    2.55    1.34
   4   5  -8    3.40    1.39
  -4  -5   8    2.57    1.13
  -4  -5   8    3.45    1.17
   3   5  -8   31.06    3.06
   3   5  -8   35.56    3.33
  -3  -5   8   28.40    2.79
  -3  -5   8   29.84    2.83
   2   5  -8   31.23    3.08
   2   5  -8   37.93    3.54
  -2  -5   8   39.26    3.34
  -2  -5   8   31.21    3.00
   1   5  -8   37.75    3.47
   1   5  -8   33.44    3.47
  -1  -5   8   38.56    3.42
  -1  -5   8   41.05    3.41
   0   5  -8    3.41    1.36
   0   5  -8    8.25    1.95
   0  -5   8    5.49    1.79
   0  -5   8    8.83    2.07
  -1   5  -8  151.64    7.12
  -1   5  -8  160.81    7.50
   1  -5   8  153.80    7.31
   1  -5   8  144.14    7.46
  -2   5  -8   62.23    4.54
  -2   5  -8   62.90    4.45
   2  -5   8   69.23    5.22
   2  -5   8   58.57    4.59
  -3   5  -8    9.99    2.37
  -3   5  -8   15.41    2.69
   3  -5   8   14.51    2.98
   3  -5   8    9.58    2.48
  -4   5  -8  117.95    5.99
  -4   5  -8  115.26    6.16
   4  -5   8  112.17    6.65
   4  -5   8  113.74    7.03
  -5   5  -8    1.88    1.17
   5  -5   8    4.37    1.93
  -6   5  -8   16.71    4.14
  -6   5  -8   23.27    2.51
   6  -5   8   20.64    3.49
   6  -5   8   20.16    3.80
   7  -5   8   12.55    3.00
   8  -5   8   18.09    4.09
  11   4  -8   -1.44    2.60
  11   4  -8    0.76    1.23
  10   4  -8   17.41    2.59
  10   4  -8   14.33    2.36
  10   4  -8   13.44    4.24
   9   4  -8    5.86    1.63
   9   4  -8    2.95    1.32
   8   4  -8    4.91    1.50
   8   4  -8    5.53    1.63
   7   4  -8    0.82    0.85
   6   4  -8   -0.52    0.72
   5   4  -8   27.02    2.88
   5   4  -8   25.12    2.63
  -5  -4   8   28.78    1.93
  -5  -4   8   26.04    1.94
   4   4  -8  119.96    5.77
   4   4  -8  115.29    5.98
  -4  -4   8  109.38    4.83
  -4  -4   8  127.41    5.17
   3   4  -8   38.23    4.03
   3   4  -8   35.93    3.09
  -3  -4   8   34.93    2.96
  -3  -4   8   35.41    2.86
   2   4  -8    0.91    0.88
  -2  -4   8    2.22    1.09
  -2  -4   8    1.25    0.77
   1   4  -8  104.37    5.75
   1   4  -8  104.26    5.52
  -1  -4   8  109.11    5.69
  -1  -4   8  105.31    5.69
   0   4  -8   44.63    3.71
   0   4  -8   47.67    3.84
   0  -4   8   43.40    3.58
   0  -4   8   43.49    3.77
  -1   4  -8    2.01    1.13
  -1   4  -8    1.59    0.99
   1  -4   8    2.38    1.24
   1  -4   8    0.92    1.08
  -2   4  -8   31.78    3.24
  -2   4  -8   30.96    3.10
   2  -4   8   30.27    3.38
   2  -4   8   34.61    3.46
  -3   4  -8    0.24    0.96
  -3   4  -8    0.64    0.94
   3  -4   8    0.63    1.13
   3  -4   8    0.08    1.01
  -4   4  -8    1.29    1.19
  -4   4  -8    2.76    1.36
   4  -4   8    4.01    1.95
   4  -4   8    3.95    1.62
  -5   4  -8    1.14    0.95
  -5   4  -8    0.97    1.18
   5  -4   8    5.22    1.66
   5  -4   8    1.34    1.25
  -6   4  -8   -1.06    1.71
  -6   4  -8    3.19    0.99
  -6   4  -8   -0.09    0.86
   6  -4   8    0.28    1.74
   6  -4   8    3.00    1.54
   7  -4   8    8.72    2.51
  11   3  -8   11.78    2.17
  11   3  -8   16.04    4.64
  11   3  -8   14.72    2.22
  10   3  -8   14.02    3.98
  10   3  -8   15.37    2.33
   9   3  -8   -1.64    0.70
   9   3  -8   -0.76    0.66
   8   3  -8    5.82    1.43
   8   3  -8    5.43    1.59
   7   3  -8    7.83    1.68
   7   3  -8    6.59    1.50
   6   3  -8   -0.02    0.77
   6   3  -8    4.73    1.31
   5   3  -8  196.01    7.42
   5   3  -8  195.34    7.20
   4   3  -8   11.06    2.19
   4   3  -8    6.97    1.67
  -4  -3   8   12.11    1.82
  -4  -3   8   11.66    1.83
   3   3  -8    1.49    0.88
   3   3  -8    1.89    1.00
  -3  -3   8    1.40    0.90
  -3  -3   8   -0.16    0.61
   2   3  -8    7.35    1.69
   2   3  -8    7.61    1.95
  -2  -3   8    7.55    1.72
  -2  -3   8    9.66    2.02
   1   3  -8   13.05    2.28
   1   3  -8   10.73    2.21
  -1  -3   8   11.81    2.24
  -1  -3   8   11.13    2.11
   0   3  -8    1.94    1.15
   0  -3   8    2.21    1.12
  -1   3  -8   29.87    3.11
  -1   3  -8   32.40    3.07
   1  -3   8   28.23    3.06
   1  -3   8   28.56    3.15
  -2   3  -8   30.64    3.09
  -2   3  -8   38.27    3.38
   2  -3   8   31.18    3.41
   2  -3   8   39.06    3.67
  -3   3  -8   -1.58    0.79
  -3   3  -8   -1.97    0.81
   3  -3   8    1.36    1.01
   3  -3   8   -0.18    0.87
  -4   3  -8   71.97    4.47
   4  -3   8   70.79    5.18
  -5   3  -8    7.29    1.64
  -5   3  -8    3.62    2.09
  -5   3  -8    3.80    1.41
   5  -3   8    5.80    1.84
   5  -3   8    5.44    2.14
  -6   3  -8    9.99    2.99
  -6   3  -8    4.66    1.16
  -6   3  -8    9.72    2.45
   6  -3   8    5.92    2.00
   6  -3   8    9.11    2.68
  -7   3  -8    6.20    2.63
   7  -3   8    4.89    1.97
  11   2  -8   17.52    1.98
  11   2  -8   22.81    2.41
  11   2  -8   14.01    4.38
  10   2  -8   12.50    1.88
  10   2  -8   13.99    3.88
  10   2  -8   14.29    2.23
   9   2  -8    3.16    1.26
   9   2  -8    3.50    2.36
   9   2  -8    2.81    1.04
   8   2  -8   64.24    3.69
   8   2  -8   62.04    3.80
   7   2  -8   20.68    2.13
   7   2  -8   19.91    2.21
   6   2  -8   30.51    2.76
   6   2  -8   30.46    2.60
   5   2  -8   51.48    3.35
   5   2  -8   46.81    3.44
  -5  -2   8   46.94    3.32
   4   2  -8   31.23    2.69
   4   2  -8   20.51    2.81
  -4  -2   8   29.80    2.33
   3   2  -8   82.27    4.52
   3   2  -8   80.18    4.66
  -3  -2   8   73.22    4.07
  -3  -2   8   75.51    4.07
   2   2  -8   15.26    2.45
   2   2  -8   17.14    2.83
  -2  -2   8   14.11    2.23
  -2  -2   8   19.42    2.16
   1   2  -8   97.42    5.20
   1   2  -8   99.72    5.48
  -1  -2   8   99.48    5.13
  -1  -2   8   98.94    5.27
   0   2  -8  132.41    6.52
   0   2  -8  123.12    6.00
   0  -2   8  136.61    6.53
   0  -2   8  134.73    7.28
  -1   2  -8   32.78    3.62
  -1   2  -8   34.04    3.17
   1  -2   8   34.15    3.18
   1  -2   8   33.49    3.28
  -2   2  -8    4.08    1.44
  -2   2  -8    4.68    1.41
   2  -2   8    4.02    1.55
   2  -2   8    8.01    2.04
  -3   2  -8   34.71    3.32
  -3   2  -8   32.43    3.10
   3  -2   8   31.09    3.28
   3  -2   8   36.76    3.73
  -4   2  -8    4.33    1.49
   4  -2   8    4.40    1.68
  -5   2  -8   -0.37    1.22
  -5   2  -8    3.46    1.18
  -5   2  -8    1.55    1.05
   5  -2   8    1.64    1.40
   5  -2   8   -0.65    1.09
  -6   2  -8    1.68    1.01
  -6   2  -8    0.08    1.30
  -6   2  -8    2.43    1.86
   6  -2   8    2.09    1.64
   6  -2   8    2.96    1.76
  -7   2  -8    9.07    3.81
   7  -2   8   14.16    3.66
   8  -2   8   13.66    3.35
  11   1  -8    9.04    1.35
  11   1  -8    3.75    1.43
  11   1  -8    3.27    3.19
  10   1  -8    1.05    1.70
  10   1  -8   -0.24    0.66
  10   1  -8   -1.82    0.67
   9   1  -8   16.32    2.24
   9   1  -8   18.82    4.45
   9   1  -8   16.94    1.83
   8   1  -8   -0.14    0.78
   8   1  -8    1.86    0.98
   7   1  -8   63.93    3.76
   7   1  -8   63.83    3.60
   6   1  -8    8.25    1.69
   6   1  -8    7.15    1.53
   5   1  -8  179.70    6.65
   5   1  -8  175.50    6.90
   4   1  -8  106.00    5.34
   4   1  -8  112.84    5.24
  -4  -1   8  109.48    4.49
  -4  -1   8  109.74    4.62
   3   1  -8   35.33    3.07
   3   1  -8   33.34    2.92
  -3  -1   8   38.60    2.97
   2   1  -8    6.12    1.66
   2   1  -8    3.32    1.32
  -2  -1   8    5.89    1.55
  -2  -1   8    4.10    1.24
   1   1  -8    0.64    0.71
   1   1  -8    0.43    0.72
  -1  -1   8    0.51    0.69
  -1  -1   8   -0.35    0.87
   0   1  -8    2.87    1.21
   0  -1   8    2.69    1.36
  -1   1  -8    5.73    1.75
  -1   1  -8    6.08    1.78
   1  -1   8    7.29    1.83
   1  -1   8    8.05    2.06
  -2   1  -8    8.53    2.05
  -2   1  -8    6.42    1.73
   2  -1   8    6.73    1.96
   2  -1   8    4.62    1.61
  -3   1  -8   12.92    2.39
  -3   1  -8   18.92    2.90
   3  -1   8   19.61    3.22
   3  -1   8   19.44    3.33
  -4   1  -8   12.13    2.28
   4  -1   8    9.95    2.66
   4  -1   8   11.99    2.53
  -5   1  -8   73.25    5.94
  -5   1  -8   66.00    4.04
  -5   1  -8   56.66    4.01
   5  -1   8   56.79    5.25
   5  -1   8   74.76    5.80
  -6   1  -8   12.19    3.08
  -6   1  -8   16.44    2.88
  -6   1  -8   15.25    1.61
   6  -1   8   16.16    3.39
   6  -1   8   15.28    3.28
  -7   1  -8   15.96    3.82
   7  -1   8   23.19    4.13
   8  -1   8   14.87    2.88
  11   0  -8   11.70    1.63
  11   0  -8   10.04    1.78
  11   0  -8   10.47    3.63
  10   0  -8   -1.24    0.79
  10   0  -8    1.56    1.70
  10   0  -8    0.63    0.73
   9   0  -8    9.16    3.36
   9   0  -8    5.72    1.55
   9   0  -8   10.20    1.73
   8   0  -8   10.49    1.87
   8   0  -8   13.25    2.00
   7   0  -8   10.15    1.87
   7   0  -8   11.83    1.96
   6   0  -8    3.17    1.07
   6   0  -8    3.36    1.20
   5   0  -8   23.12    2.35
   5   0  -8   22.48    2.38
  -5   0   8   22.06    1.65
  -5   0   8   24.56    1.77
   4   0  -8   23.16    2.55
   4   0  -8   22.71    2.40
  -4   0   8   20.49    2.07
  -4   0   8   24.35    2.16
   3   0  -8    4.66    1.46
   3   0  -8    4.79    1.48
  -3   0   8    5.61    1.48
  -3   0   8    4.38    1.24
   2   0  -8   30.75    3.02
   2   0  -8   35.43    3.19
  -2   0   8   29.99    2.80
   1   0  -8   13.06    2.48
  -1   0   8   17.28    2.76
   0   0  -8   33.92    3.34
   0   0  -8   30.50    3.03
   0   0   8   33.83    3.32
   0   0   8   28.66    2.93
  -1   0  -8   33.96    3.34
  -1   0  -8   40.01    3.47
   1   0   8   35.50    3.38
   1   0   8   41.20    3.89
  -2   0  -8   48.53    3.89
  -2   0  -8   50.58    4.04
   2   0   8   47.20    4.26
   2   0   8   47.47    4.13
  -3   0  -8    2.50    1.20
  -3   0  -8    2.79    1.18
   3   0   8    0.91    1.45
   3   0   8    3.20    1.58
  -4   0  -8   -0.53    0.72
  -4   0  -8    1.14    1.06
  -4   0  -8    0.51    1.13
   4   0   8    0.55    0.80
   4   0   8    2.28    1.19
  -5   0  -8    0.00    1.05
  -5   0  -8    0.71    1.07
  -5   0  -8    0.51    1.16
   5   0   8    0.19    1.17
   5   0   8    2.80    1.54
  -6   0  -8    9.32    2.48
  -6   0  -8    9.57    1.47
   6   0   8   17.51    3.55
  -7   0  -8   -0.06    1.89
   7   0   8    1.97    1.84
  12  -1  -8    7.19    1.46
  11  -1  -8    3.57    1.16
  11  -1  -8    5.76    1.42
  11  -1  -8    6.35    2.74
  10  -1  -8    1.06    0.80
  10  -1  -8    0.74    2.16
  10  -1  -8   -1.70    0.76
   9  -1  -8   62.33    3.73
   9  -1  -8   59.15    3.75
   9  -1  -8   58.27    6.58
   8  -1  -8   16.65    2.36
   8  -1  -8   15.36    4.17
   8  -1  -8   18.32    2.56
   7  -1  -8  123.75    5.58
   7  -1  -8  125.15    5.73
   6  -1  -8  272.74    8.96
   6  -1  -8  288.56    9.36
   5  -1  -8    3.66    1.31
   5  -1  -8    3.39    1.11
  -5   1   8    3.39    0.94
  -5   1   8    2.78    0.91
   4  -1  -8   80.40    4.64
   4  -1  -8   76.83    4.67
  -4   1   8   76.27    3.98
  -4   1   8   80.99    4.22
   3  -1  -8    2.25    1.17
   3  -1  -8   -0.24    0.72
  -3   1   8   -0.09    0.64
  -3   1   8   -0.17    0.59
   2  -1  -8   42.96    3.57
   2  -1  -8   38.37    3.57
  -2   1   8   41.67    3.52
  -2   1   8   37.40    3.25
   1  -1  -8   27.27    3.62
   1  -1  -8   24.31    3.38
  -1   1   8   26.79    2.91
  -1   1   8   26.74    2.93
   0  -1  -8    2.93    1.24
   0  -1  -8   -0.06    0.78
   0   1   8    1.91    1.24
   0   1   8    1.87    1.11
  -1  -1  -8   14.19    2.63
  -1  -1  -8   13.15    2.49
   1   1   8   14.97    2.93
  -2  -1  -8    0.51    0.96
  -2  -1  -8   -0.40    0.85
   2   1   8    1.10    0.94
  -3  -1  -8    2.12    1.19
  -3  -1  -8    0.87    1.14
   3   1   8    0.94    1.17
  -4  -1  -8    1.12    0.98
  -4  -1  -8    0.26    0.99
  -4  -1  -8    2.27    1.29
   4   1   8    4.21    1.58
  -5  -1  -8   73.33    4.38
  -5  -1  -8   60.34    4.54
   5   1   8   73.88    6.19
  -6  -1  -8   11.85    1.98
   6   1   8    9.68    2.78
   7   1   8   16.37    3.57
  12  -2  -8    2.04    1.27
  11  -2  -8   20.19    5.30
  11  -2  -8   26.10    3.56
  11  -2  -8   22.28    2.83
  10  -2  -8   48.87    3.66
  10  -2  -8   44.64    3.46
  10  -2  -8   58.04    6.94
   9  -2  -8   14.20    2.43
   9  -2  -8   16.56    2.49
   9  -2  -8   20.41    4.83
   8  -2  -8   20.75    2.29
   8  -2  -8   17.70    4.12
   8  -2  -8   18.86    2.77
   7  -2  -8    9.36    1.94
   7  -2  -8   11.15    3.46
   7  -2  -8    8.24    1.83
   6  -2  -8   21.94    3.01
  -6   2   8   23.18    1.08
   5  -2  -8   24.04    3.77
   5  -2  -8   27.39    2.77
  -5   2   8   26.35    2.24
  -5   2   8   24.28    2.22
   4  -2  -8   11.45    2.35
   4  -2  -8   13.94    2.47
  -4   2   8   13.77    2.19
  -4   2   8   13.50    2.22
   3  -2  -8   11.36    2.31
   3  -2  -8   16.51    2.83
  -3   2   8   12.90    2.27
  -3   2   8   11.22    2.22
   2  -2  -8    7.18    1.87
   2  -2  -8    6.32    1.93
  -2   2   8    4.22    1.46
  -2   2   8    9.72    2.20
   1  -2  -8   42.81    3.91
   1  -2  -8   47.15    3.91
  -1   2   8   49.23    4.01
  -1   2   8   47.37    4.04
   0  -2  -8   70.16    4.88
   0  -2  -8   67.61    4.90
   0   2   8   71.97    5.02
   0   2   8   61.06    4.89
  -1  -2  -8    3.92    1.64
  -1  -2  -8    6.11    1.74
   1   2   8    8.66    2.17
   1   2   8    5.36    1.81
  -2  -2  -8   28.78    3.84
  -2  -2  -8   29.83    4.00
   2   2   8   30.22    4.42
   2   2   8   26.57    4.03
  -3  -2  -8   63.43    4.62
  -3  -2  -8   56.75    4.50
  -3  -2  -8   60.64    3.60
   3   2   8   57.72    5.28
   3   2   8   68.33    6.44
  -4  -2  -8   19.79    3.14
  -4  -2  -8   16.40    2.74
  -4  -2  -8   11.98    1.88
   4   2   8   11.58    2.91
   4   2   8   16.49    3.19
  -5  -2  -8   -1.06    1.10
  -5  -2  -8   -0.77    1.46
   5   2   8   -2.32    1.19
  -6  -2  -8   12.99    2.15
   6   2   8   12.66    3.55
  12  -3  -8    1.88    1.41
  11  -3  -8    8.31    2.28
  11  -3  -8   14.28    2.35
  10  -3  -8    9.32    4.12
  10  -3  -8   23.23    3.11
   9  -3  -8   18.89    4.89
   9  -3  -8   32.65    3.26
   8  -3  -8    9.23    3.06
   8  -3  -8    7.37    2.03
   7  -3  -8    3.11    2.21
   7  -3  -8    5.63    1.72
   6  -3  -8    2.84    1.75
   6  -3  -8    6.42    1.66
  -6   3   8    1.15    0.69
  -6   3   8    2.19    0.84
   5  -3  -8    3.33    1.98
   5  -3  -8    5.21    1.62
   5  -3  -8    3.60    1.43
  -5   3   8    2.95    1.25
  -5   3   8    1.28    0.88
   4  -3  -8   30.52    3.31
   4  -3  -8   38.18    3.57
  -4   3   8   34.42    3.15
  -4   3   8   33.70    3.06
   3  -3  -8   -0.71    0.93
   3  -3  -8    0.14    0.78
  -3   3   8   -0.57    0.84
  -3   3   8    1.27    0.90
   2  -3  -8   95.82    5.84
   2  -3  -8   93.90    5.92
  -2   3   8   92.21    5.58
  -2   3   8   88.00    5.67
   1  -3  -8    0.52    0.86
   1  -3  -8   -0.10    0.67
  -1   3   8    0.09    1.07
  -1   3   8    0.06    0.68
   0  -3  -8    7.78    2.19
   0  -3  -8    9.26    2.36
   0   3   8    7.56    2.16
  -1  -3  -8   46.88    4.28
   1   3   8   38.15    4.20
   1   3   8   37.85    4.14
  -2  -3  -8    7.48    2.02
  -2  -3  -8    7.09    2.10
   2   3   8    5.47    1.91
  -3  -3  -8   26.60    3.86
  -3  -3  -8   28.36    4.08
   3   3   8   36.17    4.83
   3   3   8   22.81    3.88
  -4  -3  -8    9.69    2.55
   4   3   8    7.60    2.46
  -5  -3  -8    0.90    1.74
  -5  -3  -8    0.21    1.53
   6   3   8   -2.38    1.48
  11  -4  -8    5.45    1.81
  10  -4  -8    2.07    2.16
  10  -4  -8    4.76    1.76
   9  -4  -8   31.09    3.30
   9  -4  -8   20.72    5.10
   9  -4  -8   37.42    3.58
   8  -4  -8   13.34    3.59
   8  -4  -8   12.74    2.62
   8  -4  -8   14.32    2.73
   7  -4  -8    5.01    2.67
   7  -4  -8   10.54    2.34
   7  -4  -8    8.84    2.18
   6  -4  -8    0.42    0.91
  -6   4   8    0.13    0.88
  -6   4   8   -0.14    0.67
   5  -4  -8   20.14    3.21
   5  -4  -8   21.91    4.08
  -5   4   8   27.97    2.85
  -5   4   8   26.52    2.81
   4  -4  -8    1.41    1.46
   4  -4  -8    3.77    1.63
   4  -4  -8    3.54    1.72
  -4   4   8    3.16    1.41
  -4   4   8    5.85    1.71
   3  -4  -8   33.35    3.60
   3  -4  -8   32.07    3.74
   3  -4  -8   33.54    3.80
  -3   4   8   28.88    3.22
  -3   4   8   34.13    3.57
   2  -4  -8    1.86    1.15
   2  -4  -8    2.61    1.37
   2  -4  -8    2.39    1.54
  -2   4   8    1.80    1.35
  -2   4   8    1.35    1.16
   1  -4  -8   21.87    3.56
   1  -4  -8   17.84    3.26
   1  -4  -8   17.95    2.71
  -1   4   8   20.13    3.60
  -1   4   8   19.71    3.49
   0  -4  -8  119.67    7.22
   0  -4  -8  109.87    4.85
   0  -4  -8  118.95    6.96
   0   4   8  122.89    7.32
   0   4   8  114.05    7.26
  -1  -4  -8   10.74    2.63
  -1  -4  -8    5.35    2.16
   1   4   8    5.29    2.15
   1   4   8    4.21    2.03
  -2  -4  -8    3.03    1.54
  -2  -4  -8    2.02    1.59
   2   4   8    0.85    1.28
   2   4   8    1.58    1.51
  -3  -4  -8   -0.23    1.52
  -3  -4  -8    2.29    1.75
   3   4   8    1.25    1.57
  -4  -4  -8    3.28    1.58
  -4  -4  -8    2.20    2.09
  -5  -4  -8    1.95    2.62
   5   4   8    1.01    1.45
  11  -5  -8    0.45    1.94
  10  -5  -8   -0.30    1.39
  10  -5  -8    0.04    2.05
   9  -5  -8   -1.75    1.98
   9  -5  -8    1.18    1.35
   9  -5  -8    2.35    1.62
   8  -5  -8   -0.74    0.85
   8  -5  -8    1.48    1.48
   8  -5  -8    2.38    2.19
   7  -5  -8    4.00    2.01
   7  -5  -8    2.68    1.89
   7  -5  -8    6.08    2.00
  -7   5   8    1.11    0.52
   6  -5  -8   12.39    3.30
   6  -5  -8   11.32    2.65
   6  -5  -8   14.22    2.91
  -6   5   8   12.20    2.11
  -6   5   8    7.41    1.68
   5  -5  -8   10.88    2.92
   5  -5  -8   11.60    2.81
  -5   5   8   11.81    2.45
  -5   5   8   12.75    2.56
   4  -5  -8   59.10    5.36
   4  -5  -8   51.21    4.78
  -4   5   8   61.72    4.73
  -4   5   8   71.20    5.18
   3  -5  -8   16.93    3.19
   3  -5  -8   22.05    3.63
   3  -5  -8   20.77    3.69
  -3   5   8   19.65    3.28
   2  -5  -8   57.18    4.94
   2  -5  -8   66.45    5.61
   2  -5  -8   57.14    4.42
  -2   5   8   60.34    5.12
  -2   5   8   61.57    5.07
   1  -5  -8   37.76    4.14
  -1   5   8   46.45    4.65
   0  -5  -8   47.71    4.65
   0  -5  -8   41.66    4.45
   0   5   8   41.25    4.60
   0   5   8   36.19    4.98
  -1  -5  -8    1.28    1.08
  -1  -5  -8   -0.38    1.68
   1   5   8    0.46    1.30
  -2  -5  -8    3.28    2.00
  -2  -5  -8    3.71    1.98
   2   5   8    9.27    2.55
  -3  -5  -8    0.78    2.04
  -3  -5  -8    2.39    1.92
   3   5   8    0.01    1.62
  -4  -5  -8    4.90    2.67
  -4  -5  -8    3.60    2.20
   4   5   8    0.01    1.95
  -5  -5  -8    2.31    2.64
  11  -6  -8   -0.61    1.66
  10  -6  -8    7.80    1.83
   9  -6  -8   13.78    2.88
   9  -6  -8    2.09    2.68
   8  -6  -8   15.33    3.25
   8  -6  -8   15.86    3.23
   8  -6  -8   13.79    4.05
   7  -6  -8    2.99    1.37
   7  -6  -8    1.31    1.92
   7  -6  -8    3.88    1.52
  -7   6   8    2.19    0.94
  -7   6   8    1.75    1.01
   6  -6  -8   14.42    2.99
   6  -6  -8   16.37    3.69
   6  -6  -8   17.09    3.30
  -6   6   8   10.16    2.33
  -6   6   8   10.86    2.31
   5  -6  -8    9.57    2.28
   5  -6  -8    6.98    2.60
  -5   6   8    7.96    2.23
  -5   6   8   13.14    2.71
   4  -6  -8   53.50    5.18
   4  -6  -8   55.44    5.01
  -4   6   8   54.31    4.76
  -4   6   8   51.45    4.73
   3  -6  -8   23.98    4.13
   3  -6  -8   26.74    4.34
   3  -6  -8   18.06    3.21
  -3   6   8   22.20    3.82
  -3   6   8   21.45    3.70
   2  -6  -8   14.36    2.38
   2  -6  -8   14.47    3.10
   2  -6  -8   13.51    3.09
  -2   6   8   15.62    3.48
  -2   6   8   13.13    3.04
   1  -6  -8    0.98    1.23
   1  -6  -8   -0.69    0.99
  -1   6   8    3.48    1.85
  -1   6   8   -0.99    1.26
   0  -6  -8   -0.70    1.40
   0   6   8    1.41    1.61
  -1  -6  -8    0.75    1.41
   1   6   8   -2.04    1.58
  -2  -6  -8    0.82    1.62
   2   6   8    0.44    1.88
  -3  -6  -8   12.19    3.17
  -4  -6  -8    9.57    3.18
  11  -7  -8   10.52    2.22
  10  -7  -8    6.57    2.66
   9  -7  -8   -1.12    1.13
   9  -7  -8    5.52    3.11
   7  -7  -8    0.44    1.01
   7  -7  -8    0.68    1.94
  -7   7   8    2.36    1.29
  -7   7   8   -0.26    1.41
   6  -7  -8   10.40    3.13
   6  -7  -8    4.61    2.12
  -6   7   8   10.19    2.47
  -6   7   8    6.48    2.14
   5  -7  -8    9.27    2.55
  -5   7   8    6.96    2.25
  -5   7   8    8.23    2.45
  -4   7   8   10.88    3.03
  -4   7   8   22.83    3.88
   3  -7  -8   21.60    3.95
  -3   7   8   24.98    4.23
  -3   7   8   25.02    4.29
   2  -7  -8   20.43    3.89
  -2   7   8   18.82    3.81
   1  -7  -8    2.74    1.74
  -1   7   8    0.99    1.71
   0  -7  -8    0.93    1.33
   0   7   8   -5.43    1.66
  -1  -7  -8    7.82    2.74
   1   7   8    7.58    2.87
  -2  -7  -8   -1.66    1.87
  -3  -7  -8    7.39    2.61
   8  -8  -8   24.91    4.25
   7  -8  -8   31.56    4.82
  -7   8   8   37.51    3.81
  -7   8   8   45.89    4.85
   6  -8  -8    2.04    1.87
  -6   8   8    5.21    2.38
  -6   8   8    2.09    1.93
  -5   8   8    7.86    2.49
  -5   8   8    1.38    2.08
  -4   8   8    1.32    1.76
   3  -8  -8    6.42    2.55
  -3   8   8    4.72    2.52
   2  -8  -8   21.61    4.04
  -2   8   8   16.73    3.99
   1  -8  -8    2.83    2.04
  -1   8   8    0.93    2.29
   0  -8  -8    1.19    1.89
  -7   9   8    2.98    2.91
  -6   9   8   24.28    7.80
  -6   9   8   10.24    2.86
  -5   9   8    5.28    2.40
  -4   9   8   22.22    4.20
  -3   9   8    0.28    2.47
  -6  10   8   -5.66    3.15
  -4 -12   9    9.15    4.33
  -3 -12   9    4.90    3.25
  -2 -12   9    5.49    3.13
  -5 -11   9    3.74    2.65
  -4 -11   9   -4.52    1.72
  -3 -11   9   23.36    3.99
   2  11  -9   -0.24    0.77
  -2 -11   9    0.80    2.00
   1  11  -9    4.82    1.77
  -1 -11   9    4.10    2.18
   0  11  -9    4.92    2.06
  -1  11  -9   22.34    4.19
   1 -11   9   22.85    3.99
  -2  11  -9    2.98    2.29
   2 -11   9    3.58    2.40
  -3  11  -9   34.13    5.29
  -4  11  -9   20.18    3.97
  -6 -10   9   -0.26    1.65
   5  10  -9    1.82    1.59
  -5 -10   9    0.59    2.04
  -5 -10   9    2.30    2.11
   4  10  -9   -0.25    1.17
  -4 -10   9    4.98    3.38
  -4 -10   9   -2.25    1.52
  -3 -10   9    0.70    1.48
  -3 -10   9   -0.38    1.85
   2  10  -9    0.79    0.84
  -2 -10   9    0.62    1.66
   1  10  -9    3.31    1.68
  -1 -10   9    0.93    1.71
   0 -10   9    0.93    1.52
  -1  10  -9    9.63    2.80
   1 -10   9    6.87    2.19
  -2  10  -9    3.55    1.87
  -3  10  -9    9.62    2.84
   3 -10   9   13.96    3.39
  -4  10  -9   -2.46    1.55
   4 -10   9    3.34    1.82
  -5  10  -9    1.51    1.93
   8   9  -9   15.57    3.77
   7   9  -9   21.79    3.97
   6   9  -9   -0.27    1.20
  -6  -9   9   -0.12    1.15
  -6  -9   9   -1.88    1.25
   5   9  -9    8.87    2.40
  -5  -9   9    4.17    1.85
  -5  -9   9    3.53    1.75
   4   9  -9   -2.14    1.01
  -4  -9   9    1.24    1.22
  -4  -9   9   -0.87    1.16
   3   9  -9    3.29    1.74
  -3  -9   9    3.79    2.15
  -3  -9   9    2.46    1.94
   2   9  -9   16.93    3.48
  -2  -9   9   12.47    2.99
  -2  -9   9   12.52    3.01
   1   9  -9    2.70    1.78
   1   9  -9    0.93    0.91
  -1  -9   9    4.32    1.80
  -1  -9   9   -0.54    1.61
   0   9  -9    4.48    2.03
   0   9  -9    1.62    2.02
   0  -9   9    2.13    1.82
   0  -9   9    4.41    2.13
  -1   9  -9    1.12    2.03
  -1   9  -9    7.75    2.42
   1  -9   9    4.45    1.79
  -2   9  -9    9.06    2.57
  -2   9  -9    5.54    2.28
   2  -9   9   14.20    3.22
  -3   9  -9    2.92    2.02
  -3   9  -9    2.85    1.64
   3  -9   9    1.02    1.51
  -4   9  -9   21.80    3.54
  -4   9  -9   16.76    3.57
   4  -9   9   14.05    3.21
  -5   9  -9    6.34    2.96
  -5   9  -9    6.66    2.27
   5  -9   9   -1.29    1.86
  -6   9  -9    1.65    2.24
   9   8  -9    7.50    2.61
   8   8  -9   -2.44    1.01
   7   8  -9    2.99    1.79
   6   8  -9   -0.33    1.27
  -6  -8   9    2.35    1.60
  -6  -8   9    0.90    0.95
   5   8  -9   -0.14    1.75
   5   8  -9    3.40    1.77
  -5  -8   9    3.26    1.62
  -5  -8   9    1.76    1.28
   4   8  -9   17.63    3.42
   4   8  -9   16.24    3.32
  -4  -8   9    9.82    2.39
  -4  -8   9   11.82    2.58
   3   8  -9    2.97    1.55
   3   8  -9   -0.54    1.42
  -3  -8   9    5.60    1.77
   2   8  -9   32.03    4.62
   2   8  -9   37.22    4.07
  -2  -8   9   31.26    4.28
  -2  -8   9   32.95    4.32
   1   8  -9   11.42    2.54
   1   8  -9    7.11    2.60
  -1  -8   9   12.38    2.83
  -1  -8   9   14.25    3.00
   0   8  -9   35.53    4.95
   0  -8   9   35.30    4.81
  -1   8  -9    1.12    1.31
   1  -8   9    2.96    1.84
   1  -8   9   -0.67    1.24
  -2   8  -9   39.66    5.21
   2  -8   9   29.91    4.64
   2  -8   9   48.45    4.91
  -3   8  -9   88.43    6.24
   3  -8   9   93.78    7.21
  -4   8  -9   33.68    4.49
  -4   8  -9   39.54    4.32
   4  -8   9   29.84    4.76
  -5   8  -9   -2.33    1.54
  -5   8  -9    1.23    1.67
  -6   8  -9    0.70    2.57
  -6   8  -9   -0.78    1.51
   6  -8   9    0.64    1.69
  10   7  -9    2.21    3.11
  10   7  -9    8.53    4.16
   9   7  -9    0.65    1.25
   8   7  -9   -4.36    1.50
   8   7  -9   -1.98    1.28
   7   7  -9    0.60    1.01
   7   7  -9    0.32    1.20
   6   7  -9   44.70    4.26
   5   7  -9   10.10    2.67
   5   7  -9    7.70    2.32
  -5  -7   9   10.18    1.91
  -5  -7   9    7.25    1.79
   4   7  -9   38.42    4.02
   4   7  -9   41.11    4.27
  -4  -7   9   40.48    3.55
  -4  -7   9   32.17    3.31
   3   7  -9   11.34    2.58
   3   7  -9   14.14    3.03
  -3  -7   9   16.56    2.75
  -3  -7   9   16.74    2.94
   2   7  -9    3.52    1.56
   2   7  -9    7.85    2.13
  -2  -7   9    5.12    1.79
  -2  -7   9    2.10    1.44
   1   7  -9    9.15    2.39
   1   7  -9   10.93    2.61
  -1  -7   9    8.01    2.07
  -1  -7   9    7.51    2.58
   0   7  -9   45.75    4.28
   0   7  -9   48.87    4.62
   0  -7   9   51.38    4.78
   0  -7   9   50.11    4.45
  -1   7  -9   22.61    3.71
  -1   7  -9   25.31    3.91
   1  -7   9   27.90    4.21
   1  -7   9   19.20    3.39
  -2   7  -9   18.24    3.09
  -2   7  -9   23.65    3.86
   2  -7   9   13.06    3.27
   2  -7   9   19.25    3.66
  -3   7  -9    1.73    1.49
  -3   7  -9   -0.22    1.40
   3  -7   9   -1.56    1.37
   3  -7   9   -0.42    1.07
  -4   7  -9    1.48    1.56
  -4   7  -9    3.27    1.84
   4  -7   9    0.17    0.92
  -5   7  -9    6.40    2.44
   5  -7   9    9.26    2.56
  -6   7  -9    2.33    1.64
  -6   7  -9    7.72    3.22
   6  -7   9    0.75    2.13
   7  -7   9    2.43    1.67
  10   6  -9    2.90    1.39
  10   6  -9    2.51    2.72
  10   6  -9    1.43    3.05
   9   6  -9    2.68    1.82
   9   6  -9    5.16    1.53
   8   6  -9    4.02    1.56
   8   6  -9    0.17    1.10
   7   6  -9    2.02    1.27
   7   6  -9   -0.40    1.00
   6   6  -9    0.90    1.31
  -6  -6   9    2.31    0.63
   5   6  -9   24.29    3.73
   5   6  -9   25.50    3.57
  -5  -6   9   31.11    2.69
  -5  -6   9   21.33    2.33
   4   6  -9   16.18    3.00
   4   6  -9   12.46    2.64
  -4  -6   9   14.25    2.53
  -4  -6   9   14.09    2.39
   3   6  -9    1.57    1.07
   3   6  -9    3.46    1.48
  -3  -6   9    1.52    1.01
  -3  -6   9    1.34    0.99
   2   6  -9   35.93    3.74
   2   6  -9   34.74    3.53
  -2  -6   9   28.65    3.15
  -2  -6   9   29.19    3.20
   1   6  -9   96.84    6.03
   1   6  -9   93.94    6.11
  -1  -6   9  100.08    6.17
  -1  -6   9   96.13    5.75
   0   6  -9   15.85    3.06
   0   6  -9    8.37    2.25
   0  -6   9   11.61    2.57
   0  -6   9   12.98    2.80
  -1   6  -9    1.00    1.20
  -1   6  -9    0.28    1.06
   1  -6   9    3.35    1.74
   1  -6   9   -0.38    0.76
  -2   6  -9    1.63    1.30
   2  -6   9   -1.02    1.16
   2  -6   9    0.36    0.97
  -3   6  -9    4.21    2.02
   3  -6   9    6.40    2.10
  -4   6  -9    3.55    1.65
  -4   6  -9    3.58    1.43
   4  -6   9    6.09    2.17
   4  -6   9    6.49    2.05
  -5   6  -9    0.07    1.15
  -5   6  -9    1.77    1.46
   5  -6   9   -1.58    1.07
  -6   6  -9    0.82    1.19
   6  -6   9    0.40    1.40
   7  -6   9    9.25    2.75
  11   5  -9   -3.60    1.51
  10   5  -9   -0.62    3.93
  10   5  -9    0.71    1.66
  10   5  -9    0.26    1.04
   9   5  -9   -0.90    1.19
   8   5  -9    0.00    0.97
   8   5  -9    2.68    1.45
   7   5  -9   58.93    4.61
   7   5  -9   51.09    4.24
   6   5  -9   25.76    3.54
   6   5  -9   23.09    3.45
   5   5  -9   39.76    3.65
   5   5  -9   35.04    3.61
  -5  -5   9   33.60    2.61
  -5  -5   9   37.85    2.75
   4   5  -9   30.83    3.28
   4   5  -9   30.59    4.00
  -4  -5   9   31.14    2.80
  -4  -5   9   29.89    2.81
   3   5  -9   76.95    5.11
   3   5  -9   68.52    5.00
  -3  -5   9   73.36    4.65
   2   5  -9   55.96    4.61
   2   5  -9   54.78    4.33
  -2  -5   9   51.68    4.00
  -2  -5   9   54.46    4.23
   1   5  -9   20.47    3.24
   1   5  -9   28.64    3.89
  -1  -5   9   18.83    3.08
  -1  -5   9   27.98    3.87
   0   5  -9  138.07    7.00
   0   5  -9  119.57    6.74
   0  -5   9  134.88    6.87
   0  -5   9  121.78    6.90
  -1   5  -9    3.38    1.37
  -1   5  -9   -0.65    0.75
   1  -5   9    3.57    1.28
   1  -5   9    0.80    0.86
  -2   5  -9    0.23    1.02
  -2   5  -9    0.16    1.04
   2  -5   9   -0.28    1.12
   2  -5   9   -1.74    0.86
  -3   5  -9    2.07    1.38
  -3   5  -9    7.89    2.17
   3  -5   9    8.42    2.26
  -4   5  -9    3.66    1.52
  -4   5  -9    3.59    1.52
   4  -5   9    0.25    1.10
   4  -5   9    4.36    1.63
  -5   5  -9   -0.04    1.18
  -5   5  -9   -1.68    1.27
   5  -5   9   -2.21    0.80
  -6   5  -9   41.36    3.65
  -6   5  -9   48.94    3.58
   6  -5   9   52.19    5.18
   7  -5   9    6.96    2.39
  11   4  -9   -0.06    2.66
  11   4  -9    1.66    1.54
  10   4  -9    1.27    2.02
  10   4  -9    1.12    1.27
  10   4  -9    1.35    1.23
   9   4  -9    1.95    1.11
   9   4  -9    0.57    1.09
   8   4  -9   19.64    2.90
   8   4  -9   26.72    3.50
   7   4  -9    8.27    1.98
   7   4  -9    6.24    1.67
   6   4  -9   16.56    2.68
   6   4  -9   17.95    2.82
   5   4  -9   65.76    4.60
   5   4  -9   72.02    4.59
  -5  -4   9   70.19    3.55
  -5  -4   9   70.26    3.55
   4   4  -9  190.86    7.89
   4   4  -9  201.69    8.38
  -4  -4   9  194.61    7.17
  -4  -4   9  211.37    7.33
   3   4  -9    1.21    0.88
   3   4  -9    2.26    1.12
  -3  -4   9    2.34    1.24
  -3  -4   9    1.31    1.08
   2   4  -9    4.83    1.67
   2   4  -9    3.81    1.32
  -2  -4   9    3.19    1.45
  -2  -4   9    4.80    1.47
   1   4  -9    1.60    0.94
   1   4  -9    0.59    0.68
  -1  -4   9    0.88    0.69
  -1  -4   9   -0.30    0.74
   0   4  -9  122.34    6.68
   0   4  -9  137.45    6.80
   0  -4   9  129.42    6.63
   0  -4   9  114.44    6.50
  -1   4  -9    4.75    1.63
  -1   4  -9    2.43    1.22
   1  -4   9    2.93    1.43
   1  -4   9    0.47    1.17
  -2   4  -9   29.68    3.28
  -2   4  -9   40.43    3.76
   2  -4   9   37.65    3.89
   2  -4   9   40.03    4.14
  -3   4  -9   11.39    2.49
  -3   4  -9   14.07    2.71
   3  -4   9    8.37    2.28
   3  -4   9   10.90    2.55
  -4   4  -9   -1.06    1.16
  -4   4  -9   -2.52    0.93
   4  -4   9   -1.51    1.05
   4  -4   9    1.50    1.57
  -5   4  -9    1.81    1.48
  -5   4  -9    7.72    1.87
   5  -4   9   10.68    2.33
   5  -4   9    7.42    2.27
  -6   4  -9    8.70    1.92
  -6   4  -9    5.32    1.47
  -6   4  -9    7.54    3.16
   6  -4   9   11.95    2.81
  11   3  -9   -1.48    1.48
  11   3  -9    0.70    1.88
  11   3  -9    1.48    1.31
  10   3  -9    0.09    1.30
  10   3  -9    3.49    2.19
  10   3  -9    1.15    1.05
   9   3  -9   13.48    2.34
   9   3  -9   19.85    2.92
   8   3  -9   11.97    2.22
   8   3  -9   10.78    2.25
   7   3  -9   13.45    2.67
   7   3  -9   12.27    2.25
   6   3  -9   90.56    5.01
   6   3  -9   86.10    5.81
   5   3  -9   19.08    2.81
   5   3  -9   17.86    3.32
   4   3  -9   23.76    2.66
   4   3  -9   20.97    3.09
  -4  -3   9   20.42    2.26
  -4  -3   9   24.45    2.39
   3   3  -9   12.44    2.38
   3   3  -9   14.85    2.62
  -3  -3   9   10.69    2.11
  -3  -3   9   12.68    2.27
   2   3  -9   54.96    4.27
   2   3  -9   65.21    4.46
  -2  -3   9   61.20    4.28
  -2  -3   9   66.73    4.31
   1   3  -9   -0.38    0.65
   1   3  -9    0.31    0.82
  -1  -3   9    0.94    0.92
  -1  -3   9   -0.51    0.61
   0   3  -9   13.06    2.55
   0   3  -9   14.91    2.77
   0  -3   9   17.90    3.05
   0  -3   9   19.32    3.11
  -1   3  -9    0.97    1.08
  -1   3  -9    1.63    1.04
   1  -3   9    0.48    0.90
   1  -3   9   -0.59    0.66
  -2   3  -9   21.07    3.32
  -2   3  -9   24.41    3.49
   2  -3   9   16.20    2.88
   2  -3   9   19.59    3.40
  -3   3  -9    9.42    2.26
  -3   3  -9    8.59    2.15
   3  -3   9    9.01    2.29
   3  -3   9    8.02    2.38
  -4   3  -9   12.16    2.50
  -4   3  -9   13.87    2.82
   4  -3   9   13.74    2.83
   4  -3   9   12.86    2.99
  -5   3  -9   29.60    4.93
  -5   3  -9   33.73    3.80
  -5   3  -9   31.69    3.33
   5  -3   9   32.91    4.80
   5  -3   9   25.17    4.10
  -6   3  -9    0.42    1.67
  -6   3  -9   -0.04    0.90
  -6   3  -9   -0.35    1.13
   6  -3   9   -0.06    1.68
   7  -3   9   -1.30    1.74
  11   2  -9    3.12    1.29
  11   2  -9    1.93    2.72
  11   2  -9    6.17    1.22
  10   2  -9   11.20    3.99
  10   2  -9   18.62    2.48
   9   2  -9   13.38    2.67
   9   2  -9   13.35    2.20
   8   2  -9    3.57    1.26
   8   2  -9   -0.45    0.97
   7   2  -9   12.32    2.25
   7   2  -9   12.81    2.18
   6   2  -9   85.39    4.68
   6   2  -9   77.63    4.69
   5   2  -9    4.60    1.47
   5   2  -9    4.81    1.45
  -5  -2   9    6.04    1.14
  -5  -2   9    6.91    1.51
   4   2  -9    0.56    0.67
  -4  -2   9    0.78    0.76
   3   2  -9   39.55    3.32
   3   2  -9   41.40    3.68
  -3  -2   9   40.38    3.30
  -3  -2   9   45.07    3.35
   2   2  -9    0.00    0.58
   2   2  -9    2.69    1.28
  -2  -2   9    1.53    0.98
  -2  -2   9    2.12    1.15
   1   2  -9   13.05    2.52
   1   2  -9   16.33    2.83
  -1  -2   9   12.52    2.51
  -1  -2   9   10.23    2.29
   0   2  -9   25.97    3.61
   0   2  -9   24.99    2.81
   0  -2   9   25.53    3.46
   0  -2   9   20.42    3.22
  -1   2  -9   29.62    3.21
  -1   2  -9   30.36    3.22
   1  -2   9   30.75    4.12
   1  -2   9   27.40    3.73
  -2   2  -9   -0.40    0.72
  -2   2  -9    1.67    1.13
   2  -2   9    1.42    1.20
   2  -2   9    1.14    0.95
  -3   2  -9   14.52    2.80
  -3   2  -9   12.54    2.58
   3  -2   9   14.54    2.94
   3  -2   9   12.40    2.76
  -4   2  -9    0.49    1.21
  -4   2  -9   -0.41    1.24
   4  -2   9    0.06    1.03
   4  -2   9   -1.02    1.18
  -5   2  -9   38.24    4.66
  -5   2  -9   38.06    5.70
  -5   2  -9   41.55    3.58
   5  -2   9   32.69    4.74
   5  -2   9   32.26    4.61
  -6   2  -9   30.77    5.19
   6  -2   9   36.49    5.48
  -7   2  -9    2.18    2.58
   7  -2   9    6.06    2.23
  11   1  -9   11.15    2.01
  11   1  -9   13.53    2.08
  11   1  -9   14.23    4.72
  10   1  -9   21.08    2.25
  10   1  -9    8.06    3.55
  10   1  -9   20.90    2.32
   9   1  -9   12.42    2.10
   9   1  -9   12.46    2.08
   8   1  -9   20.40    2.87
   8   1  -9   19.55    2.64
   7   1  -9    1.21    0.96
   7   1  -9    2.13    0.88
   6   1  -9   10.79    2.02
   6   1  -9    9.72    2.09
   5   1  -9   15.47    2.67
   5   1  -9   16.91    2.62
  -5  -1   9   15.92    1.66
   4   1  -9   23.08    2.60
  -4  -1   9   24.12    2.45
  -4  -1   9   24.84    2.41
   3   1  -9   57.57    4.08
   3   1  -9   44.05    3.78
  -3  -1   9   52.41    3.71
   2   1  -9   31.37    3.10
   2   1  -9   26.38    2.96
  -2  -1   9   26.48    2.85
  -2  -1   9   23.92    2.62
   1   1  -9   19.47    3.20
   1   1  -9   24.83    2.79
  -1  -1   9   21.15    3.18
  -1  -1   9   22.97    2.60
   0   1  -9   40.43    3.65
   0   1  -9   39.79    3.58
   0  -1   9   40.18    3.75
   0  -1   9   38.59    3.63
  -1   1  -9  283.15   10.60
  -1   1  -9  300.48   10.57
   1  -1   9  285.31   10.74
   1  -1   9  301.48   11.31
  -2   1  -9   31.77    3.32
  -2   1  -9   29.34    3.15
   2  -1   9   26.72    4.56
   2  -1   9   28.88    3.99
  -3   1  -9   14.91    2.78
  -3   1  -9   13.17    2.68
   3  -1   9   14.88    2.92
   3  -1   9   15.33    3.17
  -4   1  -9    7.66    2.05
  -4   1  -9    9.15    2.12
   4  -1   9    7.09    2.50
   4  -1   9    8.75    2.49
  -5   1  -9    4.22    1.82
  -5   1  -9    0.40    1.17
  -5   1  -9   -0.08    1.72
   5  -1   9    2.60    1.13
   5  -1   9    2.20    2.02
  -6   1  -9    2.13    1.18
  -6   1  -9   -0.21    1.75
  -6   1  -9    1.56    1.42
   6  -1   9    5.45    2.02
  -7   1  -9   -0.46    3.21
   7  -1   9    7.59    2.32
  11   0  -9    1.18    2.64
  11   0  -9    0.43    1.01
  11   0  -9   -0.37    0.82
  10   0  -9    1.63    1.13
  10   0  -9    1.52    1.11
  10   0  -9    7.39    2.80
   9   0  -9    3.47    2.53
   9   0  -9    8.75    1.77
   9   0  -9   10.24    1.95
   8   0  -9    1.77    1.13
   8   0  -9    3.41    1.17
   7   0  -9    1.66    1.07
   7   0  -9    3.81    1.39
   6   0  -9   50.83    3.91
   6   0  -9   50.19    3.67
   5   0  -9    2.63    1.19
  -5   0   9    4.24    1.17
  -5   0   9    4.50    1.14
   4   0  -9   27.97    2.87
   4   0  -9   26.47    2.72
  -4   0   9   24.38    2.41
  -4   0   9   26.60    2.53
   3   0  -9   29.08    3.05
   3   0  -9   29.89    3.15
  -3   0   9   27.43    2.77
  -3   0   9   26.46    2.79
   2   0  -9   62.43    4.49
   2   0  -9   56.97    4.43
  -2   0   9   56.02    4.16
  -2   0   9   57.47    4.25
   1   0  -9   40.94    3.69
   1   0  -9   34.57    3.47
  -1   0   9   39.22    3.60
   0   0  -9    7.73    1.95
   0   0  -9   10.48    2.36
   0   0   9    7.43    1.94
   0   0   9    4.22    1.73
  -1   0  -9   55.34    4.43
  -1   0  -9   60.54    4.52
   1   0   9   56.20    4.68
   1   0   9   57.20    4.79
  -2   0  -9    6.57    1.84
  -2   0  -9    4.50    1.82
   2   0   9    9.03    2.44
   2   0   9    5.27    1.74
  -3   0  -9    1.89    1.34
  -3   0  -9    1.52    1.28
   3   0   9    1.45    1.16
   3   0   9    1.06    1.66
  -4   0  -9    4.22    1.61
  -4   0  -9    3.06    1.69
  -4   0  -9    4.78    1.52
   4   0   9    2.50    1.82
   4   0   9    2.49    1.84
  -5   0  -9    0.86    1.23
  -5   0  -9   -2.98    1.15
  -5   0  -9    3.00    1.63
   5   0   9    0.84    1.45
  -6   0  -9   -2.90    1.50
  -6   0  -9    1.31    1.38
  -6   0  -9    0.22    1.22
  12  -1  -9    3.49    1.18
  11  -1  -9    2.89    2.35
  11  -1  -9    1.33    1.00
  11  -1  -9    0.49    1.30
  10  -1  -9   12.17    1.97
  10  -1  -9   14.74    4.42
  10  -1  -9   10.74    2.18
   9  -1  -9    3.02    2.37
   9  -1  -9    2.51    1.17
   9  -1  -9    2.08    1.39
   8  -1  -9   -1.70    0.55
   8  -1  -9    1.38    1.57
   8  -1  -9   -0.45    0.86
   7  -1  -9   42.43    3.46
   7  -1  -9   49.77    3.78
  -6   1   9   35.71    2.05
   5  -1  -9    8.52    1.93
   5  -1  -9   11.16    2.40
  -5   1   9    8.46    1.58
  -5   1   9   10.12    1.67
   4  -1  -9    1.33    0.87
   4  -1  -9    2.30    1.12
  -4   1   9    0.29    0.75
  -4   1   9    0.92    0.77
   3  -1  -9  109.10    5.97
   3  -1  -9   96.52    5.90
  -3   1   9  111.87    6.80
  -3   1   9   99.58    5.54
   2  -1  -9   11.44    2.52
   2  -1  -9   15.82    2.79
  -2   1   9   16.78    2.90
  -2   1   9   10.40    2.25
   1  -1  -9   65.13    4.79
   1  -1  -9   63.50    4.79
  -1   1   9   68.93    5.00
  -1   1   9   73.85    5.24
   0  -1  -9    0.67    1.18
   0   1   9   -0.93    0.45
  -1  -1  -9   97.62    6.07
  -1  -1  -9   84.12    5.51
   1   1   9   99.67    6.72
   1   1   9   94.46    6.18
  -2  -1  -9    2.62    1.52
  -2  -1  -9    3.67    1.69
   2   1   9    6.47    2.22
  -3  -1  -9    1.12    1.66
  -3  -1  -9    2.73    1.46
   3   1   9   -0.84    1.17
  -4  -1  -9    7.62    2.11
  -4  -1  -9    7.71    1.90
  -4  -1  -9    7.72    2.36
   4   1   9    3.26    2.04
  -5  -1  -9   -0.18    1.19
  -5  -1  -9    1.20    1.51
  -5  -1  -9    1.81    1.77
   5   1   9    2.86    1.60
  -6  -1  -9   -0.11    1.59
  -6  -1  -9    0.87    2.13
   6   1   9    2.49    1.77
  12  -2  -9    4.63    1.39
  11  -2  -9   31.23    3.26
  11  -2  -9   35.74    3.52
  10  -2  -9   -0.39    1.15
  10  -2  -9    0.11    2.36
  10  -2  -9    2.92    1.26
   9  -2  -9    0.27    0.95
   9  -2  -9   -0.34    1.73
   9  -2  -9    0.01    0.97
   8  -2  -9    5.47    1.44
   8  -2  -9    7.29    3.17
   8  -2  -9    5.55    1.78
   7  -2  -9    1.52    1.10
   7  -2  -9    3.19    1.30
   7  -2  -9    5.07    2.41
   6  -2  -9    7.16    1.95
   6  -2  -9   11.17    2.45
  -6   2   9    6.67    1.09
  -6   2   9   10.88    1.52
   5  -2  -9   10.98    2.35
   5  -2  -9    9.45    2.28
  -5   2   9   12.07    2.05
  -5   2   9   10.76    2.01
   4  -2  -9   13.75    2.63
   4  -2  -9   10.40    2.48
  -4   2   9   14.06    2.50
  -4   2   9    9.38    2.01
   3  -2  -9   18.93    3.10
   3  -2  -9   24.10    3.70
  -3   2   9   23.63    3.25
  -3   2   9   21.23    3.24
   2  -2  -9   29.28    4.04
   2  -2  -9   28.82    3.21
  -2   2   9   28.64    3.86
  -2   2   9   27.66    3.91
   1  -2  -9   80.61    5.60
   1  -2  -9   81.36    5.48
  -1   2   9   86.19    5.89
  -1   2   9   77.40    5.47
   0  -2  -9   54.31    4.64
   0   2   9   43.70    4.10
   0   2   9   48.71    4.56
  -1  -2  -9    2.44    1.45
  -1  -2  -9    2.36    1.18
   1   2   9    1.40    1.15
   1   2   9    0.68    1.15
  -2  -2  -9    4.73    1.73
  -2  -2  -9    4.74    1.76
   2   2   9    2.15    1.52
   2   2   9    5.14    2.01
  -3  -2  -9    1.69    0.89
  -3  -2  -9    2.14    1.43
  -3  -2  -9    4.48    2.08
   3   2   9    4.68    2.28
   3   2   9    3.20    1.78
  -4  -2  -9   11.64    2.39
  -4  -2  -9   11.19    2.80
   4   2   9   21.13    3.94
  -5  -2  -9    4.46    1.66
  -5  -2  -9    5.46    2.37
   5   2   9    3.57    1.85
  11  -3  -9   13.95    2.58
  11  -3  -9   12.64    2.63
  10  -3  -9   17.34    4.71
  10  -3  -9   17.07    3.12
  10  -3  -9   17.55    2.98
   9  -3  -9    3.79    1.44
   9  -3  -9    1.85    1.33
   9  -3  -9    0.71    2.29
   8  -3  -9   33.24    3.64
   8  -3  -9   35.33    3.39
   8  -3  -9   33.28    6.22
   7  -3  -9    1.36    1.53
   7  -3  -9    2.93    1.39
   7  -3  -9   -0.26    0.71
   6  -3  -9    8.60    2.28
   6  -3  -9    8.06    2.08
   6  -3  -9    7.14    2.51
  -6   3   9    6.61    1.39
  -6   3   9    6.56    1.35
   5  -3  -9   38.41    3.72
   5  -3  -9   45.46    4.03
  -5   3   9   32.41    3.02
  -5   3   9   38.38    3.27
   4  -3  -9   10.56    2.40
   4  -3  -9    7.29    2.27
  -4   3   9   10.88    2.19
  -4   3   9   11.70    2.34
   3  -3  -9   46.59    4.39
  -3   3   9   50.79    4.19
  -3   3   9   51.70    4.40
   2  -3  -9    2.16    1.18
   2  -3  -9    0.61    0.79
  -2   3   9    1.68    1.28
  -2   3   9    0.65    1.04
   1  -3  -9   -0.52    0.59
   1  -3  -9   -0.35    1.04
  -1   3   9    0.69    1.30
  -1   3   9   -1.23    0.80
   0  -3  -9   36.08    3.85
   0  -3  -9   30.13    4.30
   0   3   9   32.11    4.77
   0   3   9   33.01    4.52
  -1  -3  -9    0.64    1.16
  -1  -3  -9   -0.08    1.10
   1   3   9   -1.23    0.66
   1   3   9   -2.36    1.07
  -2  -3  -9   14.70    2.94
  -2  -3  -9   17.17    3.29
   2   3   9   14.97    3.30
   2   3   9   13.89    2.96
  -3  -3  -9   10.55    2.78
  -3  -3  -9    9.82    2.63
   3   3   9    6.87    2.48
  -4  -3  -9   34.29    4.33
  -4  -3  -9   34.11    4.47
   4   3   9   30.51    5.82
  -5  -3  -9   -0.08    2.71
   5   3   9    4.73    2.23
  11  -4  -9    6.77    2.45
  10  -4  -9    4.90    2.02
  10  -4  -9    3.10    2.42
   9  -4  -9   33.64    6.12
   9  -4  -9   33.28    3.72
   8  -4  -9   34.95    3.92
   8  -4  -9   39.93    6.72
   7  -4  -9    0.55    1.37
   7  -4  -9    8.85    3.31
   6  -4  -9    0.44    1.41
   6  -4  -9    2.16    1.32
   6  -4  -9   -0.01    1.09
  -6   4   9   -0.34    0.78
  -6   4   9    1.71    0.83
   5  -4  -9    3.79    1.42
   5  -4  -9   -0.26    1.33
   5  -4  -9    0.46    1.16
  -5   4   9    2.42    1.16
  -5   4   9    2.57    1.22
   4  -4  -9  121.12    7.07
   4  -4  -9  107.33    6.92
   4  -4  -9  109.36    7.68
  -4   4   9  114.62    6.64
  -4   4   9  113.12    6.26
   3  -4  -9    1.93    1.32
   3  -4  -9    1.39    1.19
   3  -4  -9    0.32    1.29
  -3   4   9    1.74    1.17
   2  -4  -9   32.29    4.55
   2  -4  -9   34.27    4.67
   2  -4  -9   29.94    3.52
  -2   4   9   30.26    3.42
  -2   4   9   36.46    4.08
   1  -4  -9    1.66    0.91
   1  -4  -9    0.61    1.18
  -1   4   9    0.40    1.09
  -1   4   9    1.23    1.37
   0  -4  -9   11.21    2.40
   0  -4  -9   16.30    3.23
   0  -4  -9   13.61    2.97
   0   4   9   15.23    3.25
   0   4   9   10.10    2.72
  -1  -4  -9   -1.90    1.26
  -1  -4  -9    2.52    1.32
   1   4   9    2.31    1.42
  -2  -4  -9   46.79    4.77
  -2  -4  -9   39.88    5.19
   2   4   9   50.17    5.12
  -3  -4  -9   14.54    3.13
  -3  -4  -9   15.06    3.01
   3   4   9   15.25    3.51
  -4  -4  -9    5.28    2.43
  -4  -4  -9    7.30    2.91
   4   4   9    4.49    2.81
  -5  -4  -9    0.92    2.43
  10  -5  -9    7.70    3.14
   9  -5  -9    2.93    2.61
   9  -5  -9    5.51    2.29
   8  -5  -9   13.94    3.18
   8  -5  -9   17.07    4.48
   7  -5  -9   26.75    5.29
   7  -5  -9   16.88    3.39
  -7   5   9   27.51    2.10
   6  -5  -9   -0.86    1.22
   6  -5  -9    0.28    1.52
  -6   5   9   -0.28    0.90
   5  -5  -9    2.67    1.34
   5  -5  -9    2.51    1.41
  -5   5   9    2.71    1.63
  -5   5   9    1.79    1.51
   4  -5  -9   17.19    3.62
   4  -5  -9   24.12    3.79
   4  -5  -9   27.62    4.24
  -4   5   9   23.68    3.86
  -4   5   9   22.54    3.70
   3  -5  -9   -1.64    1.18
   3  -5  -9    2.11    1.56
   3  -5  -9    0.07    0.99
  -3   5   9   -0.18    1.10
  -3   5   9   -2.50    1.12
   2  -5  -9   -0.19    0.94
   2  -5  -9    5.33    2.04
   2  -5  -9    0.28    1.14
  -2   5   9    2.89    1.45
  -2   5   9    0.01    1.22
   1  -5  -9    0.27    1.47
   1  -5  -9    1.42    1.09
   1  -5  -9    0.99    1.73
  -1   5   9    1.96    1.28
  -1   5   9   -1.85    1.03
   0  -5  -9    1.03    1.43
   0   5   9    1.52    1.52
  -1  -5  -9    7.62    2.58
   1   5   9    7.05    2.70
  -2  -5  -9    8.36    2.84
   2   5   9    6.01    2.48
  -3  -5  -9    1.34    1.64
   9  -6  -9   19.13    4.88
   8  -6  -9   14.03    4.26
   7  -6  -9    3.74    2.49
  -7   6   9    2.88    1.27
  -7   6   9    2.31    1.26
   6  -6  -9    6.04    2.66
  -6   6   9    7.30    2.22
  -6   6   9    4.51    1.65
   5  -6  -9   -0.57    1.30
   5  -6  -9   -0.78    1.33
  -5   6   9   -2.32    1.45
  -5   6   9   -0.44    1.31
   4  -6  -9    6.24    2.04
   4  -6  -9    7.24    2.25
  -4   6   9    9.99    2.71
   3  -6  -9    1.93    1.27
   3  -6  -9   -0.45    0.78
  -3   6   9   -3.51    1.23
  -3   6   9    0.70    1.44
   2  -6  -9    0.25    0.98
   2  -6  -9    2.10    1.20
  -2   6   9    0.90    1.44
   1  -6  -9   12.62    2.90
  -1   6   9    5.48    2.24
   0  -6  -9   26.97    4.48
   0   6   9   15.92    4.39
   1   6   9    0.65    1.70
  -2  -6  -9    2.29    1.84
  -3  -6  -9   38.30    5.64
  -4  -6  -9   -8.36    3.56
   8  -7  -9   27.89    5.55
   7  -7  -9    6.70    2.86
  -7   7   9    9.40    2.85
  -7   7   9    3.95    1.74
   6  -7  -9    4.76    2.29
  -6   7   9    3.63    2.01
  -6   7   9    2.97    2.21
   5  -7  -9    1.27    1.69
   5  -7  -9    3.52    2.00
  -5   7   9    2.56    2.13
  -5   7   9    6.80    2.22
   4  -7  -9    2.45    2.00
  -4   7   9    1.22    1.89
   3  -7  -9    6.18    2.14
  -3   7   9    0.40    1.77
   2  -7  -9    7.67    3.00
   1  -7  -9    2.89    1.84
  -1   7   9    2.95    1.86
   0  -7  -9   -0.61    1.56
  -1  -7  -9    2.01    2.54
  -6   8   9   -2.15    1.84
  -6   8   9   -5.52    2.76
  -5   8   9    0.52    1.71
  -3   8   9   -0.33    1.27
  -6   9   9    5.06    2.99
  -5   9   9    5.68    2.07
  -4 -12  10    2.18    3.57
  -5 -11  10   -0.37    2.73
  -4 -11  10    2.59    2.46
  -3 -11  10   13.35    3.55
  -2 -11  10   32.67    4.75
   1  11 -10    1.99    2.83
  -1 -11  10   13.83    3.23
   0  11 -10    2.83    2.45
   0 -11  10    3.55    2.16
  -1  11 -10   12.35    3.12
  -2  11 -10    4.18    2.34
  -3  11 -10   10.57    3.23
  -4  11 -10    1.48    2.43
  -5  11 -10    5.23    3.64
  -6 -10  10    5.03    2.19
   5  10 -10    1.14    1.11
  -5 -10  10    0.40    1.82
  -5 -10  10   -1.40    2.29
   4  10 -10   -3.81    1.32
  -4 -10  10   -3.21    1.84
  -4 -10  10    4.71    2.03
   3  10 -10    7.15    2.46
  -3 -10  10    2.81    1.85
   2  10 -10   32.47    5.00
  -2 -10  10   34.80    5.08
  -1 -10  10   -2.27    1.48
   0 -10  10    8.77    3.11
   1 -10  10    2.39    1.71
   2 -10  10    0.20    1.52
  -3  10 -10    0.30    1.91
  -4  10 -10   11.41    3.41
  -5  10 -10    3.38    2.45
   7   9 -10    1.41    1.56
   6   9 -10   50.32    5.53
  -6  -9  10   38.49    3.55
   5   9 -10    0.17    1.02
  -5  -9  10   -2.69    1.84
  -5  -9  10   -3.62    1.60
   4   9 -10    6.72    2.38
  -4  -9  10   11.56    2.80
  -4  -9  10   10.43    2.53
   3   9 -10    1.93    1.93
  -3  -9  10    1.21    1.51
  -3  -9  10   -0.77    1.52
   2   9 -10    2.32    1.34
  -2  -9  10   -1.87    1.27
  -2  -9  10   -1.71    1.35
   1   9 -10    4.81    1.97
  -1  -9  10   11.17    2.95
  -1  -9  10    9.94    2.64
   0   9 -10   -0.07    1.23
   0  -9  10    0.72    0.92
  -1   9 -10   -0.61    1.00
   1  -9  10    0.84    1.08
  -2   9 -10    9.88    2.72
   2  -9  10    3.73    1.75
  -3   9 -10    0.98    1.02
   3  -9  10    0.74    0.93
  -4   9 -10    7.39    2.35
   4  -9  10    3.06    2.19
  -5   9 -10   -1.02    2.88
  -5   9 -10    8.00    2.48
  -6   9 -10   -5.95    2.52
   9   8 -10    3.65    1.55
   7   8 -10    0.26    1.48
   6   8 -10    9.27    2.76
  -6  -8  10    9.80    1.91
   5   8 -10   56.25    5.21
  -5  -8  10   56.89    4.34
  -5  -8  10   53.37    4.25
   4   8 -10    5.81    2.32
   4   8 -10    5.26    2.11
  -4  -8  10    6.42    2.13
  -4  -8  10    8.88    3.51
   3   8 -10   25.78    4.29
   3   8 -10   23.05    4.02
  -3  -8  10   19.31    3.45
  -3  -8  10   22.90    3.50
   2   8 -10   14.68    3.15
   2   8 -10    9.54    2.65
  -2  -8  10   12.00    2.32
  -2  -8  10    8.50    2.42
   1   8 -10   -0.39    1.21
   1   8 -10   -1.21    1.36
  -1  -8  10    2.67    1.43
  -1  -8  10   -0.82    0.98
   0   8 -10    0.57    0.85
   0   8 -10   -0.92    1.33
   0  -8  10    1.15    1.44
   0  -8  10    0.52    1.45
  -1   8 -10    6.83    2.04
  -1   8 -10   15.73    3.34
   1  -8  10    5.10    2.18
   1  -8  10   11.49    2.75
  -2   8 -10    0.94    1.69
  -2   8 -10   -0.28    1.17
   2  -8  10   -0.24    1.09
  -3   8 -10   -1.47    1.96
  -3   8 -10   -1.00    1.12
   3  -8  10    3.02    1.49
  -4   8 -10    1.00    2.17
  -4   8 -10    0.95    1.56
  -5   8 -10   23.90    3.89
   5  -8  10   17.31    3.75
   9   7 -10   10.46    2.71
   8   7 -10    0.71    1.16
   7   7 -10   15.81    3.29
   7   7 -10   14.52    3.29
   6   7 -10   -0.27    1.50
   6   7 -10    3.20    1.63
  -6  -7  10   -0.02    0.96
  -6  -7  10    2.10    1.19
   5   7 -10   -0.43    1.25
   5   7 -10   -2.26    0.93
  -5  -7  10   -0.58    0.87
   4   7 -10   13.36    3.05
  -4  -7  10   14.72    2.76
  -4  -7  10   14.08    2.65
   3   7 -10   -1.83    0.80
   3   7 -10    2.62    1.48
  -3  -7  10   -1.17    0.88
  -3  -7  10    0.24    1.18
   2   7 -10    6.74    2.08
   2   7 -10    7.19    2.30
  -2  -7  10    8.57    2.22
  -2  -7  10    7.13    2.06
   1   7 -10    8.43    2.30
   1   7 -10   17.12    3.20
  -1  -7  10   13.59    2.90
  -1  -7  10   16.60    3.14
   0   7 -10    1.08    1.34
   0   7 -10   -0.63    1.41
   0  -7  10   -0.40    0.89
   0  -7  10    2.17    1.42
  -1   7 -10   13.35    3.10
   1  -7  10   12.81    3.01
   1  -7  10   14.76    2.95
  -2   7 -10    2.07    1.29
   2  -7  10    3.50    2.07
   2  -7  10    2.06    1.73
  -3   7 -10   30.70    4.43
   3  -7  10   31.02    4.84
  -4   7 -10   81.50    6.26
  -4   7 -10   87.93    6.23
   4  -7  10   82.24    6.65
  -5   7 -10    6.42    2.71
  -5   7 -10    4.64    2.10
   5  -7  10    3.33    1.36
  -6   7 -10   -1.08    3.35
  -6   7 -10    0.17    1.69
   6  -7  10    0.93    1.75
  10   6 -10   -1.26    1.30
   9   6 -10    2.42    1.65
   9   6 -10    0.25    2.13
   8   6 -10    6.18    2.07
   8   6 -10    5.73    2.61
   7   6 -10   21.76    3.53
   7   6 -10   20.22    3.46
   6   6 -10    5.52    1.88
   6   6 -10    7.31    2.09
  -6  -6  10    5.99    1.26
   5   6 -10   53.80    4.61
   5   6 -10   47.92    4.53
  -5  -6  10   54.04    3.81
  -5  -6  10   51.96    3.67
   4   6 -10    0.32    1.01
   4   6 -10    0.15    0.83
  -4  -6  10    1.14    1.11
  -4  -6  10    1.33    1.19
   3   6 -10    2.74    1.40
   3   6 -10    1.99    1.29
  -3  -6  10    2.30    1.29
  -3  -6  10    1.17    1.05
   2   6 -10    1.92    1.43
   2   6 -10    1.61    1.33
  -2  -6  10    0.18    1.10
  -2  -6  10    1.75    1.06
   1   6 -10   16.64    3.31
   1   6 -10   17.10    3.45
  -1  -6  10   12.49    3.31
  -1  -6  10   16.16    2.99
   0   6 -10   25.56    4.09
   0   6 -10   30.81    4.28
   0  -6  10   29.37    4.44
   0  -6  10   29.34    3.31
  -1   6 -10    8.64    2.48
  -1   6 -10    5.86    1.89
   1  -6  10    5.94    2.22
   1  -6  10    8.96    2.15
  -2   6 -10    4.10    1.72
  -2   6 -10    2.96    1.66
   2  -6  10    3.08    1.42
   2  -6  10    4.06    1.94
  -3   6 -10    5.92    2.11
  -3   6 -10    0.26    1.37
   3  -6  10    2.65    1.77
   3  -6  10    4.32    1.98
  -4   6 -10   -4.10    1.32
  -4   6 -10    1.27    1.48
   4  -6  10    1.89    1.56
  -5   6 -10    3.36    2.17
  -5   6 -10    3.37    2.05
   5  -6  10    3.71    2.13
  -6   6 -10    6.93    2.05
  -6   6 -10    9.49    3.40
   6  -6  10   10.64    3.03
  11   5 -10    5.63    2.21
  10   5 -10    0.81    1.76
  10   5 -10    2.08    1.35
   9   5 -10    1.72    1.30
   9   5 -10   -2.84    1.27
   8   5 -10    0.69    1.16
   7   5 -10    1.35    1.01
   6   5 -10   16.74    3.00
   6   5 -10   19.73    3.26
   5   5 -10    1.15    1.03
   5   5 -10    3.58    1.50
  -5  -5  10    0.74    0.90
  -5  -5  10    0.62    0.78
   4   5 -10   16.47    3.17
   4   5 -10   19.11    3.13
  -4  -5  10   23.27    3.60
  -4  -5  10   22.68    3.06
   3   5 -10   12.83    2.84
   3   5 -10   16.64    3.04
  -3  -5  10   16.41    2.95
  -3  -5  10   16.83    2.85
   2   5 -10    1.10    1.15
   2   5 -10    2.59    1.47
  -2  -5  10   -0.58    1.06
  -2  -5  10    1.76    1.08
   1   5 -10    1.46    1.23
   1   5 -10    1.35    0.77
  -1  -5  10    0.69    1.06
  -1  -5  10   -0.12    0.88
   0   5 -10  117.20    7.13
   0  -5  10  126.95    7.04
  -1   5 -10   48.58    4.44
  -1   5 -10   53.74    4.52
   1  -5  10   45.46    4.36
   1  -5  10   60.00    5.15
  -2   5 -10   48.80    4.52
  -2   5 -10   44.05    4.08
   2  -5  10   35.23    4.66
   2  -5  10   44.52    4.50
  -3   5 -10    0.92    1.26
  -3   5 -10   -1.43    1.08
   3  -5  10   -0.10    0.75
   3  -5  10    0.33    1.12
  -4   5 -10    2.06    1.64
  -4   5 -10    3.68    1.91
   4  -5  10    4.11    1.63
  -5   5 -10   11.19    2.56
  -5   5 -10    7.84    2.24
   5  -5  10    9.54    2.46
  -6   5 -10    2.46    1.63
   6  -5  10    2.68    2.00
  11   4 -10    7.58    2.67
  10   4 -10   10.33    2.52
   9   4 -10    9.08    2.13
   9   4 -10    6.06    2.09
   8   4 -10    1.46    1.40
   8   4 -10    1.56    1.19
   7   4 -10   16.90    2.97
   7   4 -10   15.59    2.68
   6   4 -10    0.81    1.17
   6   4 -10   -1.18    0.63
  -6  -4  10    0.28    0.41
  -6  -4  10    0.25    0.35
   5   4 -10    5.11    1.71
   5   4 -10    1.15    1.02
  -5  -4  10    2.22    0.98
  -5  -4  10    4.13    1.23
   4   4 -10   10.39    2.20
   4   4 -10    8.40    2.11
  -4  -4  10   10.05    2.12
  -4  -4  10    9.19    1.98
   3   4 -10   44.80    3.89
   3   4 -10   50.84    4.30
  -3  -4  10   39.11    3.43
  -3  -4  10   40.17    3.51
   2   4 -10    3.73    1.45
   2   4 -10    4.44    1.68
  -2  -4  10    5.14    1.65
  -2  -4  10    2.80    1.43
   1   4 -10   34.51    3.78
   1   4 -10   34.49    3.51
  -1  -4  10   38.27    3.83
  -1  -4  10   29.62    3.37
   0   4 -10    2.62    1.34
   0   4 -10    4.71    1.64
   0  -4  10    3.31    1.64
   0  -4  10    2.82    1.33
  -1   4 -10   19.99    3.52
  -1   4 -10   27.99    4.03
   1  -4  10   20.27    3.30
   1  -4  10   20.98    3.65
  -2   4 -10   18.20    3.21
   2  -4  10   18.62    3.58
   2  -4  10   21.23    3.44
  -3   4 -10    3.47    1.79
  -3   4 -10    6.67    2.55
   3  -4  10    2.51    2.02
   3  -4  10    3.54    2.00
  -4   4 -10   12.32    2.91
   4  -4  10   11.93    2.69
   4  -4  10   12.81    3.17
  -5   4 -10    7.27    2.37
  -5   4 -10   11.33    2.31
   5  -4  10    9.79    2.89
  -6   4 -10   10.71    2.41
  -6   4 -10    1.82    1.57
   6  -4  10    3.21    2.05
  11   3 -10   24.26    3.30
  11   3 -10   16.49    3.12
  10   3 -10   11.41    2.42
  10   3 -10   10.34    2.37
   9   3 -10    0.20    1.09
   9   3 -10    0.36    0.95
   8   3 -10   11.01    2.32
   8   3 -10   11.57    2.32
   7   3 -10   30.17    3.02
   7   3 -10   29.26    3.10
   6   3 -10   62.36    4.39
   6   3 -10   56.46    4.32
   5   3 -10   12.59    2.45
   5   3 -10   13.52    2.47
  -5  -3  10   12.67    1.98
   4   3 -10   36.66    3.55
   4   3 -10   34.93    3.39
  -4  -3  10   33.09    3.03
  -4  -3  10   41.17    3.34
   3   3 -10   19.33    3.18
   3   3 -10   26.28    3.81
  -3  -3  10   24.52    3.65
  -3  -3  10   25.67    3.49
   2   3 -10    6.02    1.85
   2   3 -10    3.73    1.45
  -2  -3  10    4.65    1.75
  -2  -3  10    2.81    1.54
   1   3 -10   46.28    4.00
   1   3 -10   38.20    3.77
  -1  -3  10   40.33    3.68
  -1  -3  10   45.01    4.03
   0   3 -10   40.21    3.98
   0   3 -10   40.56    3.75
   0  -3  10   39.26    3.95
   0  -3  10   38.92    3.77
  -1   3 -10   22.75    3.47
  -1   3 -10   20.80    3.40
   1  -3  10   17.80    3.91
   1  -3  10   21.43    3.40
  -2   3 -10   13.11    2.62
  -2   3 -10   11.96    2.51
   2  -3  10   13.46    2.87
   2  -3  10   11.16    2.61
  -3   3 -10    1.92    1.54
   3  -3  10    0.78    1.28
   3  -3  10    2.78    1.54
  -4   3 -10    1.27    1.39
  -4   3 -10    2.14    1.34
   4  -3  10    0.00    1.50
   4  -3  10    1.06    1.46
  -5   3 -10   27.41    4.82
  -5   3 -10   24.24    3.20
  -5   3 -10   28.32    3.73
   5  -3  10   21.66    3.98
  -6   3 -10   -1.30    1.21
  -6   3 -10    0.55    1.70
   6  -3  10   -3.19    1.35
  11   2 -10    2.86    1.45
  11   2 -10   -0.89    1.33
  10   2 -10    2.52    1.75
  10   2 -10    5.42    1.54
  10   2 -10    0.03    2.83
   9   2 -10   21.34    3.16
   9   2 -10   15.98    2.57
   8   2 -10   22.67    3.12
   8   2 -10   21.79    3.04
   7   2 -10    3.80    1.38
   7   2 -10    2.13    1.14
   6   2 -10    1.83    0.95
   6   2 -10    0.68    0.75
  -6  -2  10    0.20    0.36
  -6  -2  10   -0.45    0.24
   5   2 -10   78.27    5.14
   5   2 -10   86.98    5.14
  -5  -2  10   84.50    4.13
  -5  -2  10   84.46    4.25
   4   2 -10   10.33    2.26
   4   2 -10    8.72    2.16
  -4  -2  10   15.36    2.48
   3   2 -10    2.98    1.36
   3   2 -10    3.46    1.51
  -3  -2  10    5.61    1.66
   2   2 -10   17.59    3.11
   2   2 -10   13.98    2.64
  -2  -2  10   11.84    2.40
  -2  -2  10   11.22    2.31
   1   2 -10   97.05    5.89
   1   2 -10   91.26    5.86
  -1  -2  10  102.89    5.97
  -1  -2  10   95.17    5.89
   0   2 -10   14.34    2.96
   0   2 -10   11.23    2.43
   0  -2  10   13.31    2.77
   0  -2  10   16.18    3.02
  -1   2 -10   16.69    3.09
  -1   2 -10   19.66    3.26
   1  -2  10   14.24    2.88
   1  -2  10   18.98    3.48
  -2   2 -10   28.99    3.28
  -2   2 -10   30.03    4.62
   2  -2  10   28.33    4.19
   2  -2  10   26.56    3.96
  -3   2 -10   -0.01    1.16
   3  -2  10   -2.24    0.79
   3  -2  10    0.15    1.07
  -4   2 -10    4.37    2.02
  -4   2 -10    3.29    1.54
   4  -2  10    1.83    1.67
   4  -2  10    0.00    1.55
  -5   2 -10    0.83    1.67
  -5   2 -10   -0.66    1.52
  -5   2 -10   -0.73    1.15
   5  -2  10    4.83    1.98
  -6   2 -10   42.15    6.60
  -6   2 -10   36.92    3.17
   6  -2  10   32.71    5.39
  11   1 -10    4.61    1.26
  11   1 -10   -0.17    1.42
  10   1 -10   11.56    2.01
  10   1 -10    4.56    1.82
  10   1 -10    3.69    3.83
   9   1 -10    4.42    1.59
   9   1 -10    5.54    1.57
   8   1 -10    4.34    1.48
   8   1 -10    2.48    1.15
   7   1 -10   26.00    3.51
   7   1 -10   27.24    2.86
   6   1 -10   12.73    2.39
   6   1 -10   10.46    2.27
  -6  -1  10   14.45    1.16
   5   1 -10    2.19    1.07
   5   1 -10   -0.02    0.81
  -5  -1  10   -0.10    0.69
  -5  -1  10   -0.04    0.71
   4   1 -10    7.39    2.02
   4   1 -10    9.97    2.30
  -4  -1  10    8.37    1.84
  -4  -1  10    6.25    1.63
   3   1 -10   36.55    3.72
   3   1 -10   43.34    3.81
  -3  -1  10   43.32    3.67
   2   1 -10    0.09    0.75
   2   1 -10    0.33    0.93
  -2  -1  10   -0.11    0.79
   1   1 -10   14.14    2.83
   1   1 -10    7.49    2.05
  -1  -1  10   11.44    2.60
  -1  -1  10   14.08    2.68
   0   1 -10   19.90    3.33
   0   1 -10   17.68    3.22
   0  -1  10   11.61    2.57
   0  -1  10   12.91    2.75
  -1   1 -10   23.97    3.69
  -1   1 -10   23.46    3.79
   1  -1  10   23.84    3.93
   1  -1  10   23.38    3.70
  -2   1 -10   32.93    5.08
  -2   1 -10   32.91    4.38
   2  -1  10   37.87    5.18
   2  -1  10   30.03    4.28
  -3   1 -10   -1.90    0.95
  -3   1 -10   -1.63    1.33
   3  -1  10    0.17    1.47
   3  -1  10    3.47    1.70
  -4   1 -10   -0.49    1.30
   4  -1  10    3.01    1.64
  -5   1 -10   17.89    3.72
   5  -1  10   15.42    3.52
  -6   1 -10   17.56    4.04
   6  -1  10   12.18    3.30
  11   0 -10    2.27    1.49
  11   0 -10    5.86    1.35
  10   0 -10    1.45    1.09
  10   0 -10   -0.31    1.15
  10   0 -10    1.27    2.96
   9   0 -10    6.11    1.86
   9   0 -10    4.89    1.60
   9   0 -10    2.64    2.40
   8   0 -10   38.09    3.44
   8   0 -10   34.97    3.24
   7   0 -10    4.82    1.57
   7   0 -10    8.41    2.11
   6   0 -10    1.10    1.20
   6   0 -10   -0.39    0.81
  -6   0  10    1.74    0.65
  -6   0  10    0.90    0.67
   5   0 -10   59.77    4.39
   5   0 -10   55.00    4.41
  -5   0  10   60.54    3.62
  -5   0  10   56.64    3.68
   4   0 -10   67.87    4.80
   4   0 -10   71.01    5.15
  -4   0  10   81.02    4.79
  -4   0  10   71.58    4.48
   3   0 -10   83.09    5.42
   3   0 -10   86.35    5.75
  -3   0  10   83.67    5.24
  -3   0  10   82.27    5.05
   2   0 -10    0.21    0.96
   2   0 -10   -1.46    0.77
  -2   0  10    0.43    0.66
   1   0 -10   29.17    4.01
   1   0 -10   27.63    3.96
  -1   0  10   26.46    3.84
   0   0 -10    6.30    2.18
   0   0 -10    5.84    2.07
   0   0  10    4.91    2.08
  -1   0 -10    2.99    1.59
  -1   0 -10    2.80    1.34
   1   0  10    3.36    1.55
  -2   0 -10   67.91    5.27
  -2   0 -10   69.21    5.32
   2   0  10   64.70    5.59
  -3   0 -10   -1.14    1.08
  -3   0 -10    0.79    1.66
   3   0  10   -0.48    1.25
  -4   0 -10   23.38    3.63
  -4   0 -10   22.90    3.80
  -4   0 -10   27.30    3.97
   4   0  10   30.22    4.95
  -5   0 -10    3.91    1.77
  -5   0 -10    1.33    1.74
  -5   0 -10   -3.18    1.73
   5   0  10   -1.50    2.00
  -6   0 -10   19.88    4.98
  11  -1 -10    2.77    1.37
  11  -1 -10    2.13    1.65
  10  -1 -10   18.95    3.13
  10  -1 -10   17.68    4.60
  10  -1 -10   11.56    2.52
   9  -1 -10   51.54    4.20
   9  -1 -10   54.54    4.14
   9  -1 -10   49.73    7.82
   8  -1 -10   30.18    3.11
   8  -1 -10   27.75    3.70
   7  -1 -10   53.26    4.09
   7  -1 -10   44.75    3.90
   6  -1 -10   27.54    3.80
   6  -1 -10   31.35    3.24
  -6   1  10   26.73    2.07
   5  -1 -10   16.62    2.95
   5  -1 -10   15.94    2.87
  -5   1  10   14.23    2.22
  -5   1  10   12.76    2.08
   4  -1 -10    7.63    2.25
   4  -1 -10    8.05    2.12
  -4   1  10   11.81    2.36
  -4   1  10    7.93    2.12
   3  -1 -10    2.45    1.26
   3  -1 -10    0.14    1.10
  -3   1  10   -0.07    0.91
  -3   1  10    0.43    1.07
   2  -1 -10    8.52    2.46
   2  -1 -10    8.97    2.42
  -2   1  10   10.13    2.36
  -2   1  10    8.75    2.09
   1  -1 -10    0.29    0.99
   1  -1 -10   -0.71    1.00
  -1   1  10    1.21    1.01
   0  -1 -10    8.85    2.32
   0  -1 -10    7.89    2.26
   0   1  10    7.40    2.10
   0   1  10    5.93    2.20
  -1  -1 -10    0.50    0.91
  -1  -1 -10    0.46    1.03
   1   1  10   -1.64    1.21
  -2  -1 -10    8.68    2.22
  -2  -1 -10    5.87    2.19
   2   1  10    4.92    2.00
   2   1  10    6.86    2.41
  -3  -1 -10   16.76    3.36
  -3  -1 -10   16.45    3.33
   3   1  10   20.94    3.87
  -4  -1 -10   13.38    2.53
  -4  -1 -10   15.82    3.28
  -4  -1 -10   13.97    3.11
   4   1  10   24.37    4.49
  -5  -1 -10   11.34    3.17
  -5  -1 -10    7.73    2.08
   5   1  10   12.58    3.20
  11  -2 -10    5.63    2.08
  10  -2 -10    5.60    3.89
  10  -2 -10    9.29    2.40
  10  -2 -10   12.46    2.33
   9  -2 -10   -1.24    1.80
   9  -2 -10    1.51    1.32
   9  -2 -10    0.41    1.20
   8  -2 -10   11.76    2.53
   8  -2 -10    9.84    2.25
   8  -2 -10   16.48    4.44
   7  -2 -10    9.12    2.11
   7  -2 -10    4.25    1.55
   6  -2 -10   24.89    3.75
   6  -2 -10   27.34    3.75
  -6   2  10   27.30    2.41
   5  -2 -10    3.98    1.65
   5  -2 -10    7.07    1.99
  -5   2  10    5.48    1.61
   4  -2 -10   -0.54    0.90
  -4   2  10    0.31    1.14
  -4   2  10    0.40    1.05
   3  -2 -10    3.86    1.84
   3  -2 -10    9.77    2.43
  -3   2  10    7.11    2.06
  -3   2  10    5.50    1.83
   2  -2 -10    5.37    1.85
   2  -2 -10    5.86    1.91
  -2   2  10    7.65    2.14
   1  -2 -10   20.38    3.65
   1  -2 -10   15.99    3.15
  -1   2  10   21.54    3.47
  -1   2  10   11.64    2.88
   0  -2 -10   15.19    3.04
   0  -2 -10   21.05    3.48
   0   2  10   18.98    3.57
  -1  -2 -10    2.71    1.40
  -1  -2 -10   -1.00    1.40
   1   2  10   -0.80    1.24
  -2  -2 -10   18.59    3.54
  -2  -2 -10   17.68    3.90
   2   2  10   11.99    3.07
  -3  -2 -10    0.60    1.68
  -3  -2 -10    1.19    1.69
  -3  -2 -10    2.05    1.00
   3   2  10    0.73    1.22
  -4  -2 -10   12.74    3.20
   4   2  10   13.02    3.21
  -5  -2 -10    3.29    2.14
  11  -3 -10    7.08    2.36
  10  -3 -10   37.30    7.19
  10  -3 -10   34.92    3.78
  10  -3 -10   33.77    4.47
   9  -3 -10   33.28    3.63
   9  -3 -10   29.42    7.25
   9  -3 -10   37.14    3.99
   8  -3 -10   10.50    3.83
   8  -3 -10   14.09    2.87
   8  -3 -10   12.79    2.80
   7  -3 -10    7.03    2.04
   7  -3 -10    7.26    2.00
   7  -3 -10   10.88    3.64
   6  -3 -10    2.44    1.44
   6  -3 -10    1.80    1.76
   6  -3 -10    0.65    1.17
  -6   3  10    1.55    1.05
  -6   3  10    4.74    1.37
   5  -3 -10    1.21    1.44
   5  -3 -10    0.65    0.86
  -5   3  10    2.26    1.17
  -5   3  10    2.21    1.29
   4  -3 -10   13.13    2.83
   4  -3 -10   10.73    2.54
  -4   3  10   12.37    2.59
  -4   3  10    9.33    2.28
   3  -3 -10    4.95    1.75
   3  -3 -10    2.15    1.34
  -3   3  10    3.16    1.59
  -3   3  10    3.41    2.24
   2  -3 -10    2.10    1.27
  -2   3  10   -1.52    1.15
  -2   3  10    0.45    1.32
   1  -3 -10   19.68    3.49
   1  -3 -10   20.97    3.79
  -1   3  10   22.42    3.97
   0  -3 -10   10.43    2.74
   0  -3 -10   14.78    3.05
   0   3  10    8.56    3.08
   0   3  10    6.69    2.35
  -1  -3 -10    9.49    2.98
  -1  -3 -10   10.86    2.86
   1   3  10   13.21    3.09
  -2  -3 -10    4.86    1.00
  -2  -3 -10   10.89    2.54
  -2  -3 -10    8.15    2.45
   2   3  10    3.57    1.55
  -3  -3 -10   61.11    5.20
  -3  -3 -10   50.48    5.29
   3   3  10   47.17    6.42
  -4  -3 -10   17.49    3.82
  -4  -3 -10   16.56    3.24
  -5  -3 -10   -0.13    2.62
  11  -4 -10    9.24    1.95
  10  -4 -10   32.66    4.48
  10  -4 -10   24.22    4.01
   9  -4 -10    7.04    2.53
   9  -4 -10    2.72    1.85
   9  -4 -10    3.57    2.63
   8  -4 -10    2.63    1.84
   8  -4 -10   -0.19    1.03
   8  -4 -10    2.36    2.19
   7  -4 -10   -2.68    1.25
   7  -4 -10   -1.90    0.81
   7  -4 -10    0.88    1.36
  -7   4  10    0.04    0.65
  -7   4  10   -0.57    1.13
   6  -4 -10   -2.15    1.05
   6  -4 -10   -1.62    1.15
   6  -4 -10    0.05    1.01
  -6   4  10   -1.01    1.02
   5  -4 -10    8.85    2.31
   5  -4 -10    8.54    2.99
   5  -4 -10    7.28    2.31
  -5   4  10    5.23    1.80
  -5   4  10    6.87    1.76
   4  -4 -10   39.05    5.20
   4  -4 -10   37.95    4.67
   4  -4 -10   42.74    4.36
  -4   4  10   37.60    3.98
  -4   4  10   40.99    4.19
   3  -4 -10   39.16    4.45
   3  -4 -10   37.39    4.16
   3  -4 -10   34.50    4.84
  -3   4  10   35.75    4.96
  -3   4  10   35.46    4.59
   2  -4 -10   37.59    5.15
   2  -4 -10   37.69    5.03
   2  -4 -10   35.27    3.89
  -2   4  10   39.91    5.34
  -2   4  10   30.96    4.54
   1  -4 -10   12.06    2.45
   1  -4 -10   11.71    3.14
   1  -4 -10   14.76    3.39
  -1   4  10   15.87    3.28
  -1   4  10   16.39    3.67
   0  -4 -10    3.94    2.03
   0  -4 -10    2.39    1.44
   0   4  10    4.29    2.25
  -1  -4 -10   15.37    3.19
   1   4  10   17.38    3.73
  -2  -4 -10   10.37    2.86
   2   4  10    5.58    2.70
  -3  -4 -10   -2.62    1.59
  -4  -4 -10   -1.45    2.35
  10  -5 -10    9.45    2.37
   9  -5 -10    7.05    3.35
   9  -5 -10   12.96    2.95
   8  -5 -10    2.77    1.88
   8  -5 -10    0.62    1.08
   7  -5 -10    5.92    2.44
   7  -5 -10    5.64    1.90
  -7   5  10    1.76    1.03
  -7   5  10    1.45    1.17
   6  -5 -10   10.72    3.16
   6  -5 -10    4.33    1.67
  -6   5  10    6.09    2.02
  -6   5  10    8.58    2.14
   5  -5 -10   -2.43    1.31
   5  -5 -10    0.02    1.05
  -5   5  10    0.54    1.26
  -5   5  10    2.69    1.58
   4  -5 -10    2.16    1.82
   4  -5 -10    6.28    2.36
  -4   5  10    2.11    1.71
  -4   5  10    6.70    2.15
   3  -5 -10   36.72    5.19
   3  -5 -10   34.16    3.99
  -3   5  10   38.12    5.03
  -3   5  10   44.59    4.71
   2  -5 -10   18.55    3.76
   2  -5 -10    9.83    2.24
  -2   5  10    4.51    2.18
   1  -5 -10   -0.40    0.79
   1  -5 -10    0.64    0.97
  -1   5  10   -4.01    1.26
   0  -5 -10   13.11    3.05
   1   5  10   20.69    4.38
  -2  -5 -10    3.36    2.57
  -3  -5 -10    0.12    1.98
  -4  -5 -10   -1.68    4.05
  10  -6 -10    8.64    2.97
   9  -6 -10    7.07    2.15
   8  -6 -10    3.11    2.89
   7  -6 -10    2.69    2.38
   7  -6 -10   -0.39    1.81
  -7   6  10    2.30    3.14
  -7   6  10    2.06    1.40
   6  -6 -10   10.22    3.41
   6  -6 -10   12.45    2.63
  -6   6  10   18.37    3.15
  -6   6  10    7.88    2.44
   5  -6 -10    3.26    1.68
   5  -6 -10    1.46    1.65
  -5   6  10   -0.81    1.41
   4  -6 -10   -1.73    1.28
   4  -6 -10    0.97    1.53
  -4   6  10    0.42    1.48
  -4   6  10    0.72    2.34
   3  -6 -10    3.68    1.78
  -3   6  10    3.11    2.03
   2  -6 -10    7.47    1.92
   2  -6 -10    6.72    2.49
  -2   6  10    5.59    2.27
   1  -6 -10   11.65    3.21
  -1   6  10    7.89    2.92
   0  -6 -10    3.66    2.04
   0   6  10   -0.26    2.00
  -1  -6 -10   11.21    3.33
   8  -7 -10    2.84    2.77
   7  -7 -10   15.93    3.68
  -7   7  10   14.99    3.77
   6  -7 -10   38.97    6.17
   6  -7 -10   42.70    6.16
   5  -7 -10   10.14    3.24
   5  -7 -10   16.90    3.70
  -5   7  10   10.94    2.71
   4  -7 -10   36.52    5.57
  -4   7  10   51.62    5.31
  -3   7  10    1.94    2.06
  -2   7  10   19.11    4.18
  -6   8  10   -0.83    2.29
  -5   8  10   11.39    3.17
  -4   8  10   -0.06    1.63
  -5 -11  11    4.55    3.12
  -4 -11  11   -2.12    2.45
  -3 -11  11   20.19    3.99
  -2 -11  11    5.25    2.75
  -1 -11  11   -1.18    1.83
  -5 -10  11   -3.44    2.06
   4  10 -11   13.66    3.24
  -4 -10  11    8.53    2.89
  -4 -10  11   16.97    3.90
   3  10 -11   10.60    2.94
  -3 -10  11   11.18    3.23
   2  10 -11    1.34    1.66
  -2 -10  11    3.67    2.34
   1  10 -11   -2.58    1.24
   0  10 -11   -1.20    0.88
   0 -10  11    2.47    1.79
  -1  10 -11   -0.30    1.65
   1 -10  11   -1.04    0.77
  -2  10 -11    6.40    1.99
  -3  10 -11    7.70    2.66
  -4  10 -11   12.30    2.82
  -5  10 -11    5.45    3.53
   7   9 -11   31.77    5.84
   6   9 -11    5.94    2.10
  -6  -9  11   -2.05    3.71
  -6  -9  11    1.65    1.59
   5   9 -11    4.66    1.71
  -5  -9  11    1.29    1.75
  -5  -9  11    3.78    2.20
  -4  -9  11    3.82    1.92
   3   9 -11   -1.01    1.14
  -3  -9  11    2.59    1.73
  -3  -9  11   -0.17    1.65
   2   9 -11    5.76    2.35
  -2  -9  11    9.48    2.79
   1   9 -11    3.81    2.07
  -1  -9  11    3.82    1.88
   0   9 -11    9.75    2.40
   0  -9  11    8.25    2.79
  -1   9 -11    2.24    1.21
  -2   9 -11    2.49    1.86
   2  -9  11    3.91    2.25
  -3   9 -11    1.86    1.87
   3  -9  11   -2.22    1.51
  -4   9 -11    3.52    2.36
  -5   9 -11   -4.34    2.00
   8   8 -11   -1.60    1.58
   6   8 -11    4.95    2.23
  -6  -8  11    4.04    1.53
  -6  -8  11    6.19    1.78
   5   8 -11   17.14    3.71
  -5  -8  11   15.92    2.93
  -5  -8  11   20.04    3.08
   4   8 -11    1.73    1.37
  -4  -8  11    0.98    1.76
  -4  -8  11   -0.09    1.59
   3   8 -11    0.25    1.22
  -3  -8  11    1.35    1.70
  -3  -8  11   -0.39    1.40
   2   8 -11   -0.65    0.57
  -2  -8  11   -1.72    1.22
  -2  -8  11    1.77    1.38
   1   8 -11    2.44    1.72
  -1  -8  11    0.25    1.53
  -1  -8  11    3.92    2.09
   0   8 -11   20.48    3.90
   0  -8  11   15.27    3.72
  -1   8 -11    1.18    1.35
   1  -8  11    2.39    1.82
  -2   8 -11    5.76    2.20
   2  -8  11    4.04    1.97
  -3   8 -11    3.48    1.85
   3  -8  11    1.67    1.08
  -4   8 -11   21.23    4.13
   4  -8  11   22.14    4.21
  -5   8 -11   11.15    2.79
  -5   8 -11    6.06    3.84
  10   7 -11   21.86    3.59
   8   7 -11    0.22    1.48
   7   7 -11    1.24    1.00
   6   7 -11   12.18    2.66
   6   7 -11   13.91    3.64
  -6  -7  11   13.11    2.08
   5   7 -11   18.13    3.57
   5   7 -11   16.25    3.29
  -5  -7  11   18.82    2.93
  -5  -7  11   17.78    3.02
   4   7 -11    2.37    1.24
   4   7 -11    2.02    1.12
  -4  -7  11    3.77    1.70
  -4  -7  11   -0.74    1.06
   3   7 -11    7.76    2.15
   3   7 -11   12.25    2.86
  -3  -7  11    6.62    2.05
  -3  -7  11    4.18    1.86
   2   7 -11    4.48    1.79
   2   7 -11   -0.97    1.31
  -2  -7  11    1.38    1.45
  -2  -7  11    1.62    1.25
   1   7 -11   -0.04    1.62
   1   7 -11    2.83    1.30
  -1  -7  11    0.78    1.46
  -1  -7  11    0.03    1.29
   0   7 -11  125.05    7.71
   0   7 -11  109.91    7.59
   0  -7  11  110.59    7.16
   0  -7  11  106.06    7.24
  -1   7 -11    0.05    1.36
  -1   7 -11    0.55    0.95
   1  -7  11   -0.31    0.79
  -2   7 -11    3.79    1.81
  -2   7 -11    2.75    2.04
   2  -7  11    3.54    2.06
  -3   7 -11   24.49    3.87
  -3   7 -11   19.44    3.69
   3  -7  11   23.77    4.37
  -4   7 -11    0.01    2.09
  -4   7 -11    6.76    2.27
   4  -7  11    1.01    1.34
  -5   7 -11    0.32    1.56
  -5   7 -11    1.77    3.92
  10   6 -11    2.70    1.76
   9   6 -11    1.35    1.46
   8   6 -11    2.70    1.84
   8   6 -11    4.29    1.94
   7   6 -11    5.45    1.85
   7   6 -11    1.65    1.50
   6   6 -11    3.79    1.72
   6   6 -11    5.25    1.75
  -6  -6  11    4.05    1.26
   5   6 -11    0.12    1.03
  -5  -6  11    1.60    1.21
   4   6 -11   13.29    2.97
   4   6 -11   16.10    3.22
  -4  -6  11   11.65    2.37
  -4  -6  11   17.25    2.80
   3   6 -11    1.29    1.32
   3   6 -11    3.90    1.72
  -3  -6  11    2.97    1.41
  -3  -6  11   -0.23    1.15
   2   6 -11    8.73    2.40
   2   6 -11   10.68    2.70
  -2  -6  11   16.56    3.26
  -2  -6  11   12.62    2.82
   1   6 -11    4.44    1.99
   1   6 -11    4.04    1.92
  -1  -6  11    2.77    1.54
  -1  -6  11   10.20    2.60
   0   6 -11    9.80    2.66
   0  -6  11    6.98    2.50
  -1   6 -11   19.68    3.77
  -1   6 -11   26.71    4.23
   1  -6  11   21.99    3.87
   1  -6  11   25.44    3.97
  -2   6 -11   17.63    3.39
  -2   6 -11   19.34    3.58
   2  -6  11   16.53    3.46
  -3   6 -11    1.11    1.45
  -3   6 -11    0.51    1.55
   3  -6  11   -0.78    1.68
  -4   6 -11   -1.43    1.54
  -4   6 -11   -1.51    1.11
   4  -6  11   -0.72    1.65
  -5   6 -11   12.53    3.19
  -5   6 -11    9.35    2.70
   5  -6  11   13.78    3.47
  -6   6 -11    1.60    2.38
  11   5 -11   10.70    2.78
  10   5 -11   -0.97    1.38
  10   5 -11    0.24    2.25
   9   5 -11   -0.20    2.04
   9   5 -11    2.48    1.47
   8   5 -11    1.32    1.45
   8   5 -11   -1.41    1.62
   7   5 -11    9.55    2.52
   7   5 -11   11.07    2.63
   6   5 -11    5.84    2.17
   6   5 -11   13.27    2.75
  -6  -5  11    7.48    1.52
   5   5 -11    1.45    1.23
   5   5 -11    1.11    1.13
  -5  -5  11   -1.45    0.78
  -5  -5  11   -1.23    0.69
   4   5 -11   34.44    3.83
   4   5 -11   32.62    4.35
  -4  -5  11   31.43    3.24
  -4  -5  11   28.22    3.04
   3   5 -11    2.45    1.54
   3   5 -11    1.52    1.21
  -3  -5  11    0.67    1.13
  -3  -5  11    0.89    1.15
   2   5 -11    0.75    0.97
   2   5 -11    0.39    1.31
  -2  -5  11    0.43    1.38
  -2  -5  11    0.99    0.84
   1   5 -11   23.17    3.97
   1   5 -11   25.84    3.98
  -1  -5  11   18.61    3.31
  -1  -5  11   22.62    3.84
   0   5 -11   -0.49    0.74
   0   5 -11    0.07    1.42
   0  -5  11    1.54    1.11
   0  -5  11   -1.50    0.95
  -1   5 -11    1.76    1.48
  -1   5 -11    1.96    1.46
   1  -5  11   -1.23    0.90
   1  -5  11    2.71    1.41
  -2   5 -11   -0.74    1.17
  -2   5 -11    2.50    1.77
   2  -5  11   -0.56    1.40
   2  -5  11    0.56    1.21
  -3   5 -11   12.57    2.98
  -3   5 -11   11.06    3.53
   3  -5  11   16.27    3.60
  -4   5 -11    3.61    1.94
  -4   5 -11    2.03    1.98
   4  -5  11    5.28    1.89
  -5   5 -11   -0.05    1.33
  -5   5 -11    0.03    2.23
   5  -5  11    0.45    1.57
  -6   5 -11    7.73    2.38
  11   4 -11    6.16    1.94
  10   4 -11    6.26    1.87
   9   4 -11    6.16    1.91
   9   4 -11    9.16    2.23
   8   4 -11   11.47    2.58
   8   4 -11    9.39    2.46
   7   4 -11    2.19    1.46
   6   4 -11   -0.12    0.98
  -6  -4  11   -0.34    0.58
   5   4 -11   24.97    3.85
  -5  -4  11   25.74    2.65
   4   4 -11    5.18    1.73
  -4  -4  11    4.65    1.49
  -4  -4  11    4.12    1.61
   3   4 -11    0.99    1.33
   3   4 -11    3.65    1.62
  -3  -4  11    3.51    1.54
  -3  -4  11    1.36    1.28
   2   4 -11    5.59    1.81
   2   4 -11    1.77    1.41
  -2  -4  11    2.13    1.22
  -2  -4  11    1.13    1.21
   1   4 -11    6.18    1.93
   1   4 -11   -0.33    0.81
  -1  -4  11    3.05    1.55
  -1  -4  11    2.67    1.53
   0   4 -11    0.16    1.06
   0   4 -11   -2.82    1.07
   0  -4  11   -0.29    0.84
   0  -4  11   -0.37    0.66
  -1   4 -11   -1.90    0.89
  -1   4 -11   -0.77    1.11
   1  -4  11    0.98    1.20
  -2   4 -11   -0.07    1.72
  -2   4 -11    3.82    1.76
   2  -4  11    4.46    1.79
   2  -4  11    6.86    2.47
  -3   4 -11   -0.86    1.16
  -3   4 -11    1.00    1.61
   3  -4  11    0.24    1.22
  -4   4 -11   25.90    3.92
  -4   4 -11   29.08    4.18
   4  -4  11   21.64    4.17
  -5   4 -11   20.64    3.87
  -5   4 -11   17.13    3.35
   5  -4  11   24.68    4.43
  -6   4 -11   17.47    2.98
  11   3 -11   -0.35    1.43
  10   3 -11    7.17    1.76
  10   3 -11    4.23    1.97
   9   3 -11   17.17    3.00
   8   3 -11   55.43    4.47
   8   3 -11   63.15    4.63
   7   3 -11    7.53    2.04
   7   3 -11    3.80    1.65
   6   3 -11   16.95    2.87
   6   3 -11   17.34    2.90
  -6  -3  11   14.07    1.50
  -6  -3  11   15.68    2.22
   5   3 -11   39.70    3.79
   5   3 -11   35.55    3.67
  -5  -3  11   42.00    3.29
  -5  -3  11   41.63    3.31
   4   3 -11    2.36    1.32
   4   3 -11    3.49    1.36
  -4  -3  11    3.77    1.33
  -4  -3  11    3.28    1.43
   3   3 -11    0.17    0.71
   3   3 -11   -0.10    0.98
  -3  -3  11    2.22    1.00
  -3  -3  11    1.31    1.03
   2   3 -11    5.50    1.92
  -2  -3  11    1.47    1.27
  -2  -3  11   -0.07    0.95
   1   3 -11   34.06    3.74
   1   3 -11   36.15    3.98
  -1  -3  11   32.69    4.30
   0   3 -11    5.21    1.87
   0   3 -11    2.50    1.39
   0  -3  11    6.69    2.10
   0  -3  11    4.05    1.60
  -1   3 -11    3.53    1.69
  -1   3 -11   -0.60    0.62
   1  -3  11    0.09    1.30
   1  -3  11    0.57    1.08
  -2   3 -11   -1.35    1.13
  -2   3 -11    0.61    1.19
   2  -3  11   -0.21    1.19
   2  -3  11   -0.46    0.97
  -3   3 -11    5.02    2.06
  -3   3 -11    5.52    2.41
   3  -3  11    4.73    1.82
  -4   3 -11   22.12    3.96
  -4   3 -11   32.26    4.34
   4  -3  11   21.24    4.18
  -5   3 -11    1.46    2.42
  -5   3 -11    1.42    2.17
  -5   3 -11   -1.18    1.83
   5  -3  11    5.46    2.27
  -6   3 -11    7.52    2.25
  11   2 -11    3.20    1.79
  10   2 -11   -2.17    1.56
  10   2 -11    3.41    1.18
   9   2 -11   19.99    3.12
   9   2 -11   18.79    3.07
   8   2 -11    1.04    1.14
   8   2 -11    2.01    1.08
   7   2 -11    0.62    0.67
   7   2 -11   -1.64    1.05
   6   2 -11    7.54    1.95
   6   2 -11    4.57    1.58
  -6  -2  11    3.44    1.12
  -6  -2  11    2.64    0.82
   5   2 -11   66.00    5.08
   5   2 -11   81.41    5.27
  -5  -2  11   75.44    4.30
  -5  -2  11   81.11    4.53
   4   2 -11   13.36    2.73
   4   2 -11   15.93    2.89
  -4  -2  11   17.97    2.86
   3   2 -11   -1.78    0.90
   3   2 -11    0.07    0.91
  -3  -2  11   -1.26    0.81
  -3  -2  11    0.49    1.09
   2   2 -11    5.86    2.00
  -2  -2  11   10.73    2.46
  -2  -2  11    7.37    2.12
   1   2 -11    0.87    1.11
   1   2 -11    0.20    0.90
  -1  -2  11    0.48    1.16
   0   2 -11   21.28    3.48
   0   2 -11   24.40    3.93
   0  -2  11   19.68    3.54
   0  -2  11   24.40    3.90
  -1   2 -11   -0.12    0.89
  -1   2 -11   -0.79    1.11
   1  -2  11   -0.94    1.13
  -2   2 -11   28.30    4.03
  -2   2 -11   27.30    3.97
   2  -2  11   21.75    4.02
   2  -2  11   29.83    4.44
  -3   2 -11   23.78    3.97
  -3   2 -11   20.67    3.60
   3  -2  11   25.25    4.61
  -4   2 -11   -0.60    1.56
  -4   2 -11    1.90    2.03
   4  -2  11   -0.26    1.45
  -5   2 -11   33.17    4.47
  -5   2 -11   31.42    4.27
   5  -2  11   28.15    4.70
  11   1 -11   -0.29    1.67
  10   1 -11    7.53    3.55
  10   1 -11    8.12    2.00
  10   1 -11    2.64    1.85
   9   1 -11    5.01    1.87
   9   1 -11    3.21    1.62
   8   1 -11   -0.34    1.12
   8   1 -11    1.01    1.10
   7   1 -11    3.17    1.49
   7   1 -11    7.14    1.81
   6   1 -11   39.08    3.89
   6   1 -11   39.09    3.65
   5   1 -11   -1.12    0.80
   5   1 -11   -0.15    0.64
  -5  -1  11    0.03    0.80
  -5  -1  11    0.02    0.85
   4   1 -11    6.66    2.06
   4   1 -11    7.11    2.06
  -4  -1  11    6.91    1.73
  -4  -1  11    4.67    1.56
   3   1 -11    7.79    2.48
   3   1 -11    6.79    2.05
  -3  -1  11    6.89    1.93
  -3  -1  11   10.15    2.34
   2   1 -11    6.37    2.16
   2   1 -11    6.85    2.06
  -2  -1  11    7.54    2.10
   1   1 -11   21.19    3.53
   1   1 -11   15.95    3.25
  -1  -1  11   18.42    3.19
  -1  -1  11   11.72    2.76
   0   1 -11    4.36    1.46
   0   1 -11    2.39    1.61
   0  -1  11    3.62    1.65
   0  -1  11    5.21    1.92
  -1   1 -11   23.67    3.79
  -1   1 -11   23.51    3.83
   1  -1  11   22.94    3.97
   1  -1  11   16.99    3.30
  -2   1 -11   14.60    2.95
  -2   1 -11   13.47    2.92
   2  -1  11    9.19    2.65
   2  -1  11   12.90    3.25
  -3   1 -11    3.31    1.62
  -3   1 -11    1.45    1.48
   3  -1  11    7.34    2.22
  -4   1 -11   15.62    3.04
  -4   1 -11    7.77    2.69
   4  -1  11   12.31    3.48
  -5   1 -11   -5.17    2.19
  -5   1 -11    0.77    1.83
  -5   1 -11   -3.77    2.47
   5  -1  11    0.93    1.67
  11   0 -11   -1.97    1.56
  10   0 -11    2.10    2.42
  10   0 -11   -1.37    1.56
  10   0 -11    3.18    1.35
   9   0 -11   39.88    4.17
   9   0 -11   44.61    3.96
   8   0 -11   11.10    2.53
   8   0 -11   13.01    2.91
   7   0 -11   56.50    4.46
   7   0 -11   49.14    4.33
   6   0 -11   27.46    3.97
   6   0 -11   30.83    3.35
  -6   0  11   24.65    2.26
   5   0 -11    0.30    1.38
   5   0 -11    5.15    1.71
  -5   0  11    2.31    1.16
  -5   0  11    2.69    1.05
   4   0 -11   11.62    2.82
  -4   0  11    9.61    2.22
  -4   0  11    7.64    1.98
   3   0 -11   33.49    3.76
   3   0 -11   37.69    3.91
  -3   0  11   33.99    3.62
  -3   0  11   35.48    3.55
   2   0 -11   69.69    5.31
   2   0 -11   63.81    5.42
  -2   0  11   67.72    5.24
  -2   0  11   75.24    6.49
   1   0 -11   -0.06    1.05
   1   0 -11    0.97    1.24
  -1   0  11   -0.71    0.99
  -1   0  11    0.09    1.23
   0   0 -11    1.54    1.49
   0   0 -11    0.87    0.84
   0   0  11   -0.58    0.95
  -1   0 -11   12.83    2.73
  -1   0 -11   18.78    4.26
   1   0  11   12.76    2.97
  -2   0 -11    0.29    1.22
  -2   0 -11   -2.41    1.36
   2   0  11    2.15    1.74
  -3   0 -11   -0.96    1.18
  -3   0 -11   -0.20    1.45
   3   0  11    1.74    1.59
  -4   0 -11    1.66    1.72
  -4   0 -11    8.57    2.55
   4   0  11    5.45    2.18
  -5   0 -11   25.02    3.73
  -5   0 -11   15.11    3.83
  -5   0 -11   22.88    4.53
  11  -1 -11   11.35    2.52
  11  -1 -11   10.94    2.27
  10  -1 -11   10.62    2.33
  10  -1 -11    9.18    3.78
  10  -1 -11    5.61    2.31
   9  -1 -11    3.61    1.76
   9  -1 -11    5.88    2.26
   9  -1 -11    6.83    4.56
   8  -1 -11    2.97    1.76
   7  -1 -11    1.69    1.35
   7  -1 -11    4.49    1.73
   6  -1 -11   16.67    3.07
   6  -1 -11   14.32    3.00
  -6   1  11   14.80    2.22
  -6   1  11   13.56    2.02
   5  -1 -11    7.24    2.20
   5  -1 -11   17.05    3.22
  -5   1  11   13.28    2.44
   4  -1 -11   18.77    3.44
   4  -1 -11   13.80    3.00
  -4   1  11   16.07    2.77
  -4   1  11   15.82    3.03
   3  -1 -11   91.25    6.18
   3  -1 -11   82.93    6.06
  -3   1  11   94.97    5.93
  -3   1  11   91.09    5.97
   2  -1 -11    3.11    1.57
   2  -1 -11    4.92    1.53
  -2   1  11    2.84    1.44
  -2   1  11    5.94    2.01
   1  -1 -11    9.92    3.20
   1  -1 -11   13.58    3.04
  -1   1  11   13.55    2.95
  -1   1  11   14.07    2.96
   0  -1 -11   47.66    4.51
   0  -1 -11   52.84    5.01
   0   1  11   58.52    5.21
   0   1  11   52.22    5.00
  -1  -1 -11    5.57    1.70
  -1  -1 -11    7.81    2.46
   1   1  11    4.17    2.02
   1   1  11    5.24    1.81
  -2  -1 -11   32.87    4.78
  -2  -1 -11   31.54    4.74
   2   1  11   32.41    4.94
  -3  -1 -11    0.50    1.92
  -3  -1 -11   -1.80    1.25
   3   1  11   -0.42    1.56
  -4  -1 -11    3.98    1.94
  -4  -1 -11   -4.51    2.30
   4   1  11    2.78    1.77
  -5  -1 -11    2.25    2.47
  11  -2 -11    1.76    2.47
  11  -2 -11   13.11    2.45
  10  -2 -11   16.38    2.90
  10  -2 -11   17.14    5.78
   9  -2 -11   -0.03    1.74
   9  -2 -11   -2.39    0.81
   9  -2 -11    1.78    1.39
   8  -2 -11    2.20    1.58
   8  -2 -11    1.04    1.61
   8  -2 -11    3.27    1.49
   7  -2 -11    1.76    1.36
   7  -2 -11    2.96    1.40
   6  -2 -11   22.38    3.63
   6  -2 -11   14.82    2.93
  -6   2  11   20.55    2.81
  -6   2  11   16.15    2.29
   5  -2 -11   54.93    4.89
   5  -2 -11   45.78    4.48
  -5   2  11   50.99    4.11
  -5   2  11   42.53    3.68
   4  -2 -11   15.75    3.14
   4  -2 -11   14.34    3.11
  -4   2  11   13.33    2.77
  -4   2  11   18.29    3.20
   3  -2 -11    1.72    1.30
  -3   2  11    3.68    1.58
  -3   2  11    1.77    1.46
   2  -2 -11   46.91    4.73
   2  -2 -11   42.26    4.26
  -2   2  11   44.26    4.53
  -2   2  11   42.39    4.40
   1  -2 -11    4.15    1.80
   1  -2 -11    3.60    1.88
  -1   2  11    3.66    1.55
  -1   2  11    3.30    1.98
   0  -2 -11   14.49    3.01
   0  -2 -11   15.60    3.28
   0   2  11   12.54    2.72
   0   2  11   16.82    3.41
  -1  -2 -11    9.67    2.82
  -1  -2 -11    8.11    2.65
   1   2  11    9.67    2.74
  -2  -2 -11    3.49    2.16
  -3  -2 -11    2.21    1.24
  -3  -2 -11    3.59    2.07
   3   2  11    5.70    2.24
  -4  -2 -11    3.05    2.01
  11  -3 -11   16.59    2.92
  10  -3 -11    5.22    2.28
  10  -3 -11   -0.01    1.44
   9  -3 -11    4.26    2.13
   9  -3 -11    9.91    2.97
   9  -3 -11    8.57    3.39
   8  -3 -11    4.33    1.78
   8  -3 -11    2.91    2.14
   8  -3 -11    4.02    2.91
   7  -3 -11    5.64    2.49
   7  -3 -11    7.39    2.31
   7  -3 -11    7.14    3.37
  -7   3  11   11.84    2.39
  -7   3  11    6.44    1.20
   6  -3 -11    2.03    1.94
   6  -3 -11    4.01    1.96
   6  -3 -11    2.96    2.45
  -6   3  11    3.17    1.40
   5  -3 -11    8.41    2.11
   5  -3 -11    4.83    2.10
  -5   3  11    6.06    1.83
  -5   3  11    5.51    2.03
   4  -3 -11    5.71    2.00
   4  -3 -11    3.11    2.37
  -4   3  11    5.00    1.91
  -4   3  11    4.53    1.78
   3  -3 -11   36.27    5.06
   3  -3 -11   36.76    5.03
  -3   3  11   42.66    4.45
  -3   3  11   38.01    5.06
   2  -3 -11   14.11    2.88
   2  -3 -11   11.31    2.88
  -2   3  11    9.75    2.54
  -2   3  11    9.90    2.69
   1  -3 -11    5.51    2.23
  -1   3  11    4.07    2.63
  -1   3  11    9.19    2.77
   0  -3 -11   12.32    3.13
   0   3  11   16.72    3.51
  -1  -3 -11   -0.12    1.25
  -2  -3 -11    1.08    1.65
  -2  -3 -11    0.16    0.73
   2   3  11   -0.05    1.51
  -3  -3 -11    4.02    2.59
  -4  -3 -11    5.47    3.18
  11  -4 -11    2.22    1.90
  10  -4 -11   10.98    2.55
   9  -4 -11    4.43    3.30
   9  -4 -11    8.93    2.35
   8  -4 -11   15.47    3.26
   8  -4 -11   18.84    5.18
   7  -4 -11    2.36    2.21
   7  -4 -11    1.62    1.41
  -7   4  11    4.37    1.53
  -7   4  11    2.33    1.15
   6  -4 -11    2.65    1.61
   6  -4 -11    8.94    3.43
  -6   4  11    5.44    1.82
  -6   4  11    1.05    1.60
   5  -4 -11    0.76    1.81
   5  -4 -11   -2.60    0.83
  -5   4  11    1.21    1.51
  -5   4  11    3.29    1.61
   4  -4 -11   92.36    6.90
  -4   4  11   85.48    6.30
  -4   4  11   77.64    6.05
   3  -4 -11    7.24    2.62
   3  -4 -11    9.54    2.83
  -3   4  11   13.21    2.99
  -3   4  11    8.59    2.40
   2  -4 -11   15.53    3.44
   2  -4 -11   13.49    2.99
  -2   4  11   11.61    3.23
   1  -4 -11    7.08    2.25
   1  -4 -11    2.99    1.48
  -1   4  11    5.15    2.37
   0  -4 -11    2.63    1.30
   0  -4 -11    4.79    2.17
   1   4  11    1.54    1.83
  -2  -4 -11    0.27    1.74
  -3  -4 -11    2.43    2.95
  11  -5 -11    2.27    2.35
  10  -5 -11   -2.44    1.66
   8  -5 -11    9.47    2.34
   8  -5 -11    9.83    4.02
   7  -5 -11   -0.03    1.21
   7  -5 -11    2.32    2.37
  -7   5  11    0.31    1.28
  -7   5  11    0.56    1.45
   6  -5 -11   30.51    4.70
   6  -5 -11   35.62    5.99
  -6   5  11   27.81    3.72
   5  -5 -11    2.60    2.00
   5  -5 -11    1.31    1.59
  -5   5  11    4.15    1.82
  -5   5  11    1.16    2.43
   4  -5 -11   19.73    3.94
   4  -5 -11   22.87    4.29
  -4   5  11   22.11    4.08
  -4   5  11   22.49    4.11
   3  -5 -11    1.38    1.47
  -3   5  11    0.00    1.50
   2  -5 -11    2.79    1.57
   2  -5 -11    3.09    1.68
  -2   5  11    3.35    1.61
   1  -5 -11    3.26    1.89
   1  -5 -11    1.06    1.18
  -1   5  11    0.88    1.84
   0  -5 -11    2.09    1.81
   0   5  11    2.46    1.83
  -1  -5 -11   22.30    4.30
   8  -6 -11   -1.87    2.77
   8  -6 -11   -0.98    1.39
   7  -6 -11    1.04    1.33
   7  -6 -11    0.72    2.67
  -7   6  11   -0.52    2.78
  -7   6  11    0.06    1.70
   6  -6 -11    9.49    2.42
   6  -6 -11   20.19    4.26
  -6   6  11   12.69    3.04
  -6   6  11    6.71    2.20
   5  -6 -11    1.38    1.22
   5  -6 -11    3.62    2.00
  -5   6  11    3.01    1.88
  -5   6  11    0.86    2.30
   4  -6 -11   31.02    4.96
   4  -6 -11   26.17    4.53
  -4   6  11   29.01    5.10
   3  -6 -11    4.45    2.60
   3  -6 -11    2.10    1.54
  -3   6  11    5.54    2.27
  -2   6  11   -0.07    1.88
   7  -7 -11   10.66    4.15
  -7   7  11   10.92    3.08
   6  -7 -11   10.20    3.88
  -6   7  11    9.03    2.98
   5  -7 -11   -2.69    2.12
  -5   7  11    4.06    2.48
  -4   7  11    5.75    2.35
  -6   8  11    9.97    5.04
  -5 -11  12   -4.60    4.08
  -4 -11  12   -3.36    2.45
  -3 -11  12   10.08    2.72
  -5 -10  12    4.00    2.59
  -4 -10  12    2.93    2.03
  -3 -10  12    0.08    1.70
  -2 -10  12   15.76    3.71
  -1 -10  12    2.15    1.74
   0 -10  12   -1.59    1.71
   6   9 -12    3.57    2.01
  -6  -9  12    0.39    1.92
   5   9 -12   -0.35    1.76
  -5  -9  12    0.22    1.49
  -5  -9  12    5.95    2.44
   4   9 -12   23.12    4.05
  -4  -9  12   24.45    3.91
  -4  -9  12   16.27    3.62
   3   9 -12    1.84    1.58
  -3  -9  12    1.41    1.52
   2   9 -12    9.45    2.94
  -2  -9  12    6.93    2.58
   1   9 -12    2.00    1.90
  -1  -9  12    2.04    1.48
   0   9 -12   10.87    3.05
   0  -9  12   10.40    3.08
  -1   9 -12    7.54    2.71
   1  -9  12    7.52    2.55
  -2   9 -12    4.25    2.14
  -3   9 -12   10.45    3.22
  -4   9 -12   -1.27    2.15
  -5   9 -12   -1.35    3.00
   8   8 -12   -0.02    1.94
   7   8 -12    1.48    1.83
  -5  -8  12    1.98    1.92
   4   8 -12    0.92    0.81
  -4  -8  12    1.91    1.36
  -4  -8  12   -0.77    1.36
   3   8 -12    3.65    1.81
  -3  -8  12    1.44    1.48
  -3  -8  12    3.39    2.03
   2   8 -12    0.83    0.88
  -2  -8  12   -2.15    1.47
   1   8 -12    1.13    1.39
  -1  -8  12    2.07    1.53
   0   8 -12    3.20    1.83
   0  -8  12   -1.81    1.41
  -1   8 -12    9.92    2.95
  -2   8 -12   10.97    2.96
   2  -8  12   12.41    3.37
  -3   8 -12   -1.24    1.49
  -4   8 -12    3.28    2.00
  -5   8 -12    1.56    2.54
   9   7 -12    1.52    1.78
   8   7 -12    3.86    1.75
   7   7 -12    3.63    1.77
   6   7 -12    0.00    0.80
  -6  -7  12    0.90    1.12
   5   7 -12    0.56    0.91
  -5  -7  12    2.37    1.64
  -5  -7  12    1.19    1.46
   4   7 -12    6.14    2.10
  -4  -7  12    5.40    2.00
  -4  -7  12    4.40    1.97
   3   7 -12    1.95    1.31
  -3  -7  12   -1.31    1.22
  -3  -7  12    3.27    1.49
   2   7 -12    5.57    2.17
  -2  -7  12    5.15    2.17
  -2  -7  12    7.34    2.42
   1   7 -12   45.28    4.86
  -1  -7  12   41.97    4.67
  -1  -7  12   52.58    5.17
   0   7 -12    0.76    0.95
   0  -7  12   -0.49    1.09
  -1   7 -12    4.89    1.94
   1  -7  12    1.80    1.89
  -2   7 -12    6.34    2.07
  -3   7 -12   -0.17    1.88
   3  -7  12   -2.09    1.12
  -4   7 -12    2.92    1.84
  -5   7 -12   24.45    4.15
   9   6 -12    3.38    2.02
   8   6 -12    1.73    1.42
   7   6 -12   24.37    3.92
   6   6 -12   15.50    3.14
   6   6 -12   16.18    3.21
   5   6 -12   32.62    4.61
   5   6 -12   25.82    3.98
  -5  -6  12   32.89    3.35
  -5  -6  12   29.23    3.30
   4   6 -12   13.61    3.14
   4   6 -12   11.33    2.55
  -4  -6  12   12.82    2.71
  -4  -6  12   13.05    2.50
   3   6 -12   -3.29    1.27
   3   6 -12    0.84    1.40
  -3  -6  12    1.08    1.37
  -3  -6  12    1.64    1.54
   2   6 -12    4.19    1.98
   2   6 -12    5.22    2.12
  -2  -6  12    4.37    1.99
  -2  -6  12    6.58    2.16
   1   6 -12    1.42    1.55
   1   6 -12    1.35    1.73
  -1  -6  12    0.07    1.41
  -1  -6  12   -1.50    1.05
   0   6 -12   53.91    5.05
   0   6 -12   56.85    5.65
   0  -6  12   54.26    5.42
   0  -6  12   56.72    5.15
  -1   6 -12   21.43    3.85
  -1   6 -12   21.36    4.10
   1  -6  12   20.14    3.84
  -2   6 -12    4.71    3.02
  -2   6 -12    7.58    2.33
   2  -6  12    6.28    2.29
  -3   6 -12    4.46    2.02
   3  -6  12    1.94    1.71
  -4   6 -12   21.40    5.21
  -4   6 -12   27.44    4.38
   4  -6  12   19.32    3.95
  -5   6 -12    6.26    3.68
  -5   6 -12   -4.06    1.99
  11   5 -12   13.30    3.23
  10   5 -12    0.37    1.19
   9   5 -12    1.78    1.74
   8   5 -12    9.75    2.52
   8   5 -12   12.28    2.68
   7   5 -12   11.94    2.80
   7   5 -12    9.30    2.37
   6   5 -12   -2.06    0.99
   6   5 -12    2.03    1.68
  -6  -5  12   -0.51    0.84
   5   5 -12   15.79    3.15
   5   5 -12   12.77    2.83
  -5  -5  12   15.62    2.68
  -5  -5  12   12.48    2.52
   4   5 -12    8.37    2.25
   4   5 -12    7.40    2.60
  -4  -5  12   11.05    2.32
  -4  -5  12    9.24    2.29
   3   5 -12    6.27    2.10
  -3  -5  12    6.28    1.79
  -3  -5  12    4.35    1.88
   2   5 -12    2.16    1.61
   2   5 -12    4.44    2.04
  -2  -5  12    3.96    1.71
  -2  -5  12    4.39    1.99
   1   5 -12   14.86    3.28
   1   5 -12    9.64    2.71
  -1  -5  12   13.97    3.11
   0   5 -12   32.59    5.00
   0   5 -12   25.07    4.07
   0  -5  12   26.60    4.33
   0  -5  12   22.26    3.82
  -1   5 -12    4.89    2.11
  -1   5 -12    4.07    2.06
   1  -5  12    7.43    2.67
  -2   5 -12   16.25    3.49
  -2   5 -12   12.05    3.13
   2  -5  12    7.08    2.61
  -3   5 -12    3.30    1.69
  -3   5 -12    7.75    2.70
   3  -5  12   10.14    3.05
  -4   5 -12    9.26    2.47
  -4   5 -12   18.38    3.64
   4  -5  12    9.34    2.49
  -5   5 -12    3.68    2.33
  -5   5 -12    2.10    3.51
  11   4 -12    8.73    2.05
  10   4 -12    7.22    1.80
  10   4 -12    3.05    2.54
   9   4 -12   14.41    3.16
   9   4 -12    7.49    2.59
   8   4 -12   21.12    3.44
   7   4 -12    7.76    2.07
   6   4 -12    6.26    1.96
   6   4 -12    5.62    1.84
  -6  -4  12    5.16    1.26
  -6  -4  12    8.60    1.69
   5   4 -12    0.96    1.04
   5   4 -12   -1.12    0.65
  -5  -4  12    0.17    1.16
   4   4 -12    2.64    1.58
   4   4 -12    3.08    1.42
  -4  -4  12   -0.06    1.14
  -4  -4  12    2.13    1.25
   3   4 -12    3.59    1.61
   3   4 -12    0.98    1.14
  -3  -4  12    2.39    1.35
  -3  -4  12    3.51    1.53
   2   4 -12    1.73    1.41
   2   4 -12    3.29    1.84
  -2  -4  12    4.22    2.08
  -2  -4  12    4.91    1.59
   1   4 -12    0.61    1.11
   1   4 -12    0.66    1.63
  -1  -4  12    2.18    1.44
  -1  -4  12    2.91    1.62
   0   4 -12    0.42    1.11
   0   4 -12    1.41    1.62
   0  -4  12   -2.65    0.87
   0  -4  12    1.56    1.34
  -1   4 -12    6.12    2.22
  -1   4 -12    2.43    1.75
   1  -4  12    0.97    1.35
   1  -4  12   -0.01    1.33
  -2   4 -12    6.86    2.33
  -2   4 -12    7.88    2.65
   2  -4  12    9.44    2.75
  -3   4 -12   10.91    2.70
  -3   4 -12    5.15    2.60
   3  -4  12    6.67    2.37
  -4   4 -12   11.99    2.90
  -4   4 -12    7.78    3.03
   4  -4  12    7.53    2.66
  -5   4 -12   28.78    4.39
  11   3 -12    8.76    2.56
  10   3 -12   25.18    3.82
  10   3 -12   27.19    4.21
   9   3 -12   12.39    2.69
   8   3 -12   -0.07    0.92
   8   3 -12    2.74    1.55
   7   3 -12    9.88    2.64
   7   3 -12   11.40    2.50
   6   3 -12   23.14    3.62
   6   3 -12   22.43    3.73
  -6  -3  12   27.95    2.40
   5   3 -12    4.48    1.79
   5   3 -12    1.67    1.52
  -5  -3  12    4.38    1.60
   4   3 -12    4.63    1.71
   4   3 -12    3.46    1.71
  -4  -3  12    2.27    1.36
   3   3 -12   -0.41    0.56
   3   3 -12    3.34    1.54
  -3  -3  12    1.33    1.24
  -3  -3  12   -1.02    1.08
   2   3 -12    1.90    1.37
   2   3 -12   -1.32    0.98
  -2  -3  12   -1.04    0.97
  -2  -3  12   -1.33    0.92
   1   3 -12    9.05    2.38
  -1  -3  12    9.36    2.36
  -1  -3  12    8.94    2.64
   0   3 -12   37.61    4.95
   0   3 -12   37.76    5.08
   0  -3  12   29.60    4.25
   0  -3  12   35.77    5.15
  -1   3 -12   -0.06    1.55
  -1   3 -12    0.96    1.48
   1  -3  12    3.52    1.66
   1  -3  12   -2.50    1.02
  -2   3 -12   -0.48    1.13
  -2   3 -12   -4.29    1.45
   2  -3  12   -0.69    1.61
  -3   3 -12   23.60    4.03
  -3   3 -12   14.72    3.38
   3  -3  12   18.29    3.95
  -4   3 -12    6.02    2.97
  -4   3 -12    8.13    2.30
   4  -3  12    1.92    2.32
  -5   3 -12    7.11    2.54
  11   2 -12   14.15    2.85
  10   2 -12    5.61    1.65
   9   2 -12    0.37    1.26
   9   2 -12    0.36    1.54
   8   2 -12    2.26    1.60
   8   2 -12    1.42    1.41
   7   2 -12   -1.29    0.84
   7   2 -12   -1.35    1.08
   6   2 -12    4.35    1.62
   6   2 -12    1.57    1.25
  -6  -2  12    2.03    0.92
  -6  -2  12    0.94    0.97
   5   2 -12   13.47    2.71
   5   2 -12    8.15    2.27
  -5  -2  12   11.40    2.39
   4   2 -12   22.58    3.86
   4   2 -12   22.42    3.65
  -4  -2  12   27.69    3.70
  -4  -2  12   25.11    3.64
   3   2 -12   28.17    4.14
   3   2 -12   36.84    5.03
  -3  -2  12   27.83    3.91
   2   2 -12    0.19    1.25
   2   2 -12   -0.61    1.16
  -2  -2  12   -1.06    1.10
  -2  -2  12   -2.30    0.92
   1   2 -12   13.95    2.96
  -1  -2  12   18.43    3.37
  -1  -2  12   15.84    3.27
   0   2 -12   11.90    2.78
   0   2 -12   16.44    3.39
   0  -2  12   14.44    2.93
   0  -2  12   11.85    3.04
  -1   2 -12   31.87    4.74
  -1   2 -12   32.13    4.56
   1  -2  12   25.20    4.35
   1  -2  12   35.82    5.30
  -2   2 -12   10.03    2.67
  -2   2 -12   11.48    2.93
   2  -2  12   10.17    3.00
  -3   2 -12   -1.00    1.29
  -3   2 -12    0.30    1.93
  -4   2 -12    7.02    2.89
  -4   2 -12    0.89    1.87
   4  -2  12    3.73    2.27
  -5   2 -12   -2.05    2.17
  11   1 -12    7.11    2.05
  10   1 -12    1.39    0.93
   9   1 -12   -0.17    1.38
   9   1 -12    1.80    1.92
   8   1 -12    1.80    1.31
   8   1 -12    0.05    1.30
   7   1 -12    8.44    2.29
   7   1 -12    7.62    2.30
   6   1 -12   53.12    4.71
   6   1 -12   58.50    4.71
  -6  -1  12   48.86    3.44
   5   1 -12    4.29    1.53
   5   1 -12    3.89    1.31
  -5  -1  12    1.16    1.32
  -5  -1  12    3.05    1.41
   4   1 -12    9.48    2.23
   4   1 -12    7.64    2.14
  -4  -1  12    4.30    1.67
  -4  -1  12    7.14    1.99
   3   1 -12   -1.15    0.99
   3   1 -12    0.12    1.56
  -3  -1  12   -1.93    0.97
   2   1 -12   23.89    3.84
  -2  -1  12   20.29    3.58
   1   1 -12    2.36    1.69
  -1  -1  12    2.27    1.93
   0   1 -12    4.13    1.79
   0   1 -12    6.13    2.38
   0  -1  12    5.98    2.17
  -1   1 -12    2.76    1.57
  -1   1 -12    3.59    1.58
   1  -1  12    7.72    2.74
  -2   1 -12   14.21    3.12
  -2   1 -12   19.20    3.57
   2  -1  12   12.00    3.29
  -3   1 -12   10.79    2.83
  -3   1 -12    7.60    2.48
   3  -1  12    8.19    2.70
  -4   1 -12    3.40    2.72
  -4   1 -12    3.02    2.06
   4  -1  12    4.30    2.67
  -5   1 -12   -0.67    2.40
  11   0 -12    1.37    1.29
  10   0 -12   27.03    4.39
  10   0 -12   18.32    2.88
   9   0 -12   -0.92    1.79
   9   0 -12    0.70    1.36
   8   0 -12   -1.58    1.12
   8   0 -12    2.26    1.76
   7   0 -12    2.26    1.47
   7   0 -12    2.55    1.49
   6   0 -12   20.57    3.86
   6   0 -12   19.37    3.50
  -6   0  12   18.61    2.76
  -6   0  12   18.93    2.53
   5   0 -12   -0.32    0.97
   5   0 -12    0.10    1.03
  -5   0  12    1.36    1.24
  -5   0  12   -0.62    1.06
   4   0 -12    2.83    1.72
   4   0 -12    1.65    1.13
  -4   0  12    3.34    1.51
  -4   0  12    0.99    1.22
   3   0 -12   81.01    6.00
  -3   0  12   79.63    5.61
  -3   0  12   85.24    5.98
   2   0 -12    8.15    2.31
   2   0 -12    6.67    1.99
  -2   0  12    5.37    2.10
  -2   0  12    7.38    2.08
   1   0 -12    5.25    1.89
   1   0 -12    4.83    1.74
  -1   0  12    4.23    1.95
  -1   0  12    7.14    1.97
   0   0 -12   -1.10    1.36
   0   0 -12    2.22    1.74
   0   0  12    2.75    1.80
   0   0  12    2.66    1.73
  -1   0 -12   15.18    3.33
  -1   0 -12   18.89    3.70
   1   0  12   14.26    3.28
  -2   0 -12   17.42    3.53
   2   0  12   26.11    4.74
  -3   0 -12    1.11    1.66
   3   0  12    5.68    2.04
  -4   0 -12    0.89    2.56
  -4   0 -12    0.14    1.99
  -5   0 -12    0.08    3.10
  11  -1 -12    6.70    2.01
  10  -1 -12    2.14    1.99
  10  -1 -12   -0.18    1.47
   9  -1 -12    4.11    2.68
   9  -1 -12   -1.43    1.73
   9  -1 -12    2.38    1.31
   8  -1 -12    6.14    1.94
   8  -1 -12    5.72    2.13
   7  -1 -12    1.91    1.74
   7  -1 -12    3.10    2.88
  -7   1  12    3.08    0.80
   6  -1 -12    8.83    2.50
   6  -1 -12    7.13    2.29
  -6   1  12   11.49    2.25
  -6   1  12   10.24    1.85
   5  -1 -12    7.13    2.63
   5  -1 -12   11.19    2.83
  -5   1  12   13.02    2.53
  -5   1  12   12.78    2.54
   4  -1 -12   50.73    5.03
   4  -1 -12   42.24    4.35
  -4   1  12   53.19    4.50
   3  -1 -12    7.72    2.21
   3  -1 -12    4.99    2.18
  -3   1  12    4.16    1.88
  -3   1  12    0.17    1.32
   2  -1 -12    0.21    1.34
   2  -1 -12   -0.09    1.25
  -2   1  12    2.91    1.39
  -2   1  12    0.81    1.37
   1  -1 -12   22.66    4.12
   1  -1 -12   27.34    4.50
  -1   1  12   22.99    4.04
  -1   1  12   29.33    4.72
   0  -1 -12    0.67    1.31
   0   1  12    4.26    2.10
  -1  -1 -12    2.90    1.93
   1   1  12    3.22    1.36
  -2  -1 -12   11.05    2.96
   2   1  12   17.91    3.68
  -3  -1 -12    3.59    2.16
  -4  -1 -12    8.00    2.93
  11  -2 -12    2.94    1.78
  10  -2 -12   29.67    4.22
   9  -2 -12    2.17    3.50
   9  -2 -12    3.05    1.43
   9  -2 -12   -0.24    2.19
   8  -2 -12    2.11    2.40
   8  -2 -12    3.15    1.56
   8  -2 -12    4.28    1.77
   7  -2 -12    6.83    2.34
   7  -2 -12    3.63    1.76
  -7   2  12    7.71    1.82
  -7   2  12    6.44    1.44
   6  -2 -12   17.52    3.56
   6  -2 -12   18.10    3.43
  -6   2  12   19.06    3.01
   5  -2 -12   31.71    4.74
   5  -2 -12   31.42    4.54
  -5   2  12   24.73    3.50
  -5   2  12   33.36    4.37
   4  -2 -12   26.20    4.42
   4  -2 -12   20.82    3.85
  -4   2  12   30.02    4.22
  -4   2  12   24.10    3.84
   3  -2 -12    9.47    2.60
   3  -2 -12    1.81    2.81
  -3   2  12    4.16    2.00
   2  -2 -12    9.70    2.74
  -2   2  12   11.52    2.77
  -2   2  12   11.91    2.94
   1  -2 -12    0.86    1.27
  -1   2  12    2.25    1.78
   0  -2 -12    0.58    1.63
   0   2  12    3.03    1.87
  -1  -2 -12   11.26    2.71
   1   2  12    7.48    2.52
  -2  -2 -12    1.62    1.99
   2   2  12    3.74    1.79
  10  -3 -12    7.49    2.32
   9  -3 -12    6.87    3.89
   9  -3 -12    9.51    2.43
   8  -3 -12   11.15    3.79
   8  -3 -12    7.16    2.19
   7  -3 -12   -1.69    1.16
   7  -3 -12   -1.70    2.08
  -7   3  12    0.00    1.15
  -7   3  12    0.52    1.10
   6  -3 -12    0.29    1.09
   6  -3 -12    2.20    1.94
  -6   3  12    1.13    1.30
  -6   3  12   -2.12    1.45
   5  -3 -12    9.69    2.80
  -5   3  12   10.44    2.52
  -5   3  12   12.01    2.72
   4  -3 -12   23.59    4.38
  -4   3  12   24.78    4.11
   3  -3 -12    4.25    1.94
  -3   3  12    2.77    1.56
  -3   3  12    3.20    2.17
   2  -3 -12    7.76    2.53
  -2   3  12    6.30    2.35
   1  -3 -12   -0.66    0.85
  -1   3  12   -2.19    1.32
   0   3  12   -1.44    0.88
  -1  -3 -12   10.48    3.04
   1   3  12    9.24    3.02
  -2  -3 -12    2.92    2.32
  -3  -3 -12    9.71    3.17
  11  -4 -12    3.92    2.63
  10  -4 -12    0.38    2.16
   9  -4 -12    0.44    1.87
   8  -4 -12   18.78    5.29
   7  -4 -12   -1.69    2.17
   7  -4 -12   -1.66    1.29
  -7   4  12    0.25    2.35
  -7   4  12    1.98    1.40
   6  -4 -12    2.52    2.55
   6  -4 -12    3.99    1.97
  -6   4  12    4.26    1.92
   5  -4 -12    8.69    2.63
   5  -4 -12    8.92    3.47
  -5   4  12    5.18    2.52
   4  -4 -12   31.66    5.66
   4  -4 -12   33.64    5.33
  -4   4  12   27.11    4.56
  -4   4  12   39.37    4.41
   3  -4 -12    4.45    3.00
  -3   4  12    4.26    2.21
   2  -4 -12    4.04    1.87
   2  -4 -12    2.24    1.64
  -2   4  12    4.66    2.49
   1  -4 -12    8.57    2.26
   1  -4 -12    7.73    2.50
  -1   4  12    9.52    3.16
   0  -4 -12    2.67    1.67
   0  -4 -12    1.41    1.27
   8  -5 -12   -0.11    2.80
   8  -5 -12   -1.88    1.50
   7  -5 -12    3.73    3.05
   7  -5 -12    6.13    2.14
  -7   5  12    1.15    1.78
  -7   5  12    5.49    2.92
   6  -5 -12   -0.97    2.49
   6  -5 -12    0.52    0.90
  -6   5  12   -0.60    1.37
  -6   5  12    4.91    2.69
   5  -5 -12   -0.47    1.16
   5  -5 -12    2.64    2.40
  -5   5  12    2.38    1.34
  -5   5  12    1.01    2.31
   4  -5 -12    0.49    1.19
   4  -5 -12   -0.02    1.87
  -4   5  12   -0.82    1.83
   3  -5 -12   13.94    3.55
   3  -5 -12    8.37    2.63
  -3   5  12   11.67    3.39
   2  -5 -12   -0.87    1.40
  -2   5  12   -0.63    1.23
   1  -5 -12    0.24    1.58
   7  -6 -12    6.58    3.84
   6  -6 -12    7.86    3.34
  -6   6  12    9.53    3.76
  -6   6  12    3.99    2.32
   5  -6 -12   15.13    3.99
  -5   6  12   15.64    3.63
   4  -6 -12   -0.79    1.81
  -4   6  12   -4.13    1.78
   3  -6 -12    5.78    2.37
   6  -7 -12   -1.63    3.62
  -6   7  12    2.51    3.03
   5  -7 -12    1.34    3.13
  -5   7  12    0.20    2.81
  -4 -11  13   -0.68    3.12
  -5 -10  13    3.64    2.81
  -4 -10  13    5.29    2.86
  -3 -10  13   14.01    3.51
  -2 -10  13   13.24    3.59
  -6  -9  13   29.65    5.10
  -5  -9  13   18.31    3.41
  -5  -9  13   19.70    4.77
  -4  -9  13   17.02    3.49
   3   9 -13   16.63    4.11
  -3  -9  13   17.92    3.79
   2   9 -13   -0.05    1.58
  -2  -9  13   -1.89    1.56
   1   9 -13    2.11    1.74
  -1  -9  13    1.38    1.83
   0   9 -13    0.61    1.93
   0  -9  13    5.67    2.77
  -1   9 -13    6.40    2.92
   6   8 -13    3.33    1.17
  -6  -8  13    1.12    1.77
  -6  -8  13    2.25    2.58
   5   8 -13   -0.90    1.41
  -5  -8  13    0.62    1.70
  -5  -8  13    0.08    2.16
   4   8 -13    0.70    1.24
  -4  -8  13   -2.86    1.66
  -4  -8  13   -0.02    1.53
   3   8 -13    6.40    2.41
  -3  -8  13    4.10    2.10
   2   8 -13    6.62    2.34
  -2  -8  13    4.46    2.16
   1   8 -13    9.10    2.81
  -1  -8  13   14.60    3.26
   0   8 -13    3.42    1.76
   0  -8  13    1.54    2.01
  -1   8 -13    7.32    2.98
   1  -8  13   12.12    3.35
  -2   8 -13    3.14    2.13
  -3   8 -13    9.48    2.70
  -4   8 -13   16.94    3.91
   8   7 -13   10.40    2.70
   7   7 -13   11.06    3.21
   6   7 -13    1.26    1.89
  -6  -7  13    9.15    2.09
   5   7 -13   22.82    4.12
  -5  -7  13   26.78    4.72
  -5  -7  13   25.18    3.38
   4   7 -13    0.81    1.45
  -4  -7  13    3.51    1.86
  -4  -7  13    3.26    1.62
   3   7 -13    2.38    1.95
  -3  -7  13    3.60    2.06
  -3  -7  13    3.75    1.97
   2   7 -13    2.24    1.54
  -2  -7  13    6.36    2.16
   1   7 -13   29.41    4.68
  -1  -7  13   44.80    6.00
   0   7 -13   -0.95    1.29
   0  -7  13   -1.39    1.27
   1  -7  13    0.58    1.46
   2  -7  13    4.77    2.54
  -3   7 -13   -0.66    1.85
  -4   7 -13    3.83    1.96
  10   6 -13    9.18    2.41
   9   6 -13    2.90    1.67
   8   6 -13    6.11    2.34
   7   6 -13    2.08    1.82
   6   6 -13    8.33    2.58
  -6  -6  13    4.74    1.52
   5   6 -13    2.32    1.61
  -5  -6  13    4.57    1.96
  -5  -6  13    0.55    1.62
   4   6 -13   23.53    4.08
  -4  -6  13   18.44    3.11
  -4  -6  13   22.81    3.71
   3   6 -13   -1.57    0.78
  -3  -6  13    1.77    1.64
  -3  -6  13   -0.30    1.42
   2   6 -13    9.14    2.43
  -2  -6  13    4.99    2.11
  -2  -6  13    4.99    2.25
   1   6 -13    4.68    2.08
  -1  -6  13   -0.48    1.25
   0   6 -13   81.74    6.55
   0  -6  13   82.03    6.76
  -1   6 -13   12.85    2.92
   1  -6  13   17.19    3.83
  -2   6 -13    0.97    1.40
   2  -6  13    1.17    2.11
  -3   6 -13    1.54    1.62
  -4   6 -13   13.04    3.72
  -5   6 -13   -6.15    2.43
   9   5 -13   -0.05    1.37
   8   5 -13    4.84    1.58
   7   5 -13   27.80    4.42
   6   5 -13   -0.34    1.01
  -6  -5  13    2.41    1.37
  -6  -5  13    2.23    1.19
   5   5 -13    0.66    1.28
   5   5 -13    1.51    1.07
  -5  -5  13    1.83    1.39
  -5  -5  13    1.82    1.30
   4   5 -13   25.13    4.89
   4   5 -13   28.10    4.46
  -4  -5  13   30.42    4.31
  -4  -5  13   22.47    3.47
   3   5 -13   25.53    4.54
   3   5 -13   25.55    4.14
  -3  -5  13   26.66    3.91
  -3  -5  13   35.64    4.80
   2   5 -13    0.41    1.14
  -2  -5  13    1.08    1.42
  -2  -5  13   -0.30    1.30
   1   5 -13   12.23    3.03
  -1  -5  13   15.32    3.34
  -1  -5  13   20.23    3.86
   0   5 -13    4.81    1.58
   0  -5  13    4.41    1.85
  -1   5 -13    2.24    1.71
   1  -5  13    0.60    1.63
  -2   5 -13    2.61    1.91
   2  -5  13    0.64    2.44
  -3   5 -13   -3.74    1.29
   3  -5  13    5.82    2.25
  -4   5 -13    0.10    1.83
  -5   5 -13    5.38    3.18
  10   4 -13   -3.11    1.36
   9   4 -13   10.78    2.66
   8   4 -13   14.56    2.87
   7   4 -13    4.57    2.16
   7   4 -13    7.38    2.27
   6   4 -13   11.29    2.81
   6   4 -13    7.89    2.26
  -6  -4  13    6.91    1.58
  -6  -4  13    5.39    1.54
   5   4 -13    6.14    2.00
   5   4 -13    4.97    1.97
  -5  -4  13    2.00    1.56
   4   4 -13    5.35    2.17
   4   4 -13    8.90    2.47
  -4  -4  13    9.28    2.53
   3   4 -13    1.81    1.70
   3   4 -13    5.09    1.93
  -3  -4  13    1.71    1.38
  -3  -4  13    5.59    2.02
   2   4 -13    2.25    1.70
   2   4 -13    8.23    2.62
  -2  -4  13    1.64    1.73
  -2  -4  13    2.52    1.77
   1   4 -13    6.08    3.03
   1   4 -13    6.57    2.17
  -1  -4  13    8.24    2.67
  -1  -4  13    1.49    1.82
   0   4 -13   -1.00    1.29
   0  -4  13    2.63    1.63
  -1   4 -13    8.04    2.47
   1  -4  13    7.52    2.45
  -2   4 -13    2.59    1.71
   2  -4  13    1.86    1.77
  -3   4 -13    6.90    2.83
   3  -4  13    8.58    2.95
  -4   4 -13    2.31    2.20
  -5   4 -13   -0.69    2.96
  11   3 -13    9.17    2.34
  10   3 -13   10.58    2.72
   9   3 -13    6.82    1.97
   8   3 -13    7.14    2.74
   8   3 -13    9.03    2.43
   7   3 -13    3.17    1.52
   7   3 -13   -1.82    1.28
   6   3 -13   11.35    2.82
   6   3 -13   13.16    2.90
  -6  -3  13   13.24    2.19
  -6  -3  13   13.33    2.05
   5   3 -13   30.70    4.37
   5   3 -13   27.24    4.29
  -5  -3  13   28.57    3.83
  -5  -3  13   27.83    3.88
   4   3 -13    0.56    1.14
   4   3 -13    2.42    1.33
   3   3 -13    0.44    1.41
   3   3 -13    3.50    1.70
  -3  -3  13    5.85    1.95
  -3  -3  13    3.89    1.88
   2   3 -13   14.05    3.27
   2   3 -13   16.00    3.44
  -2  -3  13   12.64    3.10
  -2  -3  13   23.31    4.58
   1   3 -13   31.92    4.87
   1   3 -13   35.33    4.93
  -1  -3  13   31.85    4.91
  -1  -3  13   33.28    4.96
   0   3 -13    7.75    2.46
   0  -3  13    7.79    2.61
  -1   3 -13    2.32    1.64
   1  -3  13    2.55    1.76
  -2   3 -13   13.44    3.08
   2  -3  13   13.74    3.48
  -3   3 -13    3.77    1.87
   3  -3  13    2.82    2.18
  -4   3 -13   -0.43    2.02
  -5   3 -13    5.56    3.45
  11   2 -13    2.09    1.47
  10   2 -13    0.36    1.22
   9   2 -13   14.33    3.05
   9   2 -13   19.77    3.53
   8   2 -13    8.55    2.49
   8   2 -13    8.60    2.55
   7   2 -13   19.95    3.43
   7   2 -13   17.55    3.38
   6   2 -13    5.31    1.80
   6   2 -13    1.05    1.51
  -6  -2  13    0.01    1.12
  -6  -2  13    2.13    1.06
   5   2 -13   16.67    3.47
   5   2 -13   11.96    2.81
  -5  -2  13   14.67    2.82
  -5  -2  13   18.37    3.17
   4   2 -13   10.39    2.91
   4   2 -13   12.72    2.99
  -4  -2  13   14.66    2.84
   3   2 -13    2.47    1.46
   3   2 -13    0.23    1.20
  -3  -2  13    0.44    1.30
   2   2 -13    0.85    1.47
   2   2 -13    5.35    2.12
  -2  -2  13    0.67    1.44
   1   2 -13   15.91    3.49
   1   2 -13   16.42    3.19
  -1  -2  13   14.43    3.40
  -1  -2  13   15.99    3.55
   0   2 -13   -0.79    1.50
   0  -2  13    0.44    1.20
  -1   2 -13    2.65    1.48
  -2   2 -13    3.05    1.76
   2  -2  13   -2.26    1.45
  -3   2 -13    6.43    2.44
  -4   2 -13    8.37    2.80
  11   1 -13   31.62    4.24
  10   1 -13   -0.15    1.13
   9   1 -13   -1.67    1.58
   9   1 -13   -1.34    1.36
   8   1 -13    1.41    1.55
   8   1 -13    2.86    1.91
   7   1 -13   12.71    2.89
   7   1 -13   11.21    2.60
   6   1 -13   -0.36    1.05
   6   1 -13   -0.18    1.01
  -6  -1  13    0.40    1.30
  -6  -1  13   -0.35    1.06
   5   1 -13   28.65    4.36
   5   1 -13   26.36    4.07
  -5  -1  13   33.32    4.12
  -5  -1  13   25.84    3.58
   4   1 -13    6.32    2.27
   4   1 -13    9.20    2.36
  -4  -1  13    1.47    1.56
  -4  -1  13    3.58    1.64
   3   1 -13   22.77    4.18
   3   1 -13   15.65    3.18
  -3  -1  13   17.16    3.55
  -3  -1  13   14.20    3.22
   2   1 -13    3.24    1.48
   2   1 -13   -1.44    1.08
  -2  -1  13    1.67    1.50
  -2  -1  13    4.30    1.84
   1   1 -13   13.62    3.27
  -1  -1  13    8.30    2.66
   0   1 -13    2.60    1.67
   0  -1  13    1.29    1.78
  -1   1 -13   -0.52    1.05
   1  -1  13   -1.77    1.51
  -2   1 -13   86.48    6.57
   2  -1  13   95.90    7.84
  -3   1 -13    2.60    1.88
  -4   1 -13    1.36    2.38
  11   0 -13   -0.48    1.41
   9   0 -13   33.40    4.62
   8   0 -13    7.02    2.49
   8   0 -13    2.89    2.13
   7   0 -13   11.22    2.61
   7   0 -13    7.13    2.84
  -7   0  13    9.50    1.41
   6   0 -13    1.01    1.43
   6   0 -13    1.61    1.59
  -6   0  13   -0.93    1.17
   5   0 -13    0.85    1.72
   5   0 -13    2.13    1.92
  -5   0  13    6.61    1.88
  -5   0  13    0.55    1.64
   4   0 -13   -0.19    0.80
   4   0 -13    0.72    1.47
  -4   0  13    1.16    1.29
  -4   0  13   -1.62    1.11
   3   0 -13    2.08    1.31
  -3   0  13    3.42    1.60
   2   0 -13    6.89    2.30
  -2   0  13    9.97    2.86
  -2   0  13   14.45    3.28
   1   0 -13    6.12    2.18
  -1   0  13    6.03    1.97
   0   0 -13   11.33    3.02
   0   0  13   16.36    3.59
  -1   0 -13    6.05    2.34
   1   0  13    5.41    2.35
  -2   0 -13    9.38    3.47
  -3   0 -13    0.29    2.33
  -4   0 -13   -0.61    3.33
  11  -1 -13   -3.68    1.57
  10  -1 -13   22.51    3.51
   9  -1 -13   -2.62    1.27
   8  -1 -13    4.25    2.23
  -7   1  13    0.53    1.56
  -7   1  13   -0.93    0.82
   6  -1 -13    6.47    2.03
  -6   1  13    8.91    2.10
  -6   1  13    4.09    1.48
   5  -1 -13    3.28    1.58
  -5   1  13    6.33    2.25
   4  -1 -13    2.95    1.46
  -4   1  13    1.05    1.49
  -4   1  13    1.14    1.45
   3  -1 -13    0.45    1.43
  -3   1  13    1.73    1.88
  -3   1  13    1.90    1.72
   2  -1 -13   11.07    3.00
  -2   1  13   14.60    3.45
   1  -1 -13   17.72    3.70
  -1   1  13   16.72    3.58
   0  -1 -13    2.01    1.77
  -1  -1 -13    0.81    1.85
   1   1  13   -0.01    1.67
  -2  -1 -13   14.35    3.33
  -3  -1 -13    2.00    2.44
  11  -2 -13    1.70    2.31
   9  -2 -13    5.00    2.09
   8  -2 -13    2.50    3.05
   8  -2 -13    0.49    1.45
  -7   2  13   -1.24    1.06
  -7   2  13    2.44    1.35
   6  -2 -13    1.52    1.49
  -6   2  13    1.75    1.49
  -6   2  13    0.48    1.60
   5  -2 -13   10.46    2.92
  -5   2  13   21.08    3.49
  -5   2  13   10.68    2.49
   4  -2 -13    4.19    1.78
  -4   2  13   -2.59    1.81
  -4   2  13   -0.69    1.30
   3  -2 -13   -0.86    0.76
  -3   2  13    0.98    1.59
   2  -2 -13    4.77    2.16
  -2   2  13    4.11    2.00
   1  -2 -13    6.11    1.98
   0  -2 -13   -2.61    2.02
   0   2  13    4.00    1.85
  -1  -2 -13    4.00    2.30
  -2  -2 -13   18.23    4.36
  10  -3 -13   26.73    4.77
   9  -3 -13   -1.79    1.87
   8  -3 -13    1.91    3.07
   7  -3 -13    1.49    3.06
  -7   3  13   -3.17    1.25
  -7   3  13   -1.99    1.90
   6  -3 -13    2.12    2.40
  -6   3  13    0.40    1.65
  -6   3  13    5.88    2.22
   5  -3 -13    3.19    2.25
  -5   3  13   -1.09    1.92
  -5   3  13    2.31    1.83
   4  -3 -13    2.74    2.05
  -4   3  13    4.93    2.31
   3  -3 -13   -1.65    1.43
   2  -3 -13    3.64    1.58
  -2   3  13   -0.80    1.24
   1  -3 -13    3.37    1.94
  -1   3  13   -1.12    1.84
   0  -3 -13    3.35    1.97
   7  -4 -13    5.15    2.18
   7  -4 -13    1.45    3.65
  -7   4  13    9.24    2.35
  -7   4  13    1.14    2.73
   6  -4 -13    3.20    2.83
   6  -4 -13    2.41    1.90
  -6   4  13    1.63    2.28
  -6   4  13    5.12    2.66
   5  -4 -13    4.59    2.79
   5  -4 -13    5.20    1.90
  -5   4  13    7.21    2.52
   4  -4 -13   -0.10    1.07
   4  -4 -13    1.98    2.32
  -4   4  13    0.83    2.05
   3  -4 -13   25.36    4.83
  -3   4  13   27.50    4.70
   2  -4 -13    1.04    1.93
  -2   4  13   -0.19    2.30
   1  -4 -13    2.56    2.00
   7  -5 -13    6.77    3.46
  -6   5  13    1.56    2.21
  -6   5  13    7.01    3.74
   5  -5 -13   -0.42    2.57
  -5   5  13    1.81    2.28
   4  -5 -13    2.78    2.61
  -4   5  13    7.90    2.37
   3  -5 -13    8.84    2.96
   6  -6 -13   32.69    6.15
  -6   6  13   31.47    4.93
   5  -6 -13    4.10    4.08
  -5   6  13    4.68    2.78
  -5 -10  14    4.16    3.82
  -4 -10  14    5.53    3.13
  -5  -9  14   15.46    3.54
  -4  -9  14    4.65    2.52
  -3  -9  14    3.92    2.16
  -2  -9  14   13.90    3.33
  -6  -8  14    0.32    2.43
  -5  -8  14    3.10    2.14
  -5  -8  14   -5.20    2.71
   4   8 -14    5.37    2.63
  -4  -8  14   11.63    2.44
   3   8 -14    9.21    2.81
  -3  -8  14    6.80    2.42
   2   8 -14    4.32    1.99
  -2  -8  14   -0.14    1.79
   1   8 -14    2.68    2.03
  -1  -8  14    8.17    2.22
   7   7 -14    4.68    2.28
   6   7 -14   -0.98    1.24
  -6  -7  14   -1.13    1.64
   5   7 -14   11.01    3.08
  -5  -7  14    8.36    2.37
  -5  -7  14   16.03    3.39
   4   7 -14    4.66    2.56
  -4  -7  14    4.52    2.35
  -4  -7  14    7.99    2.45
   3   7 -14    3.14    2.10
  -3  -7  14    5.42    2.35
   2   7 -14   13.15    3.36
  -2  -7  14   15.50    3.35
   1   7 -14   13.94    3.73
  -1  -7  14   11.54    3.74
   0   7 -14   18.78    4.22
   0  -7  14   22.52    4.22
  -1   7 -14   -1.15    1.42
  -2   7 -14    3.43    1.89
   8   6 -14    2.86    1.69
   7   6 -14    3.92    1.90
  -6  -6  14   13.88    2.42
  -5  -6  14    2.51    1.65
  -5  -6  14    2.48    1.84
   4   6 -14   25.06    4.14
  -4  -6  14   27.09    4.13
  -4  -6  14   32.00    4.63
   3   6 -14   22.80    4.48
  -3  -6  14   21.94    3.96
  -3  -6  14   16.38    3.28
   2   6 -14   24.74    5.08
  -2  -6  14   24.82    4.35
  -1  -6  14    4.07    2.15
   0   6 -14    1.92    1.84
   0  -6  14    2.88    1.72
  -1   6 -14    1.00    1.66
   1  -6  14   -0.91    1.57
  -2   6 -14   -0.57    1.45
  -3   6 -14    0.77    1.60
  -4   6 -14    0.19    3.34
  10   5 -14    9.89    4.36
   9   5 -14    2.60    2.08
   7   5 -14   12.75    3.35
   6   5 -14   -0.17    1.22
  -6  -5  14    1.98    1.50
  -6  -5  14    0.75    2.43
   5   5 -14   13.14    3.07
  -5  -5  14   10.01    2.68
   4   5 -14   18.02    3.59
  -4  -5  14   23.59    4.65
  -4  -5  14   23.37    3.87
   3   5 -14    6.01    2.09
  -3  -5  14    6.63    2.33
  -3  -5  14    8.89    2.65
   2   5 -14    1.88    1.69
  -2  -5  14   -2.07    1.39
   1   5 -14    2.18    1.78
  -1  -5  14    5.39    2.18
   0   5 -14    7.40    2.66
  -1   5 -14   -0.03    1.43
   1  -5  14   -0.52    1.63
  -2   5 -14   -2.53    1.69
  -3   5 -14    4.11    2.28
  -4   5 -14    2.20    2.86
  10   4 -14    4.12    2.09
   9   4 -14   10.30    2.90
   8   4 -14   34.94    4.92
   7   4 -14   19.49    3.65
   6   4 -14   16.96    3.36
  -6  -4  14   17.07    2.54
  -6  -4  14   16.55    3.15
   5   4 -14   17.83    3.49
  -5  -4  14   28.57    6.49
   4   4 -14    0.36    1.09
  -4  -4  14   -0.69    1.26
   3   4 -14    2.32    1.38
  -3  -4  14    1.02    2.02
  -3  -4  14    5.28    2.10
   2   4 -14    4.86    1.90
  -2  -4  14    2.13    1.91
   1   4 -14   23.14    4.19
  -1  -4  14   19.67    4.32
   0   4 -14    0.30    1.32
   1  -4  14    2.84    1.76
  -2   4 -14    0.71    1.75
  -3   4 -14    7.01    2.77
  -4   4 -14   -5.19    2.58
   9   3 -14   43.51    4.42
   8   3 -14    0.92    1.44
   7   3 -14    4.12    1.57
   6   3 -14   17.91    3.69
  -6  -3  14   17.23    2.96
  -6  -3  14   15.30    2.57
   5   3 -14   16.15    3.21
  -5  -3  14   15.50    3.24
   4   3 -14   10.43    2.52
  -4  -3  14    5.66    2.40
   3   3 -14   10.23    2.70
  -3  -3  14    5.56    2.23
   2   3 -14    1.00    1.31
  -2  -3  14    4.77    2.17
   1   3 -14    0.40    0.74
  -1  -3  14    0.71    1.72
   0   3 -14   11.22    2.91
   1  -3  14   -0.48    1.67
  -2   3 -14   10.63    2.95
  -3   3 -14   -0.55    2.12
  -4   3 -14   -6.27    2.29
  11   2 -14   11.60    3.27
  10   2 -14   39.45    5.69
   9   2 -14   12.01    2.81
   8   2 -14    0.34    1.67
   7   2 -14    0.32    1.22
  -7  -2  14    0.29    0.75
  -7  -2  14    0.08    0.55
   6   2 -14    7.92    2.73
  -6  -2  14   11.09    2.09
  -6  -2  14   16.56    2.87
   5   2 -14   15.93    3.43
  -5  -2  14   21.93    3.76
  -5  -2  14   27.48    4.53
   4   2 -14    4.90    2.02
  -4  -2  14    4.96    1.89
  -4  -2  14    3.35    1.81
   3   2 -14    4.03    2.13
  -3  -2  14   11.09    2.74
  -3  -2  14    6.27    2.36
   2   2 -14    1.68    1.63
  -2  -2  14    4.96    2.21
   1   2 -14    0.35    1.11
  -1  -2  14    0.91    1.17
   0   2 -14    0.21    1.72
  -1   2 -14    5.31    2.17
   1  -2  14    7.01    2.46
  -2   2 -14    5.26    2.63
  -3   2 -14    4.32    2.45
  -4   2 -14   16.25    4.29
  11   1 -14   13.92    3.00
  10   1 -14    4.94    2.19
   9   1 -14   23.37    3.91
   8   1 -14   15.73    3.13
   7   1 -14   31.08    4.63
   6   1 -14    1.72    1.12
  -6  -1  14   -0.35    1.38
  -6  -1  14    1.28    1.67
   5   1 -14    5.10    2.04
  -5  -1  14    4.81    2.04
  -5  -1  14    9.54    2.36
   4   1 -14   17.24    3.57
  -4  -1  14   14.59    3.13
   3   1 -14    0.84    1.45
  -3  -1  14    1.81    1.61
  -3  -1  14    4.77    2.03
   2   1 -14   17.94    3.91
  -2  -1  14   20.08    3.94
   1   1 -14    5.77    2.78
  -1  -1  14    7.31    2.89
   0  -1  14   -1.80    1.41
  -1   1 -14    4.10    2.29
   1  -1  14    4.24    2.06
  -2   1 -14    4.16    2.23
  -3   1 -14   -1.31    2.18
  11   0 -14   -2.17    1.92
   9   0 -14    7.76    2.27
   8   0 -14    0.58    1.47
   7   0 -14    2.39    1.48
  -7   0  14    2.72    1.35
  -7   0  14   -0.15    1.05
   6   0 -14    3.43    1.31
  -6   0  14    0.56    1.35
  -6   0  14    1.88    1.46
   5   0 -14    9.90    2.86
  -5   0  14    8.22    2.59
  -5   0  14    6.27    2.31
   4   0 -14    0.02    1.18
  -4   0  14    1.66    1.60
  -4   0  14    2.45    1.52
   3   0 -14   26.71    4.51
  -3   0  14   27.50    4.62
  -2   0  14   -0.25    1.45
   1   0 -14    5.10    2.07
  -1   0  14    1.10    1.42
   0   0 -14   27.62    4.69
   0   0  14   20.40    4.21
  -1   0 -14    3.44    1.97
  -2   0 -14    7.10    3.53
  10  -1 -14   25.14    4.60
   9  -1 -14    1.31    1.42
   7  -1 -14    0.31    1.22
  -7   1  14    0.00    1.32
  -7   1  14    2.07    1.47
   6  -1 -14    3.82    1.70
  -6   1  14    1.80    2.07
   5  -1 -14   18.07    4.31
  -5   1  14   19.27    3.63
  -5   1  14   20.67    4.62
  -4   1  14    7.43    2.32
  -4   1  14    6.38    2.34
   3  -1 -14   -2.25    1.27
  -3   1  14    1.24    1.60
   2  -1 -14    4.96    2.14
   1  -1 -14    7.67    2.79
  -1   1  14   14.04    3.52
   0  -1 -14   -1.39    1.70
   9  -2 -14    0.92    1.82
   8  -2 -14   -4.49    1.43
   7  -2 -14    0.03    2.40
  -7   2  14    4.40    1.77
   6  -2 -14    0.45    1.02
  -6   2  14    1.06    1.69
  -6   2  14    2.66    2.12
   5  -2 -14    7.75    2.24
  -5   2  14    3.52    2.05
  -5   2  14    4.89    2.34
   4  -2 -14    5.17    1.83
  -4   2  14    6.42    2.54
   3  -2 -14   12.83    3.26
  -3   2  14   18.09    4.12
   2  -2 -14    3.80    1.92
  -2   2  14   -0.01    1.84
   7  -3 -14    2.17    3.31
  -7   3  14    6.36    2.20
   6  -3 -14    1.94    2.96
  -6   3  14    5.81    2.32
  -5   3  14    7.05    2.40
  -4   3  14    5.11    3.23
  -3   3  14    2.29    2.21
   6  -4 -14    7.86    3.68
  -6   4  14    7.57    2.97
   5  -4 -14    2.44    3.08
  -5   4  14    1.23    2.45
   4  -4 -14    0.22    3.06
  -4   4  14    9.46    3.08
   3  -4 -14    2.00    2.92
   2  -4 -14    0.98    3.85
   6  -5 -14   15.10    4.83
  -6   5  14   15.59    4.20
  -5   5  14    2.12    2.82
   4  -5 -14   49.87    7.89
  -5  -9  15    3.73    3.21
  -5  -8  15   -0.82    2.36
  -4  -8  15   20.13    3.67
  -3  -8  15    0.48    1.66
  -2  -8  15    2.08    2.58
  -5  -7  15   11.66    3.19
  -5  -7  15   10.09    3.69
  -4  -7  15   -0.47    1.54
  -2  -7  15   11.34    3.14
  -1  -7  15    5.12    2.46
   6   6 -15    0.12    1.18
  -6  -6  15    3.60    2.18
  -6  -6  15   -1.55    2.39
   5   6 -15    5.16    1.88
  -5  -6  15    0.13    1.65
   4   6 -15   -1.43    1.21
  -4  -6  15   -1.33    1.52
   3   6 -15    4.31    1.59
  -3  -6  15    1.10    1.62
   2   6 -15    2.43    1.87
  -2  -6  15   -0.19    1.86
   1   6 -15   23.46    4.30
  -1  -6  15   14.68    3.91
   8   5 -15   22.05    4.07
   7   5 -15   14.46    3.37
  -7  -5  15   -0.33    1.67
   6   5 -15   -1.39    1.29
  -6  -5  15    4.95    2.18
  -6  -5  15   -2.05    1.65
   5   5 -15    3.80    1.70
  -5  -5  15    0.30    1.72
   4   5 -15    2.02    2.09
  -4  -5  15    4.98    2.46
  -4  -5  15    6.66    2.44
   3   5 -15   11.23    3.66
  -3  -5  15   15.35    3.53
   2   5 -15   12.27    3.39
  -2  -5  15    5.66    3.01
   1   5 -15    3.71    2.01
  -1  -5  15    0.31    1.71
   0   5 -15    1.57    1.67
   0  -5  15    5.55    3.25
   9   4 -15   13.11    3.22
   8   4 -15    1.83    2.15
   7   4 -15   -0.27    1.29
  -7  -4  15    1.04    1.00
  -7  -4  15   -1.17    0.98
   6   4 -15   -3.57    1.16
  -6  -4  15    0.86    1.60
  -6  -4  15    2.44    1.99
   5   4 -15    1.12    1.41
  -5  -4  15    2.28    1.83
  -5  -4  15   -1.06    1.60
   4   4 -15   22.10    4.85
  -4  -4  15   29.36    4.61
   3   4 -15   10.97    2.82
  -3  -4  15   11.00    2.95
   2   4 -15    2.09    1.60
  -2  -4  15    0.28    1.85
   1   4 -15   11.88    3.37
  -1  -4  15   12.53    3.40
   0   4 -15   39.80    5.40
   0  -4  15   21.17    4.63
  -1   4 -15   -3.50    1.32
   9   3 -15    0.69    1.82
   8   3 -15    4.70    1.79
  -7  -3  15   -0.28    1.12
  -7  -3  15   -0.84    1.07
  -6  -3  15   11.02    2.46
  -6  -3  15   10.65    2.74
  -5  -3  15   39.94    5.07
  -5  -3  15   50.14    4.47
   4   3 -15   19.07    4.48
  -4  -3  15   24.76    4.14
  -4  -3  15   28.45    4.41
   3   3 -15    4.76    1.95
  -3  -3  15    3.65    2.47
   2   3 -15    0.49    1.29
  -2  -3  15    0.36    1.53
   1   3 -15   33.27    5.04
  -1  -3  15   33.63    5.36
   0   3 -15    6.58    2.36
   0  -3  15   -1.47    1.37
  10   2 -15   -5.98    3.69
   9   2 -15   -0.68    1.61
   8   2 -15    2.16    2.03
   7   2 -15    4.44    2.52
  -7  -2  15    4.49    2.26
  -6  -2  15   13.44    2.78
  -6  -2  15   22.14    3.49
  -5  -2  15    6.86    2.30
  -5  -2  15    6.10    2.30
   4   2 -15    9.84    2.69
  -4  -2  15    8.38    2.70
  -4  -2  15   10.59    3.26
   3   2 -15   -1.47    1.01
  -3  -2  15    0.78    1.65
   2   2 -15   25.87    4.16
   1   2 -15    2.94    1.79
  -1  -2  15   -0.99    1.88
   0   2 -15   11.93    3.15
  10   1 -15   -1.73    1.92
   9   1 -15   -0.66    1.46
   8   1 -15    3.25    1.78
   7   1 -15    3.02    1.44
  -7  -1  15    1.01    1.29
  -7  -1  15   -0.07    1.41
   6   1 -15    7.96    2.15
  -6  -1  15    5.16    2.54
   5   1 -15   12.66    3.28
  -5  -1  15   20.54    4.04
  -5  -1  15   20.77    3.78
   4   1 -15   31.62    5.02
  -4  -1  15   18.92    4.00
   3   1 -15   39.27    5.83
  -3  -1  15   45.67    4.88
   2   1 -15    0.54    1.20
  -2  -1  15   -2.49    1.54
   1   1 -15   -1.47    1.72
  -1  -1  15    4.68    2.37
   9   0 -15    0.83    1.72
   8   0 -15   14.86    3.19
   7   0 -15   24.71    4.41
   6   0 -15   26.50    4.33
  -6   0  15   16.89    3.27
  -5   0  15   13.53    2.96
  -5   0  15   12.89    3.48
   4   0 -15   31.44    4.92
  -4   0  15   45.64    4.80
   3   0 -15    0.75    1.31
  -3   0  15    1.73    2.28
   2   0 -15    3.87    1.96
  -2   0  15    2.99    2.32
   7  -1 -15   -1.12    1.69
  -7   1  15   -1.91    1.91
   6  -1 -15    7.64    2.83
  -6   1  15   10.43    3.18
  -6   1  15    6.58    2.46
   5  -1 -15    4.98    1.90
  -5   1  15    1.89    2.26
  -5   1  15    2.34    3.17
  -4   1  15    3.96    2.51
  -3   1  15    8.85    3.04
  -2   1  15   18.69    4.75
  -7   2  15   -0.53    2.40
  -6   2  15    6.18    3.53
  -6   2  15   14.00    3.31
  -5   2  15    2.15    2.07
  -4   2  15    7.53    2.81
  -3   2  15    4.37    2.30
   6  -3 -15    8.08    4.55
  -6   3  15    0.82    2.53
  -5   3  15    1.60    2.59
  -4   3  15    4.16    3.00
   5  -4 -15    0.76    3.81
  -5  -8  16    0.67    3.50
  -4  -8  16    4.48    2.55
  -5  -7  16   -2.62    2.09
  -4  -7  16    3.70    2.44
  -3  -7  16    7.98    2.79
  -6  -6  16   13.88    3.18
  -5  -6  16   10.33    2.81
  -4  -6  16   35.33    5.99
  -3  -6  16   21.56    3.94
  -6  -5  16    7.96    2.67
  -5  -5  16    4.63    3.06
  -5  -5  16    1.70    2.11
  -4  -5  16    7.07    2.75
  -3  -5  16   15.08    3.64
  -2  -5  16    6.28    2.47
  -6  -4  16    1.61    2.55
  -6  -4  16    1.04    2.10
  -5  -4  16   31.24    4.74
  -5  -4  16   21.92    4.29
  -4  -4  16    8.30    2.95
  -3  -4  16   20.31    3.99
  -2  -4  16   -0.23    2.22
  -6  -3  16    3.31    2.71
  -6  -3  16    3.54    2.12
  -5  -3  16   39.37    5.41
  -5  -3  16   48.09    5.01
  -4  -3  16    1.42    1.67
  -3  -3  16   12.01    3.24
  -2  -3  16    0.91    2.68
  -7  -2  16    5.07    1.99
  -6  -2  16    2.87    2.23
  -6  -2  16    4.51    2.86
  -5  -2  16    0.90    3.14
  -5  -2  16    8.69    2.25
  -4  -2  16    2.57    2.40
  -3  -2  16    8.34    3.10
  -2  -2  16    0.44    1.81
  -7  -1  16    6.38    2.47
  -6  -1  16    0.77    3.56
  -5  -1  16    4.14    2.51
  -3  -1  16    0.10    2.09
  -6   0  16   -1.67    2.97
  -6   0  16   -2.23    2.02
  -5   0  16    9.61    3.17
  -4   0  16    9.28    3.24
  -3   0  16    0.72    2.23
  -6   1  16    0.87    2.81
  -4   1  16    5.26    2.44
  -6   2  16    2.15    3.13
  -5   2  16    1.22    2.61
  -5  -7  17    1.10    3.56
  -4  -6  17    8.32    3.31
  -6  -5  17    0.78    3.00
  -5  -5  17    2.56    2.82
  -4  -5  17    1.78    2.72
  -6  -4  17    6.40    3.14
  -5  -4  17    5.72    2.88
  -4  -4  17   -3.57    2.59
  -6  -3  17   10.20    3.40
  -5  -3  17    4.47    2.99
  -4  -3  17   21.24    4.16
  -6  -2  17    0.30    2.61
  -5  -2  17   -2.70    4.69
  -4  -2  17   41.89    5.57
  -6  -1  17   10.69    3.80
  -5  -1  17   -3.41    2.74
  -6   0  17    4.73    3.81
  -5   0  17   16.05    4.41
   0   0   0    0.00    0.00
;
_shelx_hkl_checksum              4755
loop_
_space_group_symop_operation_xyz
'x, y, z'
'-x, -y, -z'
loop_
_atom_site_type_symbol
_atom_site_label
_atom_site_fract_x
_atom_site_fract_y
_atom_site_fract_z
_atom_site_U_iso_or_equiv
_atom_site_adp_type
_atom_site_calc_flag
_atom_site_refinement_flags_adp
_atom_site_refinement_flags_posn
_atom_site_occupancy
C C1 0.4756(3) 0.6199(3) 0.2148(2) 0.0135(4) Uani d . . 1
C C2 0.3654(3) 0.4579(3) 0.1504(2) 0.0131(4) Uani d . . 1
C C3 0.4106(3) 0.3254(3) 0.0806(2) 0.0153(4) Uani d . . 1
H H3 0.526095 0.330755 0.085515 0.018 Uiso calc U R 1
C C4 0.2856(3) 0.1845(3) 0.0033(2) 0.0169(4) Uani d . . 1
H H4 0.318462 0.095088 -0.042943 0.02 Uiso calc U R 1
C C5 0.1150(3) 0.1718(3) -0.0075(2) 0.0159(4) Uani d . . 1
H H5 0.032168 0.075998 -0.062278 0.019 Uiso calc U R 1
C C6 0.0660(3) 0.3016(3) 0.0630(2) 0.0134(4) Uani d . . 1
C C7 0.1936(3) 0.4405(3) 0.1397(2) 0.0124(4) Uani d . . 1
C C8 -0.0531(3) 0.4944(3) 0.1579(2) 0.0141(4) Uani d . . 1
H H8 -0.132945 0.549426 0.184158 0.017 Uiso calc U R 1
C C9 -0.0913(3) 0.3397(3) 0.0767(2) 0.0150(4) Uani d . . 1
H H9 -0.201586 0.269632 0.03649 0.018 Uiso calc U R 1
C C10 0.2399(2) 0.7012(2) 0.2966(2) 0.0112(4) Uani d . . 1
C C11 0.3090(3) 0.6588(2) 0.4243(2) 0.0123(4) Uani d . . 1
C C12 0.2381(3) 0.5805(3) 0.5842(2) 0.0210(5) Uani d . . 1
H H12A 0.306617 0.497586 0.575723 0.032 Uiso calc U R 1
H H12B 0.137398 0.538497 0.600588 0.032 Uiso calc U R 1
H H12C 0.30804 0.676703 0.656158 0.032 Uiso calc U R 1
C C13 0.1687(2) 0.8549(2) 0.31297(19) 0.0109(4) Uani d . . 1
C C14 0.2695(2) 0.9823(2) 0.3009(2) 0.0117(4) Uani d . . 1
C C15 0.2278(3) 1.1333(3) 0.3093(2) 0.0142(4) Uani d . . 1
H H15 0.298602 1.218228 0.300349 0.017 Uiso calc U R 1
C C16 0.0770(3) 1.1538(3) 0.3316(2) 0.0151(4) Uani d . . 1
H H16 0.042666 1.254309 0.336776 0.018 Uiso calc U R 1
C C17 -0.0237(3) 1.0283(3) 0.3463(2) 0.0154(4) Uani d . . 1
H H17 -0.125529 1.045238 0.361901 0.019 Uiso calc U R 1
C C18 0.0214(2) 0.8782(3) 0.3387(2) 0.0134(4) Uani d . . 1
H H18 -0.046994 0.794323 0.350743 0.016 Uiso calc U R 1
N N1 0.1221(2) 0.5585(2) 0.19599(16) 0.0108(3) Uani d . . 1
N N2 0.3871(2) 0.7375(2) 0.25888(17) 0.0125(3) Uani d . . 1
O O1 0.62250(18) 0.66095(19) 0.22236(15) 0.0176(3) Uani d . . 1
O O2 0.18204(18) 0.62314(19) 0.46527(14) 0.0160(3) Uani d . . 1
O O3 0.45638(18) 0.65402(19) 0.47519(15) 0.0165(3) Uani d . . 1
O O4 0.60320(18) 1.00688(18) 0.39639(15) 0.0172(3) Uani d . . 1
O O5 0.4686(2) 0.95020(19) 0.16273(15) 0.0185(3) Uani d . . 1
S S1 0.45623(6) 0.93354(6) 0.27993(5) 0.01187(12) Uani d . . 1
loop_
_atom_site_aniso_label
_atom_site_aniso_U_11
_atom_site_aniso_U_22
_atom_site_aniso_U_33
_atom_site_aniso_U_12
_atom_site_aniso_U_13
_atom_site_aniso_U_23
C1 0.0132(9) 0.0165(10) 0.0126(10) 0.0057(8) 0.0058(8) 0.0051(8)
C2 0.0122(9) 0.0153(10) 0.0109(9) 0.0026(8) 0.0038(8) 0.0035(8)
C3 0.0148(9) 0.0161(10) 0.0170(10) 0.0053(8) 0.0068(8) 0.0064(9)
C4 0.0226(11) 0.0152(10) 0.0142(10) 0.0065(9) 0.0075(9) 0.0048(8)
C5 0.0195(10) 0.0134(10) 0.0124(10) -0.0003(8) 0.0037(8) 0.0040(8)
C6 0.0143(9) 0.0144(10) 0.0103(9) 0.0009(8) 0.0025(8) 0.0054(8)
C7 0.0135(9) 0.0142(10) 0.0111(9) 0.0039(8) 0.0044(8) 0.0063(8)
C8 0.0102(9) 0.0184(11) 0.0147(10) 0.0023(8) 0.0047(8) 0.0071(8)
C9 0.0118(9) 0.0160(10) 0.0146(10) 0.0006(8) 0.0027(8) 0.0044(8)
C10 0.0073(8) 0.0131(10) 0.0120(9) 0.0009(7) 0.0031(7) 0.0032(8)
C11 0.0135(9) 0.0112(9) 0.0113(9) 0.0019(7) 0.0045(8) 0.0026(8)
C12 0.0204(11) 0.0295(13) 0.0180(11) 0.0057(10) 0.0076(9) 0.0145(10)
C13 0.0098(9) 0.0136(10) 0.0090(9) 0.0023(7) 0.0026(7) 0.0040(8)
C14 0.0100(9) 0.0143(10) 0.0111(9) 0.0037(7) 0.0043(7) 0.0038(8)
C15 0.0145(9) 0.0124(10) 0.0136(10) 0.0025(8) 0.0023(8) 0.0041(8)
C16 0.0157(10) 0.0130(10) 0.0153(10) 0.0050(8) 0.0044(8) 0.0030(8)
C17 0.0131(9) 0.0214(11) 0.0117(10) 0.0061(8) 0.0051(8) 0.0034(8)
C18 0.0100(9) 0.0186(10) 0.0118(10) 0.0019(8) 0.0044(8) 0.0049(8)
N1 0.0083(7) 0.0126(8) 0.0091(8) 0.0013(6) 0.0017(6) 0.0019(7)
N2 0.0093(7) 0.0131(8) 0.0174(9) 0.0030(6) 0.0074(7) 0.0049(7)
O1 0.0125(7) 0.0198(8) 0.0233(8) 0.0048(6) 0.0094(6) 0.0071(7)
O2 0.0139(7) 0.0238(8) 0.0149(8) 0.0057(6) 0.0062(6) 0.0115(6)
O3 0.0117(7) 0.0194(8) 0.0176(8) 0.0048(6) 0.0036(6) 0.0061(6)
O4 0.0094(7) 0.0170(8) 0.0201(8) 0.0007(6) 0.0026(6) 0.0015(6)
O5 0.0209(8) 0.0230(8) 0.0207(8) 0.0083(6) 0.0134(7) 0.0124(7)
S1 0.0098(2) 0.0127(2) 0.0143(3) 0.00197(18) 0.00554(19) 0.00481(19)
loop_
_atom_type_symbol
_atom_type_description
_atom_type_scat_dispersion_real
_atom_type_scat_dispersion_imag
_atom_type_scat_source
C C 0.0033 0.0016 'International Tables Vol C Tables 4.2.6.8 and 6.1.1.4'
H H 0.0000 0.0000 'International Tables Vol C Tables 4.2.6.8 and 6.1.1.4'
N N 0.0061 0.0033 'International Tables Vol C Tables 4.2.6.8 and 6.1.1.4'
O O 0.0106 0.0060 'International Tables Vol C Tables 4.2.6.8 and 6.1.1.4'
S S 0.1246 0.1234 'International Tables Vol C Tables 4.2.6.8 and 6.1.1.4'
loop_
_geom_angle_atom_site_label_1
_geom_angle_atom_site_label_2
_geom_angle_atom_site_label_3
_geom_angle
O1 C1 N2 120.17(19)
O1 C1 C2 126.78(19)
N2 C1 C2 112.70(17)
C3 C2 C7 116.82(19)
C3 C2 C1 124.74(19)
C7 C2 C1 117.57(18)
C2 C3 C4 120.02(19)
C2 C3 H3 120.0
C4 C3 H3 120.0
C5 C4 C3 121.9(2)
C5 C4 H4 119.0
C3 C4 H4 119.0
C4 C5 C6 119.5(2)
C4 C5 H5 120.3
C6 C5 H5 120.3
C7 C6 C5 117.36(19)
C7 C6 C9 105.46(18)
C5 C6 C9 137.11(19)
N1 C7 C2 125.76(19)
N1 C7 C6 109.76(18)
C2 C7 C6 124.39(19)
C9 C8 N1 109.09(18)
C9 C8 H8 125.5
N1 C8 H8 125.5
C8 C9 C6 107.91(18)
C8 C9 H9 126.0
C6 C9 H9 126.0
N1 C10 N2 107.21(16)
N1 C10 C13 115.09(16)
N2 C10 C13 105.05(16)
N1 C10 C11 108.78(16)
N2 C10 C11 107.33(15)
C13 C10 C11 112.90(16)
O3 C11 O2 125.5(2)
O3 C11 C10 123.32(19)
O2 C11 C10 111.16(16)
O2 C12 H12A 109.5
O2 C12 H12B 109.5
H12A C12 H12B 109.5
O2 C12 H12C 109.5
H12A C12 H12C 109.5
H12B C12 H12C 109.5
C18 C13 C14 119.38(19)
C18 C13 C10 127.53(18)
C14 C13 C10 113.09(17)
C13 C14 C15 123.22(18)
C13 C14 S1 112.49(15)
C15 C14 S1 124.26(16)
C14 C15 C16 116.84(19)
C14 C15 H15 121.6
C16 C15 H15 121.6
C17 C16 C15 120.64(19)
C17 C16 H16 119.7
C15 C16 H16 119.7
C16 C17 C18 121.62(19)
C16 C17 H17 119.2
C18 C17 H17 119.2
C13 C18 C17 118.26(19)
C13 C18 H18 120.9
C17 C18 H18 120.9
C7 N1 C8 107.76(17)
C7 N1 C10 117.21(16)
C8 N1 C10 133.59(17)
C1 N2 C10 123.94(17)
C1 N2 S1 120.40(14)
C10 N2 S1 115.55(13)
C11 O2 C12 113.91(16)
O5 S1 O4 117.68(10)
O5 S1 N2 109.17(9)
O4 S1 N2 111.68(9)
O5 S1 C14 112.66(10)
O4 S1 C14 110.90(9)
N2 S1 C14 91.79(9)
loop_
_geom_bond_atom_site_label_1
_geom_bond_atom_site_label_2
_geom_bond_distance
C1 O1 1.217(2)
C1 N2 1.420(3)
C1 C2 1.466(3)
C2 C3 1.398(3)
C2 C7 1.398(3)
C3 C4 1.402(3)
C3 H3 0.95
C4 C5 1.389(3)
C4 H4 0.95
C5 C6 1.403(3)
C5 H5 0.95
C6 C7 1.400(3)
C6 C9 1.447(3)
C7 N1 1.377(3)
C8 C9 1.369(3)
C8 N1 1.398(2)
C8 H8 0.95
C9 H9 0.95
C10 N1 1.459(3)
C10 N2 1.470(2)
C10 C13 1.525(3)
C10 C11 1.557(3)
C11 O3 1.199(2)
C11 O2 1.338(2)
C12 O2 1.460(3)
C12 H12A 0.98
C12 H12B 0.98
C12 H12C 0.98
C13 C18 1.389(3)
C13 C14 1.391(3)
C14 C15 1.393(3)
C14 S1 1.746(2)
C15 C16 1.394(3)
C15 H15 0.95
C16 C17 1.393(3)
C16 H16 0.95
C17 C18 1.397(3)
C17 H17 0.95
C18 H18 0.95
N2 S1 1.6797(18)
O4 S1 1.4333(15)
O5 S1 1.4326(16)
