#------------------------------------------------------------------------------
#$Date: 2019-11-10 08:44:52 +0200 (Sun, 10 Nov 2019) $
#$Revision: 225933 $
#$URL: file:///home/coder/svn-repositories/cod/cif/4/51/58/4515833.cif $
#------------------------------------------------------------------------------
#
# This file is available in the Crystallography Open Database (COD),
# http://www.crystallography.net/
#
# All data on this site have been placed in the public domain by the
# contributors.
#
data_4515833
loop_
_publ_author_name
'Schmitt, Daniel C.'
'Niljianskul, Nootaree'
'Sach, Neal W.'
'Trujillo, John I.'
_publ_section_title
;
 A Parallel Approach to 7-(Hetero)arylpyrazolo[1,5- a]pyrimidin-5-ones.
;
_journal_issue                   5
_journal_name_full               'ACS combinatorial science'
_journal_page_first              256
_journal_page_last               260
_journal_paper_doi               10.1021/acscombsci.8b00032
_journal_volume                  20
_journal_year                    2018
_chemical_formula_sum            'C12 H8 Br N3 O'
_chemical_formula_weight         290.12
_space_group_crystal_system      triclinic
_space_group_IT_number           2
_space_group_name_Hall           '-P 1'
_space_group_name_H-M_alt        'P -1'
_atom_sites_solution_hydrogens   mixed
_audit_creation_method           SHELXL-2014/7
_cell_angle_alpha                63.424(2)
_cell_angle_beta                 86.421(2)
_cell_angle_gamma                87.903(2)
_cell_formula_units_Z            2
_cell_length_a                   3.9214(3)
_cell_length_b                   11.8486(10)
_cell_length_c                   13.0394(11)
_cell_measurement_reflns_used    8449
_cell_measurement_temperature    123(2)
_cell_measurement_theta_max      72.17
_cell_measurement_theta_min      3.80
_cell_volume                     540.76(8)
_computing_structure_refinement  'SHELXL-2014/7 (Sheldrick, 2014)'
_diffrn_ambient_temperature      123(2)
_diffrn_measured_fraction_theta_full 0.993
_diffrn_measured_fraction_theta_max 0.990
_diffrn_measurement_device_type  'Bruker D8 Venture Diffractometer'
_diffrn_radiation_type           CuK\a
_diffrn_radiation_wavelength     1.54178
_diffrn_reflns_av_R_equivalents  0.0283
_diffrn_reflns_av_unetI/netI     0.0230
_diffrn_reflns_Laue_measured_fraction_full 0.993
_diffrn_reflns_Laue_measured_fraction_max 0.990
_diffrn_reflns_limit_h_max       4
_diffrn_reflns_limit_h_min       -4
_diffrn_reflns_limit_k_max       14
_diffrn_reflns_limit_k_min       -14
_diffrn_reflns_limit_l_max       16
_diffrn_reflns_limit_l_min       -16
_diffrn_reflns_number            9237
_diffrn_reflns_point_group_measured_fraction_full 0.993
_diffrn_reflns_point_group_measured_fraction_max 0.990
_diffrn_reflns_theta_full        67.679
_diffrn_reflns_theta_max         72.165
_diffrn_reflns_theta_min         3.795
_diffrn_source                   'Microfocus TXS Rotating Anode'
_exptl_absorpt_coefficient_mu    5.070
_exptl_absorpt_correction_type   empirical
_exptl_absorpt_process_details   SADABS
_exptl_crystal_colour            Colorless
_exptl_crystal_density_diffrn    1.782
_exptl_crystal_description       PRISM
_exptl_crystal_F_000             288
_exptl_crystal_size_max          0.120
_exptl_crystal_size_mid          0.040
_exptl_crystal_size_min          0.020
_exptl_transmission_factor_max   1.0000
_exptl_transmission_factor_min   0.7505
_refine_diff_density_max         0.407
_refine_diff_density_min         -0.342
_refine_diff_density_rms         0.064
_refine_ls_extinction_method     none
_refine_ls_goodness_of_fit_ref   1.046
_refine_ls_hydrogen_treatment    mixed
_refine_ls_matrix_type           full
_refine_ls_number_parameters     157
_refine_ls_number_reflns         2103
_refine_ls_number_restraints     1
_refine_ls_restrained_S_all      1.049
_refine_ls_R_factor_all          0.0207
_refine_ls_R_factor_gt           0.0205
_refine_ls_shift/su_max          0.001
_refine_ls_shift/su_mean         0.000
_refine_ls_structure_factor_coef Fsqd
_refine_ls_weighting_details
'w=1/[\s^2^(Fo^2^)+(0.0236P)^2^+0.4994P] where P=(Fo^2^+2Fc^2^)/3'
_refine_ls_weighting_scheme      calc
_refine_ls_wR_factor_gt          0.0526
_refine_ls_wR_factor_ref         0.0527
_reflns_Friedel_coverage         0.000
_reflns_number_gt                2078
_reflns_number_total             2103
_reflns_threshold_expression     'I > 2\s(I)'
_cod_data_source_file            co8b00032_si_003.cif
_cod_data_source_block           Z917
_cod_depositor_comments
;
The following automatic conversions were performed:

data item '_exptl_absorpt_correction_type' value 'Empirical' was
changed to 'empirical' in accordance with the
/home/data/users/saulius/crontab/automatic-downloads/current/ACS/lib/dictionaries/cif_core.dic
dictionary named 'cif_core.dic' version 2.4.2 last updated on
2011-04-26.

Automatic conversion script
Id: cif_fix_values 6909 2019-04-08 15:41:33Z antanas 
;
_cod_database_code               4515833
_shelx_space_group_comment
;
The symmetry employed for this shelxl refinement is uniquely defined
by the following loop, which should always be used as a source of
symmetry information in preference to the above space-group names.
They are only intended as comments.
;
_shelx_estimated_absorpt_t_min   0.581
_shelx_estimated_absorpt_t_max   0.905
_shelx_res_file
;

    Z917.res created by SHELXL-2014/7


TITL Z917.res in P-1
CELL  1.54178   3.9214  11.8486  13.0394   63.424   86.421   87.903
ZERR    2.000   0.0003   0.0010   0.0011    0.002    0.002    0.002
LATT 1
SFAC C  H  Br N  O
UNIT 24  16  2  6  2
L.S. 12
ACTA
OMIT 3 -9 2
BOND $H
FMAP 2
PLAN 0
WPDB -2
SIZE 0.02 0.04 0.12
DFIX 1.0 N1 H1X
TEMP -150
WGHT    0.023600    0.499400
FVAR       0.34117
BR1   3    1.096423    0.257226    0.791904    11.00000    0.02090    0.01458 =
         0.02215   -0.01123   -0.00315    0.00444
N1    4    0.643652    0.525706    0.619099    11.00000    0.02084    0.01438 =
         0.01333   -0.00862   -0.00153    0.00045
H1X   2    0.643947    0.461125    0.597756    11.00000   -1.20000
N2    4    0.741895    0.592510    0.760786    11.00000    0.01783    0.01250 =
         0.01198   -0.00654   -0.00197    0.00074
N3    4    0.893847    0.555223    0.863726    11.00000    0.01983    0.01668 =
         0.01303   -0.00760   -0.00390    0.00117
O1    5    0.352862    0.654372    0.462651    11.00000    0.03211    0.01838 =
         0.01628   -0.00986   -0.00697    0.00413
C1    1    0.699930    0.925312    0.675318    11.00000    0.02584    0.01460 =
         0.01751   -0.00629   -0.00258    0.00126
AFIX  43
H1    2    0.781416    0.948352    0.598465    11.00000   -1.20000
AFIX   0
C2    1    0.693605    1.014122    0.718151    11.00000    0.03012    0.01266 =
         0.02633   -0.00819   -0.00472    0.00088
AFIX  43
H2    2    0.771358    1.097489    0.670858    11.00000   -1.20000
AFIX   0
C3    1    0.572677    0.979880    0.830619    11.00000    0.02496    0.01884 =
         0.02906   -0.01681   -0.00722    0.00567
AFIX  43
H3    2    0.571575    1.039677    0.860615    11.00000   -1.20000
AFIX   0
C4    1    0.453670    0.858786    0.899179    11.00000    0.02112    0.02195 =
         0.02035   -0.01310   -0.00158    0.00422
AFIX  43
H4    2    0.366092    0.836686    0.975269    11.00000   -1.20000
AFIX   0
C5    1    0.461926    0.769911    0.857208    11.00000    0.01737    0.01625 =
         0.01865   -0.00904   -0.00195    0.00198
AFIX  43
H5    2    0.382661    0.686806    0.904713    11.00000   -1.20000
AFIX   0
C6    1    0.587224    0.802847    0.744751    11.00000    0.01679    0.01399 =
         0.01736   -0.00856   -0.00387    0.00279
C7    1    0.595711    0.710218    0.697663    11.00000    0.01661    0.01227 =
         0.01583   -0.00644    0.00109    0.00001
C8    1    0.473987    0.732007    0.595361    11.00000    0.02251    0.01292 =
         0.01552   -0.00636   -0.00272    0.00287
AFIX  43
H8    2    0.377568    0.812552    0.549502    11.00000   -1.20000
AFIX   0
C9    1    0.484392    0.637429    0.552572    11.00000    0.01954    0.01601 =
         0.01412   -0.00719   -0.00075    0.00005
C10   1    0.775545    0.503063    0.721444    11.00000    0.01531    0.01289 =
         0.01353   -0.00723    0.00182   -0.00139
C11   1    0.952758    0.403896    0.801513    11.00000    0.01729    0.01320 =
         0.01633   -0.00766   -0.00055    0.00077
C12   1    1.018108    0.441463    0.886762    11.00000    0.01807    0.01463 =
         0.01463   -0.00657   -0.00214    0.00057
AFIX  43
H12   2    1.138210    0.390696    0.953471    11.00000   -1.20000
AFIX   0
HKLF 4

REM  Z917.res in P-1
REM R1 =  0.0205 for    2078 Fo > 4sig(Fo)  and  0.0207 for all    2103 data
REM    157 parameters refined using      1 restraints

END

WGHT      0.0234      0.4741

REM Highest difference peak  0.407,  deepest hole -0.342,  1-sigma level  0.064
Q1    1   1.5752  0.2626  0.7866  11.00000  0.05    0.41
Q2    1   1.3509  0.2615  0.7848  11.00000  0.05    0.40
Q3    1   0.7990  0.2620  0.7871  11.00000  0.05    0.38
Q4    1   1.0158  0.4184  0.8427  11.00000  0.05    0.33
Q5    1   0.4936  0.6837  0.5793  11.00000  0.05    0.32
Q6    1   0.7770  0.4245  0.7855  11.00000  0.05    0.29
Q7    1   0.7567  0.3967  0.8104  11.00000  0.05    0.28
Q8    1   0.6773  0.6591  0.7216  11.00000  0.05    0.28
Q9    1   1.1033  0.3262  0.8034  11.00000  0.05    0.28
Q10   1   0.9037  0.4651  0.7469  11.00000  0.05    0.27
Q11   1   1.3483  0.2723  0.8369  11.00000  0.05    0.26
Q12   1   0.5987  0.7605  0.7200  11.00000  0.05    0.26
Q13   1   0.4564  1.1213  0.7688  11.00000  0.05    0.26
Q14   1   0.5922  0.7815  0.8071  11.00000  0.05    0.25
Q15   1   0.4541  0.8018  0.7896  11.00000  0.05    0.25
Q16   1   0.7063  0.9630  0.7016  11.00000  0.05    0.25
Q17   1   0.6023  0.7361  0.6217  11.00000  0.05    0.25
Q18   1   0.7370  0.5488  0.7396  11.00000  0.05    0.24
Q19   1   0.6816  0.8508  0.7156  11.00000  0.05    0.24
Q20   1   0.8481  0.2444  0.7454  11.00000  0.05    0.22
;
_shelx_res_checksum              31977
_shelx_hkl_file
;
  -1   0   0   11.28    0.54
   1   0   0   11.18    0.55
   2   0   0   94.21    3.86
   2   0   0  102.54    4.06
  -3   0   0    0.80    0.19
  -3   0   0    0.77    0.12
  -3   0   0    0.51    0.19
   3   0   0    0.58    0.14
   3   0   0    0.50    0.12
   3   0   0    0.49    0.35
  -4   0   0   21.23    0.85
  -4   0   0   21.40    0.95
  -4   0   0   20.90    0.93
   4   0   0   20.56    0.92
   4   0   0   21.18    0.89
   4  -1   0   30.04    1.19
   4  -1   0   29.03    1.21
  -4   1   0   28.50    1.24
  -4   1   0   27.20    1.12
  -4   1   0   30.62    1.25
   3  -1   0   69.62    2.74
   3  -1   0   67.63    2.76
   3  -1   0   73.71    3.29
  -3   1   0   71.78    2.72
  -3   1   0   68.66    2.80
  -3   1   0   73.67    2.80
   2  -1   0  233.02    8.82
   2  -1   0  218.85    8.66
   1  -1   0    4.88    0.35
   1  -1   0    4.91    0.31
   1  -1   0    4.83    0.33
  -1   1   0    5.11    0.30
   0   1   0  229.01    8.67
  -1  -1   0  529.18   20.46
   1   1   0  550.48   20.36
   2   1   0  260.40   10.24
   2   1   0  263.74   10.01
  -3  -1   0  106.05    4.06
  -3  -1   0  107.16    4.01
  -3  -1   0  100.41    4.06
   3   1   0  108.32    4.64
   3   1   0  102.38    4.04
   3   1   0  103.99    4.02
  -4  -1   0   34.01    1.41
  -4  -1   0   33.79    1.35
  -4  -1   0   35.07    1.43
   4   1   0   33.83    1.38
   4   1   0   34.72    1.41
   4  -2   0   44.06    1.84
   4  -2   0   47.88    1.82
  -4   2   0   46.96    1.88
  -4   2   0   45.85    1.88
   3  -2   0   32.89    1.42
   3  -2   0   36.96    1.89
   3  -2   0   35.19    1.41
  -3   2   0   35.91    1.37
  -3   2   0   34.48    1.48
  -3   2   0   35.49    1.47
   2  -2   0  231.77    9.56
   2  -2   0  267.87    9.74
   1  -2   0   46.78    1.81
   1  -2   0   44.87    1.84
  -1   2   0   46.43    1.81
   0  -2   0  127.60    4.98
   0  -2   0  132.42    4.99
  -1  -2   0    5.93    0.46
   1   2   0    6.15    0.52
   1   2   0    5.83    0.32
  -2  -2   0   59.18    2.61
   2   2   0   62.10    2.72
   2   2   0   61.48    2.45
  -3  -2   0   39.09    1.50
  -3  -2   0   37.22    1.54
  -3  -2   0   36.15    1.54
  -3  -2   0   36.14    1.46
   3   2   0   38.23    1.50
   3   2   0   38.63    2.12
   3   2   0   37.43    1.52
  -4  -2   0   30.79    1.30
  -4  -2   0   31.08    1.26
   4   2   0   32.53    1.31
   4   2   0   31.87    1.29
   4  -3   0   29.40    1.24
  -4   3   0   29.71    1.29
  -4   3   0   31.92    1.29
   3  -3   0  118.85    4.71
   3  -3   0  127.27    5.20
  -3   3   0  123.02    4.65
  -3   3   0  121.22    4.77
  -3   3   0  125.22    4.75
  -3   3   0  120.93    4.74
   2  -3   0  125.05    4.96
   2  -3   0  137.44    5.10
  -2   3   0  122.75    4.86
  -2   3   0  122.55    4.88
   1  -3   0   53.89    2.11
   1  -3   0   53.50    2.07
   1  -3   0   49.83    2.10
  -1   3   0   53.60    2.06
   0  -3   0   17.95    0.88
   0  -3   0   20.11    0.91
   0   3   0   20.54    0.76
  -1  -3   0    1.57    0.35
   1   3   0    1.41    0.18
   1   3   0    1.51    0.38
  -2  -3   0  142.55    5.84
  -2  -3   0  143.02    5.50
  -2  -3   0  147.25    5.50
   2   3   0  147.61    5.92
   2   3   0  138.17    5.49
   2   3   0  144.29    5.59
   2   3   0  148.41    5.51
  -3  -3   0  153.32    5.52
  -3  -3   0  142.30    5.54
  -3  -3   0  134.07    5.49
   3   3   0  144.25    5.52
   3   3   0  145.29    6.22
   3   3   0  148.40    5.54
   3   3   0  143.84    5.54
  -4  -3   0    9.90    0.53
  -4  -3   0   11.62    0.51
   4   3   0   12.46    0.56
   4   3   0   10.67    0.53
   4  -4   0   40.26    1.65
  -4   4   0   43.89    1.70
  -4   4   0   39.66    1.67
   3  -4   0    2.24    0.57
  -3   4   0    2.53    0.34
  -3   4   0    2.10    0.33
  -3   4   0    2.29    0.32
   2  -4   0   45.51    1.90
  -2   4   0   41.31    1.66
  -2   4   0   39.16    1.67
  -2   4   0   40.36    1.69
   1  -4   0   40.36    1.59
   1  -4   0   37.47    1.67
   1  -4   0   40.24    1.69
  -1   4   0   41.58    1.59
  -1  -4   0  140.23    5.61
   1   4   0  141.21    5.36
   1   4   0  141.23    5.62
  -2  -4   0    5.95    0.32
  -2  -4   0    5.31    0.30
  -2  -4   0    5.54    0.61
  -2  -4   0    6.20    0.32
   2   4   0    5.54    0.39
   2   4   0    5.49    0.32
   2   4   0    5.31    0.31
   2   4   0    6.24    0.68
   2   4   0    6.41    0.33
  -3  -4   0   17.27    0.75
  -3  -4   0   16.23    0.72
   3   4   0   16.56    1.36
   3   4   0   17.03    0.75
   3   4   0   16.82    0.77
   3   4   0   18.07    0.77
  -4  -4   0   34.29    1.42
   4   4   0   36.20    1.43
   4   4   0   36.90    1.44
   4  -5   0   62.35    2.41
  -4   5   0   63.61    2.43
  -4   5   0   58.68    2.39
  -4   5   0   63.04    2.46
   3  -5   0  160.41    6.41
  -3   5   0  153.75    6.00
  -3   5   0  154.69    5.96
  -3   5   0  150.81    5.96
   2  -5   0  118.74    4.56
  -2   5   0  112.46    4.31
  -2   5   0  107.20    4.27
  -2   5   0  103.94    4.31
  -2   5   0  112.68    4.29
   1  -5   0  219.79    8.19
   1  -5   0  194.38    8.15
   1  -5   0  215.72    8.00
   0  -5   0    0.16    0.20
  -1  -5   0  279.19   10.92
   1   5   0  279.30   10.90
   1   5   0  280.98   10.58
  -2  -5   0   50.82    1.95
  -2  -5   0   50.60    1.94
  -2  -5   0   49.96    2.41
  -2  -5   0   49.29    1.93
   2   5   0   49.23    1.93
   2   5   0   43.97    2.01
   2   5   0   50.82    1.94
   2   5   0   49.98    1.94
  -3  -5   0   98.62    3.71
  -3  -5   0   98.71    3.73
   3   5   0   96.33    3.74
   3   5   0   99.51    3.73
   3   5   0   87.77    4.47
   3   5   0   98.01    3.73
  -4  -5   0    8.10    0.39
   4   5   0    7.21    0.40
   4   5   0    8.35    0.40
   4   5   0    8.17    0.38
  -4   6   0    0.31    0.17
  -4   6   0    0.21    0.11
  -4   6   0    0.06    0.11
   3  -6   0    1.06    0.35
  -3   6   0    1.65    0.31
  -3   6   0    1.36    0.21
  -3   6   0    1.29    0.23
   2  -6   0   83.31    3.52
  -2   6   0   75.82    3.16
  -2   6   0   81.41    3.22
  -2   6   0   83.92    3.20
  -2   6   0   82.23    3.21
   1  -6   0  479.42   17.29
  -1   6   0  444.31   17.06
  -1   6   0  425.71   17.01
   0  -6   0  191.89    7.57
  -1  -6   0  136.20    5.33
  -1  -6   0  137.18    5.35
  -1  -6   0  145.93    5.76
   1   6   0  144.84    5.35
   1   6   0  136.79    5.33
  -2  -6   0    5.80    0.36
  -2  -6   0    5.98    0.34
  -2  -6   0    6.26    0.77
  -2  -6   0    6.35    0.37
   2   6   0    6.01    0.33
   2   6   0    6.09    0.34
   2   6   0    6.35    0.35
  -3  -6   0   39.17    1.55
  -3  -6   0   38.15    1.57
   3   6   0   38.36    1.54
   3   6   0   38.49    1.58
   3   6   0   40.34    1.57
  -4  -6   0   24.51    0.98
   4   6   0   22.50    0.99
   4   6   0   25.95    0.98
  -4   7   0   42.69    1.69
  -3   7   0   23.59    1.03
  -3   7   0   20.96    0.95
  -3   7   0   22.56    1.00
   2  -7   0   39.65    1.92
  -2   7   0   38.31    1.59
  -2   7   0   34.17    1.51
  -2   7   0   38.06    1.57
  -2   7   0   38.14    1.62
   1  -7   0    0.07    0.21
  -1   7   0    0.15    0.18
  -1   7   0    0.07    0.06
  -1   7   0    0.07    0.14
  -1   7   0    0.16    0.14
   0  -7   0   30.93    1.56
   0   7   0   29.13    1.26
   0   7   0   28.61    1.16
   0   7   0   28.39    1.23
  -1  -7   0  146.21    6.05
  -1  -7   0  147.05    5.56
  -1  -7   0  143.72    5.55
   1   7   0  150.61    5.55
   1   7   0  140.19    5.53
   1   7   0  141.79    5.61
   1   7   0  149.34    5.64
  -2  -7   0  157.46    6.69
  -2  -7   0  160.91    6.00
  -2  -7   0  158.11    5.99
  -2  -7   0  165.12    6.00
   2   7   0  161.30    6.00
   2   7   0  140.38    6.08
   2   7   0  154.83    5.98
  -3  -7   0    8.19    0.43
  -3  -7   0    7.76    0.41
   3   7   0    7.98    0.42
   3   7   0    8.13    0.45
  -4  -7   0    7.63    0.34
   4   7   0    7.81    0.33
   4   7   0    7.12    0.34
  -3   8   0    3.02    0.33
  -3   8   0    3.33    0.35
   2  -8   0   31.58    1.64
  -2   8   0   31.01    1.34
  -2   8   0   30.02    1.35
  -2   8   0   32.49    1.40
   1  -8   0   60.56    2.73
  -1   8   0   62.41    2.46
  -1   8   0   60.21    2.39
  -1   8   0   55.74    2.38
   0  -8   0  162.34    6.31
   0  -8   0  150.64    5.80
   0  -8   0  149.99    5.82
   0   8   0  151.47    5.78
   0   8   0  144.69    5.89
   0   8   0  154.22    5.87
  -1  -8   0    3.28    0.26
  -1  -8   0    3.13    0.64
  -1  -8   0    3.71    0.31
   1   8   0    3.66    0.40
   1   8   0    3.36    0.35
   1   8   0    3.54    0.26
  -2  -8   0    1.34    0.17
  -2  -8   0    1.66    0.19
  -2  -8   0    0.71    0.41
  -2  -8   0    1.64    0.21
   2   8   0    1.19    0.16
   2   8   0    1.45    0.19
  -3  -8   0   28.43    1.23
  -3  -8   0   32.84    1.22
   3   8   0   31.59    1.21
   3   8   0   28.47    1.23
  -3   9   0   77.27    2.95
  -3   9   0   73.68    2.95
  -2   9   0  122.79    4.64
  -2   9   0  114.79    4.63
  -2   9   0  119.88    4.67
   1  -9   0   -0.07    0.21
   1  -9   0    0.33    0.15
  -1   9   0   -0.01    0.25
  -1   9   0    0.15    0.19
   0  -9   0   14.09    0.64
   0  -9   0   14.66    0.68
   0  -9   0   14.28    1.10
   0   9   0   15.16    0.75
   0   9   0   14.93    0.78
   0   9   0   14.69    0.62
  -1  -9   0   23.45    1.00
  -1  -9   0   22.67    1.53
  -1  -9   0   23.97    0.99
   1   9   0   24.49    0.98
   1   9   0   22.47    1.07
   1   9   0   23.45    1.09
  -2  -9   0   86.01    3.25
  -2  -9   0   82.89    3.25
   2   9   0   82.94    3.25
  -3  -9   0   17.16    0.68
  -3  -9   0   16.22    0.68
   3   9   0   16.19    0.69
   3   9   0   15.36    0.64
  -3  10   0    0.50    0.15
   2 -10   0   43.79    1.76
  -2  10   0   40.76    1.77
  -2  10   0   45.58    1.82
  -2  10   0   47.11    1.86
   1 -10   0  124.10    4.93
   1 -10   0  120.85    5.40
  -1  10   0  136.03    5.05
  -1  10   0  132.79    5.00
   0 -10   0   67.38    3.25
   0 -10   0   70.27    2.69
   0 -10   0   68.57    2.71
   0  10   0   69.15    2.71
   0  10   0   68.90    2.78
   0  10   0   68.41    2.65
   0  10   0   71.79    2.81
  -1 -10   0    4.16    0.29
  -1 -10   0    3.31    0.66
  -1 -10   0    4.19    0.32
   1  10   0    4.10    0.27
   1  10   0    3.78    0.40
   1  10   0    3.88    0.42
  -2 -10   0   17.71    0.75
  -2 -10   0   17.95    0.76
  -2 -10   0   16.70    0.78
   2  10   0   18.04    0.76
  -3 -10   0   17.81    0.75
  -3 -10   0   18.90    0.74
   3  10   0   19.15    0.76
  -2  11   0   55.24    2.16
  -2  11   0   53.29    2.17
   1 -11   0    2.10    0.25
  -1  11   0    2.34    0.37
  -1  11   0    2.26    0.33
   0 -11   0   26.87    1.13
   0 -11   0   28.00    1.11
   0  11   0   27.36    1.23
   0  11   0   27.20    1.20
  -1 -11   0   21.80    0.89
  -1 -11   0   22.17    0.91
   1  11   0   21.49    0.96
   1  11   0   19.85    0.96
   1  11   0   21.57    0.87
   1  11   0   21.09    0.92
  -2 -11   0  127.21    4.72
   2  11   0  120.70    4.71
   1 -12   0   50.06    2.02
  -1  12   0   51.42    2.07
  -1  12   0   54.42    2.10
   0 -12   0   56.65    2.19
   0 -12   0   57.03    2.17
   0  12   0   54.18    2.23
   0  12   0   57.04    2.26
  -1 -12   0   27.39    1.09
  -1 -12   0   27.26    1.07
   1  12   0   26.44    1.08
   0 -13   0   20.57    0.82
   0  13   0   20.14    0.85
  -1 -12   1   29.25    1.14
  -1 -12   1   29.11    1.15
   0  12  -1   11.22    0.55
   0  12  -1    9.28    0.51
   0 -12   1   11.60    0.46
   0 -12   1   11.44    0.49
  -1  12  -1   10.47    0.52
  -1  12  -1    9.05    0.47
   1 -12   1    9.34    0.43
   2  11  -1    2.38    0.16
  -2 -11   1    2.60    0.17
   1  11  -1   50.21    1.92
   1  11  -1   47.31    1.94
  -1 -11   1   50.08    1.93
  -1 -11   1   50.62    1.94
   0  11  -1   43.13    1.78
   0  11  -1   41.39    1.75
   0 -11   1   43.22    1.68
   0 -11   1   43.58    1.71
  -1  11  -1   69.77    2.74
  -1  11  -1   71.12    2.78
   1 -11   1   67.69    2.70
  -2  11  -1   32.55    1.33
  -2  11  -1   34.11    1.32
   2 -11   1   29.84    1.26
   2  10  -1   37.50    1.45
  -2 -10   1   34.05    1.51
  -2 -10   1   38.62    1.45
  -2 -10   1   35.92    1.43
   1  10  -1   42.97    1.75
   1  10  -1   41.89    1.67
   1  10  -1   39.17    1.74
  -1 -10   1   42.66    1.68
  -1 -10   1   44.62    1.70
   0  10  -1    0.20    0.20
   0  10  -1    0.14    0.23
   0  10  -1    0.03    0.08
   0 -10   1    0.07    0.14
   0 -10   1    0.06    0.29
   0 -10   1    0.01    0.11
  -1  10  -1   40.71    1.71
  -1  10  -1   40.92    1.66
   1 -10   1   38.38    1.61
   1 -10   1   39.24    1.63
  -2  10  -1   28.56    1.23
  -2  10  -1   29.12    1.26
   2 -10   1   29.21    1.19
   3   9  -1    0.67    0.12
  -3  -9   1    0.90    0.10
  -3  -9   1    0.77    0.11
   2   9  -1   10.39    0.52
  -2  -9   1   10.99    0.53
  -2  -9   1   10.93    0.52
  -2  -9   1   11.36    0.53
   1   9  -1   59.27    2.51
   1   9  -1   60.22    2.51
   1   9  -1   64.62    2.44
  -1  -9   1   65.56    2.45
  -1  -9   1   65.27    2.46
  -1  -9   1   59.33    3.07
   0   9  -1   67.35    2.81
   0   9  -1   69.96    2.78
   0   9  -1   70.41    2.68
   0  -9   1   69.87    2.71
   0  -9   1   71.40    2.74
   0  -9   1   68.44    3.30
  -1   9  -1   49.93    1.98
  -1   9  -1   50.62    2.04
   1  -9   1   46.44    1.89
   1  -9   1   46.34    1.92
   1  -9   1   47.07    2.40
  -2   9  -1    0.15    0.24
  -2   9  -1    0.15    0.21
  -2   9  -1    0.39    0.19
   2  -9   1    0.48    0.19
  -3   9  -1    4.43    0.32
  -3   9  -1    3.93    0.31
   3   8  -1   68.74    2.60
   3   8  -1   63.63    2.62
  -3  -8   1   71.46    2.61
  -3  -8   1   66.46    2.62
   2   8  -1   77.49    3.19
   2   8  -1   81.52    3.22
  -2  -8   1   82.25    3.23
  -2  -8   1   87.15    3.23
  -2  -8   1   84.98    3.22
  -2  -8   1   85.73    4.83
   1   8  -1   74.15    3.06
   1   8  -1   72.21    3.05
   1   8  -1   79.66    2.99
  -1  -8   1   78.44    3.00
  -1  -8   1   78.77    3.64
  -1  -8   1   80.00    3.02
   0   8  -1   14.41    0.75
   0   8  -1   13.93    0.71
   0  -8   1   14.50    0.68
   0  -8   1   15.19    1.10
   0  -8   1   14.02    0.64
  -1   8  -1    5.83    0.44
  -1   8  -1    6.25    0.50
  -1   8  -1    6.54    0.42
   1  -8   1    5.77    0.38
   1  -8   1    6.51    0.34
   1  -8   1    5.89    0.71
  -2   8  -1   47.27    1.95
  -2   8  -1   48.56    1.99
  -2   8  -1   48.88    1.94
   2  -8   1   44.73    1.90
   2  -8   1   46.33    2.31
  -3   8  -1   71.00    2.80
  -3   8  -1   72.32    2.78
   3  -8   1   68.92    2.75
   3   7  -1    0.14    0.12
   3   7  -1    0.19    0.14
  -3  -7   1    0.11    0.12
  -3  -7   1    0.27    0.13
   2   7  -1   20.22    0.86
   2   7  -1   20.68    0.89
  -2  -7   1   20.74    0.89
  -2  -7   1   21.18    0.88
  -2  -7   1   20.78    0.90
  -2  -7   1   19.39    1.52
   1   7  -1   78.57    3.17
   1   7  -1   75.60    3.15
   1   7  -1   76.12    3.07
   1   7  -1   84.22    3.09
  -1  -7   1   80.33    3.12
  -1  -7   1   82.12    3.65
  -1  -7   1   83.02    3.11
  -1  -7   1   80.04    3.09
   0   7  -1  383.80   14.49
   0   7  -1  376.95   14.58
   0   7  -1  380.25   14.55
   0  -7   1  378.37   14.50
   0  -7   1  378.40   14.52
   0  -7   1  404.39   15.00
  -1   7  -1  114.95    4.62
  -1   7  -1  119.39    4.54
  -1   7  -1  113.19    4.63
  -1   7  -1  125.24    4.68
   1  -7   1  124.79    5.01
  -2   7  -1   38.98    1.64
  -2   7  -1   39.14    1.66
  -2   7  -1   40.17    1.69
   2  -7   1   39.31    2.03
  -3   7  -1    0.15    0.17
  -3   7  -1    0.62    0.24
  -3   7  -1    0.06    0.15
   4   6  -1   16.41    0.66
   4   6  -1   14.71    0.68
  -4  -6   1   16.90    0.66
   3   6  -1   38.59    1.56
   3   6  -1   38.80    1.61
   3   6  -1   40.01    1.59
  -3  -6   1   40.36    1.60
  -3  -6   1   40.24    1.58
   2   6  -1  119.15    4.55
   2   6  -1  117.98    4.56
   2   6  -1  117.00    4.54
  -2  -6   1  119.73    4.56
  -2  -6   1  123.33    4.58
  -2  -6   1  121.48    4.56
  -2  -6   1  113.23    5.19
   1   6  -1   24.57    1.01
  -1  -6   1   27.33    1.48
  -1  -6   1   24.30    1.03
  -1  -6   1   24.96    1.05
   0   6  -1   26.08    1.04
   0   6  -1   25.44    1.13
   0   6  -1   26.14    1.12
   0  -6   1   27.42    1.41
  -1   6  -1   64.20    2.50
  -1   6  -1   58.98    2.46
  -1   6  -1   61.88    2.38
  -1   6  -1   60.70    2.45
   1  -6   1   64.88    2.77
  -2   6  -1  121.84    4.75
  -2   6  -1  123.28    4.76
  -2   6  -1  124.29    4.73
  -2   6  -1  114.21    4.68
   2  -6   1  126.31    5.18
  -3   6  -1  136.37    4.93
  -3   6  -1  124.94    4.89
  -3   6  -1  131.74    4.96
   3  -6   1  123.75    4.89
   3  -6   1  118.10    5.45
  -4   6  -1    3.58    0.30
  -4   6  -1    3.29    0.24
   4   5  -1   17.47    0.83
   4   5  -1   18.58    0.75
   4   5  -1   20.77    0.79
  -4  -5   1   18.62    0.78
   3   5  -1    5.23    0.34
   3   5  -1    5.07    0.36
   3   5  -1    5.29    0.35
  -3  -5   1    4.98    0.34
  -3  -5   1    5.40    0.32
   2   5  -1   61.45    2.40
   2   5  -1   59.25    2.38
   2   5  -1   58.75    2.90
   2   5  -1   62.38    2.39
  -2  -5   1   60.41    2.91
  -2  -5   1   64.43    2.41
  -2  -5   1   61.11    2.39
  -2  -5   1   62.80    2.39
   1   5  -1  151.07    5.69
   1   5  -1  145.74    6.02
   1   5  -1  143.62    5.66
   1   5  -1  150.59    5.68
  -1  -5   1  154.06    6.08
   0   5  -1   22.35    0.91
   0  -5   1   23.35    1.21
  -1   5  -1  329.77   12.38
   1  -5   1  334.94   12.66
   1  -5   1  313.90   12.39
  -2   5  -1    1.44    0.26
  -2   5  -1    1.21    0.10
  -2   5  -1    1.30    0.20
  -2   5  -1    1.14    0.20
  -2   5  -1    1.11    0.20
   2  -5   1    1.23    0.34
  -3   5  -1    8.59    0.50
  -3   5  -1    8.86    0.54
  -3   5  -1    7.58    0.48
   3  -5   1    6.77    0.43
   3  -5   1    8.36    0.87
  -4   5  -1    9.73    0.47
  -4   5  -1    9.97    0.52
  -4   5  -1    9.53    0.49
   4  -5   1    9.13    0.47
   4   4  -1   18.52    0.76
   4   4  -1   16.72    0.76
  -4  -4   1   17.76    0.74
   3   4  -1   62.80    2.47
   3   4  -1   66.24    2.49
   3   4  -1   61.24    3.21
   3   4  -1   63.75    2.49
  -3  -4   1   64.96    2.48
  -3  -4   1   60.05    2.44
   2   4  -1   62.16    2.89
   2   4  -1   63.08    2.41
   2   4  -1   60.04    2.40
   2   4  -1   57.05    2.50
   2   4  -1   60.86    2.39
  -2  -4   1   64.91    2.41
  -2  -4   1   63.90    2.39
  -2  -4   1   60.87    2.82
  -2  -4   1   62.30    2.39
   1   4  -1   15.40    0.66
   1   4  -1   15.50    0.94
  -1  -4   1   15.06    0.95
   0   4  -1    0.57    0.17
   0   4  -1    0.74    0.11
   0  -4   1    0.48    0.22
  -1   4  -1   70.47    2.71
   1  -4   1   68.19    2.71
   1  -4   1   72.38    2.89
   1  -4   1   65.64    2.95
  -2   4  -1  207.58    8.07
  -2   4  -1  208.56    8.17
  -2   4  -1  209.80    8.13
  -2   4  -1  209.32    8.16
   2  -4   1  233.21    8.47
  -3   4  -1  111.27    4.26
  -3   4  -1  109.55    4.27
  -3   4  -1  110.14    4.29
   3  -4   1  114.72    4.76
   3  -4   1  102.57    4.22
  -4   4  -1   32.78    1.34
  -4   4  -1   32.17    1.39
  -4   4  -1   34.39    1.37
   4  -4   1   33.56    1.35
   4   3  -1   22.84    0.95
   4   3  -1   22.88    0.94
  -4  -3   1   21.52    0.91
   3   3  -1    0.95    0.15
   3   3  -1    0.40    0.12
   3   3  -1    0.79    0.17
  -3  -3   1    0.65    0.15
  -3  -3   1    0.78    0.18
  -3  -3   1    0.50    0.18
  -3  -3   1    0.82    0.11
   2   3  -1   41.67    1.64
   2   3  -1   40.64    1.74
   2   3  -1   44.00    2.08
   2   3  -1   41.12    1.65
  -2  -3   1   42.29    2.00
  -2  -3   1   40.59    1.63
  -2  -3   1   42.28    1.65
   1   3  -1  352.50   12.91
   1   3  -1  329.39   13.15
  -1  -3   1  342.38   13.14
   0   3  -1   95.74    3.60
   0   3  -1   96.06    3.72
   0  -3   1   91.46    3.76
  -1   3  -1  330.45   11.87
   1  -3   1  279.18   11.98
   1  -3   1  316.82   11.87
   1  -3   1  326.22   11.99
  -2   3  -1    4.29    0.31
  -2   3  -1    5.02    0.39
  -2   3  -1    5.00    0.34
   2  -3   1    5.25    0.55
   2  -3   1    4.85    0.44
  -3   3  -1   10.27    0.58
  -3   3  -1   10.05    0.43
  -3   3  -1   10.19    0.56
  -3   3  -1    9.59    0.54
   3  -3   1   10.68    0.48
   3  -3   1   10.70    0.94
   3  -3   1    8.87    0.49
  -4   3  -1   58.39    2.33
  -4   3  -1   59.87    2.37
  -4   3  -1   60.54    2.38
   4  -3   1   59.05    2.34
   4  -3   1   60.30    2.31
   4   2  -1   41.03    1.62
   4   2  -1   40.02    1.60
  -4  -2   1   39.24    1.61
  -4  -2   1   39.93    1.57
   3   2  -1  123.36    4.67
   3   2  -1  119.75    4.68
  -3  -2   1  130.49    4.67
  -3  -2   1  127.53    4.70
  -3  -2   1  112.43    4.62
  -3  -2   1  117.03    4.70
   2   2  -1  285.31   10.71
   2   2  -1  266.07   10.40
  -2  -2   1  265.25   10.60
   1   2  -1  620.89   21.76
   1   2  -1  518.01   21.92
  -1  -2   1  591.26   21.92
   0   2  -1    9.84    0.55
   0   2  -1   10.62    0.45
   0  -2   1    9.91    0.60
   1  -2   1  662.70   25.11
  -2   2  -1   17.90    0.86
   2  -2   1   18.44    1.02
   2  -2   1   17.60    0.87
  -3   2  -1   91.58    3.50
  -3   2  -1   87.62    3.51
  -3   2  -1   89.83    3.41
   3  -2   1   93.27    3.98
   3  -2   1   87.45    3.46
   3  -2   1   85.87    3.44
  -4   2  -1   17.60    0.84
  -4   2  -1   19.17    0.85
   4  -2   1   17.72    0.78
   4  -2   1   18.43    0.81
   4   1  -1   10.70    0.56
   4   1  -1   11.39    0.52
  -4  -1   1   11.05    0.48
  -4  -1   1   10.82    0.55
  -4  -1   1   10.62    0.57
   3   1  -1    3.67    0.28
   3   1  -1    4.49    0.31
  -3  -1   1    3.85    0.34
  -3  -1   1    4.24    0.36
  -3  -1   1    4.40    0.27
   2   1  -1   64.82    2.92
   2   1  -1   74.72    3.17
  -2  -1   1   81.82    3.21
   0   1  -1    1.79    0.22
   0   1  -1    2.31    0.17
   0  -1   1    1.82    0.27
   1  -1   1 1000.00   37.78
  -2   1  -1   17.73    0.86
   2  -1   1   18.73    1.04
  -3   1  -1    4.84    0.38
  -3   1  -1    4.33    0.38
  -3   1  -1    4.86    0.26
   3  -1   1    4.73    0.71
   3  -1   1    4.33    0.31
   3  -1   1    5.19    0.30
  -4   1  -1   50.92    2.01
  -4   1  -1   47.48    2.00
  -4   1  -1   49.44    1.91
   4  -1   1   49.16    1.98
   4  -1   1   51.76    1.96
   4   0  -1   19.06    0.82
   4   0  -1   19.45    0.85
  -4   0   1   18.69    0.77
  -4   0   1   20.04    0.88
  -4   0   1   18.66    0.86
   3   0  -1  143.54    5.56
   3   0  -1  142.68    5.57
  -3   0   1  144.37    5.62
  -3   0   1  148.78    5.61
  -3   0   1  149.02    5.54
   2   0  -1  139.73    5.66
   2   0  -1  152.61    5.86
   0   0  -1    1.06    0.12
   0   0  -1    0.97    0.14
   0   0   1    1.07    0.11
  -1   0  -1   24.14    0.99
  -1   0  -1   24.25    1.06
  -3   0  -1   64.37    2.47
  -3   0  -1   63.29    2.39
  -3   0  -1   59.66    2.46
   3   0   1   60.09    2.43
   3   0   1   60.49    2.41
   3   0   1   63.53    2.97
  -4   0  -1    6.73    0.33
  -4   0  -1    7.02    0.44
  -4   0  -1    7.97    0.48
   4   0   1    7.43    0.43
   4   0   1    6.46    0.38
   4  -1  -1   15.51    0.73
   4  -1  -1   17.35    0.71
  -4   1   1   15.62    0.77
  -4   1   1   15.77    0.76
   3  -1  -1    4.29    0.68
   3  -1  -1    4.51    0.30
   3  -1  -1    3.90    0.27
  -3   1   1    4.86    0.36
  -3   1   1    4.13    0.36
  -3   1   1    4.42    0.25
  -3   1   1    4.41    0.33
   2  -1  -1   21.80    1.12
   2  -1  -1   20.45    0.97
   1  -1  -1  275.19   10.09
   1  -1  -1  263.61   10.11
   1  -1  -1  260.23   10.12
   0  -1  -1   82.55    3.14
  -1  -1  -1  203.27    7.78
  -1  -1  -1  202.95    7.68
   1   1   1  198.94    7.80
   1   1   1  205.56    7.69
  -2  -1  -1    9.45    0.61
   2   1   1    8.82    0.52
  -3  -1  -1   21.78    0.92
  -3  -1  -1   19.19    0.90
  -3  -1  -1   20.95    0.85
   3   1   1   21.01    1.40
   3   1   1   19.45    0.87
   3   1   1   19.71    0.86
  -4  -1  -1   69.71    2.63
  -4  -1  -1   65.86    2.68
  -4  -1  -1   66.87    2.69
   4   1   1   69.92    2.68
   4   1   1   68.96    2.66
   4  -2  -1   59.24    2.30
   4  -2  -1   59.10    2.33
  -4   2   1   60.01    2.36
  -4   2   1   57.80    2.36
   3  -2  -1   36.34    1.48
   3  -2  -1   38.44    1.97
   3  -2  -1   35.24    1.49
  -3   2   1   37.84    1.57
  -3   2   1   37.83    1.54
  -3   2   1   36.77    1.51
  -3   2   1   38.15    1.45
   2  -2  -1  155.60    5.89
   2  -2  -1  141.88    5.77
   1  -2  -1  147.29    5.61
   0  -2  -1   45.94    1.77
   0  -2  -1   44.67    1.76
  -1  -2  -1  384.52   15.17
  -1  -2  -1  402.34   15.03
   1   2   1  383.16   15.18
   1   2   1  423.31   15.04
  -2  -2  -1  259.73    9.99
   2   2   1  252.78    9.79
  -3  -2  -1   62.80    2.66
  -3  -2  -1   71.12    2.68
  -3  -2  -1   62.98    2.60
  -3  -2  -1   70.54    2.63
   3   2   1   68.84    2.64
   3   2   1   68.85    3.25
   3   2   1   69.19    2.65
  -4  -2  -1   13.12    0.64
  -4  -2  -1   12.61    0.56
   4   2   1   11.88    0.59
   4   2   1   13.06    0.62
   4  -3  -1    8.33    0.46
  -4   3   1    9.34    0.52
  -4   3   1    9.59    0.52
   3  -3  -1    1.96    0.52
  -3   3   1    1.85    0.12
  -3   3   1    2.02    0.31
  -3   3   1    1.58    0.26
  -3   3   1    1.99    0.32
   2  -3  -1   54.02    2.20
  -2   3   1   53.04    2.13
   1  -3  -1  209.10    7.94
  -1  -3  -1   66.42    2.79
   1   3   1   66.74    2.81
   1   3   1   71.57    2.63
  -2  -3  -1   34.79    1.68
   2   3   1   34.13    1.45
  -3  -3  -1   27.37    1.17
  -3  -3  -1   28.64    1.13
  -3  -3  -1   26.88    1.10
   3   3   1   27.77    1.73
   3   3   1   27.44    1.13
   3   3   1   26.74    1.15
   3   3   1   27.57    1.15
  -4  -3  -1   37.20    1.49
  -4  -3  -1   35.89    1.53
   4   3   1   37.99    1.53
   4   3   1   39.77    1.52
   4  -4  -1   99.26    3.90
  -4   4   1  101.71    3.95
  -4   4   1  102.92    3.93
   3  -4  -1  108.18    4.60
  -3   4   1  108.36    4.26
  -3   4   1  109.38    4.23
  -3   4   1  108.99    4.21
   2  -4  -1  336.65   12.27
   2  -4  -1  337.47   12.29
  -2   4   1  319.25   12.12
  -2   4   1  307.49   12.09
  -2   4   1  295.24   12.09
   1  -4  -1    3.90    0.25
   0  -4  -1  107.27    4.31
   0  -4  -1  112.63    4.29
  -1  -4  -1   50.83    2.21
   1   4   1   51.69    1.98
  -2  -4  -1  309.28   11.60
  -2  -4  -1  300.48   11.59
  -2  -4  -1  311.69   11.59
  -2  -4  -1  313.28   12.01
   2   4   1  307.98   11.60
   2   4   1  306.13   11.61
   2   4   1  300.46   11.68
   2   4   1  304.17   11.60
  -3  -4  -1   20.67    0.90
  -3  -4  -1   20.54    0.96
  -3  -4  -1   23.70    0.94
   3   4   1   22.79    0.95
   3   4   1   21.38    1.54
   3   4   1   23.72    0.96
   3   4   1   22.03    0.94
  -4  -4  -1    9.36    0.44
   4   4   1    9.66    0.47
   4   4   1    8.77    0.46
   4  -5  -1    2.47    0.24
  -4   5   1    3.24    0.30
  -4   5   1    3.52    0.31
   3  -5  -1   30.46    1.62
  -3   5   1   30.62    1.29
  -3   5   1   31.02    1.33
  -3   5   1   29.56    1.30
   2  -5  -1  238.61    8.62
  -2   5   1  216.79    8.44
  -2   5   1  216.81    8.42
  -2   5   1  215.92    8.41
  -2   5   1  216.82    8.44
   1  -5  -1  261.35    9.68
   1  -5  -1  240.26    9.65
   1  -5  -1  255.75    9.58
   0  -5  -1  261.13   10.04
  -1  -5  -1   98.21    3.94
   1   5   1   92.55    3.92
  -2  -5  -1   11.88    0.54
  -2  -5  -1   12.31    0.93
  -2  -5  -1   11.57    0.54
  -2  -5  -1   11.95    0.52
   2   5   1   11.79    0.54
   2   5   1   12.05    0.54
   2   5   1   12.09    0.53
   2   5   1   11.94    0.94
   2   5   1   10.32    0.61
  -3  -5  -1   46.40    1.82
  -3  -5  -1   43.97    1.79
   3   5   1   47.13    1.83
   3   5   1   48.06    1.82
   3   5   1   40.28    2.48
   3   5   1   47.42    1.82
  -4  -5  -1   33.27    1.31
   4   5   1   33.71    1.30
   4   5   1   33.35    1.32
   4   5   1   30.88    1.33
   4  -6  -1   12.17    0.56
  -4   6   1   12.67    0.58
  -4   6   1   13.38    0.62
   3  -6  -1   85.40    3.81
  -3   6   1   86.17    3.46
  -3   6   1   92.21    3.51
  -3   6   1   90.42    3.47
   2  -6  -1    1.74    0.40
  -2   6   1    1.56    0.26
  -2   6   1    1.83    0.29
  -2   6   1    1.55    0.21
  -2   6   1    1.99    0.28
   1  -6  -1    7.37    0.36
   1  -6  -1    6.39    0.47
   1  -6  -1    7.87    0.55
  -1   6   1    6.84    0.39
  -1   6   1    6.36    0.41
   0  -6  -1  122.83    4.92
  -1  -6  -1  224.11    8.87
   1   6   1  224.35    8.49
  -2  -6  -1   32.87    1.28
  -2  -6  -1   30.58    1.76
  -2  -6  -1   31.31    1.28
  -2  -6  -1   31.94    1.26
   2   6   1   29.70    1.41
   2   6   1   32.27    1.26
   2   6   1   30.75    1.27
   2   6   1   31.58    1.25
  -3  -6  -1   68.08    2.59
  -3  -6  -1   67.70    2.61
   3   6   1   66.36    2.60
   3   6   1   63.87    2.61
   3   6   1   66.75    2.59
  -4  -6  -1    0.18    0.11
   4   6   1    0.05    0.09
   4   6   1   -0.19    0.11
  -4   7   1   17.94    0.77
  -4   7   1   19.63    0.81
  -3   7   1    0.35    0.19
  -3   7   1    0.43    0.17
  -3   7   1    0.32    0.21
   2  -7  -1   88.95    3.65
  -2   7   1   85.84    3.38
  -2   7   1   85.25    3.34
  -2   7   1   84.75    3.39
  -2   7   1   85.16    3.41
   1  -7  -1  212.39    7.86
  -1   7   1  199.16    7.67
  -1   7   1  187.64    7.62
  -1   7   1  199.31    7.62
   0  -7  -1   40.32    1.87
   0   7   1   39.09    1.53
   0   7   1   38.80    1.61
   0   7   1   39.89    1.63
  -1  -7  -1   39.36    1.59
  -1  -7  -1   40.54    1.61
  -1  -7  -1   42.41    2.03
   1   7   1   38.40    1.65
   1   7   1   41.63    1.69
   1   7   1   37.91    1.57
   1   7   1   41.57    1.59
  -2  -7  -1    0.09    0.10
  -2  -7  -1    0.20    0.14
  -2  -7  -1    0.05    0.28
  -2  -7  -1    0.04    0.12
   2   7   1   -0.55    0.28
   2   7   1    0.16    0.12
   2   7   1    0.06    0.11
  -3  -7  -1   22.25    0.95
  -3  -7  -1   22.44    0.93
   3   7   1   21.89    0.96
   3   7   1   22.75    0.94
  -4  -7  -1   47.91    1.75
   4   7   1   41.42    1.75
   4   7   1   45.44    1.74
  -3   8   1   94.84    3.59
  -3   8   1   94.21    3.57
  -3   8   1   85.43    3.52
   2  -8  -1   36.29    1.73
  -2   8   1   34.60    1.52
  -2   8   1   37.07    1.53
  -2   8   1   36.86    1.57
   1  -8  -1    0.07    0.20
  -1   8   1   -0.21    0.13
  -1   8   1    0.00    0.19
  -1   8   1    0.13    0.16
   0  -8  -1   30.58    1.30
   0  -8  -1   30.09    1.28
   0  -8  -1   33.74    1.69
   0   8   1   32.05    1.35
   0   8   1   32.70    1.26
   0   8   1   32.97    1.39
  -1  -8  -1  136.12    5.34
  -1  -8  -1  136.16    5.85
  -1  -8  -1  140.56    5.33
   1   8   1  143.15    5.43
   1   8   1  138.64    5.41
   1   8   1  142.64    5.32
  -2  -8  -1   68.03    2.63
  -2  -8  -1   70.21    2.64
  -2  -8  -1   65.52    3.30
  -2  -8  -1   67.01    2.62
   2   8   1   65.16    2.73
   2   8   1   65.46    2.60
   2   8   1   69.15    2.63
  -3  -8  -1   70.59    2.75
  -3  -8  -1   72.31    2.77
   3   8   1   72.20    2.78
   3   8   1   69.58    2.75
  -3   9   1   19.98    0.91
  -3   9   1   21.28    0.91
   2  -9  -1   41.10    2.00
  -2   9   1   42.11    1.82
  -2   9   1   47.36    1.85
  -2   9   1   47.51    1.90
   1  -9  -1  109.76    4.58
  -1   9   1  106.69    4.26
  -1   9   1  110.33    4.31
   0  -9  -1  150.13    5.83
   0  -9  -1  134.74    5.27
   0  -9  -1  136.46    5.30
   0   9   1  136.83    5.38
   0   9   1  137.10    5.36
   0   9   1  134.03    5.25
  -1  -9  -1   10.09    0.96
  -1  -9  -1   10.82    0.55
  -1  -9  -1   11.36    0.53
   1   9   1   11.33    0.67
   1   9   1   10.38    0.62
   1   9   1   11.86    0.52
  -2  -9  -1   14.22    0.63
  -2  -9  -1   13.70    0.62
  -2  -9  -1   12.43    1.22
   2   9   1   14.65    0.63
   2   9   1   11.70    0.74
  -3  -9  -1   36.84    1.35
  -3  -9  -1   32.73    1.35
   3   9   1   32.73    1.36
   3   9   1   33.92    1.32
  -3  10   1   77.32    3.10
  -3  10   1   84.40    3.13
  -2  10   1    0.42    0.26
  -2  10   1    0.13    0.17
  -2  10   1    0.64    0.22
   1 -10  -1    3.21    0.53
   1 -10  -1    2.76    0.27
  -1  10   1    3.19    0.44
  -1  10   1    3.75    0.36
   0 -10  -1   20.62    1.34
   0 -10  -1   20.17    0.86
   0 -10  -1   19.92    0.88
   0  10   1   20.10    0.82
   0  10   1   19.51    0.89
   0  10   1   20.75    0.98
   0  10   1   21.78    1.01
  -1 -10  -1  255.19    9.21
  -1 -10  -1  250.52    9.22
  -1 -10  -1  233.98    9.86
   1  10   1  245.08    9.20
   1  10   1  239.21    9.30
   1  10   1  230.57    9.28
  -2 -10  -1   34.96    1.44
  -2 -10  -1   36.25    1.45
   2  10   1   36.74    1.45
  -3 -10  -1    2.20    0.16
  -3 -10  -1    2.28    0.17
   3  10   1    2.26    0.18
  -2  11   1  139.43    5.36
  -2  11   1  138.71    5.38
   1 -11  -1   25.27    1.11
  -1  11   1   27.76    1.23
  -1  11   1   27.22    1.19
   0 -11  -1  125.22    4.58
   0 -11  -1  118.43    4.60
   0  11   1  118.78    4.67
   0  11   1  113.19    4.59
   0  11   1  122.96    4.70
  -1 -11  -1   22.41    0.92
  -1 -11  -1   22.32    0.95
   1  11   1   22.65    1.03
   1  11   1   21.31    1.02
   1  11   1   22.35    0.91
  -2 -11  -1    1.52    0.20
  -2 -11  -1    1.95    0.19
   2  11   1    1.53    0.17
  -2  12   1   27.61    1.17
  -2  12   1   29.31    1.17
   1 -12  -1   24.49    0.99
  -1  12   1   23.21    1.05
  -1  12   1   24.75    1.10
   0 -12  -1   42.57    1.65
   0 -12  -1   41.46    1.62
   0  12   1   41.10    1.74
   0  12   1   41.30    1.72
  -1 -12  -1    6.95    0.36
  -1 -12  -1    6.91    0.32
   1  12   1    6.19    0.28
   1  12   1    5.52    0.39
   1  12   1    5.75    0.42
   1  12   1    6.79    0.37
  -2 -12  -1   22.31    0.88
   2  12   1   23.13    0.90
   2  12   1   20.64    0.86
   1 -13  -1   20.29    0.82
  -1  13   1   20.26    0.86
  -1  13   1   20.41    0.88
   0 -13  -1   58.38    2.20
   0  13   1   57.57    2.25
   0  13   1   54.72    2.23
  -1 -13  -1    0.20    0.06
  -1 -13  -1    0.14    0.09
   0  12  -2   51.52    1.96
   0 -12   2   45.61    1.95
   0 -12   2   53.38    1.94
   1  11  -2   10.34    0.43
  -1 -11   2   10.02    0.45
  -1 -11   2   10.24    0.47
   0  11  -2    2.71    0.32
   0  11  -2    2.51    0.27
   0 -11   2    2.78    0.20
   0 -11   2    2.75    0.24
  -1  11  -2   32.87    1.34
  -1  11  -2   34.03    1.39
   1 -11   2   31.41    1.30
   2  10  -2   11.30    0.51
  -2 -10   2   11.96    0.51
   1  10  -2   11.83    0.61
   1  10  -2   11.75    0.53
  -1 -10   2   12.69    0.56
  -1 -10   2   12.20    0.57
   0  10  -2   57.07    2.30
   0  10  -2   56.17    2.17
   0  10  -2   55.72    2.26
   0 -10   2   55.80    2.22
   0 -10   2   56.96    2.20
  -1  10  -2   29.89    1.29
  -1  10  -2   30.73    1.34
   1 -10   2   30.15    1.25
   1 -10   2   30.33    1.21
  -2  10  -2   11.30    0.57
  -2  10  -2   11.28    0.60
   2 -10   2   11.32    0.53
   3   9  -2   46.97    1.73
  -3  -9   2   42.35    1.72
  -3  -9   2   44.92    1.71
   2   9  -2   55.50    2.14
  -2  -9   2   53.07    2.14
  -2  -9   2   53.80    2.12
  -2  -9   2   56.45    2.14
   1   9  -2   13.84    0.72
   1   9  -2   14.86    0.64
  -1  -9   2   12.50    1.17
  -1  -9   2   15.66    0.67
  -1  -9   2   14.10    0.65
   0   9  -2    6.56    0.33
   0   9  -2    6.42    0.46
   0   9  -2    6.40    0.50
   0  -9   2    6.23    0.41
   0  -9   2    6.14    0.36
   0  -9   2    6.16    0.79
  -1   9  -2   27.49    1.23
  -1   9  -2   27.17    1.17
   1  -9   2   25.65    1.13
   1  -9   2   27.16    1.09
   1  -9   2   25.82    1.60
  -2   9  -2  102.35    4.22
  -2   9  -2  110.28    4.26
  -2   9  -2  110.09    4.23
   2  -9   2  112.53    4.20
   3  -9   2   12.87    0.62
   3   8  -2    0.32    0.09
   3   8  -2    0.24    0.12
  -3  -8   2    0.07    0.10
  -3  -8   2    0.29    0.09
   2   8  -2   21.75    0.91
   2   8  -2   20.43    0.87
  -2  -8   2   21.03    0.90
  -2  -8   2   20.53    0.91
  -2  -8   2   22.87    0.91
   1   8  -2  143.52    5.79
   1   8  -2  144.17    5.78
   1   8  -2  156.45    5.73
  -1  -8   2  138.49    6.38
  -1  -8   2  158.62    5.76
  -1  -8   2  158.54    5.74
   0   8  -2  102.39    3.85
   0   8  -2   99.46    3.92
   0   8  -2   99.20    3.96
   0  -8   2  100.00    3.87
   0  -8   2  102.39    3.90
   0  -8   2   99.66    4.45
  -1   8  -2   80.67    3.10
  -1   8  -2   77.59    2.93
  -1   8  -2   73.68    3.04
  -1   8  -2   78.26    3.03
   1  -8   2   76.00    3.50
   1  -8   2   74.93    2.97
   1  -8   2   75.20    3.00
  -2   8  -2    0.69    0.28
  -2   8  -2    0.77    0.21
  -2   8  -2    1.03    0.28
   2  -8   2    1.02    0.21
  -3   8  -2   16.59    0.76
  -3   8  -2   18.08    0.79
  -3   8  -2   18.05    0.81
   3  -8   2   16.94    0.76
   3   7  -2   43.68    1.68
   3   7  -2   40.86    1.65
  -3  -7   2   43.65    1.65
  -3  -7   2   40.26    1.67
   2   7  -2   58.57    2.30
   2   7  -2   56.31    2.28
  -2  -7   2   59.89    2.30
  -2  -7   2   57.69    2.30
  -2  -7   2   59.94    2.32
   1   7  -2    0.10    0.18
   1   7  -2    0.16    0.09
   1   7  -2   -0.25    0.19
  -1  -7   2    0.19    0.28
  -1  -7   2    0.00    0.12
  -1  -7   2    0.38    0.15
  -1  -7   2    0.31    0.13
   0   7  -2    0.71    0.21
   0   7  -2    0.84    0.13
   0   7  -2    0.66    0.19
   0  -7   2    0.43    0.16
   0  -7   2    0.51    0.31
   0  -7   2    0.71    0.13
  -1   7  -2   52.94    2.08
  -1   7  -2   52.20    1.99
  -1   7  -2   50.16    2.10
   1  -7   2   53.67    2.53
   1  -7   2   49.73    2.06
   1  -7   2   50.80    2.03
  -2   7  -2  129.84    4.91
  -2   7  -2  125.38    4.93
  -2   7  -2  127.51    4.95
   2  -7   2  128.63    5.41
   2  -7   2  120.78    4.88
  -3   7  -2   11.32    0.61
  -3   7  -2   10.92    0.58
  -3   7  -2    9.84    0.54
   4   6  -2   11.67    0.47
  -4  -6   2   10.50    0.46
   3   6  -2    3.98    0.31
   3   6  -2    4.45    0.26
   3   6  -2    4.09    0.29
  -3  -6   2    4.03    0.28
  -3  -6   2    4.32    0.31
   2   6  -2   28.11    1.15
   2   6  -2   28.60    1.19
   2   6  -2   28.91    1.17
  -2  -6   2   30.49    1.21
  -2  -6   2   28.15    1.18
  -2  -6   2   28.24    1.18
   1   6  -2   49.40    2.10
   1   6  -2   50.49    2.04
   1   6  -2   53.73    2.06
  -1  -6   2   53.05    2.08
  -1  -6   2   52.08    2.57
  -1  -6   2   53.88    2.07
  -1  -6   2   54.62    2.06
   0   6  -2  302.59   11.42
   0   6  -2  299.27   11.51
   0   6  -2  292.25   11.46
   0  -6   2  305.34   11.45
   0  -6   2  293.93   11.43
   0  -6   2  319.21   11.90
  -1   6  -2   41.21    1.68
  -1   6  -2   42.06    1.61
  -1   6  -2   40.74    1.71
   1  -6   2   38.97    1.64
   1  -6   2   40.95    1.67
   1  -6   2   44.46    2.08
  -2   6  -2   10.86    0.62
  -2   6  -2   10.57    0.61
  -2   6  -2    9.50    0.51
  -2   6  -2   10.06    0.42
  -2   6  -2   10.53    0.58
   2  -6   2   10.52    0.54
   2  -6   2   10.45    0.98
  -3   6  -2    0.73    0.20
  -3   6  -2    0.50    0.17
   3  -6   2    1.13    0.21
  -4   6  -2   23.11    0.93
  -4   6  -2   22.74    0.89
   4  -6   2   20.07    0.89
   4   5  -2   18.68    0.74
  -4  -5   2   17.09    0.73
   3   5  -2   21.03    0.90
   3   5  -2   20.83    0.92
   3   5  -2   21.41    0.90
  -3  -5   2   21.07    0.90
  -3  -5   2   20.33    0.87
   2   5  -2   60.55    2.38
   2   5  -2   61.15    2.38
   2   5  -2   60.76    2.39
  -2  -5   2   63.06    2.40
  -2  -5   2   60.99    2.38
  -2  -5   2   59.44    2.38
   1   5  -2   81.34    3.16
   1   5  -2   81.88    3.17
   1   5  -2   82.42    3.22
   1   5  -2   77.94    3.20
  -1  -5   2   83.37    3.17
  -1  -5   2   84.80    3.19
  -1  -5   2   85.48    3.64
   0   5  -2  136.09    5.40
   0  -5   2  146.95    5.76
  -1   5  -2  110.96    4.49
  -1   5  -2  116.51    4.44
  -1   5  -2  117.80    4.54
  -1   5  -2  114.42    4.52
   1  -5   2  124.64    4.88
  -2   5  -2  155.13    5.93
  -2   5  -2  145.71    5.90
  -2   5  -2  152.89    5.84
  -2   5  -2  154.05    5.95
  -2   5  -2  153.72    5.97
   2  -5   2  163.67    6.43
  -3   5  -2  141.85    5.63
  -3   5  -2  150.29    5.66
  -3   5  -2  148.23    5.68
   3  -5   2  149.34    6.25
   3  -5   2  142.30    5.62
  -4   5  -2   13.23    0.61
  -4   5  -2   13.59    0.61
  -4   5  -2   13.51    0.65
   4   4  -2   11.92    0.53
   4   4  -2   11.90    0.53
  -4  -4   2   11.38    0.52
   3   4  -2   18.93    0.80
   3   4  -2   17.97    0.80
   3   4  -2   18.03    0.82
  -3  -4   2   17.24    0.76
  -3  -4   2   18.78    0.80
   2   4  -2   66.96    3.18
   2   4  -2   70.06    2.67
   2   4  -2   68.00    2.66
   2   4  -2   69.86    2.67
  -2  -4   2   70.90    2.67
  -2  -4   2   67.73    2.65
  -2  -4   2   66.68    2.65
   1   4  -2   57.69    2.59
  -1  -4   2   57.39    2.61
   0   4  -2  568.56   21.85
   0  -4   2  588.79   22.13
  -1   4  -2    0.32    0.13
   1  -4   2    0.39    0.27
   1  -4   2    0.31    0.13
  -2   4  -2    0.26    0.16
  -2   4  -2    0.31    0.14
  -2   4  -2    0.26    0.14
  -2   4  -2    0.30    0.07
   2  -4   2    0.28    0.29
  -3   4  -2   48.04    1.93
  -3   4  -2   45.87    1.91
  -3   4  -2   46.34    1.94
   3  -4   2   44.07    1.88
   3  -4   2   48.53    1.87
   3  -4   2   49.03    2.45
  -4   4  -2   59.02    2.37
  -4   4  -2   60.02    2.40
  -4   4  -2   61.70    2.36
   4  -4   2   60.51    2.36
   4   3  -2   69.13    2.69
   4   3  -2   69.73    2.70
  -4  -3   2   69.56    2.68
   3   3  -2  199.70    7.51
   3   3  -2  207.12    7.51
   3   3  -2  198.77    7.52
  -3  -3   2  205.57    7.50
  -3  -3   2  188.85    7.52
  -3  -3   2  181.77    7.46
   2   3  -2  138.12    5.39
   2   3  -2  142.10    5.37
   2   3  -2  146.06    5.88
   2   3  -2  140.48    5.38
  -2  -3   2  141.65    5.38
  -2  -3   2  137.93    5.37
   1   3  -2   14.82    0.91
  -1  -3   2   13.29    0.89
   0   3  -2   67.86    2.80
   0   3  -2   71.68    2.67
   0  -3   2   66.33    2.86
  -1   3  -2   53.44    2.11
   1  -3   2   51.46    2.11
   1  -3   2   53.66    2.29
  -2   3  -2  243.17    9.47
  -2   3  -2  251.51    9.39
  -2   3  -2  241.39    9.44
   2  -3   2  257.94    9.79
  -3   3  -2   37.64    1.53
  -3   3  -2   37.56    1.42
  -3   3  -2   35.37    1.52
  -3   3  -2   36.47    1.55
   3  -3   2   35.45    1.48
   3  -3   2   34.90    1.46
   3  -3   2   37.38    2.00
  -4   3  -2    6.22    0.43
  -4   3  -2    7.05    0.44
  -4   3  -2    6.33    0.39
   4  -3   2    6.55    0.39
   4   2  -2   20.01    0.86
   4   2  -2   20.23    0.84
  -4  -2   2   19.68    0.81
  -4  -2   2   18.47    0.83
   3   2  -2   25.47    1.05
   3   2  -2   25.55    1.07
   3   2  -2   24.68    1.64
  -3  -2   2   24.46    1.10
  -3  -2   2   26.13    1.05
  -3  -2   2   25.05    1.08
   2   2  -2  418.82   16.48
   2   2  -2  463.31   16.98
   2   2  -2  439.78   16.50
   2   2  -2  398.08   16.59
  -2  -2   2  445.91   16.49
  -2  -2   2  454.04   16.55
   1   2  -2   79.05    3.21
  -1  -2   2   75.60    3.18
   0   2  -2  208.20    8.32
   0   2  -2  220.70    8.21
   0  -2   2  220.59    8.38
  -1   2  -2  128.00    4.78
   1  -2   2  122.92    4.77
   1  -2   2  121.83    4.90
  -2   2  -2   26.63    1.19
  -2   2  -2   27.09    1.17
  -2   2  -2   27.80    1.27
   2  -2   2   29.66    1.47
   2  -2   2   31.97    1.34
  -3   2  -2  163.28    6.12
  -3   2  -2  158.07    6.14
  -3   2  -2  161.39    6.04
   3  -2   2  153.00    6.08
   3  -2   2  162.88    6.64
   3  -2   2  156.08    6.07
  -4   2  -2   34.96    1.46
  -4   2  -2   34.87    1.48
  -4   2  -2   35.77    1.49
   4  -2   2   38.03    1.44
   4  -2   2   35.42    1.46
   4   1  -2   33.65    1.33
   4   1  -2   32.02    1.30
  -4  -1   2   31.23    1.32
  -4  -1   2   32.17    1.26
  -4  -1   2   31.51    1.32
   3   1  -2   93.76    4.19
   3   1  -2   92.22    3.56
   3   1  -2   92.86    3.58
  -3  -1   2   88.80    3.59
  -3  -1   2   89.79    3.61
  -3  -1   2   96.16    3.55
   2   1  -2   11.99    0.65
   2   1  -2   12.73    0.90
   1   1  -2  236.21    9.02
  -1  -1   2  230.88    8.98
   0   1  -2  197.28    7.12
   0   1  -2  185.65    7.20
   0  -1   2  180.36    7.24
  -1   1  -2  323.03   12.13
   1  -1   2  325.20   12.13
   1  -1   2  312.03   12.23
  -2   1  -2   38.57    1.66
   2  -1   2   39.28    1.67
   2  -1   2   39.94    1.87
  -3   1  -2  145.29    5.83
  -3   1  -2  154.64    5.82
  -3   1  -2  154.01    5.75
   3  -1   2  147.57    5.79
   3  -1   2  155.87    6.35
   3  -1   2  150.36    5.77
  -4   1  -2    0.68    0.09
  -4   1  -2    0.64    0.18
  -4   1  -2    0.97    0.24
  -4   1  -2    0.98    0.23
   4  -1   2    0.63    0.17
   4  -1   2    0.83    0.15
   4   0  -2    2.24    0.28
   4   0  -2    2.53    0.23
  -4   0   2    2.24    0.17
  -4   0   2    2.42    0.31
  -4   0   2    2.58    0.30
   3   0  -2   11.37    0.55
   3   0  -2   12.31    0.59
   3   0  -2   12.08    1.04
  -3   0   2   11.56    0.64
  -3   0   2   12.29    0.65
  -3   0   2   12.88    0.54
  -3   0   2   12.87    0.63
   2   0  -2    0.55    0.27
   2   0  -2    0.47    0.18
  -1   0   2  801.86   30.36
  -1   0  -2    4.33    0.30
  -1   0  -2    4.15    0.39
   1   0   2    4.40    0.44
   1   0   2    4.68    0.30
  -2   0  -2    1.55    0.22
   2   0   2    1.14    0.21
   2   0   2    1.07    0.31
  -3   0  -2   30.72    1.30
  -3   0  -2   32.22    1.23
  -3   0  -2   29.94    1.30
   3   0   2   29.94    1.24
   3   0   2   30.12    1.26
   3   0   2   31.06    1.78
  -4   0  -2   51.15    1.97
  -4   0  -2   49.16    2.02
  -4   0  -2   52.09    2.06
  -4   0  -2   50.00    2.04
   4   0   2   51.31    2.01
   4   0   2   52.43    2.04
   4  -1  -2   24.81    1.06
   4  -1  -2   25.03    1.03
  -4   1   2   25.69    1.09
  -4   1   2   23.98    1.08
   3  -1  -2  147.09    5.83
   3  -1  -2  132.29    5.28
   3  -1  -2  136.24    5.26
  -3   1   2  140.87    5.34
  -3   1   2  139.02    5.24
  -3   1   2  140.61    5.32
  -3   1   2  129.07    5.31
   2  -1  -2   78.89    2.92
   2  -1  -2   62.82    2.96
   1  -1  -2    0.19    0.14
   1  -1  -2    0.24    0.12
   1  -1  -2    0.19    0.12
   0  -1  -2  107.40    4.21
   0  -1  -2  111.18    4.18
   0   1   2  108.39    4.20
  -2  -1  -2  135.68    5.28
  -2  -1  -2  129.65    5.41
   2   1   2  134.76    5.29
   2   1   2  145.16    5.56
  -3  -1  -2   69.96    2.62
  -3  -1  -2   70.93    2.69
  -3  -1  -2   63.74    2.67
   3   1   2   68.72    2.65
   3   1   2   68.23    3.22
   3   1   2   64.57    2.63
  -4  -1  -2    6.75    0.44
  -4  -1  -2    8.45    0.50
  -4  -1  -2    7.63    0.37
   4   1   2    7.12    0.41
   4   1   2    7.97    0.44
   4  -2  -2   46.64    1.93
   4  -2  -2   49.92    1.91
  -4   2   2   48.15    1.97
  -4   2   2   50.02    1.98
   3  -2  -2   34.43    1.41
   3  -2  -2   33.52    1.38
  -3   2   2   35.85    1.48
  -3   2   2   32.10    1.43
  -3   2   2   35.52    1.35
  -3   2   2   36.56    1.46
   2  -2  -2   81.16    3.38
   2  -2  -2   89.11    3.52
   0  -2  -2    2.06    0.22
   0  -2  -2    2.07    0.19
  -1  -2  -2   52.35    2.25
  -1  -2  -2   55.79    2.12
   1   2   2   55.78    2.12
   1   2   2   53.87    2.28
  -2  -2  -2   26.34    1.32
   2   2   2   25.37    1.40
   2   2   2   26.12    1.15
  -3  -2  -2   77.81    3.17
  -3  -2  -2   86.30    3.26
  -3  -2  -2   77.85    3.23
  -3  -2  -2   83.30    3.20
   3   2   2   83.80    3.23
   3   2   2   86.11    3.84
   3   2   2   85.72    3.21
  -4  -2  -2   85.74    3.40
  -4  -2  -2   88.14    3.34
   4   2   2   88.36    3.39
   4   2   2   86.25    3.37
   4  -3  -2   55.60    2.21
  -4   3   2   56.10    2.26
  -4   3   2   56.98    2.25
   2  -3  -2   31.12    1.35
   2  -3  -2   32.44    1.41
  -2   3   2   29.32    1.27
  -2   3   2   29.09    1.24
   1  -3  -2    3.27    0.24
   0  -3  -2   55.34    2.34
   0  -3  -2   61.71    2.33
   0  -3  -2   62.15    2.27
  -1  -3  -2  240.33    9.09
  -1  -3  -2  228.63    9.26
   1   3   2  254.39    9.10
   1   3   2  237.94    9.29
  -2  -3  -2  109.67    4.63
   2   3   2  117.89    4.73
   2   3   2  110.39    4.39
  -3  -3  -2   85.76    3.50
  -3  -3  -2   94.54    3.57
  -3  -3  -2   94.26    3.52
   3   3   2   95.51    3.55
   3   3   2   86.92    4.14
   3   3   2   92.87    3.53
   3   3   2   90.26    3.55
  -4  -3  -2   10.75    0.56
  -4  -3  -2    9.95    0.48
   4   3   2   11.28    0.52
   4   3   2   10.60    0.53
   4  -4  -2    0.02    0.13
  -4   4   2    0.17    0.18
  -4   4   2    0.16    0.17
   3  -4  -2   69.14    3.03
  -3   4   2   63.53    2.63
  -3   4   2   68.06    2.67
  -3   4   2   67.75    2.70
   2  -4  -2  122.63    5.19
  -2   4   2  125.61    4.84
  -2   4   2  130.08    4.87
   1  -4  -2  219.90    8.35
   0  -4  -2  439.35   16.68
  -1  -4  -2    0.64    0.20
   1   4   2    1.08    0.27
   1   4   2    0.77    0.11
  -2  -4  -2    9.78    0.46
  -2  -4  -2    8.94    0.45
  -2  -4  -2   10.26    0.45
  -2  -4  -2    9.81    0.78
   2   4   2   10.35    0.50
   2   4   2   10.28    0.46
   2   4   2   10.44    0.86
   2   4   2    9.75    0.47
   2   4   2    9.84    0.54
  -3  -4  -2   38.41    1.52
  -3  -4  -2   35.92    1.55
  -3  -4  -2   38.18    1.50
   3   4   2   35.96    2.13
   3   4   2   38.94    1.54
   3   4   2   38.95    1.53
   3   4   2   39.11    1.54
  -4  -4  -2   83.53    3.10
   4   4   2   83.31    3.11
   4   4   2   81.03    3.11
   4   4   2   73.43    3.12
   4  -5  -2   39.65    1.63
  -4   5   2   42.79    1.69
  -4   5   2   41.57    1.67
   3  -5  -2   30.15    1.56
  -3   5   2   30.74    1.29
  -3   5   2   28.94    1.25
  -3   5   2   30.03    1.31
   2  -5  -2  121.39    4.36
  -2   5   2  105.78    4.21
  -2   5   2   98.36    4.20
  -2   5   2  109.95    4.24
  -2   5   2  110.86    4.28
   1  -5  -2   55.30    2.16
   0  -5  -2  140.39    5.37
   0  -5  -2  135.41    5.42
  -1  -5  -2   58.02    2.48
   1   5   2   56.92    2.46
  -2  -5  -2  210.74    8.65
  -2  -5  -2  217.88    8.21
  -2  -5  -2  210.21    8.20
  -2  -5  -2  221.79    8.20
   2   5   2  213.43    8.70
   2   5   2  225.55    8.22
   2   5   2  200.83    8.28
   2   5   2  222.91    8.21
   2   5   2  231.35    8.33
   2   5   2  208.61    8.20
  -3  -5  -2   22.74    0.96
  -3  -5  -2   24.08    0.98
   3   5   2   23.39    1.00
   3   5   2   21.74    1.64
   3   5   2   24.35    1.00
   3   5   2   23.36    0.99
  -4  -5  -2    0.36    0.12
   4   5   2    0.30    0.14
   4   5   2    0.22    0.15
  -4   6   2    0.16    0.14
  -4   6   2    0.46    0.17
   3  -6  -2   18.15    1.07
  -3   6   2   17.45    0.83
  -3   6   2   18.82    0.85
  -3   6   2   18.10    0.88
   2  -6  -2  151.53    5.67
  -2   6   2  142.82    5.52
  -2   6   2  142.01    5.53
  -2   6   2  143.69    5.55
  -2   6   2  139.51    5.56
   1  -6  -2  210.21    8.21
   1  -6  -2  206.53    8.30
   1  -6  -2  217.99    8.31
  -1   6   2  230.73    8.30
   0  -6  -2  153.62    6.03
  -1  -6  -2   73.12    3.13
  -2  -6  -2   50.10    1.98
  -2  -6  -2   48.76    2.47
  -2  -6  -2   51.23    2.00
  -2  -6  -2   51.54    1.99
   2   6   2   50.61    1.98
   2   6   2   50.43    2.00
   2   6   2   51.74    2.15
   2   6   2   51.83    1.99
  -3  -6  -2   59.15    2.41
  -3  -6  -2   63.55    2.40
   3   6   2   60.44    2.43
   3   6   2   62.00    2.40
   3   6   2   63.22    2.42
  -4  -6  -2   32.43    1.33
   4   6   2   32.95    1.35
   4   6   2   35.48    1.34
  -4   7   2   66.41    2.68
  -4   7   2   72.99    2.72
  -3   7   2   23.58    1.04
  -3   7   2   23.45    1.05
  -3   7   2   25.01    1.09
  -2   7   2   15.00    0.71
  -2   7   2   14.74    0.72
  -2   7   2   13.56    0.65
  -2   7   2   13.73    0.73
   1  -7  -2    0.53    0.19
  -1   7   2    0.50    0.14
  -1   7   2    0.48    0.18
  -1   7   2    0.69    0.17
   0  -7  -2  243.33    9.06
   0   7   2  220.82    8.83
   0   7   2  230.21    8.82
  -1  -7  -2  217.83    8.61
  -1  -7  -2  228.12    8.62
  -1  -7  -2  230.73    9.02
   1   7   2  225.02    8.60
   1   7   2  237.37    8.71
   1   7   2  224.05    8.68
  -2  -7  -2  136.77    5.06
  -2  -7  -2  135.73    5.07
  -2  -7  -2  130.95    5.05
  -2  -7  -2  131.65    5.65
   2   7   2  132.79    5.06
   2   7   2  126.00    5.04
   2   7   2  131.01    5.19
  -3  -7  -2    2.70    0.26
  -3  -7  -2    2.59    0.24
   3   7   2    2.83    0.28
   3   7   2    2.58    0.25
  -4  -7  -2    0.07    0.09
   4   7   2    0.12    0.10
   4   7   2    0.30    0.10
  -3   8   2   41.12    1.68
  -3   8   2   39.48    1.62
  -3   8   2   40.80    1.66
  -2   8   2   63.56    2.59
  -2   8   2   65.91    2.63
  -2   8   2   64.56    2.59
   1  -8  -2  186.83    6.91
  -1   8   2  164.12    6.70
  -1   8   2  185.88    6.76
  -1   8   2  168.39    6.67
  -1   8   2  167.78    6.68
   0  -8  -2   54.39    2.39
   0   8   2   51.11    2.00
   0   8   2   51.48    2.12
   0   8   2   50.64    2.09
  -1  -8  -2    3.74    0.57
  -1  -8  -2    3.54    0.24
  -1  -8  -2    3.45    0.27
   1   8   2    3.63    0.40
   1   8   2    3.36    0.35
   1   8   2    3.48    0.24
  -2  -8  -2  100.23    3.76
  -2  -8  -2  100.46    3.77
  -2  -8  -2  101.90    3.77
  -2  -8  -2   88.57    4.37
   2   8   2   97.69    3.89
   2   8   2   99.21    3.77
   2   8   2   94.38    3.74
  -3  -8  -2   26.62    1.10
  -3  -8  -2   27.75    1.09
   3   8   2   26.03    1.08
   3   8   2   26.41    1.11
  -4  -8  -2    8.86    0.37
   4   8   2    8.35    0.35
   4   8   2    8.46    0.38
  -3   9   2   50.93    2.01
  -3   9   2   49.97    2.02
  -2   9   2   28.51    1.24
  -2   9   2   27.72    1.21
  -2   9   2   27.73    1.27
   1  -9  -2   52.34    2.39
  -1   9   2   54.96    2.18
  -1   9   2   50.22    2.11
  -1   9   2   55.80    2.23
   0  -9  -2   93.09    3.71
   0  -9  -2   92.00    3.69
   0  -9  -2  102.32    4.17
   0   9   2   94.84    3.67
   0   9   2   98.79    3.79
   0   9   2   96.18    3.81
  -1  -9  -2   82.48    3.82
  -1  -9  -2   85.80    3.28
  -1  -9  -2   84.35    3.29
   1   9   2   81.45    3.36
   1   9   2   88.73    3.27
   1   9   2   85.80    3.39
  -2  -9  -2   32.63    1.38
  -2  -9  -2   34.08    1.37
  -2  -9  -2   35.23    1.38
   2   9   2   32.94    1.37
   2   9   2   34.08    1.51
  -3  -9  -2   17.09    0.72
  -3  -9  -2   17.22    0.71
   3   9   2   16.11    0.73
   3   9   2   17.12    0.69
  -3  10   2   31.45    1.23
  -3  10   2   28.53    1.21
  -2  10   2   48.08    2.03
  -2  10   2   49.23    2.00
   1 -10  -2  311.75   12.33
  -1  10   2  316.91   12.09
  -1  10   2  318.91   12.05
   0 -10  -2   58.27    2.29
   0 -10  -2   58.65    2.80
   0 -10  -2   57.21    2.31
   0  10   2   60.62    2.40
   0  10   2   60.93    2.43
   0  10   2   58.07    2.25
   0  10   2   57.21    2.33
  -1 -10  -2   41.68    2.32
  -1 -10  -2   45.16    1.78
  -1 -10  -2   44.00    1.76
   1  10   2   43.98    1.87
   1  10   2   47.23    1.76
   1  10   2   43.77    1.88
  -2 -10  -2   15.52    0.70
  -2 -10  -2   16.14    0.68
   2  10   2   16.05    0.69
   2  10   2   13.96    0.82
  -3 -10  -2   43.01    1.59
  -3 -10  -2   37.33    1.59
   3  10   2   41.96    1.60
  -2  11   2    2.25    0.31
  -2  11   2    2.01    0.35
   1 -11  -2    9.20    0.47
  -1  11   2    9.47    0.58
  -1  11   2    9.47    0.62
   0 -11  -2   25.55    1.11
   0 -11  -2   25.25    1.55
   0 -11  -2   27.44    1.09
   0  11   2   27.77    1.25
   0  11   2   27.44    1.14
   0  11   2   27.07    1.22
  -1 -11  -2  101.28    3.87
  -1 -11  -2  103.00    3.89
   1  11   2  101.73    3.86
   1  11   2   98.56    3.96
   1  11   2   99.06    3.97
  -2 -11  -2   39.89    1.57
  -2 -11  -2   40.91    1.58
   2  11   2   38.39    1.57
  -3 -11  -2    4.89    0.24
   3  11   2    5.49    0.29
   3  11   2    5.18    0.25
  -2  12   2   10.78    0.53
  -2  12   2   10.20    0.54
   1 -12  -2  109.46    4.25
  -1  12   2  110.31    4.32
  -1  12   2  113.02    4.36
   0 -12  -2   35.23    1.42
   0 -12  -2   35.95    1.39
   0  12   2   34.79    1.41
   0  12   2   35.22    1.52
   0  12   2   34.71    1.50
  -1 -12  -2    1.74    0.23
  -1 -12  -2    1.62    0.18
   1  12   2    1.29    0.27
   1  12   2    1.59    0.31
   1  12   2    1.68    0.13
   1  12   2    1.67    0.22
  -2 -12  -2   65.40    2.57
  -2 -12  -2   68.04    2.58
   2  12   2   64.94    2.56
   2  12   2   70.13    2.61
   1 -13  -2   22.09    0.90
  -1  13   2   22.44    0.97
  -1  13   2   22.97    0.99
   0 -13  -2   43.17    1.65
   0  13   2   42.36    1.73
   0  13   2   40.89    1.71
  -1 -13  -2   74.81    2.76
  -1 -13  -2   75.44    2.75
   1  13   2   72.68    2.76
   1  13   2   64.45    2.77
   1  11  -3   14.32    0.57
  -1 -11   3   14.91    0.59
  -1 -11   3   13.97    0.58
   0  11  -3   30.31    1.25
   0 -11   3   30.21    1.19
   0 -11   3   30.64    1.21
  -1  11  -3   33.41    1.36
  -1  11  -3   37.12    1.42
   1 -11   3   33.14    1.35
   2  10  -3   28.84    1.12
  -2 -10   3   28.29    1.12
   1  10  -3   11.33    0.50
  -1 -10   3   11.94    0.53
  -1 -10   3   11.34    0.52
   0  10  -3   19.26    0.88
   0  10  -3   18.01    0.83
   0  10  -3   18.54    0.75
   0 -10   3   18.93    0.81
   0 -10   3   18.81    0.79
  -1  10  -3   44.84    1.85
  -1  10  -3   44.70    1.80
   1 -10   3   44.26    1.78
   1 -10   3   45.74    1.75
  -2  10  -3   52.43    2.08
  -2  10  -3   52.52    2.06
   2   9  -3   22.01    0.88
  -2  -9   3   20.71    0.88
   1   9  -3   58.04    2.29
   1   9  -3   57.84    2.34
  -1  -9   3   59.65    2.31
  -1  -9   3   59.42    2.30
   0   9  -3   77.57    3.14
   0   9  -3   79.97    3.08
   0   9  -3   81.36    3.19
   0  -9   3   82.92    3.13
   0  -9   3   78.77    3.10
  -1   9  -3    0.65    0.21
  -1   9  -3    0.79    0.27
   1  -9   3    0.64    0.13
   1  -9   3    0.59    0.18
  -2   9  -3    0.09    0.22
  -2   9  -3    0.15    0.17
   2  -9   3   -0.10    0.16
   3   8  -3   34.73    1.27
   3   8  -3   31.14    1.23
  -3  -8   3   30.97    1.26
  -3  -8   3   31.76    1.24
   2   8  -3    6.59    0.36
   2   8  -3    6.13    0.31
  -2  -8   3    6.29    0.33
  -2  -8   3    6.09    0.36
  -2  -8   3    6.55    0.35
   1   8  -3   26.40    1.07
   1   8  -3   25.48    1.13
  -1  -8   3   27.66    1.08
  -1  -8   3   28.31    1.10
  -1  -8   3   21.74    1.63
  -1  -8   3   24.84    1.09
   0   8  -3   12.66    0.67
   0   8  -3   13.83    0.74
   0   8  -3   14.23    0.60
   0  -8   3   13.76    0.62
   0  -8   3   13.39    0.66
   0  -8   3   12.20    1.09
  -1   8  -3   50.07    1.98
  -1   8  -3   47.00    1.81
  -1   8  -3   46.74    1.90
   1  -8   3   45.76    1.85
   1  -8   3   44.62    2.39
   1  -8   3   45.35    1.88
  -2   8  -3   21.35    1.01
  -2   8  -3   22.96    1.00
  -2   8  -3   22.16    1.04
   2  -8   3   21.94    0.91
   2  -8   3   21.82    0.97
  -3   8  -3   25.31    1.07
  -3   8  -3   28.67    1.10
  -3   8  -3   25.61    1.10
   3  -8   3   25.92    1.07
   3   7  -3    0.59    0.14
   3   7  -3    0.42    0.11
  -3  -7   3    0.59    0.11
  -3  -7   3    0.50    0.12
   2   7  -3   25.05    1.05
   2   7  -3   26.48    1.08
  -2  -7   3   25.16    1.07
  -2  -7   3   26.57    1.09
  -2  -7   3   25.23    1.05
   1   7  -3  170.63    6.79
   1   7  -3  174.69    6.87
  -1  -7   3  190.16    6.84
  -1  -7   3  184.80    6.84
  -1  -7   3  192.05    6.83
  -1  -7   3  160.68    7.44
   0   7  -3  125.71    4.99
   0   7  -3  133.25    4.94
   0   7  -3  126.69    5.03
   0  -7   3  128.29    4.95
   0  -7   3  127.23    5.53
   0  -7   3  134.26    4.98
  -1   7  -3   35.01    1.51
  -1   7  -3   35.10    1.47
  -1   7  -3   35.59    1.53
  -1   7  -3   35.50    1.38
   1  -7   3   35.07    1.45
   1  -7   3   36.02    1.97
   1  -7   3   33.69    1.42
  -2   7  -3   20.49    0.94
  -2   7  -3   20.37    0.98
  -2   7  -3   21.32    1.00
   2  -7   3   19.54    1.38
   2  -7   3   20.81    0.92
   2  -7   3   19.12    0.86
  -3   7  -3   21.05    0.91
  -3   7  -3   21.21    0.94
  -3   7  -3   19.28    0.89
   3  -7   3   20.04    0.89
   3   6  -3   38.71    1.65
   3   6  -3   41.15    1.63
  -3  -6   3   41.35    1.65
  -3  -6   3   43.88    1.62
   2   6  -3   52.45    2.21
   2   6  -3   57.47    2.24
   2   6  -3   58.82    2.27
  -2  -6   3   57.02    2.24
  -2  -6   3   58.63    2.26
  -2  -6   3   59.51    2.27
   1   6  -3   18.75    0.80
   1   6  -3   18.34    0.87
   1   6  -3   19.81    0.82
  -1  -6   3   18.68    1.34
  -1  -6   3   19.46    0.84
  -1  -6   3   20.07    0.84
  -1  -6   3   18.77    0.82
   0   6  -3   19.39    0.90
   0   6  -3   23.49    0.91
   0   6  -3   21.68    0.96
   0  -6   3   22.89    1.39
   0  -6   3   22.86    0.96
   0  -6   3   23.01    0.93
  -1   6  -3  220.73    8.52
  -1   6  -3  231.31    8.46
  -1   6  -3  221.41    8.56
   1  -6   3  215.85    8.48
   1  -6   3  223.00    8.51
   1  -6   3  227.72    9.02
  -2   6  -3  203.22    7.51
  -2   6  -3  196.78    7.55
  -2   6  -3  190.39    7.39
  -2   6  -3  198.23    7.54
   2  -6   3  188.72    7.49
   2  -6   3  201.42    8.10
   2  -6   3  190.61    7.45
  -3   6  -3   44.22    1.74
  -3   6  -3   41.83    1.77
  -3   6  -3   41.17    1.73
   3  -6   3   42.15    1.73
   4   5  -3   19.97    0.77
  -4  -5   3   18.18    0.76
   3   5  -3   11.27    0.52
   3   5  -3   10.79    0.54
   3   5  -3   11.37    0.52
  -3  -5   3   10.70    0.53
  -3  -5   3   10.18    0.49
   2   5  -3   62.90    2.43
   2   5  -3   61.68    2.41
   2   5  -3   60.28    2.41
  -2  -5   3   64.27    2.44
  -2  -5   3   61.21    2.42
  -2  -5   3   60.70    2.40
   1   5  -3  125.61    4.95
   1   5  -3  126.15    4.84
   1   5  -3  117.97    4.83
   1   5  -3  125.28    4.85
  -1  -5   3  128.22    4.88
  -1  -5   3  129.09    4.87
  -1  -5   3  126.44    4.86
  -1  -5   3  138.34    5.45
   0   5  -3   24.61    1.09
   0   5  -3   25.74    1.03
   0  -5   3   25.20    1.07
   0  -5   3   27.69    1.47
   0  -5   3   25.02    1.05
  -1   5  -3   63.26    2.32
  -1   5  -3   58.93    2.38
  -1   5  -3   61.05    2.42
  -1   5  -3   58.74    2.45
   1  -5   3   55.77    2.35
   1  -5   3   65.26    2.83
   1  -5   3   59.10    2.38
  -2   5  -3   50.90    2.18
  -2   5  -3   56.78    2.23
  -2   5  -3   58.60    2.27
  -2   5  -3   55.93    2.13
   2  -5   3   52.33    2.20
   2  -5   3   55.52    2.19
   2  -5   3   57.24    2.79
  -3   5  -3   50.75    2.07
  -3   5  -3   47.63    2.00
  -3   5  -3   51.80    2.03
   3  -5   3   47.09    2.00
   3  -5   3   54.34    1.99
   3  -5   3   47.34    2.74
  -4   5  -3   62.06    2.36
  -4   5  -3   59.35    2.38
   4   4  -3   52.53    1.95
   4   4  -3   50.59    1.97
  -4  -4   3   49.09    1.96
   3   4  -3   86.82    3.34
   3   4  -3   85.36    3.36
   3   4  -3   91.70    3.34
  -3  -4   3   80.70    3.30
   2   4  -3   38.32    1.47
   2   4  -3   35.44    2.01
   2   4  -3   37.38    1.48
   2   4  -3   38.60    1.47
  -2  -4   3   37.01    1.48
  -2  -4   3   35.15    1.46
  -2  -4   3   34.02    1.49
  -2  -4   3   36.00    1.44
   1   4  -3   15.00    0.74
   1   4  -3   14.80    0.65
   1   4  -3   14.52    0.64
   1   4  -3   14.95    0.64
   1   4  -3   15.66    1.02
  -1  -4   3   16.25    1.08
  -1  -4   3   15.21    0.67
  -1  -4   3   15.06    0.65
   0   4  -3   10.15    0.54
   0   4  -3   10.03    0.70
   0  -4   3   12.13    0.86
  -1   4  -3  107.22    4.06
  -1   4  -3  103.92    4.01
  -1   4  -3  101.46    3.93
  -1   4  -3   95.94    3.97
   1  -4   3  108.21    4.39
  -2   4  -3  186.16    7.11
  -2   4  -3  178.85    7.06
  -2   4  -3  190.25    7.00
  -2   4  -3  181.55    7.08
   2  -4   3  195.24    7.60
   2  -4   3  177.31    7.05
  -3   4  -3   30.64    1.32
  -3   4  -3   30.19    1.27
  -3   4  -3   30.67    1.29
  -3   4  -3   28.36    1.15
   3  -4   3   29.06    1.81
   3  -4   3   28.62    1.24
  -4   4  -3    3.00    0.28
  -4   4  -3    3.69    0.33
   4  -4   3    2.96    0.29
   4   3  -3   13.81    0.60
   4   3  -3   13.65    0.60
  -4  -3   3   13.17    0.58
   3   3  -3    6.63    0.40
   3   3  -3    6.92    0.40
   3   3  -3    5.78    0.89
   3   3  -3    6.18    0.38
  -3  -3   3    6.62    0.39
  -3  -3   3    5.80    0.41
   2   3  -3   55.92    2.73
   2   3  -3   56.35    2.19
   2   3  -3   54.91    2.20
   2   3  -3   58.35    2.21
  -2  -3   3   52.14    2.16
  -2  -3   3   58.15    2.21
  -2  -3   3   57.56    2.19
   1   3  -3  136.60    5.51
  -1  -3   3  134.11    5.53
   0   3  -3  280.13   11.28
   0   3  -3  306.17   11.12
   0  -3   3  291.49   11.36
  -1   3  -3    3.39    0.32
   1  -3   3    3.38    0.55
   1  -3   3    3.62    0.31
  -2   3  -3   29.02    1.10
  -2   3  -3   28.36    1.19
  -2   3  -3   26.41    1.15
   2  -3   3   25.38    1.14
   2  -3   3   26.62    1.12
   2  -3   3   29.73    1.58
  -3   3  -3   28.65    1.26
  -3   3  -3   30.17    1.16
  -3   3  -3   28.41    1.27
  -3   3  -3   31.01    1.30
   3  -3   3   28.99    1.78
   3  -3   3   28.74    1.24
   3  -3   3   30.05    1.22
  -4   3  -3   66.27    2.65
  -4   3  -3   67.99    2.63
  -4   3  -3   65.61    2.64
   4  -3   3   67.78    2.63
   4  -3   3   68.33    2.61
   4   2  -3   42.39    1.71
   4   2  -3   43.67    1.72
  -4  -2   3   43.62    1.68
   3   2  -3    1.99    0.25
   3   2  -3    1.81    0.27
   3   2  -3    1.71    0.52
  -3  -2   3    1.81    0.30
  -3  -2   3    2.00    0.24
  -3  -2   3    1.89    0.28
   2   2  -3  284.14   10.92
   2   2  -3  295.38   10.94
   2   2  -3  305.26   11.47
  -2  -2   3  262.40   10.96
  -2  -2   3  285.39   10.91
  -2  -2   3  295.21   10.99
  -2  -2   3  292.78   10.93
   1   2  -3    3.61    0.50
  -1  -2   3    3.60    0.50
   0   2  -3  253.11    9.71
   0   2  -3  246.50    9.85
   0  -2   3  266.89    9.92
  -1   2  -3  134.08    5.03
  -1   2  -3  123.30    5.08
   1  -2   3  129.12    5.22
   1  -2   3  134.25    5.03
  -2   2  -3  122.03    4.68
  -2   2  -3  120.84    4.62
  -2   2  -3  120.29    4.70
   2  -2   3  123.23    5.05
  -3   2  -3    7.42    0.50
  -3   2  -3    8.19    0.52
  -3   2  -3    7.79    0.37
   3  -2   3    7.27    0.41
   3  -2   3    8.13    0.91
   3  -2   3    7.99    0.45
  -4   2  -3   12.63    0.63
  -4   2  -3   12.49    0.60
  -4   2  -3   11.81    0.63
   4  -2   3   11.53    0.56
   4  -2   3   12.40    0.59
   4   1  -3    1.67    0.26
   4   1  -3    1.63    0.22
  -4  -1   3    1.59    0.25
  -4  -1   3    1.59    0.26
  -4  -1   3    1.85    0.16
   3   1  -3    1.16    0.16
   3   1  -3    0.97    0.18
   3   1  -3    0.82    0.39
  -3  -1   3    1.10    0.30
  -3  -1   3    0.70    0.19
  -3  -1   3    1.01    0.23
  -3  -1   3    1.12    0.16
   2   1  -3  583.80   21.45
   2   1  -3  527.18   20.96
   2   1  -3  543.63   20.98
  -2  -1   3  541.86   20.96
  -2  -1   3  582.21   21.03
   1   1  -3  224.53    8.63
  -1  -1   3  218.83    8.59
   0   1  -3  450.78   18.07
   0   1  -3  481.46   17.96
   0  -1   3  493.77   18.14
  -1   1  -3  174.74    7.03
  -1   1  -3  185.17    6.95
   1  -1   3  188.47    6.96
   1  -1   3  178.72    7.10
  -2   1  -3   95.89    3.74
  -2   1  -3   92.20    3.63
  -2   1  -3   89.71    3.69
  -2   1  -3   93.76    3.58
   2  -1   3   97.93    3.98
  -3   1  -3   32.87    1.32
  -3   1  -3   33.80    1.42
  -3   1  -3   33.32    1.41
   3  -1   3   31.14    1.37
   3  -1   3   34.81    1.93
   3  -1   3   34.12    1.35
  -4   1  -3   27.35    1.21
  -4   1  -3   29.60    1.21
  -4   1  -3   28.72    1.12
  -4   1  -3   28.48    1.22
   4  -1   3   29.17    1.17
   4  -1   3   28.39    1.20
   4   0  -3   76.15    2.89
   4   0  -3   75.97    2.92
  -4   0   3   73.02    2.93
  -4   0   3   74.66    2.92
  -4   0   3   74.13    2.85
   3   0  -3   95.67    3.72
   3   0  -3   97.43    3.75
   3   0  -3   98.51    4.36
  -3   0   3   99.94    3.71
  -3   0   3   95.28    3.80
  -3   0   3   96.12    3.77
  -3   0   3   94.35    3.79
   2   0  -3    0.47    0.20
   2   0  -3    0.46    0.27
  -2   0   3    0.26    0.18
  -2   0   3    0.34    0.09
   1   0  -3  142.11    5.39
  -1   0   3  131.85    5.32
   0   0   3  499.30   18.99
  -1   0  -3  153.30    5.90
  -1   0  -3  153.99    6.01
   1   0   3  158.23    5.91
   1   0   3  151.51    6.04
  -2   0  -3  509.38   19.84
   2   0   3  508.91   19.85
   2   0   3  550.16   20.13
  -3   0  -3   12.11    0.53
  -3   0  -3   11.32    0.62
  -3   0  -3   12.99    0.65
   3   0   3   11.02    0.56
   3   0   3   11.96    0.58
   3   0   3   11.94    1.06
  -4   0  -3    5.16    0.40
  -4   0  -3    5.18    0.37
  -4   0  -3    6.13    0.43
  -4   0  -3    5.47    0.28
   4   0   3    5.74    0.38
   4   0   3    4.84    0.33
   4  -1  -3    3.45    0.25
   4  -1  -3    3.57    0.31
  -4   1   3    4.13    0.35
  -4   1   3    3.74    0.35
   3  -1  -3    1.41    0.19
   3  -1  -3    1.28    0.41
   3  -1  -3    1.34    0.21
  -3   1   3    1.74    0.25
  -3   1   3    1.62    0.27
  -3   1   3    1.49    0.17
  -3   1   3    0.90    0.24
   2  -1  -3  343.37   12.80
   2  -1  -3  315.77   12.58
   1  -1  -3   22.83    1.05
   0  -1  -3   81.06    3.21
   0   1   3   82.07    3.24
  -1  -1  -3   18.07    0.91
  -1  -1  -3   17.28    0.78
   1   1   3   18.03    0.78
   1   1   3   17.88    0.93
  -2  -1  -3    2.22    0.27
  -2  -1  -3    2.04    0.34
   2   1   3    1.90    0.30
   2   1   3    2.24    0.51
  -3  -1  -3  249.23    9.21
  -3  -1  -3  253.21    9.28
  -3  -1  -3  236.86    9.27
   3   1   3  233.42    9.24
   3   1   3  241.90    9.22
   3   1   3  243.32    9.85
  -4  -1  -3   58.94    2.29
  -4  -1  -3   54.42    2.26
  -4  -1  -3   56.21    2.21
   4   1   3   59.05    2.25
   4   1   3   57.60    2.27
   4  -2  -3   82.56    3.22
   4  -2  -3   82.30    3.19
  -4   2   3   81.65    3.26
  -4   2   3   85.51    3.25
   3  -2  -3   36.02    1.86
   3  -2  -3   32.64    1.38
   3  -2  -3   32.66    1.35
  -3   2   3   34.76    1.43
  -3   2   3   35.23    1.46
  -3   2   3   33.68    1.32
  -3   2   3   32.70    1.43
   2  -2  -3   51.93    2.24
   2  -2  -3   48.86    2.10
  -2   2   3   55.49    2.07
  -2   2   3   46.64    2.00
   1  -2  -3    0.29    0.11
   1  -2  -3    0.28    0.13
   0  -2  -3  173.69    6.32
   0  -2  -3  153.86    6.34
   0   2   3  167.14    6.29
  -1  -2  -3  296.63   11.04
  -1  -2  -3  290.11   11.19
   1   2   3  280.64   11.20
   1   2   3  298.68   11.05
  -2  -2  -3  145.59    5.89
  -2  -2  -3  144.54    5.67
   2   2   3  148.96    5.69
   2   2   3  147.43    5.97
  -3  -2  -3    0.09    0.17
  -3  -2  -3    0.31    0.09
  -3  -2  -3    0.43    0.13
  -3  -2  -3    0.33    0.18
   3   2   3    0.30    0.13
   3   2   3    0.10    0.14
   3   2   3    0.20    0.33
   3   2   3    0.62    0.17
  -4  -2  -3    0.59    0.12
  -4  -2  -3    0.88    0.24
   4   2   3    0.32    0.15
   4   2   3    0.55    0.17
   4  -3  -3    9.97    0.51
  -4   3   3   11.14    0.58
  -4   3   3   10.38    0.56
  -3   3   3   21.47    0.94
  -3   3   3   19.32    0.93
  -3   3   3   20.85    0.97
   2  -3  -3  145.68    5.37
  -2   3   3  129.49    5.18
  -2   3   3  128.96    5.16
   0  -3  -3   72.85    2.70
   0  -3  -3   66.33    2.63
   0  -3  -3   66.69    2.71
  -1  -3  -3   23.42    0.95
  -1  -3  -3   22.23    1.12
   1   3   3   22.50    1.14
   1   3   3   24.41    0.96
  -2  -3  -3   51.62    2.37
  -2  -3  -3   50.95    2.12
   2   3   3   53.06    2.07
   2   3   3   54.97    2.46
   2   3   3   52.71    2.15
   2   3   3   52.13    2.07
  -3  -3  -3   75.60    3.02
  -3  -3  -3   80.69    3.10
  -3  -3  -3   79.04    3.04
   3   3   3   79.72    3.07
   3   3   3   76.26    3.07
   3   3   3   82.42    3.06
   3   3   3   77.19    3.70
  -4  -3  -3   20.65    0.88
   4   3   3   21.75    0.91
   4   3   3   22.10    0.93
   4  -4  -3   48.18    1.93
  -4   4   3   49.77    1.97
  -4   4   3   48.94    1.98
   3  -4  -3  105.87    4.40
  -3   4   3  104.20    4.02
  -3   4   3   99.31    4.05
   2  -4  -3   10.87    0.62
  -2   4   3    9.62    0.52
  -2   4   3    8.70    0.48
   1  -4  -3   19.77    0.84
   0  -4  -3  107.11    4.52
   0  -4  -3  121.26    4.50
   0  -4  -3  120.26    4.41
  -1  -4  -3  446.27   17.06
  -1  -4  -3  437.97   16.83
   1   4   3  438.19   17.05
   1   4   3  461.47   16.84
  -2  -4  -3  170.37    6.57
  -2  -4  -3  179.23    6.99
  -2  -4  -3  172.07    6.57
  -2  -4  -3  169.51    6.58
   2   4   3  174.01    6.58
   2   4   3  172.87    7.02
   2   4   3  168.78    6.58
   2   4   3  179.12    6.68
   2   4   3  171.91    6.57
  -3  -4  -3    4.16    0.37
  -3  -4  -3    3.37    0.25
  -3  -4  -3    3.79    0.28
   3   4   3    3.66    0.30
   3   4   3    3.86    0.75
   3   4   3    3.09    0.28
   3   4   3    3.81    0.32
  -4  -4  -3    3.48    0.25
   4   4   3    3.68    0.28
   4   4   3    3.40    0.29
   4   4   3    4.13    0.31
   4  -5  -3    1.31    0.16
  -4   5   3    1.55    0.26
  -4   5   3    1.48    0.22
   3  -5  -3  102.01    4.31
  -3   5   3  103.42    4.02
  -3   5   3  103.43    4.05
  -2   5   3  121.68    4.81
  -2   5   3  131.96    4.85
  -2   5   3  126.10    4.81
  -2   5   3  120.87    4.82
   1  -5  -3  283.87   10.77
   0  -5  -3  489.46   18.63
  -1  -5  -3   99.21    4.01
   1   5   3   96.50    3.96
  -2  -5  -3   45.26    2.18
  -2  -5  -3   44.40    1.75
  -2  -5  -3   44.55    1.76
  -2  -5  -3   43.34    1.76
   2   5   3   45.38    1.76
   2   5   3   44.77    1.85
   2   5   3   44.94    1.77
   2   5   3   45.08    1.76
   2   5   3   48.41    1.92
   2   5   3   42.09    2.19
  -3  -5  -3  101.51    4.05
   3   5   3  107.46    4.08
   3   5   3  106.55    4.09
   3   5   3  107.68    4.08
  -4  -5  -3   85.05    3.38
   4   5   3   88.73    3.39
   4   5   3   92.97    3.38
   4   5   3   85.48    3.40
  -4   6   3   30.08    1.24
  -4   6   3   29.40    1.22
   3  -6  -3   45.48    2.09
  -3   6   3   48.76    1.91
  -3   6   3   47.69    1.94
  -3   6   3   45.00    1.87
  -2   6   3    0.06    0.11
  -2   6   3    0.15    0.14
  -2   6   3    0.42    0.18
  -2   6   3    0.12    0.16
  -2   6   3   -0.22    0.14
   1  -6  -3   83.94    3.24
   0  -6  -3  328.50   13.14
   0  -6  -3  353.59   13.07
  -1  -6  -3  201.85    7.97
  -2  -6  -3   52.40    2.05
  -2  -6  -3   51.85    2.04
  -2  -6  -3   50.30    2.03
  -2  -6  -3   50.67    2.51
   2   6   3   52.18    2.04
   2   6   3   52.51    2.03
   2   6   3   51.26    2.05
   2   6   3   55.58    2.21
  -3  -6  -3    1.65    0.19
  -3  -6  -3    1.34    0.16
   3   6   3    1.59    0.20
   3   6   3    1.57    0.23
   3   6   3    1.20    0.18
  -4  -6  -3   24.54    0.99
   4   6   3   23.60    1.01
   4   6   3   25.29    1.00
  -4   7   3    1.72    0.23
  -4   7   3    1.31    0.19
  -3   7   3   13.26    0.65
  -3   7   3   13.03    0.69
  -3   7   3   12.48    0.64
  -2   7   3  309.80   11.77
  -2   7   3  328.79   11.76
  -2   7   3  298.48   11.73
  -2   7   3  304.30   11.75
  -2   7   3  304.27   11.79
   1  -7  -3   18.77    0.89
   1  -7  -3   18.72    0.85
  -1   7   3   17.89    0.81
  -1   7   3   17.07    0.79
  -1   7   3   18.18    0.84
   0  -7  -3   38.07    1.63
   0   7   3   33.69    1.44
   0   7   3   33.32    1.45
  -1  -7  -3   32.38    1.55
  -1  -7  -3   26.87    1.16
  -1  -7  -3   27.89    1.15
   1   7   3   30.63    1.27
   1   7   3   28.55    1.15
   1   7   3   27.06    1.23
  -2  -7  -3    9.80    0.50
  -2  -7  -3    9.90    0.49
  -2  -7  -3   10.38    0.94
  -2  -7  -3   10.67    0.49
   2   7   3   10.47    0.49
   2   7   3   10.15    0.50
   2   7   3   10.38    0.76
  -3  -7  -3   60.13    2.35
  -3  -7  -3   58.70    2.31
  -3  -7  -3   59.00    2.33
   3   7   3   60.74    2.34
   3   7   3   60.57    2.36
  -4  -7  -3   16.33    0.68
   4   7   3   16.18    0.70
   4   7   3   16.92    0.68
  -3   8   3   47.15    1.86
  -3   8   3   44.87    1.82
  -3   8   3   43.47    1.80
  -2   8   3    0.32    0.14
  -2   8   3    0.23    0.22
  -2   8   3    0.40    0.18
  -2   8   3    0.49    0.20
   1  -8  -3   45.33    1.88
  -1   8   3   41.19    1.74
  -1   8   3   44.32    1.81
  -1   8   3   43.86    1.77
  -1   8   3   41.30    1.74
   0  -8  -3  178.62    6.84
   0   8   3  165.28    6.47
   0   8   3  169.26    6.59
  -1  -8  -3   14.81    0.69
  -1  -8  -3   15.81    0.68
  -1  -8  -3   16.45    1.08
   1   8   3   16.05    0.82
   1   8   3   16.13    0.68
   1   8   3   16.31    0.79
  -2  -8  -3  143.06    6.33
  -2  -8  -3  148.46    5.70
  -2  -8  -3  155.51    5.72
  -2  -8  -3  150.21    5.71
   2   8   3  155.14    5.71
   2   8   3  142.44    5.68
   2   8   3  149.71    5.85
  -3  -8  -3    7.13    0.38
  -3  -8  -3    6.82    0.36
  -3  -8  -3    6.60    0.33
   3   8   3    6.25    0.36
   3   8   3    6.43    0.39
  -4  -8  -3    1.79    0.14
   4   8   3    1.90    0.13
   4   8   3    1.54    0.16
  -3   9   3   37.80    1.56
  -3   9   3   39.31    1.58
  -2   9   3  143.16    5.72
  -2   9   3  142.75    5.66
  -2   9   3  155.02    5.70
   1  -9  -3    3.74    0.44
  -1   9   3    3.68    0.41
  -1   9   3    4.02    0.37
  -1   9   3    3.99    0.32
   0  -9  -3  264.01   10.17
   0   9   3  237.89    9.77
   0   9   3  255.60    9.71
   0   9   3  260.98    9.83
   0   9   3  266.52    9.86
  -1  -9  -3   45.61    2.33
  -1  -9  -3   44.03    1.82
  -1  -9  -3   45.33    1.81
   1   9   3   47.90    1.81
   1   9   3   45.73    1.92
   1   9   3   46.68    1.95
  -2  -9  -3   23.39    1.65
  -2  -9  -3   26.82    1.10
  -2  -9  -3   27.80    1.08
  -2  -9  -3   24.84    1.08
   2   9   3   27.11    1.09
   2   9   3   25.72    1.26
  -3  -9  -3   71.90    2.67
  -3  -9  -3   66.03    2.67
   3   9   3   68.22    2.65
   3   9   3   70.17    2.69
  -3  10   3   16.12    0.71
  -3  10   3   16.40    0.71
  -2  10   3   10.27    0.63
  -2  10   3   10.12    0.58
   1 -10  -3    5.20    0.52
  -1  10   3    5.03    0.50
  -1  10   3    4.99    0.36
  -1  10   3    5.29    0.42
   0 -10  -3  237.51    9.29
   0 -10  -3  218.19    8.81
   0  10   3  232.45    8.85
   0  10   3  238.36    8.91
   0  10   3  242.81    8.94
   0  10   3  222.36    8.75
  -1 -10  -3  211.75    7.90
  -1 -10  -3  215.46    7.92
  -1 -10  -3  206.00    8.54
   1  10   3  210.93    8.01
   1  10   3  197.93    8.01
   1  10   3  204.56    7.89
  -2 -10  -3   15.59    0.69
  -2 -10  -3   15.62    0.71
   2  10   3   16.08    0.70
   2  10   3   14.96    0.86
  -3 -10  -3    0.15    0.09
  -3 -10  -3    0.04    0.10
   3  10   3    0.07    0.11
  -2  11   3  170.66    6.44
  -2  11   3  164.00    6.46
  -1  11   3   41.99    1.78
  -1  11   3   42.42    1.82
   0 -11  -3   12.10    0.57
   0 -11  -3   12.33    0.60
   0 -11  -3   12.33    0.96
   0  11   3   13.21    0.72
   0  11   3   13.60    0.76
   0  11   3   12.46    0.64
  -1 -11  -3   37.13    2.13
  -1 -11  -3   39.19    1.56
  -1 -11  -3   40.41    1.59
   1  11   3   37.72    1.68
   1  11   3   40.18    1.54
   1  11   3   40.11    1.70
  -2 -11  -3   52.12    1.96
  -2 -11  -3   51.67    1.96
   2  11   3   48.72    2.03
   2  11   3   46.96    1.95
   3  11   3   54.46    2.15
   3  11   3   57.20    2.17
  -2  12   3    1.82    0.29
  -2  12   3    1.99    0.28
  -1  12   3   80.23    3.22
  -1  12   3   80.35    3.18
   0 -12  -3   63.77    2.51
   0  12   3   65.40    2.63
   0  12   3   64.27    2.53
   0  12   3   64.61    2.61
  -1 -12  -3   15.69    0.65
  -1 -12  -3   15.38    0.68
   1  12   3   15.04    0.77
   1  12   3   15.90    0.72
   1  12   3   15.10    0.80
   1  12   3   14.46    0.61
  -2 -12  -3    4.59    0.26
  -2 -12  -3    4.70    0.27
   2  12   3    4.59    0.24
   2  12   3    4.73    0.33
   1 -13  -3   32.94    1.40
  -1  13   3   37.69    1.52
  -1  13   3   37.31    1.48
   0 -13  -3    1.50    0.20
   0  13   3    2.25    0.32
   0  13   3    1.74    0.19
   0  13   3    1.31    0.23
  -1 -13  -3    3.89    0.26
  -1 -13  -3    3.58    0.21
   1  13   3    3.65    0.31
   1  13   3    3.63    0.35
   1  13   3    4.01    0.28
  -2 -13  -3    1.39    0.12
   2  13   3    1.74    0.19
   0 -14  -3   40.43    1.51
   0  14   3   38.93    1.56
   0  14   3   37.53    1.55
   0 -11   4   24.21    0.95
   0 -11   4   24.18    0.95
   1  10  -4   24.63    0.98
  -1 -10   4   24.60    0.98
  -1 -10   4   25.08    0.99
   0  10  -4    7.79    0.35
   0  10  -4    8.43    0.47
   0 -10   4    8.36    0.41
   0 -10   4    8.25    0.39
  -1  10  -4    9.21    0.47
  -1  10  -4   10.38    0.54
   1 -10   4    9.73    0.46
   1 -10   4    9.75    0.43
   2   9  -4   31.62    1.19
  -2  -9   4   29.61    1.17
  -2  -9   4   28.09    1.17
   1   9  -4    0.20    0.10
  -1  -9   4    0.14    0.13
  -1  -9   4    0.29    0.12
   0   9  -4    0.23    0.21
   0   9  -4    0.19    0.10
   0   9  -4    0.33    0.27
   0  -9   4    0.19    0.12
   0  -9   4    0.22    0.15
  -1   9  -4   37.31    1.55
  -1   9  -4   38.91    1.62
   1  -9   4   38.54    1.51
   1  -9   4   37.51    1.54
  -2   9  -4   35.93    1.45
  -2   9  -4   36.64    1.49
   2  -9   4   35.06    1.43
   3   8  -4    3.40    0.19
  -3  -8   4    3.56    0.19
   2   8  -4   65.51    2.61
   2   8  -4   66.51    2.57
  -2  -8   4   73.60    2.61
  -2  -8   4   63.62    2.61
   1   8  -4  108.40    4.18
   1   8  -4  107.17    4.21
  -1  -8   4  113.03    4.18
  -1  -8   4  107.74    4.20
  -1  -8   4  107.40    4.18
   0   8  -4   61.65    2.34
   0   8  -4   60.65    2.45
   0   8  -4   57.85    2.39
   0  -8   4   61.51    2.38
   0  -8   4   59.17    2.36
  -1   8  -4   79.04    3.05
  -1   8  -4   75.66    2.89
  -1   8  -4   76.34    2.98
   1  -8   4   78.31    2.96
   1  -8   4   74.14    2.93
   1  -8   4   68.88    4.21
  -2   8  -4   12.68    0.69
  -2   8  -4   13.56    0.64
   2  -8   4   12.90    0.56
   2  -8   4   12.09    0.62
  -3   8  -4   23.99    0.94
   3  -8   4   21.72    0.92
   3   7  -4   26.80    1.10
   3   7  -4   29.25    1.08
  -3  -7   4   25.64    1.06
  -3  -7   4   28.57    1.10
   2   7  -4    0.63    0.13
   2   7  -4    0.65    0.15
  -2  -7   4    0.55    0.15
  -2  -7   4    0.88    0.18
  -2  -7   4    0.42    0.11
   1   7  -4    1.64    0.30
   1   7  -4    1.89    0.18
  -1  -7   4    1.89    0.25
  -1  -7   4    1.12    0.42
  -1  -7   4    2.08    0.25
  -1  -7   4    1.97    0.27
   0   7  -4   88.40    3.49
   0   7  -4   91.01    3.45
   0   7  -4   91.50    3.55
   0  -7   4   92.00    3.47
   0  -7   4   80.23    4.04
   0  -7   4   93.29    3.49
  -1   7  -4  183.05    6.89
  -1   7  -4  181.51    6.82
  -1   7  -4  185.61    6.96
   1  -7   4  170.58    7.45
   1  -7   4  179.97    6.87
   1  -7   4  176.51    6.85
  -2   7  -4   83.79    3.37
  -2   7  -4   85.37    3.39
  -2   7  -4   84.71    3.34
   2  -7   4   86.71    3.29
   2  -7   4   84.40    3.32
  -3   7  -4   21.64    0.95
  -3   7  -4   22.18    0.99
  -3   7  -4   23.39    0.97
   3  -7   4   22.90    0.95
   3   6  -4   17.37    0.73
   3   6  -4   17.25    0.71
  -3  -6   4   15.71    0.72
  -3  -6   4   16.86    0.68
   2   6  -4   30.88    1.27
   2   6  -4   30.25    1.24
  -2  -6   4   27.74    1.21
  -2  -6   4   31.65    1.28
  -2  -6   4   32.97    1.26
   1   6  -4   66.82    2.85
   1   6  -4   71.23    2.80
   1   6  -4   75.67    2.82
  -1  -6   4   69.45    3.45
  -1  -6   4   74.47    2.84
  -1  -6   4   76.20    2.83
  -1  -6   4   72.91    2.82
   0   6  -4   39.88    1.67
   0   6  -4   43.62    1.70
   0   6  -4   41.32    1.74
   0  -6   4   43.95    1.72
   0  -6   4   45.06    2.28
   0  -6   4   44.41    1.74
  -1   6  -4    5.26    0.39
  -1   6  -4    5.18    0.30
  -1   6  -4    5.85    0.49
   1  -6   4    5.35    0.79
   1  -6   4    5.36    0.33
   1  -6   4    5.11    0.41
  -2   6  -4    3.59    0.37
  -2   6  -4    3.23    0.40
  -2   6  -4    3.20    0.20
   2  -6   4    3.24    0.73
   2  -6   4    3.64    0.28
   2  -6   4    3.04    0.37
  -3   6  -4  100.78    3.83
  -3   6  -4   96.77    3.83
  -3   6  -4   97.52    3.87
   3  -6   4   99.36    3.82
   3  -6   4   98.83    3.78
   3   5  -4   17.94    0.83
   3   5  -4   19.31    0.79
   3   5  -4   18.96    0.81
  -3  -5   4   19.88    0.82
  -3  -5   4   18.70    0.77
   2   5  -4   17.84    0.75
   2   5  -4   17.48    0.74
   2   5  -4   17.88    0.78
  -2  -5   4   16.63    0.72
  -2  -5   4   15.33    0.78
  -2  -5   4   17.94    0.76
  -2  -5   4   17.50    0.78
   1   5  -4    0.11    0.09
   1   5  -4    0.20    0.11
   1   5  -4    0.06    0.12
   1   5  -4   -0.01    0.15
  -1  -5   4    0.08    0.12
  -1  -5   4   -0.02    0.13
  -1  -5   4    0.16    0.12
   0   5  -4   88.90    3.67
   0   5  -4   93.07    3.63
   0   5  -4   98.76    3.64
   0   5  -4   93.67    3.76
   0  -5   4   97.10    3.67
   0  -5   4   99.17    4.17
   0  -5   4   94.16    3.66
  -1   5  -4  146.17    5.53
  -1   5  -4  137.84    5.47
  -1   5  -4  144.28    5.42
   1  -5   4  145.33    5.48
   1  -5   4  144.61    5.99
   1  -5   4  136.96    5.45
  -2   5  -4   42.54    1.66
  -2   5  -4   43.36    1.81
  -2   5  -4   43.15    1.76
   2  -5   4   41.53    1.71
   2  -5   4   42.17    2.35
  -3   5  -4   22.39    1.02
  -3   5  -4   23.23    1.02
  -3   5  -4   23.08    1.07
   3  -5   4   23.08    0.97
  -4   5  -4    2.26    0.24
  -4   5  -4    2.14    0.20
   4  -5   4    1.63    0.20
   4   4  -4    2.76    0.19
  -4  -4   4    2.83    0.18
   3   4  -4   20.50    0.93
   3   4  -4   22.23    0.92
   3   4  -4   21.79    0.91
  -3  -4   4   21.35    0.92
   2   4  -4    9.20    0.45
   2   4  -4    8.82    0.47
   2   4  -4    8.46    0.94
   2   4  -4    9.23    0.46
  -2  -4   4    8.22    0.40
  -2  -4   4    9.25    0.48
  -2  -4   4    8.83    0.45
   1   4  -4  293.44   11.27
   1   4  -4  288.71   11.27
   1   4  -4  298.46   11.28
   1   4  -4  274.07   11.39
   1   4  -4  295.67   11.78
  -1  -4   4  309.14   11.30
  -1  -4   4  304.16   11.85
  -1  -4   4  317.19   11.29
  -1  -4   4  300.39   11.28
   0   4  -4   47.03    1.97
   0   4  -4   46.03    1.87
   0   4  -4   46.60    1.86
   0  -4   4   46.30    1.88
   0  -4   4   50.18    1.91
   0  -4   4   52.51    2.35
  -1   4  -4    3.79    0.38
  -1   4  -4    4.22    0.39
  -1   4  -4    4.35    0.24
  -1   4  -4    3.71    0.30
   1  -4   4    4.57    0.28
   1  -4   4    3.64    0.32
   1  -4   4    4.62    0.68
  -2   4  -4   23.55    1.08
  -2   4  -4   25.32    1.11
  -2   4  -4   25.40    1.02
  -2   4  -4   26.95    1.16
   2  -4   4   26.00    1.07
   2  -4   4   25.80    1.67
   2  -4   4   24.33    1.08
  -3   4  -4   35.90    1.49
  -3   4  -4   35.65    1.46
  -3   4  -4   33.92    1.32
  -3   4  -4   32.15    1.42
   3  -4   4   33.13    2.08
   3  -4   4   33.08    1.42
   3  -4   4   34.95    1.41
  -4   4  -4   45.32    1.75
  -4   4  -4   43.36    1.77
   4   3  -4   36.93    1.45
   4   3  -4   38.11    1.44
  -4  -3   4   35.13    1.43
   3   3  -4  157.51    5.94
   3   3  -4  152.82    5.95
   3   3  -4  147.89    6.71
   3   3  -4  160.79    5.94
  -3  -3   4  160.35    5.94
  -3  -3   4  151.51    5.96
   2   3  -4   11.51    0.52
   2   3  -4   11.34    0.54
   2   3  -4   10.65    0.53
   2   3  -4   11.13    1.03
  -2  -3   4   10.64    0.54
  -2  -3   4   10.91    0.51
   1   3  -4   15.21    0.65
   1   3  -4   14.70    1.01
   1   3  -4   15.85    0.69
   1   3  -4   14.46    0.63
  -1  -3   4   14.47    0.65
  -1  -3   4   14.00    0.66
  -1  -3   4   15.95    0.66
  -1  -3   4   14.51    1.04
   0   3  -4   28.60    1.26
   0   3  -4   29.22    1.45
   0  -3   4   31.07    1.56
  -1   3  -4  235.93    9.02
  -1   3  -4  238.16    8.96
  -1   3  -4  231.68    8.88
   1  -3   4  233.64    9.35
  -2   3  -4   73.98    2.71
  -2   3  -4   68.19    2.76
  -2   3  -4   70.95    2.82
   2  -3   4   76.14    3.33
   2  -3   4   66.58    2.75
   2  -3   4   67.16    2.74
  -3   3  -4   28.48    1.28
  -3   3  -4   29.17    1.24
  -3   3  -4   28.98    1.25
  -3   3  -4   29.40    1.14
   3  -3   4   28.85    1.22
   3  -3   4   28.39    1.82
   3  -3   4   27.43    1.19
  -4   3  -4    2.33    0.27
  -4   3  -4    2.46    0.31
   4  -3   4    2.22    0.22
   4  -3   4    1.99    0.28
   4   2  -4   26.66    1.09
   4   2  -4   27.46    1.08
  -4  -2   4   25.53    1.05
   3   2  -4  307.44   10.99
   3   2  -4  277.28   11.74
   3   2  -4  297.48   11.00
  -3  -2   4  269.12   10.98
  -3  -2   4  304.34   10.98
  -3  -2   4  281.15   11.02
   2   2  -4  120.86    4.51
   2   2  -4  115.94    5.05
   2   2  -4  113.07    4.51
   2   2  -4  115.17    4.49
  -2  -2   4  119.82    4.50
  -2  -2   4  112.52    4.47
  -2  -2   4  124.01    4.58
   1   2  -4  271.42   10.57
  -1  -2   4  268.52   10.59
   0   2  -4  154.10    5.95
   0   2  -4  152.30    6.13
   0  -2   4  157.41    6.20
  -1   2  -4   10.55    0.57
  -1   2  -4    9.63    0.67
   1  -2   4   10.60    0.84
   1  -2   4    9.77    0.56
  -2   2  -4   17.24    0.81
  -2   2  -4   16.95    0.71
  -2   2  -4   16.30    0.77
   2  -2   4   16.55    0.75
   2  -2   4   18.11    1.20
   2  -2   4   16.71    0.74
  -3   2  -4  140.44    5.52
  -3   2  -4  142.69    5.41
  -3   2  -4  145.02    5.50
   3  -2   4  142.70    5.45
   3  -2   4  139.00    5.47
   3  -2   4  143.80    6.13
  -4   2  -4   96.66    3.85
  -4   2  -4  103.79    3.84
  -4   2  -4   96.90    3.84
   4  -2   4   99.08    3.83
   4   1  -4   23.28    0.94
   4   1  -4   23.08    0.92
  -4  -1   4   19.70    0.90
  -4  -1   4   21.87    0.93
  -4  -1   4   22.12    0.87
   3   1  -4   11.67    0.54
   3   1  -4   10.73    1.09
   3   1  -4   10.71    0.56
  -3  -1   4   11.13    0.68
  -3  -1   4   11.03    0.53
  -3  -1   4   10.52    0.57
  -3  -1   4   11.08    0.62
   2   1  -4    0.36    0.11
   2   1  -4    0.39    0.12
   2   1  -4    0.43    0.31
  -2  -1   4    0.43    0.26
  -2  -1   4    0.32    0.08
  -2  -1   4    0.48    0.12
  -2  -1   4    0.31    0.13
   1   1  -4  146.88    5.88
  -1  -1   4  146.61    5.85
   0   1  -4  326.68   12.30
   0   1  -4  324.41   12.14
   0  -1   4  307.97   12.33
  -1   1  -4  286.20   11.00
  -1   1  -4  294.77   11.14
   1  -1   4  270.34   10.99
   1  -1   4  303.39   11.24
  -2   1  -4   87.24    3.19
  -2   1  -4   80.14    3.20
  -2   1  -4   84.74    3.13
   2  -1   4   74.66    3.55
   2  -1   4   83.17    3.16
   2  -1   4   80.10    3.15
  -3   1  -4  106.69    3.99
  -3   1  -4  104.95    4.09
  -3   1  -4  106.71    4.07
   3  -1   4  101.90    4.66
   3  -1   4  103.10    4.02
   3  -1   4  102.35    4.04
  -4   1  -4  135.90    5.37
  -4   1  -4  139.19    5.29
  -4   1  -4  137.49    5.38
  -4   1  -4  145.13    5.37
   4  -1   4  140.42    5.34
   4  -1   4  140.62    5.36
   4   0  -4    0.67    0.16
   4   0  -4    0.38    0.13
  -4   0   4    0.52    0.07
  -4   0   4    0.44    0.16
  -4   0   4    0.49    0.21
   3   0  -4   39.06    1.57
   3   0  -4   38.79    2.17
   3   0  -4   37.43    1.54
  -3   0   4   37.20    1.62
  -3   0   4   39.55    1.65
  -3   0   4   39.14    1.52
  -3   0   4   38.02    1.59
   2   0  -4   16.86    1.10
   2   0  -4   16.20    0.71
   2   0  -4   15.13    0.79
  -2   0   4   17.48    0.78
  -2   0   4   18.02    0.72
  -2   0   4   16.56    0.75
  -2   0   4   18.60    0.83
   1   0  -4  251.24    9.52
  -1   0   4  238.73    9.44
   0   0  -4   25.66    1.08
   0   0   4   25.28    1.25
  -1   0  -4    4.16    0.34
  -1   0  -4    4.27    0.45
   1   0   4    4.26    0.54
   1   0   4    5.31    0.44
  -2   0  -4  215.05    8.39
  -2   0  -4  218.63    8.44
   2   0   4  208.83    8.44
   2   0   4  230.28    8.85
   2   0   4  236.11    8.43
  -3   0  -4   39.37    1.69
  -3   0  -4   41.68    1.70
  -3   0  -4   40.68    1.61
   3   0   4   40.48    1.66
   3   0   4   41.74    2.24
   3   0   4   41.07    1.64
  -4   0  -4   32.83    1.36
  -4   0  -4   32.39    1.26
  -4   0  -4   31.49    1.34
  -4   0  -4   32.33    1.34
   4   0   4   31.86    1.30
   4   0   4   32.00    1.33
   4  -1  -4   53.71    2.09
   4  -1  -4   53.82    2.06
  -4   1   4   50.20    2.09
  -4   1   4   53.49    2.12
   3  -1  -4   41.05    2.17
   3  -1  -4   39.03    1.60
   3  -1  -4   38.81    1.57
  -3   1   4   38.62    1.66
  -3   1   4   39.34    1.64
  -3   1   4   39.99    1.55
  -3   1   4   40.22    1.68
   2  -1  -4    9.64    0.76
  -2   1   4    9.07    0.52
  -2   1   4    8.47    0.48
  -2   1   4    8.54    0.40
  -2   1   4    8.79    0.46
   1  -1  -4    0.78    0.21
   0  -1  -4  399.12   14.99
   0  -1  -4  387.03   14.89
   0   1   4  394.50   15.03
  -1  -1  -4  372.10   14.27
  -1  -1  -4  382.26   14.43
   1   1   4  383.16   14.28
   1   1   4  368.16   14.45
  -2  -1  -4   11.56    0.78
  -2  -1  -4   11.95    0.67
  -2  -1  -4   12.98    0.60
  -2  -1  -4   12.14    0.53
   2   1   4   13.26    0.70
   2   1   4   12.50    0.92
  -3  -1  -4   13.27    0.71
  -3  -1  -4   15.54    0.65
  -3  -1  -4   16.85    0.76
   3   1   4   13.64    0.66
   3   1   4   15.18    0.69
   3   1   4   13.76    1.20
  -4  -1  -4    2.87    0.21
  -4  -1  -4    3.20    0.37
   4   1   4    3.06    0.27
   4   1   4    2.59    0.30
   4  -2  -4    0.37    0.15
   4  -2  -4    0.57    0.12
  -4   2   4    0.58    0.19
  -4   2   4    0.78    0.23
   3  -2  -4   74.45    3.32
   3  -2  -4   69.86    2.76
   3  -2  -4   71.40    2.79
  -3   2   4   70.42    2.85
  -3   2   4   70.52    2.85
  -3   2   4   70.46    2.73
  -3   2   4   72.34    2.83
   2  -2  -4  250.04    9.13
  -2   2   4  218.59    8.83
  -2   2   4  226.99    8.84
   1  -2  -4  132.94    5.72
   1  -2  -4  160.71    5.73
   0  -2  -4  156.14    5.87
   0  -2  -4  146.53    5.78
  -1  -2  -4    2.29    0.25
  -1  -2  -4    2.66    0.40
   1   2   4    2.27    0.27
   1   2   4    2.39    0.44
  -2  -2  -4   52.99    2.33
  -2  -2  -4   50.69    1.99
  -2  -2  -4   52.28    2.12
   2   2   4   52.20    2.40
   2   2   4   48.83    2.12
   2   2   4   50.04    2.01
   2   2   4   52.09    2.00
  -3  -2  -4   88.20    3.75
  -3  -2  -4  102.87    3.78
  -3  -2  -4   89.41    3.68
  -3  -2  -4  100.89    3.71
   3   2   4   96.94    3.74
   3   2   4   96.90    3.74
   3   2   4   96.58    4.35
   3   2   4   99.44    3.72
  -4  -2  -4   49.81    1.97
  -4  -2  -4   47.05    1.90
   4   2   4   51.24    1.95
   4   2   4   47.01    1.93
   4  -3  -4   65.80    2.66
  -4   3   4   69.94    2.72
  -4   3   4   69.80    2.71
   3  -3  -4   62.40    2.59
   3  -3  -4   68.60    3.06
  -3   3   4   68.79    2.67
  -3   3   4   67.27    2.64
  -3   3   4   63.68    2.65
   2  -3  -4    0.92    0.26
  -2   3   4    1.04    0.21
  -2   3   4    0.65    0.14
  -2   3   4    0.96    0.20
   1  -3  -4   13.26    0.67
   1  -3  -4   15.09    0.69
   0  -3  -4  503.22   19.13
  -1  -3  -4  421.65   16.30
  -1  -3  -4  422.86   16.11
   1   3   4  408.21   16.30
   1   3   4  450.95   16.12
  -2  -3  -4   61.40    2.51
  -2  -3  -4   59.13    2.40
  -2  -3  -4   62.95    2.77
  -2  -3  -4   68.22    2.42
  -2  -3  -4   59.58    2.40
   2   3   4   59.87    2.41
   2   3   4   62.00    2.42
   2   3   4   63.33    2.53
   2   3   4   64.38    2.84
  -3  -3  -4   53.20    2.05
  -3  -3  -4   51.80    1.98
  -3  -3  -4   46.79    1.95
   3   3   4   51.62    2.01
   3   3   4   46.93    2.58
   3   3   4   49.67    1.99
   3   3   4   51.54    2.01
  -4  -3  -4   25.91    1.09
   4   3   4   28.15    1.12
   4   3   4   27.56    1.13
   4  -4  -4   30.03    1.23
  -4   4   4   30.71    1.28
  -4   4   4   29.66    1.27
  -3   4   4   63.56    2.57
  -3   4   4   61.52    2.55
  -3   4   4   65.74    2.55
   2  -4  -4  278.21   10.05
  -2   4   4  245.26    9.88
  -2   4   4  259.77    9.89
  -2   4   4  254.90    9.87
   1  -4  -4  424.08   16.06
   0  -4  -4   24.11    1.01
   0  -4  -4   22.00    0.90
   0  -4  -4   19.94    1.02
  -1  -4  -4    6.05    0.55
  -1  -4  -4    6.60    0.34
   1   4   4    6.12    0.36
   1   4   4    6.05    0.53
  -2  -4  -4  157.61    6.22
  -2  -4  -4  150.35    5.88
  -2  -4  -4  152.22    5.79
  -2  -4  -4  144.15    5.79
  -2  -4  -4  155.58    5.79
   2   4   4  151.38    5.80
   2   4   4  154.52    6.26
   2   4   4  150.65    5.81
   2   4   4  153.51    5.92
   2   4   4  153.36    5.80
  -3  -4  -4  204.54    7.77
  -3  -4  -4  204.51    7.72
  -3  -4  -4  204.44    7.70
   3   4   4  199.52    7.73
   3   4   4  205.48    7.75
   3   4   4  191.95    8.39
   3   4   4  210.30    7.74
  -4  -4  -4   42.54    1.71
   4   4   4   41.59    1.74
   4   4   4   44.17    1.74
   4   4   4   46.53    1.74
   4  -5  -4   23.67    1.01
  -4   5   4   25.70    1.06
  -4   5   4   25.26    1.07
   3  -5  -4   23.63    1.29
  -3   5   4   23.79    1.05
  -3   5   4   23.35    1.02
  -3   5   4   20.12    1.01
   2  -5  -4    9.57    0.57
  -2   5   4    8.96    0.47
  -2   5   4    8.87    0.51
  -2   5   4    8.70    0.45
  -2   5   4    8.13    0.49
   1  -5  -4  415.14   15.72
   0  -5  -4   23.93    1.05
   0  -5  -4   23.51    0.91
   0  -5  -4   21.25    1.08
  -1  -5  -4  218.72    8.13
  -1  -5  -4  213.68    8.40
   1   5   4  211.02    8.36
  -2  -5  -4   36.34    1.48
  -2  -5  -4   37.87    1.48
  -2  -5  -4   37.33    1.49
  -2  -5  -4   37.25    1.91
   2   5   4   35.23    1.90
   2   5   4   38.39    1.50
   2   5   4   36.97    1.60
   2   5   4   40.35    1.65
   2   5   4   36.00    1.48
   2   5   4   39.30    1.49
  -3  -5  -4   18.02    0.75
   3   5   4   16.81    0.79
   3   5   4   17.35    0.78
   3   5   4   17.76    0.78
  -4  -5  -4   12.66    0.57
   4   5   4   13.40    0.59
   4   5   4   12.62    0.60
   4   5   4   13.23    0.57
  -4   6   4    2.29    0.25
  -4   6   4    2.02    0.25
  -3   6   4  111.34    4.39
  -3   6   4  112.89    4.36
  -2   6   4   26.32    1.10
  -2   6   4   25.34    1.10
  -2   6   4   25.89    1.14
  -2   6   4   27.15    1.14
  -2   6   4   25.59    1.13
   1  -6  -4  244.55    9.30
   0  -6  -4   14.33    0.85
   0  -6  -4   16.99    0.82
  -1  -6  -4    2.95    0.46
  -2  -6  -4   58.30    2.29
  -2  -6  -4   57.58    2.28
  -2  -6  -4   58.60    2.77
  -2  -6  -4   55.74    2.28
   2   6   4   57.81    2.27
   2   6   4   64.42    2.46
   2   6   4   58.79    2.28
   2   6   4   58.37    2.29
  -3  -6  -4   54.03    2.07
  -3  -6  -4   53.89    2.05
   3   6   4   49.89    2.10
   3   6   4   52.54    2.09
   3   6   4   54.19    2.08
  -4  -6  -4   19.88    0.83
   4   6   4   19.46    0.85
   4   6   4   21.03    0.84
  -4   7   4   41.25    1.60
  -4   7   4   39.03    1.58
  -3   7   4    3.23    0.33
  -3   7   4    3.52    0.36
  -2   7   4    1.36    0.22
  -2   7   4    1.82    0.28
  -2   7   4    1.18    0.23
  -2   7   4    1.55    0.27
  -2   7   4    1.40    0.22
  -1   7   4   41.65    1.63
  -1   7   4   39.84    1.66
  -1   7   4   38.49    1.62
   0  -7  -4  121.80    4.58
   0   7   4  114.02    4.43
   0   7   4  107.75    4.38
   0   7   4  112.38    4.41
  -1  -7  -4  374.20   14.97
  -1  -7  -4  421.66   15.39
  -1  -7  -4  374.90   14.96
   1   7   4  389.05   15.06
   1   7   4  403.79   14.97
   1   7   4  414.39   15.07
  -2  -7  -4   16.33    0.72
  -2  -7  -4   15.93    1.16
  -2  -7  -4   15.49    0.71
  -2  -7  -4   17.33    0.73
   2   7   4   18.02    0.97
   2   7   4   17.58    0.73
   2   7   4   15.17    0.71
  -3  -7  -4    3.66    0.27
  -3  -7  -4    3.74    0.28
  -3  -7  -4    3.76    0.26
   3   7   4    3.39    0.28
   3   7   4    3.26    0.30
  -4  -7  -4   11.92    0.51
   4   7   4   11.28    0.53
   4   7   4   12.41    0.51
  -3   8   4   82.23    3.21
  -3   8   4   80.44    3.17
  -2   8   4   43.45    1.72
  -2   8   4   41.36    1.67
  -2   8   4   39.62    1.70
  -2   8   4   41.86    1.71
  -2   8   4   40.48    1.75
   1  -8  -4  244.81    9.83
  -1   8   4  250.33    9.81
  -1   8   4  290.60    9.86
  -1   8   4  248.65    9.75
  -1   8   4  247.36    9.77
   0  -8  -4   19.42    1.03
   0   8   4   17.92    0.80
   0   8   4   17.64    0.72
   0   8   4   17.33    0.83
   0   8   4   17.21    0.85
  -1  -8  -4   27.87    1.52
  -1  -8  -4   26.41    1.09
  -1  -8  -4   25.03    1.10
   1   8   4   27.81    1.10
   1   8   4   27.55    1.21
   1   8   4   27.85    1.23
  -2  -8  -4  198.45    7.60
  -2  -8  -4  193.46    8.21
  -2  -8  -4  199.66    7.60
  -2  -8  -4  204.14    7.59
   2   8   4  193.20    7.58
   2   8   4  211.14    7.76
   2   8   4  197.46    7.60
  -3  -8  -4   25.35    1.05
  -3  -8  -4   24.89    1.02
  -3  -8  -4   26.02    1.04
   3   8   4   24.77    1.04
  -4  -8  -4   16.72    0.70
   4   8   4   17.18    0.69
   4   8   4   18.32    0.72
  -3   9   4    9.28    0.48
  -3   9   4    8.57    0.45
  -3   9   4    8.23    0.43
   1  -9  -4  348.78   13.13
  -1   9   4  345.84   13.02
  -1   9   4  326.86   12.98
  -1   9   4  346.21   13.06
   0  -9  -4  138.72    5.45
   0   9   4  133.00    5.18
   0   9   4  126.91    5.02
   0   9   4  133.12    5.11
   0   9   4  131.37    5.15
  -1  -9  -4   92.33    3.62
  -1  -9  -4   94.17    4.15
  -1  -9  -4   91.42    3.64
   1   9   4   97.95    3.63
   1   9   4   96.31    3.76
   1   9   4   93.59    3.74
  -2  -9  -4   53.96    2.11
  -2  -9  -4   50.57    2.12
  -2  -9  -4   48.97    2.70
  -2  -9  -4   56.52    2.13
   2   9   4   56.08    2.30
   2   9   4   55.95    2.13
  -3  -9  -4    4.72    0.27
  -3  -9  -4    5.47    0.30
  -3  -9  -4    4.57    0.29
   3   9   4    5.15    0.27
   3   9   4    4.84    0.32
  -3  10   4   45.19    1.81
  -3  10   4   47.38    1.83
  -2  10   4  165.62    6.41
  -2  10   4  165.00    6.37
   1 -10  -4   19.60    1.04
  -1  10   4   19.07    0.89
  -1  10   4   20.80    1.01
  -1  10   4   20.11    0.95
   0 -10  -4   47.60    2.00
   0 -10  -4   51.19    2.42
   0  10   4   51.85    2.05
   0  10   4   50.17    2.10
   0  10   4   52.70    2.14
  -1 -10  -4    6.89    0.42
  -1 -10  -4    7.23    0.83
  -1 -10  -4    7.80    0.39
   1  10   4    7.41    0.38
   1  10   4    8.32    0.61
   1  10   4    7.33    0.56
  -2 -10  -4   96.78    3.79
  -2 -10  -4  109.35    4.99
  -2 -10  -4   97.93    3.80
   2  10   4   98.01    3.93
   2  10   4   91.53    3.79
  -3 -10  -4   57.77    2.39
  -3 -10  -4   66.40    2.40
   3  10   4   61.74    2.41
  -2  11   4   11.24    0.61
  -2  11   4   10.50    0.63
  -1  11   4   25.30    1.19
  -1  11   4   23.90    1.07
  -1  11   4   25.54    1.14
   0 -11  -4  109.47    4.72
   0 -11  -4  109.13    4.23
   0  11   4  110.19    4.36
   0  11   4  108.20    4.27
   0  11   4  112.80    4.34
  -1 -11  -4    6.25    0.38
  -1 -11  -4    5.63    0.75
  -1 -11  -4    5.65    0.33
   1  11   4    6.64    0.58
   1  11   4    6.02    0.51
   1  11   4    5.84    0.32
   1  11   4    6.37    0.44
  -2 -11  -4    8.20    0.42
  -2 -11  -4    7.70    0.39
   2  11   4    7.14    0.58
   2  11   4    7.30    0.39
  -3 -11  -4    4.33    0.22
   3  11   4    3.69    0.23
   3  11   4    4.54    0.29
  -2  12   4   60.15    2.37
  -2  12   4   59.38    2.38
  -1  12   4   18.53    0.91
  -1  12   4   19.62    0.96
   0 -12  -4   29.86    1.21
   0  12   4   29.99    1.32
   0  12   4   28.56    1.24
   0  12   4   29.52    1.34
  -1 -12  -4   12.90    0.57
  -1 -12  -4   12.70    0.60
   1  12   4   13.76    0.75
   1  12   4   12.28    0.53
   1  12   4   12.66    0.64
   1  12   4   12.88    0.71
  -2 -12  -4   45.25    1.81
  -2 -12  -4   47.28    1.81
   2  12   4   47.61    1.85
   2  12   4   45.42    1.80
  -1  13   4   55.08    2.18
  -1  13   4   51.56    2.14
   0 -13  -4  114.91    4.44
   0  13   4  117.54    4.53
   0  13   4  117.61    4.55
   0  13   4  114.96    4.45
  -1 -13  -4   58.64    2.24
  -1 -13  -4   58.55    2.22
   1  13   4   55.09    2.30
   1  13   4   59.29    2.26
   1  13   4   56.44    2.30
  -2 -13  -4   15.28    0.61
  -2 -13  -4   14.56    0.61
   2  13   4   15.53    0.65
   0 -14  -4   12.75    0.53
   0  14   4   12.49    0.61
   0  14   4   12.84    0.62
  -1 -14  -4   13.11    0.52
   1  14   4   13.16    0.53
   1  14   4   11.21    0.56
   1  10  -5    2.32    0.13
  -1 -10   5    2.32    0.15
   0  10  -5   24.63    1.01
   0 -10   5   25.54    0.99
   0 -10   5   24.85    0.99
  -1  10  -5   12.87    0.57
   1 -10   5   12.60    0.52
   1 -10   5   11.43    0.53
   2   9  -5   31.51    1.23
  -2  -9   5   31.95    1.22
   1   9  -5   62.97    2.40
  -1  -9   5   61.89    2.41
  -1  -9   5   62.18    2.39
   0   9  -5   71.25    2.70
   0   9  -5   69.17    2.77
   0  -9   5   68.65    2.73
   0  -9   5   72.92    2.72
  -1   9  -5    2.48    0.33
  -1   9  -5    2.04    0.25
   1  -9   5    2.30    0.25
   1  -9   5    2.44    0.20
  -2   9  -5    5.38    0.34
  -2   9  -5    5.25    0.30
   2   8  -5    0.50    0.11
  -2  -8   5    0.53    0.11
  -2  -8   5    0.47    0.10
   1   8  -5   15.18    0.65
  -1  -8   5   14.60    0.66
  -1  -8   5   14.69    0.65
  -1  -8   5   14.67    0.65
   0   8  -5  105.80    4.17
   0   8  -5  107.03    4.08
   0  -8   5  107.02    4.10
   0  -8   5  106.78    4.11
  -1   8  -5   53.19    2.12
  -1   8  -5   49.36    2.03
  -1   8  -5   51.10    1.97
   1  -8   5   50.71    2.01
   1  -8   5   51.31    2.04
  -2   8  -5   37.52    1.55
  -2   8  -5   37.26    1.51
   2  -8   5   37.41    1.50
   2  -8   5   36.80    1.46
   3   7  -5    0.05    0.05
   3   7  -5    0.13    0.07
  -3  -7   5    0.16    0.08
   2   7  -5   56.00    2.17
   2   7  -5   58.60    2.20
  -2  -7   5   54.13    2.20
  -2  -7   5   55.73    2.18
   1   7  -5   36.03    1.53
   1   7  -5   37.32    1.60
  -1  -7   5   39.34    1.59
  -1  -7   5   42.55    1.58
  -1  -7   5   40.51    1.57
   0   7  -5    7.54    0.53
   0   7  -5    7.77    0.40
   0  -7   5    7.82    0.46
   0  -7   5    7.36    0.42
  -1   7  -5    1.59    0.19
  -1   7  -5    1.12    0.26
  -1   7  -5    1.64    0.23
   1  -7   5    1.50    0.19
   1  -7   5    1.66    0.24
   1  -7   5    0.89    0.40
  -2   7  -5   43.79    1.83
  -2   7  -5   44.09    1.78
  -2   7  -5   42.87    1.81
   2  -7   5   42.74    1.76
   2  -7   5   45.19    1.74
  -3   7  -5   24.40    0.95
  -3   7  -5   20.85    0.92
   3  -7   5   22.65    0.93
   3   6  -5   10.67    0.52
   3   6  -5   12.30    0.51
  -3  -6   5   12.38    0.53
   2   6  -5    4.38    0.29
   2   6  -5    4.36    0.31
  -2  -6   5    4.27    0.29
  -2  -6   5    4.37    0.32
   1   6  -5    9.12    0.54
   1   6  -5   10.17    0.47
   1   6  -5    9.87    0.50
  -1  -6   5    9.76    0.51
  -1  -6   5    9.56    0.50
  -1  -6   5    9.04    1.04
  -1  -6   5   10.88    0.51
   0   6  -5   93.81    3.41
   0   6  -5   88.11    3.44
   0   6  -5   76.94    3.37
   0  -6   5   92.53    3.43
   0  -6   5   77.34    3.52
   0  -6   5   98.24    3.45
   0  -6   5   91.11    4.08
  -1   6  -5  100.24    3.78
  -1   6  -5  100.09    3.84
   1  -6   5   95.67    4.44
   1  -6   5   95.27    3.81
   1  -6   5  101.57    3.84
  -2   6  -5   46.23    1.81
  -2   6  -5   44.21    1.86
  -2   6  -5   45.24    1.87
  -2   6  -5   43.64    1.71
   2  -6   5   43.10    1.76
   2  -6   5   40.30    2.37
   2  -6   5   45.42    1.80
  -3   6  -5    2.27    0.29
  -3   6  -5    2.50    0.29
  -3   6  -5    2.32    0.34
   3  -6   5    2.12    0.19
   3  -6   5    2.68    0.28
   3   5  -5    6.26    0.32
   3   5  -5    5.31    0.27
   3   5  -5    5.51    0.33
  -3  -5   5    5.55    0.33
   2   5  -5  141.70    5.39
   2   5  -5  141.43    5.41
   2   5  -5  142.02    5.37
  -2  -5   5  144.55    5.40
  -2  -5   5  145.44    5.42
  -2  -5   5  131.72    5.42
   1   5  -5   16.17    0.78
   1   5  -5   17.41    0.75
   1   5  -5   16.94    0.73
   1   5  -5   16.71    0.69
  -1  -5   5   17.07    0.77
  -1  -5   5   17.58    0.75
  -1  -5   5   15.63    1.29
  -1  -5   5   17.51    0.76
   0   5  -5   30.47    1.27
   0   5  -5   31.80    1.33
   0   5  -5   33.91    1.30
   0  -5   5   31.21    1.32
   0  -5   5   34.15    1.33
   0  -5   5   32.23    1.31
   0  -5   5   31.03    1.82
  -1   5  -5    0.60    0.29
  -1   5  -5    0.18    0.16
  -1   5  -5    0.23    0.11
   1  -5   5    0.34    0.20
   1  -5   5    0.09    0.12
   1  -5   5    0.18    0.35
  -2   5  -5   46.27    1.78
  -2   5  -5   47.62    1.94
  -2   5  -5   45.95    1.87
   2  -5   5   45.67    1.83
   2  -5   5   42.62    2.44
   2  -5   5   44.82    1.86
  -3   5  -5   73.50    2.95
  -3   5  -5   76.02    2.95
   3  -5   5   74.18    2.94
   3  -5   5   76.33    2.91
   3   4  -5   55.52    2.27
   3   4  -5   59.77    2.25
   3   4  -5   58.48    2.26
  -3  -4   5   56.70    2.26
   2   4  -5    1.02    0.16
   2   4  -5    1.03    0.47
   2   4  -5    1.95    0.26
   2   4  -5    1.37    0.18
  -2  -4   5    1.16    0.19
  -2  -4   5    1.15    0.17
   1   4  -5   11.80    0.54
   1   4  -5   12.00    0.54
   1   4  -5   12.05    0.56
  -1  -4   5   11.14    1.02
  -1  -4   5   12.19    0.57
  -1  -4   5   12.38    0.56
   0   4  -5   72.01    2.85
   0   4  -5   73.41    2.85
   0  -4   5   75.65    2.89
   0  -4   5   79.86    3.41
   0  -4   5   72.04    2.87
   0  -4   5   71.81    2.89
  -1   4  -5   90.86    4.04
  -1   4  -5  102.78    4.09
  -1   4  -5  111.93    4.16
  -1   4  -5  112.52    4.05
   1  -4   5  110.28    4.10
   1  -4   5  105.16    4.08
   1  -4   5  107.57    4.63
  -2   4  -5  154.62    5.87
  -2   4  -5  149.85    5.82
  -2   4  -5  153.14    5.74
   2  -4   5  143.54    5.78
   2  -4   5  152.91    6.52
  -3   4  -5    0.62    0.24
  -3   4  -5    0.38    0.08
  -3   4  -5    0.32    0.21
  -3   4  -5    0.14    0.21
   3  -4   5    0.39    0.14
  -4   4  -5    4.10    0.27
  -4   4  -5    4.23    0.30
   4  -4   5    3.37    0.26
   4   3  -5   86.26    3.22
   4   3  -5   84.69    3.23
  -4  -3   5   83.17    3.21
   3   3  -5    3.42    0.29
   3   3  -5    3.30    0.30
   3   3  -5    3.48    0.29
  -3  -3   5    3.54    0.29
  -3  -3   5    3.45    0.34
   2   3  -5  238.82    8.98
   2   3  -5  229.24    9.68
   2   3  -5  236.60    8.99
  -2  -3   5  232.05    8.98
  -2  -3   5  245.96    9.00
   1   3  -5  136.58    5.34
   1   3  -5  142.15    5.34
   1   3  -5  137.04    5.82
   1   3  -5  139.32    5.34
  -1  -3   5  140.26    5.34
  -1  -3   5  132.11    5.85
  -1  -3   5  140.54    5.36
  -1  -3   5  147.98    5.42
  -1  -3   5  144.18    5.35
   0   3  -5   27.29    1.10
   0   3  -5   27.16    1.44
   0   3  -5   27.23    1.23
   0   3  -5   27.15    1.11
   0  -3   5   27.87    1.55
   0  -3   5   29.51    1.15
   0  -3   5   27.55    1.13
  -1   3  -5    5.29    0.26
  -1   3  -5    4.63    0.32
  -1   3  -5    5.62    0.44
  -1   3  -5    5.47    0.29
   1  -3   5    4.62    0.37
   1  -3   5    5.22    0.72
   1  -3   5    5.34    0.32
  -2   3  -5   65.90    2.61
  -2   3  -5   66.19    2.49
  -2   3  -5   60.23    2.54
   2  -3   5   60.95    2.54
   2  -3   5   65.42    2.54
   2  -3   5   67.61    3.22
  -3   3  -5  140.53    5.30
  -3   3  -5  128.68    5.25
  -3   3  -5  142.73    5.27
  -3   3  -5  133.95    5.24
  -3   3  -5  138.02    5.16
   3  -3   5  128.19    5.97
   3  -3   5  134.34    5.24
   3  -3   5  139.98    5.23
  -4   3  -5   34.72    1.43
  -4   3  -5   36.67    1.42
   4  -3   5   34.72    1.39
   4   2  -5    3.36    0.22
   4   2  -5    3.14    0.23
  -4  -2   5    2.83    0.17
   3   2  -5    0.37    0.15
   3   2  -5    0.51    0.16
   3   2  -5    0.80    0.43
  -3  -2   5    0.61    0.15
  -3  -2   5    0.62    0.24
   2   2  -5    2.43    0.24
   2   2  -5    2.31    0.25
   2   2  -5    2.47    0.64
  -2  -2   5    3.03    0.39
  -2  -2   5    2.94    0.27
  -2  -2   5    2.38    0.21
   1   2  -5  122.57    5.00
   1   2  -5  120.43    4.58
   1   2  -5  116.88    4.57
  -1  -2   5  117.70    4.58
  -1  -2   5  111.20    4.99
  -1  -2   5  122.15    4.57
  -1  -2   5  117.59    4.59
  -1  -2   5  130.41    4.66
   0   2  -5  216.61    8.49
   0   2  -5  210.18    8.25
   0  -2   5  218.46    8.55
  -1   2  -5  208.26    8.01
  -1   2  -5  210.50    8.16
  -1   2  -5  217.61    8.09
   1  -2   5  209.51    8.50
  -2   2  -5   63.59    2.40
  -2   2  -5   60.51    2.45
  -2   2  -5   60.81    2.49
   2  -2   5   60.14    2.42
   2  -2   5   61.49    2.44
   2  -2   5   64.83    3.02
  -3   2  -5   56.83    2.28
  -3   2  -5   56.12    2.15
  -3   2  -5   54.39    2.24
   3  -2   5   53.27    2.87
   3  -2   5   57.77    2.20
   3  -2   5   53.97    2.22
  -4   2  -5   11.76    0.56
  -4   2  -5   10.96    0.57
   4  -2   5   11.38    0.56
   4  -2   5   10.91    0.52
   4   1  -5    1.14    0.16
   4   1  -5    1.13    0.14
  -4  -1   5    1.22    0.10
  -4  -1   5    1.19    0.17
   3   1  -5   36.67    1.45
   3   1  -5   34.63    2.11
   3   1  -5   36.29    1.47
  -3  -1   5   35.16    1.53
  -3  -1   5   35.46    1.55
  -3  -1   5   37.21    1.44
  -3  -1   5   34.06    1.46
   2   1  -5   76.20    3.39
   2   1  -5   72.68    2.83
   2   1  -5   71.56    2.82
  -2  -1   5   70.85    2.84
  -2  -1   5   74.57    2.91
  -2  -1   5   69.19    2.79
  -2  -1   5   74.63    2.83
   1   1  -5  109.32    4.37
  -1  -1   5   98.93    4.31
   0   1  -5   65.92    2.89
   0   1  -5   67.02    2.71
   0  -1   5   71.36    2.97
  -1   1  -5   93.79    3.77
  -1   1  -5   95.24    3.91
   1  -1   5   96.32    4.06
  -2   1  -5   87.10    3.26
  -2   1  -5   81.55    3.22
  -2   1  -5   77.64    3.14
  -2   1  -5   84.48    3.16
   2  -1   5   84.17    3.72
   2  -1   5   78.64    3.19
   2  -1   5   82.83    3.18
  -3   1  -5   16.04    0.78
  -3   1  -5   15.48    0.80
  -3   1  -5   15.70    0.67
   3  -1   5   15.59    1.30
   3  -1   5   15.26    0.71
   3  -1   5   14.32    0.72
  -4   1  -5   44.10    1.87
  -4   1  -5   49.79    1.87
  -4   1  -5   44.86    1.78
   4  -1   5   47.78    1.86
   4   0  -5   42.14    1.61
   4   0  -5   42.20    1.63
  -4   0   5   40.41    1.64
  -4   0   5   38.72    1.61
   3   0  -5   46.35    2.53
   3   0  -5   46.54    1.87
   3   0  -5   47.47    1.85
  -3   0   5   48.11    1.95
  -3   0   5   45.22    1.93
  -3   0   5   45.91    1.88
  -3   0   5   45.79    1.83
   2   0  -5    0.05    0.11
   2   0  -5    0.19    0.27
   2   0  -5    0.39    0.11
  -2   0   5    0.27    0.21
  -2   0   5    0.14    0.11
  -2   0   5    0.07    0.12
   1   0  -5  177.36    6.78
  -1   0   5  162.85    6.69
   0   0  -5  116.03    4.48
   0   0  -5  115.87    4.64
   0   0   5  114.36    4.68
  -1   0  -5  147.40    5.91
  -1   0  -5  147.05    5.75
   1   0   5  150.57    6.00
  -2   0  -5  129.91    5.20
  -2   0  -5  139.50    5.27
  -2   0  -5  137.48    5.29
  -2   0  -5  136.38    5.21
   2   0   5  141.80    5.73
   2   0   5  138.90    5.25
   2   0   5  134.99    5.23
  -3   0  -5    1.84    0.20
  -3   0  -5    1.16    0.25
  -3   0  -5    1.44    0.27
   3   0   5    1.58    0.23
   3   0   5    1.48    0.51
   3   0   5    1.61    0.21
  -4   0  -5   12.42    0.63
  -4   0  -5   12.71    0.63
  -4   0  -5   12.72    0.54
   4   0   5   12.94    0.62
   4   0   5   13.11    0.59
   4  -1  -5    6.13    0.37
   4  -1  -5    5.98    0.33
  -4   1   5    6.18    0.42
  -4   1   5    6.46    0.38
   3  -1  -5   74.12    2.89
   3  -1  -5   73.77    2.92
   3  -1  -5   75.77    3.56
  -3   1   5   73.00    2.94
  -3   1   5   75.51    2.99
  -3   1   5   75.99    2.87
  -3   1   5   73.01    2.98
   2  -1  -5  189.18    7.42
   2  -1  -5  207.54    7.90
   2  -1  -5  186.82    7.43
  -2   1   5  189.82    7.45
  -2   1   5  202.27    7.49
  -2   1   5  196.49    7.41
  -2   1   5  195.87    7.49
   1  -1  -5  143.53    5.71
   0  -1  -5    2.15    0.31
   0  -1  -5    1.40    0.37
   0   1   5    1.50    0.41
  -1  -1  -5    0.86    0.18
  -1  -1  -5    1.11    0.27
   1   1   5    0.90    0.18
   1   1   5    1.10    0.33
  -2  -1  -5  143.45    5.54
  -2  -1  -5  140.83    5.53
  -2  -1  -5  160.78    5.75
   2   1   5  141.34    5.57
   2   1   5  147.49    6.02
   2   1   5  140.99    5.55
  -3  -1  -5  145.36    5.45
  -3  -1  -5  149.43    5.53
  -3  -1  -5  139.16    5.52
   3   1   5  147.21    5.50
   3   1   5  139.58    5.47
   3   1   5  136.56    6.13
  -4  -1  -5   51.30    1.95
  -4  -1  -5   46.34    2.04
   4   1   5   53.21    2.00
   4   1   5   50.36    1.98
   4  -2  -5   42.37    1.71
   4  -2  -5   43.09    1.75
  -4   2   5   45.06    1.78
  -4   2   5   45.87    1.80
   3  -2  -5    6.30    0.34
   3  -2  -5    6.20    0.80
   3  -2  -5    6.00    0.39
  -3   2   5    5.92    0.53
  -3   2   5    6.08    0.47
  -3   2   5    5.61    0.43
  -3   2   5    5.79    0.29
   2  -2  -5    9.88    0.78
  -2   2   5    9.31    0.52
  -2   2   5    9.66    0.42
  -2   2   5    9.60    0.55
  -2   2   5    8.93    0.50
   1  -2  -5  381.28   14.61
   0  -2  -5  319.80   12.41
   0  -2  -5  331.59   12.54
   0   2   5  329.34   12.52
  -1  -2  -5  275.75   10.57
  -1  -2  -5  288.49   10.77
   1   2   5  281.09   10.58
   1   2   5  265.05   10.78
  -2  -2  -5  108.53    3.99
  -2  -2  -5  100.17    3.93
  -2  -2  -5  103.86    3.94
  -2  -2  -5   97.89    4.30
   2   2   5  102.57    3.96
   2   2   5  101.25    3.94
   2   2   5  106.56    4.41
  -3  -2  -5    4.44    0.44
  -3  -2  -5    3.82    0.28
  -3  -2  -5    3.67    0.23
   3   2   5    4.10    0.34
   3   2   5    3.96    0.31
   3   2   5    4.17    0.31
  -4  -2  -5   28.90    1.21
   4   2   5   32.88    1.25
   4   2   5   30.12    1.26
   4  -3  -5   16.46    0.75
  -4   3   5   17.62    0.81
  -4   3   5   17.65    0.80
   3  -3  -5  132.66    5.58
   3  -3  -5  128.57    5.08
  -3   3   5  133.79    5.12
  -3   3   5  129.77    5.14
  -3   3   5  135.76    5.15
   2  -3  -5  217.10    8.07
  -2   3   5  199.69    7.69
  -2   3   5  199.68    7.78
  -2   3   5  198.01    7.78
  -2   3   5  202.72    7.76
   1  -3  -5   14.37    0.85
   1  -3  -5   17.38    0.84
   0  -3  -5    0.08    0.17
   0  -3  -5    0.15    0.14
  -1  -3  -5   52.93    2.15
  -1  -3  -5   55.16    2.36
   1   3   5   55.26    2.17
   1   3   5   52.93    2.37
  -2  -3  -5  347.61   13.80
  -2  -3  -5  348.68   13.38
  -2  -3  -5  348.48   13.37
  -2  -3  -5  371.65   13.43
  -2  -3  -5  350.79   13.37
   2   3   5  353.48   13.38
   2   3   5  356.83   13.39
   2   3   5  356.81   13.40
   2   3   5  352.19   13.86
  -3  -3  -5   71.71    2.78
  -3  -3  -5   76.80    2.86
  -3  -3  -5   69.58    2.76
   3   3   5   71.64    2.81
   3   3   5   72.34    2.79
   3   3   5   70.92    2.81
   3   3   5   67.84    3.44
  -4  -3  -5   16.43    0.75
   4   3   5   19.07    0.79
   4   3   5   19.41    0.81
   4  -4  -5   30.20    1.23
  -4   4   5   30.31    1.28
  -4   4   5   30.44    1.27
   3  -4  -5    1.17    0.35
  -3   4   5    1.95    0.33
  -3   4   5    1.35    0.30
  -3   4   5    0.96    0.20
   2  -4  -5   73.27    2.96
  -2   4   5   68.81    2.73
  -2   4   5   68.22    2.76
  -2   4   5   67.78    2.75
   1  -4  -5    2.33    0.29
   1  -4  -5    2.84    0.32
   0  -4  -5  533.06   20.14
  -1  -4  -5   38.23    1.58
  -1  -4  -5   41.00    1.82
   1   4   5   38.45    1.80
  -2  -4  -5    0.36    0.10
  -2  -4  -5    0.50    0.11
  -2  -4  -5    0.40    0.25
  -2  -4  -5    0.59    0.12
  -2  -4  -5    0.63    0.17
   2   4   5    0.60    0.14
   2   4   5    0.25    0.34
   2   4   5    0.17    0.11
   2   4   5    0.49    0.30
  -3  -4  -5   -0.05    0.10
  -3  -4  -5   -0.07    0.11
   3   4   5   -0.25    0.34
   3   4   5   -0.03    0.15
   3   4   5    0.13    0.14
   3   4   5    0.14    0.17
  -4  -4  -5   31.87    1.21
   4   4   5   28.85    1.23
   4   4   5   29.54    1.23
   4   4   5   30.54    1.23
   4  -5  -5   29.94    1.27
  -4   5   5   33.55    1.34
  -4   5   5   33.04    1.33
  -3   5   5   29.24    1.27
  -3   5   5   29.66    1.24
  -3   5   5   26.86    1.26
   2  -5  -5  120.56    4.72
  -2   5   5  118.61    4.58
  -2   5   5  117.73    4.60
  -2   5   5  117.03    4.59
   1  -5  -5   83.76    3.61
   1  -5  -5   93.85    3.57
   1  -5  -5   96.61    3.59
   0  -5  -5   85.11    3.91
   0  -5  -5  102.07    3.72
   0  -5  -5  102.91    3.88
  -1  -5  -5  137.40    5.22
  -1  -5  -5  141.53    5.51
   1   5   5  130.90    5.45
  -2  -5  -5   43.58    2.12
  -2  -5  -5   43.49    1.65
  -2  -5  -5   40.16    1.75
  -2  -5  -5   44.35    1.66
  -2  -5  -5   42.16    1.66
   2   5   5   40.69    1.80
   2   5   5   43.68    1.66
   2   5   5   43.64    1.67
   2   5   5   43.38    1.67
   2   5   5   35.28    2.05
  -3  -5  -5   96.48    3.83
  -3  -5  -5   97.42    3.81
   3   5   5  102.52    3.84
   3   5   5  100.90    3.84
   3   5   5   99.71    3.86
  -4  -5  -5   22.19    0.92
   4   5   5   23.31    0.91
   4   5   5   21.46    0.94
   4   5   5   22.89    0.93
  -4   6   5   25.63    1.07
  -4   6   5   25.07    1.05
  -3   6   5   18.16    0.89
  -3   6   5   18.98    0.88
  -3   6   5   19.62    0.92
  -2   6   5   22.82    0.95
  -2   6   5   20.33    0.97
  -2   6   5   21.42    0.97
  -2   6   5   20.88    0.93
  -2   6   5   21.62    0.97
   1  -6  -5   61.06    2.42
  -1   6   5   66.68    2.50
  -1   6   5   55.56    2.39
   0  -6  -5  502.43   19.16
  -1  -6  -5  211.25    8.09
   1   6   5  201.86    7.82
   1   6   5  198.57    7.73
  -2  -6  -5   15.10    0.68
  -2  -6  -5   15.72    1.12
  -2  -6  -5   16.05    0.70
   2   6   5   16.68    0.71
   2   6   5   15.15    0.69
   2   6   5   16.07    0.68
   2   6   5   17.65    0.94
  -3  -6  -5   17.50    0.72
  -3  -6  -5   13.84    0.62
  -3  -6  -5   14.25    0.65
   3   6   5   13.82    0.65
   3   6   5   14.11    0.69
   3   6   5   15.46    0.68
  -4  -6  -5   13.02    0.57
   4   6   5   12.62    0.59
   4   6   5   14.25    0.59
  -4   7   5    3.88    0.27
  -4   7   5    4.10    0.26
  -3   7   5  114.55    4.44
  -3   7   5  114.20    4.46
  -2   7   5  240.13    8.88
  -2   7   5  232.56    8.85
  -2   7   5  230.78    8.84
  -2   7   5  230.18    8.89
  -2   7   5  225.78    8.87
   1  -7  -5   45.53    1.80
  -1   7   5   43.82    1.78
  -1   7   5   44.05    1.76
  -1   7   5   44.97    1.79
  -1   7   5   42.40    1.82
   0  -7  -5   21.87    1.07
   0   7   5   19.32    0.87
   0   7   5   20.11    0.91
   0   7   5   20.27    0.93
  -1  -7  -5   54.54    2.20
  -1  -7  -5   51.93    2.20
  -1  -7  -5   60.46    2.61
   1   7   5   57.12    2.20
   1   7   5   57.54    2.31
   1   7   5   59.26    2.32
  -2  -7  -5   65.57    3.24
  -2  -7  -5   70.39    2.71
  -2  -7  -5   70.92    2.72
  -2  -7  -5   70.16    2.72
   2   7   5   62.87    2.86
   2   7   5   69.15    2.71
   2   7   5   73.06    2.73
   2   7   5   77.47    2.91
  -3  -7  -5   98.34    3.91
  -3  -7  -5  101.74    3.91
  -3  -7  -5  102.35    3.89
   3   7   5  104.36    3.92
  -4  -7  -5    4.92    0.26
   4   7   5    4.41    0.26
   4   7   5    4.39    0.27
  -3   8   5   20.92    0.95
  -3   8   5   20.77    0.92
  -2   8   5  123.51    4.86
  -2   8   5  130.98    4.85
  -2   8   5  120.96    4.88
  -2   8   5  129.69    4.88
  -2   8   5  123.19    4.91
  -1   8   5  185.75    7.21
  -1   8   5  185.52    7.26
  -1   8   5  189.41    7.22
  -1   8   5  192.54    7.18
   0  -8  -5  139.02    5.42
   0   8   5  132.83    5.16
   0   8   5  131.95    5.22
   0   8   5  132.49    5.20
   0   8   5  134.96    5.09
  -1  -8  -5   75.52    3.05
  -1  -8  -5   80.88    3.52
  -1  -8  -5   75.09    3.06
   1   8   5   82.68    3.05
   1   8   5   81.98    3.18
   1   8   5   79.30    3.17
  -2  -8  -5   21.93    0.90
  -2  -8  -5   20.33    1.42
  -2  -8  -5   20.43    0.89
  -2  -8  -5   20.35    0.88
   2   8   5   18.34    0.86
   2   8   5   22.75    0.91
   2   8   5   23.55    1.16
  -3  -8  -5    0.13    0.12
  -3  -8  -5    0.06    0.11
  -3  -8  -5    0.07    0.12
   3   8   5   -0.04    0.12
   3   8   5    0.09    0.14
  -4  -8  -5   30.50    1.17
   4   8   5   29.00    1.14
   4   8   5   29.65    1.18
  -3   9   5  135.03    5.30
  -3   9   5  142.47    5.34
  -2   9   5    1.58    0.25
  -2   9   5    1.15    0.20
  -2   9   5    1.07    0.24
  -2   9   5    1.40    0.19
  -2   9   5    1.52    0.29
   1  -9  -5   25.71    1.19
  -1   9   5   25.44    1.18
  -1   9   5   25.59    1.11
  -1   9   5   25.15    1.13
   0  -9  -5    0.20    0.21
   0   9   5    0.19    0.17
   0   9   5    0.25    0.20
   0   9   5    0.38    0.22
   0   9   5    0.18    0.06
  -1  -9  -5  197.76    7.81
  -1  -9  -5  204.49    8.35
  -1  -9  -5  203.99    7.80
   1   9   5  200.64    7.93
   1   9   5  211.97    7.80
   1   9   5  213.83    7.94
  -2  -9  -5   46.36    1.80
  -2  -9  -5   46.65    1.82
  -2  -9  -5   41.84    2.39
  -2  -9  -5   41.17    1.80
   2   9   5   46.43    1.82
   2   9   5   50.38    2.03
  -3  -9  -5   87.84    3.18
  -3  -9  -5   85.02    3.16
  -3  -9  -5   76.53    3.18
   3   9   5   79.98    3.15
   3   9   5   83.13    3.20
  -3  10   5    0.63    0.14
  -2  10   5    2.67    0.39
  -2  10   5    3.03    0.35
  -1  10   5   42.81    1.85
  -1  10   5   44.99    1.77
  -1  10   5   40.76    1.79
   0 -10  -5   69.23    3.07
   0  10   5   67.80    2.76
   0  10   5   69.24    2.79
   0  10   5   66.23    2.70
  -1 -10  -5  120.44    4.68
  -1 -10  -5  122.42    4.67
  -1 -10  -5  120.24    5.26
   1  10   5  125.89    4.82
   1  10   5  123.22    4.66
   1  10   5  119.44    4.80
  -2 -10  -5   17.09    0.73
  -2 -10  -5   14.58    1.28
  -2 -10  -5   17.40    0.75
   2  10   5   18.00    0.98
   2  10   5   16.58    0.74
  -3 -10  -5    4.26    0.24
  -3 -10  -5    5.50    0.28
  -3 -10  -5    4.73    0.27
   3  10   5    5.17    0.30
   3  10   5    5.34    0.34
  -2  11   5   51.61    2.08
  -2  11   5   50.83    2.11
  -1  11   5   56.69    2.32
  -1  11   5   55.74    2.27
  -1  11   5   52.89    2.20
   0 -11  -5    0.84    0.15
   0 -11  -5    0.79    0.31
   0  11   5    1.06    0.24
   0  11   5    0.61    0.26
   0  11   5    0.60    0.24
  -1 -11  -5   27.32    1.72
  -1 -11  -5   29.22    1.18
  -1 -11  -5   27.43    1.20
   1  11   5   31.02    1.26
   1  11   5   28.79    1.16
   1  11   5   30.92    1.37
   1  11   5   28.44    1.33
  -2 -11  -5  102.43    3.86
  -2 -11  -5  100.05    3.87
   2  11   5   98.25    3.86
   2  11   5  101.90    3.92
   2  11   5  100.89    3.99
  -3 -11  -5   11.06    0.48
   3  11   5   11.76    0.52
   3  11   5   11.07    0.49
  -2  12   5   35.39    1.41
  -2  12   5   32.50    1.41
  -1  12   5  151.62    5.84
  -1  12   5  142.36    5.76
  -1  12   5  158.17    5.89
   0 -12  -5   94.32    3.62
   0  12   5   93.42    3.72
   0  12   5   95.02    3.75
   0  12   5   92.02    3.65
  -1 -12  -5   30.08    1.57
  -1 -12  -5   29.82    1.21
   1  12   5   30.19    1.26
   1  12   5   27.93    1.14
   1  12   5   28.65    1.32
   1  12   5   30.50    1.35
  -2 -12  -5    0.00    0.12
  -2 -12  -5   -0.09    0.10
   2  12   5   -0.03    0.16
   2  12   5   -0.02    0.09
  -2  13   5   29.66    1.15
  -2  13   5   27.87    1.16
  -1  13   5    0.98    0.27
  -1  13   5    1.10    0.23
   0 -13  -5    8.13    0.41
   0  13   5    8.51    0.55
   0  13   5    8.16    0.45
   0  13   5    7.88    0.56
  -1 -13  -5   50.89    1.93
  -1 -13  -5   51.13    1.95
   1  13   5   50.34    1.98
   1  13   5   48.78    2.02
   1  13   5   47.87    2.03
  -2 -13  -5   27.12    1.08
  -2 -13  -5   27.12    1.08
   2  13   5   28.04    1.11
  -1  14   5   47.51    1.89
  -1  14   5   46.70    1.86
   0 -14  -5   71.10    2.76
   0  14   5   72.51    2.82
   0  14   5   69.54    2.75
   0  14   5   74.88    2.85
  -1 -14  -5   14.79    0.61
   1  14   5   14.96    0.63
   1  14   5   14.33    0.67
   1   9  -6   23.80    0.94
  -1  -9   6   23.86    0.94
   0   9  -6   10.89    0.52
   0   9  -6   11.04    0.46
   0  -9   6   11.27    0.48
   0  -9   6   10.93    0.48
  -1   9  -6   40.64    1.57
   1  -9   6   38.30    1.51
   1  -9   6   36.99    1.50
   2   8  -6   13.09    0.52
  -2  -8   6   12.22    0.50
  -2  -8   6   11.61    0.51
   1   8  -6   25.81    1.06
  -1  -8   6   26.71    1.04
  -1  -8   6   25.01    1.07
  -1  -8   6   28.13    1.07
   0   8  -6   20.05    0.91
   0  -8   6   19.88    0.84
   0  -8   6   20.28    0.85
  -1   8  -6    4.00    0.38
  -1   8  -6    3.68    0.28
   1  -8   6    3.93    0.26
  -2   8  -6   16.15    0.70
  -2   8  -6   17.19    0.76
   2  -8   6   16.31    0.67
   2   7  -6    2.38    0.16
   2   7  -6    2.65    0.20
  -2  -7   6    2.25    0.20
  -2  -7   6    2.33    0.19
  -1  -7   6   17.17    0.73
  -1  -7   6   15.81    0.74
  -1  -7   6   17.19    0.71
   0   7  -6   85.47    3.34
   0   7  -6   87.66    3.26
   0  -7   6   86.34    3.28
   0  -7   6   78.14    3.26
  -1   7  -6   69.57    2.63
  -1   7  -6   69.70    2.76
  -1   7  -6   67.52    2.68
   1  -7   6   69.05    2.68
   1  -7   6   65.65    2.66
  -2   7  -6   36.20    1.48
  -2   7  -6   37.52    1.53
   2  -7   6   36.94    1.48
   2  -7   6   35.28    1.44
   3   6  -6   31.72    1.29
   3   6  -6   35.08    1.28
  -3  -6   6   32.10    1.29
   2   6  -6   21.12    0.94
   2   6  -6   23.91    0.92
  -2  -6   6   23.01    0.92
  -2  -6   6   21.60    0.94
   1   6  -6   28.55    1.36
   1   6  -6   32.71    1.28
   1   6  -6   30.26    1.25
  -1  -6   6   33.51    1.28
  -1  -6   6   30.60    1.29
  -1  -6   6   31.45    1.26
   0   6  -6    1.12    0.26
   0   6  -6    1.39    0.18
   0  -6   6    1.08    0.21
   0  -6   6    1.51    0.20
   0  -6   6    1.27    0.20
  -1   6  -6    3.01    0.32
  -1   6  -6    3.44    0.25
   1  -6   6    3.48    0.29
   1  -6   6    3.27    0.70
   1  -6   6    2.75    0.34
  -2   6  -6   65.96    2.58
  -2   6  -6   66.70    2.71
  -2   6  -6   67.09    2.66
  -2   6  -6   67.83    2.72
   2  -6   6   67.69    2.66
   2  -6   6   68.97    2.63
  -3   6  -6   92.27    3.30
  -3   6  -6   81.03    3.28
   3  -6   6   85.52    3.28
   3  -6   6   82.48    3.25
   3   5  -6    2.60    0.21
   3   5  -6    3.35    0.21
  -3  -5   6    2.93    0.21
   2   5  -6    7.12    0.40
   2   5  -6    7.44    0.42
  -2  -5   6    9.38    0.51
  -2  -5   6    7.24    0.45
  -2  -5   6    7.68    0.40
   1   5  -6   43.57    1.69
   1   5  -6   38.58    1.71
   1   5  -6   42.00    1.67
  -1  -5   6   42.60    1.69
  -1  -5   6   43.20    1.71
  -1  -5   6   42.99    1.68
   0   5  -6  114.57    4.29
   0   5  -6  107.22    4.26
   0  -5   6  104.84    4.92
   0  -5   6  111.13    4.32
   0  -5   6  113.75    4.30
   0  -5   6  118.45    4.32
  -1   5  -6   94.11    3.80
  -1   5  -6   98.55    3.76
   1  -5   6   94.27    4.43
   1  -5   6  100.15    3.79
   1  -5   6  102.73    3.82
  -2   5  -6    5.43    0.30
  -2   5  -6    5.30    0.42
  -2   5  -6    6.38    0.55
   2  -5   6    5.32    0.85
   2  -5   6    5.46    0.36
   2  -5   6    6.01    0.44
  -3   5  -6    2.18    0.34
  -3   5  -6    1.87    0.28
  -3   5  -6    2.26    0.29
   3  -5   6    1.83    0.20
   3  -5   6    2.23    0.29
   3   4  -6   55.17    2.20
   3   4  -6   58.42    2.19
   3   4  -6   55.34    2.21
  -3  -4   6   57.19    2.21
   2   4  -6   35.98    1.47
   2   4  -6   35.65    1.45
   2   4  -6   33.76    1.45
  -2  -4   6   36.13    1.48
  -2  -4   6   38.51    1.45
   1   4  -6  136.90    5.26
   1   4  -6  133.12    5.27
   1   4  -6  139.41    5.29
  -1  -4   6  143.29    5.28
  -1  -4   6  138.37    5.30
  -1  -4   6  136.95    5.28
   0   4  -6    0.05    0.10
   0   4  -6    0.13    0.11
   0  -4   6    0.18    0.16
   0  -4   6    0.17    0.13
   0  -4   6    0.11    0.32
   0  -4   6    0.07    0.12
  -1   4  -6   48.35    2.00
  -1   4  -6   54.50    2.16
  -1   4  -6   54.07    2.03
  -1   4  -6   48.69    2.06
   1  -4   6   52.89    2.67
   1  -4   6   51.82    2.06
   1  -4   6   52.32    2.08
  -2   4  -6   77.78    3.11
  -2   4  -6   77.98    3.05
  -2   4  -6   77.59    2.97
   2  -4   6   74.64    3.72
   2  -4   6   78.74    3.02
   2  -4   6   75.37    3.04
  -3   4  -6   33.39    1.33
  -3   4  -6   34.83    1.48
  -3   4  -6   34.35    1.44
  -3   4  -6   35.17    1.44
   3  -4   6   34.74    1.40
   3  -4   6   34.49    1.43
   3   3  -6    8.46    0.43
   3   3  -6    7.39    0.45
   3   3  -6    8.37    0.43
  -3  -3   6    8.14    0.43
  -3  -3   6    8.38    0.47
   2   3  -6   45.28    2.55
   2   3  -6   47.87    1.86
   2   3  -6   47.44    1.85
  -2  -3   6   44.66    1.83
  -2  -3   6   47.25    1.87
   1   3  -6    5.94    0.35
   1   3  -6    7.38    0.76
   1   3  -6    6.14    0.34
   1   3  -6    5.95    0.35
  -1  -3   6    5.93    0.36
  -1  -3   6    6.08    0.38
  -1  -3   6    6.04    0.35
   0   3  -6  240.30    9.53
   0   3  -6  253.24    9.54
   0   3  -6  242.28    9.52
   0  -3   6  271.88   10.13
   0  -3   6  253.14    9.55
   0  -3   6  246.06    9.57
   0  -3   6  255.88    9.56
  -1   3  -6   74.25    2.92
  -1   3  -6   78.47    2.94
  -1   3  -6   72.58    2.97
  -1   3  -6   82.99    3.06
   1  -3   6   75.31    2.96
   1  -3   6   75.66    3.52
   1  -3   6   72.13    2.98
   1  -3   6   78.02    2.99
  -2   3  -6    1.65    0.35
  -2   3  -6    0.68    0.17
  -2   3  -6    1.03    0.14
   2  -3   6    0.81    0.18
   2  -3   6    0.76    0.24
   2  -3   6    0.46    0.42
  -3   3  -6   13.75    0.76
  -3   3  -6   14.14    0.71
  -3   3  -6   14.14    0.60
  -3   3  -6   14.72    0.72
   3  -3   6   14.12    0.67
   3  -3   6   14.49    0.74
  -4   3  -6   19.94    0.79
   4  -3   6   18.45    0.75
   4  -3   6   18.08    0.78
   4   2  -6    3.41    0.20
   4   2  -6    3.07    0.19
   3   2  -6   61.51    2.37
   3   2  -6   60.91    2.36
  -3  -2   6   58.92    2.41
  -3  -2   6   59.12    2.36
   2   2  -6  125.72    4.76
   2   2  -6  122.38    4.74
   2   2  -6  122.63    5.43
  -2  -2   6  128.26    4.84
  -2  -2   6  115.74    4.72
  -2  -2   6  127.63    4.76
   1   2  -6   28.29    1.62
   1   2  -6   27.58    1.19
   1   2  -6   27.98    1.17
   1   2  -6   29.89    1.19
  -1  -2   6   29.47    1.19
  -1  -2   6   29.89    1.17
  -1  -2   6   31.73    1.29
   0   2  -6    1.58    0.19
   0   2  -6    1.43    0.17
   0   2  -6    1.54    0.42
   0   2  -6    1.40    0.17
   0  -2   6    1.81    0.20
   0  -2   6    1.46    0.16
   0  -2   6    1.52    0.41
   0  -2   6    1.83    0.24
  -1   2  -6   11.61    0.65
  -1   2  -6   10.83    0.50
  -1   2  -6   11.49    0.49
   1  -2   6   10.68    0.53
   1  -2   6    9.94    0.56
   1  -2   6   11.60    1.00
  -2   2  -6   15.87    0.68
  -2   2  -6   16.24    0.83
   2  -2   6   14.80    0.75
   2  -2   6   16.44    1.35
   2  -2   6   15.22    0.73
  -3   2  -6  219.51    8.30
  -3   2  -6  225.36    8.19
   3  -2   6  218.24    8.25
   3  -2   6  200.29    9.02
  -4   2  -6   22.54    0.88
  -4   2  -6   19.52    0.88
   4  -2   6   20.02    0.85
   4   1  -6   14.87    0.63
   4   1  -6   15.28    0.64
   3   1  -6   17.15    1.40
   3   1  -6   19.58    0.79
   3   1  -6   18.06    0.81
  -3  -1   6   18.05    0.88
  -3  -1   6   17.60    0.78
  -3  -1   6   16.59    0.78
   2   1  -6   36.10    1.43
   2   1  -6   34.30    1.98
   2   1  -6   34.97    1.41
  -2  -1   6   35.92    1.43
  -2  -1   6   32.61    1.43
  -2  -1   6   37.47    1.53
  -2  -1   6   33.68    1.38
   1   1  -6  106.44    4.35
   1   1  -6   99.94    3.89
   1   1  -6   97.55    3.87
  -1  -1   6   97.10    3.88
  -1  -1   6   99.84    3.90
  -1  -1   6  107.34    3.96
   0   1  -6  168.65    6.72
   0   1  -6  162.71    6.48
   0  -1   6  170.15    6.76
  -1   1  -6  146.63    5.48
  -1   1  -6  145.50    5.85
  -1   1  -6  145.67    5.57
  -1   1  -6  140.15    5.48
   1  -1   6  140.03    5.99
   1  -1   6  150.61    5.53
   1  -1   6  140.53    5.51
  -2   1  -6  136.60    4.98
  -2   1  -6  131.85    5.08
  -2   1  -6  122.78    4.95
   2  -1   6  126.16    5.01
   2  -1   6  129.36    5.00
   2  -1   6  135.75    5.66
  -3   1  -6   18.40    0.79
  -3   1  -6   19.60    0.93
   3  -1   6   17.82    0.86
   3  -1   6   19.75    0.84
   3  -1   6   17.63    1.44
  -4   1  -6   57.41    2.30
  -4   1  -6   64.51    2.38
  -4   1  -6   58.35    2.37
   4  -1   6   62.11    2.36
   4   0  -6   30.83    1.20
   4   0  -6   28.32    1.18
  -4   0   6   29.93    1.21
   3   0  -6   38.78    2.29
   3   0  -6   41.89    1.66
   3   0  -6   40.30    1.63
  -3   0   6   41.86    1.62
  -3   0   6   39.26    1.66
  -3   0   6   40.17    1.74
  -3   0   6   42.02    1.73
   2   0  -6   99.06    4.24
   2   0  -6   94.99    3.66
   2   0  -6   92.81    3.67
  -2   0   6   96.52    3.67
  -2   0   6   92.11    3.69
   1   0  -6   85.84    3.64
  -1   0   6   83.74    3.27
   0   0  -6   12.94    0.68
   0   0  -6   12.55    0.85
   0   0   6   12.98    0.89
  -1   0  -6  198.68    8.02
   1   0   6  206.46    8.17
  -2   0  -6  121.38    4.72
  -2   0  -6  128.79    4.83
  -2   0  -6  121.94    4.74
  -2   0  -6  126.13    4.80
   2   0   6  129.32    5.36
   2   0   6  122.86    4.77
   2   0   6  125.80    4.76
   2   0   6  116.73    4.77
  -3   0  -6   86.63    3.55
  -3   0  -6   90.09    3.54
  -3   0  -6   91.51    3.46
   3   0   6   88.20    4.22
   3   0   6   92.32    3.51
   3   0   6   90.17    3.49
  -4   0  -6    7.41    0.42
  -4   0  -6    5.86    0.40
  -4   0  -6    7.38    0.32
   4   0   6    7.05    0.41
   4  -1  -6   23.42    0.97
   4  -1  -6   24.21    0.94
  -4   1   6   21.97    0.95
  -4   1   6   23.67    1.00
   3  -1  -6    6.87    0.90
   3  -1  -6    6.19    0.41
   3  -1  -6    6.62    0.37
  -3   1   6    6.30    0.50
  -3   1   6    6.32    0.56
  -3   1   6    6.41    0.44
  -3   1   6    6.20    0.33
   2  -1  -6   61.86    2.50
   2  -1  -6   62.85    2.51
   2  -1  -6   67.29    3.02
  -2   1   6   68.02    2.60
  -2   1   6   62.23    2.54
  -2   1   6   64.41    2.50
   1  -1  -6   53.50    2.40
   0  -1  -6  582.70   22.46
   0  -1  -6  594.65   22.66
   0   1   6  601.98   22.68
  -1  -1  -6   90.77    3.70
  -1  -1  -6   82.49    3.50
   1   1   6   90.59    3.80
  -2  -1  -6    7.93    0.38
  -2  -1  -6    8.75    0.50
  -2  -1  -6    7.21    0.50
  -2  -1  -6    7.41    0.37
   2   1   6    7.36    0.41
   2   1   6    7.65    0.44
   2   1   6    8.20    0.87
   2   1   6    7.93    0.42
  -3  -1  -6   30.25    1.29
  -3  -1  -6   28.56    1.28
  -3  -1  -6   29.41    1.18
   3   1   6   29.13    1.23
   3   1   6   27.28    1.85
   3   1   6   26.39    1.21
   3   1   6   30.82    1.21
  -4  -1  -6    2.55    0.19
   4   1   6    2.77    0.26
   4   1   6    2.69    0.29
   4  -2  -6   28.13    1.15
   4  -2  -6   26.69    1.11
  -4   2   6   29.17    1.16
  -4   2   6   28.89    1.20
   3  -2  -6  106.45    4.73
   3  -2  -6  106.21    4.09
   3  -2  -6  105.87    4.05
  -3   2   6  102.87    4.15
  -3   2   6  102.54    4.11
  -3   2   6  110.60    4.16
  -3   2   6  103.40    4.01
   2  -2  -6   56.18    2.25
   2  -2  -6   59.94    2.70
   2  -2  -6   54.36    2.26
  -2   2   6   57.82    2.30
  -2   2   6   58.35    2.34
  -2   2   6   57.85    2.23
  -2   2   6   59.58    2.33
   1  -2  -6   13.37    0.84
   0  -2  -6    3.68    0.34
   0  -2  -6    3.89    0.47
   0   2   6    3.98    0.43
  -1  -2  -6  342.14   12.62
  -1  -2  -6  345.68   12.40
   1   2   6  286.68   12.61
  -2  -2  -6   49.92    1.93
  -2  -2  -6   50.33    1.92
  -2  -2  -6   49.52    1.93
  -2  -2  -6   52.17    2.01
  -2  -2  -6   48.47    2.01
   2   2   6   47.83    1.96
   2   2   6   50.59    1.95
   2   2   6   47.86    1.96
   2   2   6   49.01    2.44
  -3  -2  -6   72.43    2.69
  -3  -2  -6   64.36    2.65
  -3  -2  -6   63.38    2.74
   3   2   6   72.29    2.72
   3   2   6   71.77    2.71
   3   2   6   69.03    3.42
   3   2   6   70.42    2.72
  -4  -2  -6   40.03    1.55
   4   2   6   40.61    1.59
   4   2   6   38.30    1.58
   4  -3  -6    6.18    0.35
  -4   3   6    6.21    0.42
  -4   3   6    6.29    0.40
   3  -3  -6    0.57    0.16
   3  -3  -6    0.33    0.31
  -3   3   6    0.43    0.24
  -3   3   6    0.68    0.21
  -3   3   6    0.58    0.29
   2  -3  -6    0.95    0.31
  -2   3   6    1.34    0.23
  -2   3   6    0.62    0.20
  -2   3   6    0.96    0.10
  -2   3   6    0.76    0.21
   1  -3  -6  295.35   11.42
   0  -3  -6  160.19    6.38
   0  -3  -6  171.73    6.54
  -1  -3  -6   39.04    1.65
  -1  -3  -6   39.67    1.86
   1   3   6   40.03    1.90
  -2  -3  -6   33.33    1.26
  -2  -3  -6   30.07    1.66
  -2  -3  -6   30.47    1.26
  -2  -3  -6   32.69    1.27
   2   3   6   30.08    1.27
   2   3   6   32.58    1.29
   2   3   6   30.67    1.75
   2   3   6   33.02    1.29
  -3  -3  -6    5.93    0.32
  -3  -3  -6    6.03    0.35
   3   3   6    6.78    0.39
   3   3   6    5.41    0.91
   3   3   6    5.76    0.40
   3   3   6    6.16    0.40
  -4  -3  -6   43.87    1.75
   4   3   6   44.65    1.77
   4   3   6   46.09    1.78
   4  -4  -6   16.47    0.71
  -4   4   6   16.62    0.76
  -4   4   6   17.07    0.77
   3  -4  -6   65.67    3.15
   3  -4  -6   66.38    2.71
  -3   4   6   71.70    2.80
  -3   4   6   70.24    2.80
  -3   4   6   72.30    2.77
   2  -4  -6  221.49    8.24
  -2   4   6  204.16    7.94
  -2   4   6  195.71    7.93
   1  -4  -6   40.87    1.80
   0  -4  -6    3.46    0.42
   0  -4  -6    3.30    0.30
  -1  -4  -6   20.49    1.12
  -1  -4  -6   18.51    0.87
   1   4   6   19.35    1.10
  -2  -4  -6  367.53   13.98
  -2  -4  -6  384.88   13.98
  -2  -4  -6  359.39   14.46
  -2  -4  -6  364.95   13.97
   2   4   6  385.76   13.99
   2   4   6  357.12   13.98
   2   4   6  357.89   14.13
   2   4   6  369.27   14.52
   2   4   6  382.28   14.00
  -3  -4  -6   56.39    2.17
  -3  -4  -6   54.46    2.15
   3   4   6   55.44    2.18
   3   4   6   50.97    2.91
   3   4   6   57.11    2.20
   3   4   6   56.42    2.19
  -4  -4  -6   19.32    0.81
   4   4   6   19.34    0.83
   4   4   6   19.09    0.84
   4   4   6   20.47    0.82
   4  -5  -6   31.16    1.31
  -4   5   6   34.16    1.36
  -4   5   6   34.92    1.37
   3  -5  -6    0.96    0.30
  -3   5   6    1.42    0.29
  -3   5   6    1.43    0.32
  -3   5   6    1.50    0.26
   2  -5  -6   64.99    2.70
  -2   5   6   60.73    2.50
  -2   5   6   61.91    2.47
  -2   5   6   61.25    2.50
   1  -5  -6  338.90   12.32
  -1   5   6  302.55   12.17
  -1   5   6  321.56   12.17
   0  -5  -6  177.30    6.90
   0  -5  -6  183.76    7.08
  -1  -5  -6   67.98    2.70
  -1  -5  -6   69.29    2.98
  -2  -5  -6    5.20    0.30
  -2  -5  -6    4.68    0.28
  -2  -5  -6    4.13    0.62
  -2  -5  -6    5.80    0.30
   2   5   6    4.72    0.30
   2   5   6    5.35    0.33
   2   5   6    5.45    0.32
   2   5   6    3.45    0.57
  -3  -5  -6   45.83    1.78
   3   5   6   44.13    1.79
   3   5   6   45.48    1.80
   3   5   6   44.71    1.82
  -4  -5  -6   57.41    2.14
   4   5   6   55.78    2.16
   4   5   6   52.66    2.16
  -4   6   6   62.95    2.46
  -4   6   6   63.75    2.48
  -3   6   6   68.69    2.72
  -3   6   6   64.43    2.74
  -3   6   6   72.35    2.76
   2  -6  -6  170.54    6.62
  -2   6   6  167.51    6.51
  -2   6   6  167.86    6.48
  -2   6   6  169.80    6.51
   1  -6  -6    0.25    0.15
   1  -6  -6    0.11    0.11
   1  -6  -6    0.07    0.09
  -1   6   6   -0.04    0.15
  -1   6   6    0.33    0.16
  -1   6   6    0.08    0.09
   0  -6  -6   34.05    1.54
   0  -6  -6   31.27    1.32
  -1  -6  -6   36.37    1.36
  -1  -6  -6   34.95    1.69
  -1  -6  -6   31.65    1.34
   1   6   6   33.28    1.46
   1   6   6   31.17    1.32
   1   6   6   32.83    1.44
  -2  -6  -6  103.02    3.97
  -2  -6  -6  102.14    3.97
  -2  -6  -6  100.87    4.49
  -2  -6  -6  104.97    3.96
   2   6   6  100.60    4.13
   2   6   6  107.04    3.98
   2   6   6  104.16    3.96
  -3  -6  -6   54.12    2.06
  -3  -6  -6   53.12    2.01
  -3  -6  -6   52.16    2.04
   3   6   6   53.61    2.09
   3   6   6   48.29    2.05
   3   6   6   54.13    2.04
   3   6   6   49.84    2.06
  -4  -6  -6    0.54    0.10
   4   6   6    0.72    0.14
   4   6   6    0.46    0.12
  -4   7   6    5.40    0.31
  -4   7   6    4.95    0.28
  -3   7   6   30.43    1.22
  -3   7   6   26.58    1.22
  -3   7   6   28.22    1.24
  -2   7   6   40.43    1.80
  -2   7   6   42.72    1.79
  -2   7   6   44.19    1.81
  -2   7   6   45.83    1.78
   1  -7  -6   74.45    2.84
  -1   7   6   69.20    2.75
  -1   7   6   68.55    2.72
  -1   7   6   69.50    2.74
  -1   7   6   66.85    2.75
  -1   7   6   70.14    2.80
   0  -7  -6  414.32   14.63
   0   7   6  363.53   14.39
   0   7   6  358.82   14.41
   0   7   6  379.64   14.36
  -1  -7  -6   60.43    2.46
  -1  -7  -6   61.47    2.47
  -1  -7  -6   65.54    2.88
   1   7   6   64.59    2.47
   1   7   6   65.06    2.59
   1   7   6   65.38    2.60
  -2  -7  -6    3.18    0.24
  -2  -7  -6    3.84    0.28
  -2  -7  -6    2.97    0.62
  -2  -7  -6    3.20    0.25
   2   7   6    2.92    0.52
   2   7   6    3.43    0.26
   2   7   6    3.89    0.29
  -3  -7  -6   15.11    0.65
  -3  -7  -6   14.89    0.66
  -3  -7  -6   14.60    0.63
   3   7   6   14.78    0.69
   3   7   6   14.58    0.66
  -4  -7  -6    8.81    0.38
   4   7   6    7.84    0.40
   4   7   6    8.30    0.38
  -3   8   6    0.61    0.21
  -3   8   6    0.59    0.18
  -2   8   6   88.05    3.42
  -2   8   6   90.13    3.44
  -2   8   6   85.71    3.48
  -2   8   6   86.81    3.46
  -2   8   6   85.94    3.42
   1  -8  -6    8.54    0.51
  -1   8   6    6.30    0.55
  -1   8   6    7.68    0.41
  -1   8   6    7.29    0.46
  -1   8   6    8.21    0.47
  -1   8   6    7.83    0.51
   0  -8  -6   29.48    1.42
   0   8   6   26.45    1.19
   0   8   6   27.07    1.07
   0   8   6   26.72    1.15
   0   8   6   26.72    1.22
  -1  -8  -6  118.24    4.65
  -1  -8  -6  118.00    4.66
  -1  -8  -6  121.95    5.12
   1   8   6  126.36    4.78
   1   8   6  123.99    4.65
   1   8   6  121.94    4.78
  -2  -8  -6  217.86    9.29
  -2  -8  -6  227.61    8.68
  -2  -8  -6  234.08    8.68
  -2  -8  -6  231.69    8.67
   2   8   6  239.69    8.69
   2   8   6  219.67    8.82
   2   8   6  244.63    8.85
   2   8   6  211.85    8.65
  -3  -8  -6   23.35    0.92
  -3  -8  -6   24.12    0.91
  -3  -8  -6   21.10    0.93
   3   8   6   21.17    0.92
   3   8   6   21.20    0.94
   3   8   6   22.48    0.96
  -4  -8  -6    3.13    0.18
   4   8   6    3.14    0.20
  -3   9   6    6.69    0.39
  -3   9   6    7.06    0.41
  -2   9   6   48.77    1.94
  -2   9   6   47.88    2.03
  -2   9   6   48.14    1.96
  -2   9   6   50.12    1.99
  -2   9   6   47.23    1.97
  -1   9   6  115.94    4.59
  -1   9   6  117.66    4.57
  -1   9   6  118.12    4.53
  -1   9   6  119.07    4.64
   0  -9  -6  114.22    4.65
   0   9   6  111.16    4.23
   0   9   6  111.60    4.38
   0   9   6  110.86    4.33
   0   9   6  110.36    4.41
  -1  -9  -6   20.17    0.87
  -1  -9  -6   20.39    1.33
  -1  -9  -6   20.27    0.89
   1   9   6   21.22    1.04
   1   9   6   21.75    0.88
   1   9   6   21.17    0.95
   1   9   6   21.92    1.07
  -2  -9  -6    5.23    0.33
  -2  -9  -6    4.70    0.76
  -2  -9  -6    5.91    0.36
   2   9   6    7.51    0.71
   2   9   6    5.86    0.36
  -3  -9  -6  119.32    4.39
  -3  -9  -6  117.73    4.41
  -3  -9  -6  118.48    4.41
   3   9   6  106.73    4.42
   3   9   6  120.19    4.43
   3   9   6  108.96    4.38
  -3  10   6   58.11    2.24
  -3  10   6   57.01    2.21
  -1  10   6    0.85    0.29
  -1  10   6    0.60    0.20
  -1  10   6    0.47    0.21
   0 -10  -6   43.42    2.11
   0  10   6   43.81    1.78
   0  10   6   43.51    1.87
   0  10   6   41.62    1.82
  -1 -10  -6   84.02    3.26
  -1 -10  -6   81.82    3.27
  -1 -10  -6   83.54    3.83
   1  10   6   82.71    3.41
   1  10   6   86.20    3.42
   1  10   6   85.98    3.32
   1  10   6   86.57    3.25
  -2 -10  -6   44.41    1.69
  -2 -10  -6   38.66    2.31
  -2 -10  -6   44.97    1.68
   2  10   6   35.83    1.81
   2  10   6   41.91    1.73
   2  10   6   44.38    1.89
   2  10   6   44.99    1.69
  -3 -10  -6   56.11    2.26
  -3 -10  -6   59.51    2.24
  -3 -10  -6   61.50    2.26
   3  10   6   59.54    2.29
   3  10   6   55.89    2.28
  -2  11   6   64.00    2.51
  -2  11   6   62.05    2.54
  -1  11   6  125.07    4.93
  -1  11   6  127.27    4.88
  -1  11   6  121.91    4.83
   0 -11  -6   74.21    2.85
   0 -11  -6   74.40    3.29
   0  11   6   73.99    3.00
   0  11   6   72.15    2.90
   0  11   6   71.06    2.96
  -1 -11  -6    1.14    0.15
  -1 -11  -6    0.89    0.35
  -1 -11  -6    1.42    0.19
   1  11   6    1.41    0.33
   1  11   6    1.50    0.35
   1  11   6    0.81    0.20
   1  11   6    1.31    0.17
  -2 -11  -6    0.35    0.12
  -2 -11  -6    0.41    0.14
   2  11   6    0.34    0.19
   2  11   6    0.84    0.35
   2  11   6    0.59    0.14
  -3 -11  -6   40.13    1.59
   3  11   6   40.51    1.60
   3  11   6   42.50    1.61
  -2  12   6   16.06    0.77
  -2  12   6   16.82    0.75
  -1  12   6    1.24    0.31
  -1  12   6    1.87    0.25
  -1  12   6    1.85    0.30
   0 -12  -6    9.89    0.50
   0  12   6   10.59    0.68
   0  12   6   10.35    0.57
   0  12   6   10.42    0.65
  -1 -12  -6   62.72    2.36
  -1 -12  -6   60.60    2.38
   1  12   6   58.75    2.50
   1  12   6   60.52    2.51
   1  12   6   61.25    2.43
  -2 -12  -6   43.10    1.70
  -2 -12  -6   43.44    1.71
   2  12   6   45.69    1.75
   2  12   6   41.25    1.68
  -2  13   6   25.72    1.06
  -1  13   6  124.21    4.63
  -1  13   6  116.12    4.57
  -1  13   6  113.68    4.51
   0 -13  -6   49.53    1.94
   0  13   6   49.36    1.98
   0  13   6   49.84    2.05
   0  13   6   49.62    2.08
  -1 -13  -6   21.61    0.89
  -1 -13  -6   21.10    0.87
   1  13   6   20.51    0.99
   1  13   6   22.15    1.02
   1  13   6   21.78    0.94
  -2 -13  -6    1.03    0.15
  -2 -13  -6    0.92    0.12
   2  13   6    1.08    0.18
  -1  14   6    6.76    0.39
  -1  14   6    6.77    0.43
   0 -14  -6   10.37    0.46
   0  14   6   10.64    0.58
   0  14   6   11.52    0.58
   0  14   6   10.03    0.49
  -1 -14  -6   81.77    3.03
   1  14   6   75.90    3.08
   1  14   6   72.75    3.06
   1  14   6   86.42    3.05
   1   8  -7   49.36    1.89
  -1  -8   7   48.54    1.89
   0   8  -7   31.34    1.29
   0   8  -7   32.19    1.24
   0  -8   7   32.80    1.25
   0  -8   7   30.39    1.25
  -1   8  -7   66.67    2.43
  -1   8  -7   55.74    2.32
   1  -8   7   60.55    2.36
   1  -8   7   62.90    2.37
   2   7  -7   26.77    1.03
  -2  -7   7   26.19    1.00
  -2  -7   7   24.77    1.03
   1   7  -7    8.80    0.44
  -1  -7   7   10.38    0.45
  -1  -7   7    9.56    0.46
   0   7  -7   -0.04    0.21
   0   7  -7    0.18    0.13
   0  -7   7    0.10    0.12
   0  -7   7    0.09    0.12
  -1   7  -7   37.19    1.54
  -1   7  -7   36.05    1.42
   1  -7   7   35.83    1.45
  -2   7  -7   59.98    2.35
  -2   7  -7   63.69    2.41
   2  -7   7   59.09    2.34
   2   6  -7    0.16    0.11
   2   6  -7    0.17    0.09
  -2  -6   7    0.20    0.11
  -2  -6   7    0.31    0.09
   1   6  -7   35.03    1.39
   1   6  -7   35.38    1.43
  -1  -6   7   36.98    1.44
  -1  -6   7   34.26    1.42
  -1  -6   7   35.45    1.39
   0   6  -7  101.02    3.94
   0   6  -7   98.66    3.86
   0  -6   7  101.19    3.89
   0  -6   7   96.36    3.87
   0  -6   7  104.37    3.87
  -1   6  -7   18.44    0.89
  -1   6  -7   17.20    0.79
  -1   6  -7   17.91    0.75
   1  -6   7   18.03    0.78
   1  -6   7   17.70    0.81
  -2   6  -7    1.64    0.26
  -2   6  -7    1.99    0.33
  -2   6  -7    1.71    0.14
   2  -6   7    1.81    0.21
   2  -6   7    1.92    0.28
   3   5  -7   39.51    1.46
  -3  -5   7   36.11    1.47
   2   5  -7   47.05    1.81
   2   5  -7   44.90    1.79
  -2  -5   7   44.62    1.82
  -2  -5   7   46.39    1.78
  -2  -5   7   45.50    1.82
   1   5  -7    2.27    0.22
   1   5  -7    2.25    0.27
  -1  -5   7    2.22    0.25
  -1  -5   7    2.08    0.27
  -1  -5   7    2.28    0.23
   0   5  -7    1.14    0.16
   0   5  -7    0.88    0.13
   0  -5   7    0.67    0.42
   0  -5   7    0.87    0.19
   0  -5   7    0.93    0.17
   0  -5   7    1.01    0.19
  -1   5  -7   28.00    1.21
  -1   5  -7   30.13    1.18
   1  -5   7   26.37    1.79
   1  -5   7   30.53    1.21
   1  -5   7   29.66    1.23
  -2   5  -7   49.98    1.95
  -2   5  -7   49.94    2.01
   2  -5   7   51.99    2.02
   2  -5   7   48.99    1.99
  -3   5  -7   15.51    0.66
  -3   5  -7   14.26    0.65
   3  -5   7   15.31    0.66
   3  -5   7   14.05    0.61
   3   4  -7    0.60    0.11
   3   4  -7    0.32    0.10
  -3  -4   7    0.73    0.13
   2   4  -7    3.73    0.30
   2   4  -7    4.00    0.28
   2   4  -7    3.56    0.26
  -2  -4   7    3.50    0.26
  -2  -4   7    3.64    0.31
  -2  -4   7    3.65    0.35
   1   4  -7  134.79    5.04
   1   4  -7  136.38    5.06
   1   4  -7  117.86    5.07
   1   4  -7  130.83    5.02
  -1  -4   7  136.30    5.08
  -1  -4   7  128.47    5.02
  -1  -4   7  138.14    5.06
   0   4  -7    6.10    0.33
   0   4  -7    5.82    0.36
   0  -4   7    5.54    0.84
   0  -4   7    5.84    0.40
   0  -4   7    5.78    0.37
   0  -4   7    6.05    0.37
  -1   4  -7   85.40    3.25
  -1   4  -7   80.53    3.28
   1  -4   7   89.12    3.31
   1  -4   7   86.46    3.30
   1  -4   7   83.13    3.28
   1  -4   7   80.95    3.93
  -2   4  -7   35.43    1.49
  -2   4  -7   36.60    1.57
  -2   4  -7   36.86    1.42
   2  -4   7   37.58    1.50
   2  -4   7   33.18    2.11
   2  -4   7   34.45    1.46
  -3   4  -7    2.67    0.15
  -3   4  -7    2.66    0.37
  -3   4  -7    2.97    0.30
  -3   4  -7    2.60    0.30
   3  -4   7    2.85    0.31
   3  -4   7    3.03    0.24
   3   3  -7   35.52    1.41
   3   3  -7   36.04    1.42
  -3  -3   7   35.61    1.42
  -3  -3   7   35.06    1.43
   2   3  -7   91.63    3.48
   2   3  -7   93.41    3.46
   2   3  -7   92.11    3.46
   2   3  -7   81.52    4.26
  -2  -3   7   86.80    3.44
  -2  -3   7   91.30    3.48
   1   3  -7   24.46    1.04
   1   3  -7   25.66    1.04
   1   3  -7   24.31    1.03
  -1  -3   7   26.15    1.05
  -1  -3   7   24.49    1.01
  -1  -3   7   24.30    1.07
   0   3  -7    4.85    0.28
   0   3  -7    4.15    0.26
   0  -3   7    4.63    0.35
   0  -3   7    4.50    0.72
   0  -3   7    4.22    0.33
   0  -3   7    4.96    0.33
  -1   3  -7    0.44    0.10
  -1   3  -7    0.66    0.12
  -1   3  -7    0.56    0.16
   1  -3   7    1.03    0.22
   1  -3   7    0.72    0.16
   1  -3   7    0.96    0.44
   1  -3   7    0.45    0.15
  -2   3  -7  302.78   11.33
  -2   3  -7  295.81   11.38
   2  -3   7  306.49   11.39
   2  -3   7  304.49   11.37
   2  -3   7  285.95   12.13
  -3   3  -7   60.13    2.36
  -3   3  -7   58.61    2.36
  -3   3  -7   59.51    2.28
  -3   3  -7   59.46    2.40
   3  -3   7   60.23    2.35
   3  -3   7   57.75    2.33
   3   2  -7    9.66    0.47
   3   2  -7    9.57    0.48
  -3  -2   7    9.36    0.53
  -3  -2   7    9.32    0.47
   2   2  -7    0.49    0.14
   2   2  -7    0.85    0.18
   2   2  -7    0.53    0.42
  -2  -2   7    0.39    0.32
  -2  -2   7    0.53    0.17
  -2  -2   7    0.73    0.13
   1   2  -7  146.84    6.38
   1   2  -7  157.77    5.81
   1   2  -7  153.87    5.80
   1   2  -7  151.14    5.81
  -1  -2   7  142.08    5.77
  -1  -2   7  157.05    5.88
  -1  -2   7  152.76    5.82
  -1  -2   7  154.75    5.81
   0   2  -7  207.84    7.63
   0   2  -7  200.15    7.63
   0   2  -7  201.79    7.63
   0  -2   7  186.25    8.14
   0  -2   7  203.89    7.64
   0  -2   7  199.27    7.66
   0  -2   7  207.30    7.65
  -1   2  -7  196.98    7.42
  -1   2  -7  194.43    7.41
  -1   2  -7  204.07    7.53
   1  -2   7  193.96    8.04
   1  -2   7  196.36    7.45
   1  -2   7  192.39    7.44
   1  -2   7  188.35    7.45
  -2   2  -7   42.17    1.68
  -2   2  -7   44.44    1.82
   2  -2   7   40.21    2.41
   2  -2   7   43.53    1.73
   2  -2   7   41.31    1.75
  -3   2  -7    7.26    0.53
  -3   2  -7    6.48    0.44
  -3   2  -7    6.33    0.33
   3  -2   7    6.86    0.42
   3  -2   7    5.98    0.49
  -4   2  -7   44.07    1.65
   4  -2   7   40.96    1.62
   4  -2   7   40.79    1.64
   3   1  -7   62.73    2.38
   3   1  -7   60.83    2.39
  -3  -1   7   60.19    2.37
  -3  -1   7   59.52    2.45
   2   1  -7   28.00    1.12
   2   1  -7   27.27    1.13
   2   1  -7   26.16    1.71
  -2  -1   7   28.38    1.25
  -2  -1   7   28.61    1.15
  -2  -1   7   26.02    1.13
  -2  -1   7   24.82    1.07
   1   1  -7   62.20    2.45
   1   1  -7   63.27    2.46
   1   1  -7   64.45    2.46
   1   1  -7   63.23    2.96
  -1  -1   7   66.51    2.54
  -1  -1   7   58.69    2.46
  -1  -1   7   62.54    2.45
  -1  -1   7   63.39    2.47
   0   1  -7   56.08    2.59
   0   1  -7   54.78    2.15
   0   1  -7   57.54    2.16
   0   1  -7   56.01    2.15
   0  -1   7   53.83    2.16
   0  -1   7   53.82    2.60
   0  -1   7   55.14    2.18
   0  -1   7   54.48    2.16
  -1   1  -7  143.34    5.23
  -1   1  -7  137.07    5.13
  -1   1  -7  129.98    5.11
  -1   1  -7  135.11    5.12
   1  -1   7  130.96    5.16
   1  -1   7  135.07    5.15
   1  -1   7  137.42    5.16
   1  -1   7  126.44    5.69
  -2   1  -7   85.08    3.45
  -2   1  -7   91.01    3.48
  -2   1  -7   93.41    3.59
   2  -1   7   89.11    4.24
   2  -1   7   93.96    3.52
   2  -1   7   89.33    3.52
  -3   1  -7   14.43    0.79
  -3   1  -7   14.66    0.65
   3  -1   7   16.60    2.18
  -4   1  -7    2.62    0.25
   4  -1   7    2.94    0.25
   4  -1   7    2.27    0.21
   4   0  -7   11.27    0.49
   4   0  -7   11.73    0.51
  -4   0   7   12.11    0.59
   3   0  -7    0.01    0.15
   3   0  -7    0.14    0.14
  -3   0   7    0.06    0.23
  -3   0   7    0.29    0.14
  -3   0   7    0.08    0.28
  -3   0   7    0.22    0.17
   2   0  -7   36.41    1.45
   2   0  -7   35.07    2.00
   2   0  -7   35.08    1.42
  -2   0   7   35.26    1.44
  -2   0   7   33.35    1.45
  -2   0   7   36.96    1.56
   1   0  -7  238.33    9.10
   1   0  -7  225.44    8.60
   1   0  -7  222.12    8.59
  -1   0   7  233.76    8.66
  -1   0   7  222.18    8.59
  -1   0   7  227.94    8.61
  -1   0   7  216.35    8.62
   0   0  -7   27.21    1.08
   0   0  -7   25.62    1.07
   0   0  -7   26.95    1.45
   0   0   7   26.80    1.46
   0   0   7   25.85    1.10
   0   0   7   27.33    1.09
  -1   0  -7  143.28    5.80
  -1   0  -7  148.54    5.37
  -1   0  -7  144.28    5.46
  -1   0  -7  138.66    5.37
  -1   0  -7  136.63    5.36
   1   0   7  135.51    5.39
   1   0   7  143.32    5.40
   1   0   7  140.36    5.93
   1   0   7  137.94    5.40
  -2   0  -7    8.52    0.43
  -2   0  -7    8.39    0.40
  -2   0  -7    9.36    0.61
   2   0   7    8.24    0.99
   2   0   7    8.75    0.51
   2   0   7    8.98    0.48
   2   0   7    8.12    0.46
  -3   0  -7    0.65    0.28
  -3   0  -7    0.13    0.12
   3   0   7    0.10    0.20
   3   0   7    0.29    0.38
   3   0   7    0.11    0.17
  -4   0  -7   34.16    1.34
  -4   0  -7   35.77    1.41
   4   0   7   34.57    1.39
   4  -1  -7   27.02    1.10
   4  -1  -7   28.69    1.13
  -4   1   7   28.92    1.15
   3  -1  -7   35.90    1.46
   3  -1  -7   37.56    1.49
   3  -1  -7   33.56    2.10
  -3   1   7   36.00    1.43
  -3   1   7   37.26    1.57
  -3   1   7   35.88    1.50
  -3   1   7   36.63    1.57
   2  -1  -7   84.99    3.41
   2  -1  -7   89.75    3.99
   2  -1  -7   87.52    3.40
  -2   1   7   83.64    3.44
  -2   1   7   94.49    3.51
  -2   1   7   88.04    3.40
   1  -1  -7   16.51    0.72
   1  -1  -7   19.39    1.14
   1  -1  -7   16.28    0.74
  -1   1   7   17.34    0.82
  -1   1   7   17.29    0.78
  -1   1   7   17.82    0.76
   0  -1  -7   93.65    3.94
   0  -1  -7  103.48    4.18
   0   1   7  101.31    4.17
  -1  -1  -7    4.66    0.57
  -1  -1  -7    4.67    0.40
  -1  -1  -7    4.94    0.26
  -1  -1  -7    4.29    0.26
  -1  -1  -7    4.08    0.27
   1   1   7    3.88    0.33
   1   1   7    4.37    0.30
   1   1   7    4.98    0.70
  -2  -1  -7  141.10    5.40
  -2  -1  -7  141.09    5.50
  -2  -1  -7  141.78    5.41
   2   1   7  142.27    5.44
   2   1   7  140.30    6.07
   2   1   7  144.81    5.45
   2   1   7  141.72    5.43
  -3  -1  -7  104.90    3.82
  -3  -1  -7   90.91    3.88
   3   1   7  104.89    3.86
   3   1   7   93.20    4.61
   3   1   7  101.63    3.86
   3   1   7   99.37    3.84
  -4  -1  -7    6.60    0.31
   4  -2  -7    9.18    0.44
  -4   2   7    9.65    0.49
  -4   2   7    8.71    0.43
   3  -2  -7    4.13    0.29
   3  -2  -7    4.46    0.76
   3  -2  -7    4.14    0.34
  -3   2   7    4.47    0.45
  -3   2   7    4.62    0.39
  -3   2   7    4.44    0.50
  -3   2   7    4.16    0.23
   2  -2  -7   65.61    2.63
   2  -2  -7   68.07    3.14
   2  -2  -7   64.84    2.62
  -2   2   7   65.47    2.67
  -2   2   7   70.37    2.61
  -2   2   7   69.54    2.72
   1  -2  -7  190.32    7.23
  -1   2   7  169.70    6.88
  -1   2   7  177.46    6.89
  -1   2   7  182.93    6.85
   0  -2  -7   96.40    3.89
   0  -2  -7  103.57    4.10
   0   2   7   95.09    4.04
  -1  -2  -7  207.61    8.30
  -1  -2  -7  220.36    7.92
  -1  -2  -7  200.54    7.91
  -1  -2  -7  188.97    8.07
   1   2   7  226.64    8.11
   1   2   7  209.98    8.41
   1   2   7  208.36    7.94
  -2  -2  -7    5.81    0.32
  -2  -2  -7    6.12    0.30
  -2  -2  -7    5.16    0.31
   2   2   7    5.39    0.35
   2   2   7    6.06    0.39
   2   2   7    5.50    0.36
   2   2   7    5.53    0.80
  -3  -2  -7   45.04    1.85
  -3  -2  -7   48.96    1.88
  -3  -2  -7   45.73    1.95
   3   2   7   51.44    1.91
   3   2   7   44.39    2.63
   3   2   7   47.76    1.92
   3   2   7   50.11    1.93
  -4  -2  -7   20.39    0.82
   4   2   7   20.17    0.86
   4  -3  -7   16.02    0.71
  -4   3   7   16.87    0.73
  -4   3   7   17.73    0.77
   3  -3  -7  179.36    6.95
   3  -3  -7  177.94    6.92
   3  -3  -7  182.12    7.60
  -3   3   7  177.72    6.99
  -3   3   7  190.23    7.03
  -3   3   7  183.88    7.02
   2  -3  -7   23.69    1.04
   2  -3  -7   25.95    1.49
   2  -3  -7   24.01    1.03
  -2   3   7   25.74    1.15
  -2   3   7   24.39    1.11
  -2   3   7   25.42    1.00
  -2   3   7   26.22    1.13
   1  -3  -7   20.82    1.11
  -1   3   7   18.47    0.85
  -1   3   7   18.69    0.79
  -1   3   7   18.03    0.84
   0  -3  -7   18.31    1.03
   0  -3  -7   17.26    0.86
  -1  -3  -7  403.66   14.98
  -1  -3  -7  373.45   14.70
  -1  -3  -7  378.13   14.55
  -1  -3  -7  387.35   14.56
   1   3   7  401.83   14.72
   1   3   7  371.91   15.01
   1   3   7  382.22   14.57
  -2  -3  -7  128.90    4.95
  -2  -3  -7  129.06    4.96
  -2  -3  -7  134.39    4.95
  -2  -3  -7  118.33    5.14
   2   3   7  133.42    4.99
   2   3   7  131.60    5.58
   2   3   7  131.57    4.98
   2   3   7  131.98    4.97
  -3  -3  -7  103.73    4.19
   3   3   7  113.53    4.24
   3   3   7  112.15    4.25
   3   3   7  113.98    4.25
   3   3   7  105.38    5.04
  -4  -3  -7   11.99    0.52
   4   3   7   11.98    0.55
   4  -4  -7    3.69    0.24
  -4   4   7    4.07    0.32
  -4   4   7    3.91    0.30
   3  -4  -7    9.54    0.91
   3  -4  -7   10.34    0.54
  -3   4   7   11.35    0.61
  -3   4   7   10.81    0.69
  -3   4   7   10.58    0.63
   2  -4  -7   84.96    3.67
  -2   4   7   83.13    3.31
  -2   4   7   82.84    3.31
  -2   4   7   83.53    3.29
  -2   4   7   83.15    3.17
   1  -4  -7  190.07    7.17
  -1   4   7  175.26    6.91
  -1   4   7  177.08    6.91
   0  -4  -7  129.90    5.08
   0  -4  -7  120.74    4.88
  -1  -4  -7    3.31    0.32
  -1  -4  -7    3.13    0.21
  -1  -4  -7    3.68    0.53
  -1  -4  -7    3.57    0.24
   1   4   7    3.94    0.51
   1   4   7    2.93    0.49
   1   4   7    3.33    0.24
  -2  -4  -7   10.08    0.49
  -2  -4  -7   10.68    0.48
  -2  -4  -7   10.57    0.90
  -2  -4  -7   10.11    0.49
   2   4   7   10.78    0.52
   2   4   7   10.08    0.52
   2   4   7   10.91    0.51
  -3  -4  -7   52.64    2.08
  -3  -4  -7   52.16    2.09
   3   4   7   54.65    2.12
   3   4   7   53.28    2.13
   3   4   7   53.66    2.12
  -4  -4  -7  109.07    4.10
   4   4   7  102.41    4.12
   4   4   7  110.95    4.12
  -4   5   7   28.32    1.17
  -4   5   7   28.17    1.15
  -3   5   7   91.48    3.58
  -3   5   7   89.09    3.55
  -3   5   7   89.97    3.58
   2  -5  -7    5.21    0.59
  -2   5   7    5.12    0.41
  -2   5   7    4.92    0.43
  -2   5   7    4.79    0.40
   1  -5  -7   42.89    1.94
  -1   5   7   41.70    1.75
  -1   5   7   44.29    1.75
  -1   5   7   44.65    1.83
  -1   5   7   43.38    1.76
   0  -5  -7   12.12    0.66
   0  -5  -7   13.18    0.83
   0   5   7   14.97    0.82
  -1  -5  -7  175.93    6.85
  -1  -5  -7  165.22    6.42
  -1  -5  -7  169.22    6.52
  -1  -5  -7  167.28    6.44
   1   5   7  170.51    6.44
   1   5   7  167.53    6.53
  -2  -5  -7   52.07    2.57
  -2  -5  -7   54.71    2.05
  -2  -5  -7   53.16    2.05
  -2  -5  -7   51.34    2.04
   2   5   7   45.09    2.12
   2   5   7   53.18    2.05
   2   5   7   53.19    2.26
   2   5   7   54.93    2.07
  -3  -5  -7    9.88    0.48
  -3  -5  -7    8.78    0.45
   3   5   7   10.04    0.50
   3   5   7    9.71    0.52
   3   5   7    9.23    0.50
  -4  -5  -7    0.13    0.09
   4   5   7   -0.07    0.11
   4   5   7    0.16    0.13
  -4   6   7    2.44    0.23
  -4   6   7    2.25    0.22
  -3   6   7   20.94    0.94
  -3   6   7   19.48    0.98
  -3   6   7   20.50    0.96
   2  -6  -7   21.68    1.16
  -2   6   7   21.59    1.01
  -2   6   7   20.92    0.99
  -2   6   7   22.35    0.98
   1  -6  -7  253.18    9.15
   1  -6  -7  227.12    9.16
  -1   6   7  223.38    9.00
  -1   6   7  237.60    8.95
  -1   6   7  231.49    8.94
  -1   6   7  235.81    8.95
   0  -6  -7  205.45    7.74
   0  -6  -7  188.56    7.49
   0   6   7  189.15    7.45
   0   6   7  196.25    7.54
   0   6   7  198.86    7.42
  -1  -6  -7  131.31    5.37
  -1  -6  -7  126.70    4.94
  -1  -6  -7  125.76    5.00
  -1  -6  -7  128.00    4.94
   1   6   7  125.14    4.96
   1   6   7  133.39    5.05
   1   6   7  130.73    5.09
   1   6   7  135.37    4.95
  -2  -6  -7   22.39    1.46
  -2  -6  -7   23.45    0.98
  -2  -6  -7   23.51    0.98
  -2  -6  -7   24.01    0.97
   2   6   7   24.31    0.98
   2   6   7   23.13    0.99
   2   6   7   24.97    1.01
   2   6   7   22.70    1.24
  -3  -6  -7    3.72    0.26
  -3  -6  -7    3.52    0.28
   3   6   7    3.98    0.31
   3   6   7    3.21    0.32
  -4  -6  -7   23.82    0.93
   4   6   7   22.39    0.95
   4   6   7   23.10    0.93
  -3   7   7  193.84    7.79
  -3   7   7  211.73    7.82
  -3   7   7  205.32    7.79
  -2   7   7   20.54    0.96
  -2   7   7   20.71    0.95
  -2   7   7   21.41    1.00
   1  -7  -7    0.75    0.21
  -1   7   7    0.78    0.20
  -1   7   7    0.84    0.25
  -1   7   7    0.91    0.18
  -1   7   7    0.52    0.18
  -1   7   7    0.66    0.15
   0  -7  -7   76.21    3.15
   0  -7  -7   85.54    3.44
   0   7   7   81.74    3.16
   0   7   7   81.77    3.24
   0   7   7   80.15    3.19
   0   7   7   80.06    3.10
  -1  -7  -7  146.80    5.98
  -1  -7  -7  136.59    5.52
  -1  -7  -7  141.80    5.52
   1   7   7  146.57    5.67
   1   7   7  146.34    5.56
   1   7   7  148.30    5.53
   1   7   7  148.11    5.64
  -2  -7  -7  131.17    5.07
  -2  -7  -7  124.47    5.63
  -2  -7  -7  137.68    5.07
  -2  -7  -7  136.63    5.08
   2   7   7  122.61    5.06
   2   7   7  131.37    5.09
   2   7   7  142.20    5.10
   2   7   7  134.23    5.25
  -3  -7  -7   52.19    2.04
  -3  -7  -7   53.67    2.04
  -3  -7  -7   52.61    2.01
   3   7   7   46.04    2.08
   3   7   7   56.45    2.08
   3   7   7   50.81    2.04
  -4  -7  -7    0.86    0.10
   4   7   7    0.98    0.13
   4   7   7    0.80    0.11
  -3   8   7    3.26    0.31
  -3   8   7    3.23    0.33
  -3   8   7    2.61    0.32
  -2   8   7  119.98    4.83
  -2   8   7  117.34    4.87
  -2   8   7  129.66    4.86
  -2   8   7  131.13    4.83
   1  -8  -7  158.42    6.03
  -1   8   7  157.60    5.96
  -1   8   7  158.22    5.87
  -1   8   7  140.39    5.88
  -1   8   7  147.55    5.85
  -1   8   7  153.87    5.88
   0  -8  -7   99.73    4.06
   0   8   7   94.31    3.73
   0   8   7   96.55    3.76
   0   8   7   94.32    3.79
   0   8   7   95.93    3.68
   0   8   7   98.96    3.85
  -1  -8  -7   11.80    0.55
  -1  -8  -7   12.46    0.96
  -1  -8  -7   10.72    0.53
   1   8   7   13.49    0.76
   1   8   7   11.52    0.73
   1   8   7   13.15    0.56
   1   8   7   12.18    0.61
  -2  -8  -7   20.95    0.85
  -2  -8  -7   18.78    0.85
  -2  -8  -7   18.08    0.84
  -2  -8  -7   18.59    1.37
   2   8   7   21.53    0.88
   2   8   7   19.35    0.83
   2   8   7   20.21    0.89
   2   8   7   23.47    1.16
   2   8   7   18.94    1.12
  -3  -8  -7    0.67    0.12
  -3  -8  -7    0.60    0.13
  -3  -8  -7    0.52    0.12
   3   8   7    0.44    0.15
   3   8   7    0.34    0.15
   3   8   7    0.59    0.14
  -4  -8  -7  142.99    5.41
   4   8   7  142.77    5.42
  -3   9   7   58.97    2.32
  -3   9   7   58.75    2.30
  -2   9   7   13.50    0.65
  -2   9   7   12.33    0.72
  -2   9   7   13.94    0.71
  -2   9   7   13.20    0.64
   1  -9  -7    0.73    0.20
  -1   9   7    0.82    0.21
  -1   9   7    0.98    0.18
  -1   9   7    1.06    0.31
  -1   9   7    0.63    0.20
   0  -9  -7  114.77    4.76
   0   9   7  110.87    4.46
   0   9   7  112.24    4.42
   0   9   7  119.45    4.33
   0   9   7  112.23    4.51
  -1  -9  -7  117.33    5.04
  -1  -9  -7  113.28    4.49
  -1  -9  -7  116.02    4.48
   1   9   7  116.96    4.54
   1   9   7  119.93    4.63
   1   9   7  119.69    4.48
   1   9   7  116.52    4.64
  -2  -9  -7   80.14    3.04
  -2  -9  -7   79.79    3.03
  -2  -9  -7   71.60    3.64
   2   9   7   80.54    3.04
   2   9   7   75.01    3.19
   2   9   7   74.57    3.06
   2   9   7   84.85    3.23
  -3  -9  -7   79.57    2.97
  -3  -9  -7   72.99    3.00
  -3  -9  -7   78.56    2.99
   3   9   7   78.30    3.02
   3   9   7   79.40    3.01
  -3  10   7   21.57    0.85
  -3  10   7   20.65    0.86
  -2  10   7   50.01    2.11
  -2  10   7   51.71    2.17
  -2  10   7   53.78    2.08
  -2  10   7   55.39    2.14
  -1  10   7   44.35    1.89
  -1  10   7   45.77    1.87
  -1  10   7   45.70    1.95
   0 -10  -7   56.84    2.60
   0  10   7   54.31    2.25
   0  10   7   54.26    2.30
   0  10   7   57.77    2.36
  -1 -10  -7   12.76    1.05
  -1 -10  -7   13.45    0.62
  -1 -10  -7   13.14    0.59
   1  10   7   13.71    0.83
   1  10   7   12.68    0.68
   1  10   7   13.84    0.59
   1  10   7   13.13    0.79
  -2 -10  -7   85.00    3.15
  -2 -10  -7   80.35    3.16
   2  10   7   72.69    3.28
   2  10   7   82.15    3.16
   2  10   7   84.52    3.33
   2  10   7   84.09    3.20
  -3 -10  -7   40.17    1.68
  -3 -10  -7   42.26    1.65
  -3 -10  -7   44.94    1.68
   3  10   7   43.62    1.70
   3  10   7   44.20    1.69
  -2  11   7   13.28    0.64
  -2  11   7   13.56    0.64
  -2  11   7   13.14    0.70
  -1  11   7    2.29    0.38
  -1  11   7    1.18    0.25
  -1  11   7    1.88    0.27
   0 -11  -7   21.60    0.96
   0 -11  -7   22.15    1.34
   0  11   7   24.57    1.05
   0  11   7   23.25    1.11
   0  11   7   23.43    1.15
  -1 -11  -7   64.15    2.47
  -1 -11  -7   59.19    3.03
  -1 -11  -7   64.42    2.49
   1  11   7   65.08    2.64
   1  11   7   62.82    2.64
   1  11   7   62.88    2.45
   1  11   7   66.61    2.55
  -2 -11  -7   36.99    1.50
  -2 -11  -7   37.51    1.48
   2  11   7   37.45    1.54
   2  11   7   37.09    1.66
   2  11   7   37.47    1.49
  -3 -11  -7    0.22    0.08
   3  11   7    0.20    0.10
   3  11   7    0.44    0.13
  -2  12   7  107.84    4.24
  -2  12   7  113.58    4.29
  -1  12   7   76.04    3.02
  -1  12   7   74.54    2.97
  -1  12   7   76.65    3.07
   0 -12  -7   96.93    3.68
   0  12   7   96.71    3.83
   0  12   7   96.79    3.73
   0  12   7   90.79    3.78
  -1 -12  -7    9.50    0.48
  -1 -12  -7    9.53    0.45
   1  12   7   10.33    0.68
   1  12   7    9.47    0.65
   1  12   7    9.43    0.55
  -2 -12  -7    2.34    0.23
  -2 -12  -7    2.58    0.20
   2  12   7    3.07    0.30
   2  12   7    2.47    0.19
  -1  13   7    3.57    0.40
  -1  13   7    3.56    0.36
  -1  13   7    3.32    0.29
   0 -13  -7   72.97    2.78
   0  13   7   71.50    2.89
   0  13   7   70.78    2.82
   0  13   7   72.55    2.92
  -1 -13  -7  112.37    4.22
  -1 -13  -7  109.19    4.19
   1  13   7  105.29    4.31
   1  13   7  116.27    4.26
   1  13   7  107.66    4.31
  -2 -13  -7   31.11    1.23
  -2 -13  -7   29.98    1.22
   2  13   7   32.79    1.26
  -1  14   7  120.08    4.71
  -1  14   7  126.13    4.75
   0 -14  -7    2.15    0.17
   0  14   7    2.31    0.34
   0  14   7    2.05    0.25
   0  14   7    3.05    0.34
  -1 -14  -7    0.46    0.10
   1  14   7    0.86    0.22
   1  14   7    0.89    0.17
   1  14   7    0.14    0.20
   0   8  -8    9.13    0.38
   0  -8   8    9.52    0.40
   1   7  -8   12.43    0.53
  -1  -7   8   12.92    0.52
  -1  -7   8   11.80    0.53
   0   7  -8   24.50    1.01
   0  -7   8   24.30    0.97
   0  -7   8   23.09    0.95
  -1   7  -8   12.75    0.54
  -1   7  -8   13.79    0.65
   1  -7   8   13.38    0.57
   1  -7   8   12.93    0.57
   2   6  -8   15.10    0.60
   2   6  -8   15.27    0.63
  -2  -6   8   15.26    0.63
   1   6  -8    0.22    0.07
  -1  -6   8    0.16    0.13
  -1  -6   8    0.23    0.11
   0   6  -8    0.21    0.21
   0   6  -8    0.12    0.11
   0  -6   8    0.23    0.12
   0  -6   8    0.21    0.12
   0  -6   8    0.49    0.15
  -1   6  -8    9.13    0.42
  -1   6  -8    9.17    0.55
   1  -6   8    9.15    0.45
  -2   6  -8   34.39    1.47
  -2   6  -8   40.85    1.58
  -2   6  -8   39.05    1.52
   2  -6   8   39.75    1.52
   2  -6   8   39.50    1.53
   2   5  -8   13.62    0.61
   2   5  -8   14.68    0.60
  -2  -5   8   14.17    0.74
  -2  -5   8   14.17    0.62
  -2  -5   8   13.98    0.57
   1   5  -8   18.01    0.73
   1   5  -8   17.24    0.75
  -1  -5   8   17.45    0.74
  -1  -5   8   15.91    0.76
   0   5  -8  127.57    4.83
   0   5  -8  117.88    4.79
   0  -5   8  130.27    4.83
   0  -5   8  131.24    4.84
   0  -5   8  123.19    4.85
  -1   5  -8   14.20    0.60
  -1   5  -8   12.78    0.61
   1  -5   8   13.35    0.65
   1  -5   8   12.80    0.62
  -2   5  -8   28.79    1.22
  -2   5  -8   26.80    1.14
  -2   5  -8   28.12    1.09
   2  -5   8   26.35    1.12
   2  -5   8   27.94    1.15
  -3   5  -8   32.10    1.22
   3  -5   8   30.74    1.20
   3  -5   8   30.03    1.21
   3   4  -8   21.89    0.84
  -3  -4   8   20.19    0.83
   2   4  -8   23.95    0.94
   2   4  -8   21.33    0.95
  -2  -4   8   23.08    0.99
  -2  -4   8   23.90    0.97
  -2  -4   8   21.57    0.91
   1   4  -8   36.63    1.45
   1   4  -8   35.97    1.47
  -1  -4   8   37.01    1.46
  -1  -4   8   35.10    1.48
   0   4  -8    2.17    0.21
   0   4  -8    2.04    0.24
   0  -4   8    2.11    0.28
   0  -4   8    1.81    0.27
   0  -4   8    2.42    0.26
  -1   4  -8  243.44    9.85
  -1   4  -8  264.57    9.84
   1  -4   8  267.91    9.86
   1  -4   8  262.51    9.88
   1  -4   8  258.88    9.86
  -2   4  -8   29.84    1.28
  -2   4  -8   30.50    1.23
   2  -4   8   31.47    1.30
   2  -4   8   32.16    1.28
  -3   4  -8   38.90    1.46
  -3   4  -8   35.37    1.46
   3  -4   8   37.81    1.46
   3  -4   8   34.47    1.43
   3   3  -8    1.00    0.14
   3   3  -8    1.03    0.13
  -3  -3   8    0.91    0.12
   2   3  -8   63.36    2.43
   2   3  -8   65.42    2.42
   2   3  -8   61.98    2.41
  -2  -3   8   58.36    2.38
  -2  -3   8   60.03    2.43
   1   3  -8   36.31    1.44
   1   3  -8   34.55    1.42
   1   3  -8   35.12    1.42
  -1  -3   8   35.28    1.43
  -1  -3   8   35.53    1.46
   0   3  -8  287.30   11.11
   0   3  -8  298.01   11.13
   0  -3   8  290.13   11.13
   0  -3   8  297.91   11.16
   0  -3   8  294.64   11.14
  -1   3  -8   24.61    0.98
  -1   3  -8   22.50    1.00
  -1   3  -8   22.09    0.94
   1  -3   8   21.79    1.59
   1  -3   8   24.23    1.01
   1  -3   8   24.24    1.02
   1  -3   8   24.14    1.03
  -2   3  -8    0.85    0.20
  -2   3  -8    0.82    0.14
   2  -3   8    1.37    0.24
   2  -3   8    0.48    0.16
   2  -3   8    0.41    0.53
  -3   3  -8   41.08    1.60
  -3   3  -8   42.31    1.67
  -3   3  -8   41.03    1.67
   3  -3   8   41.81    1.64
   3  -3   8   40.96    1.66
   3   2  -8   35.34    1.43
   3   2  -8   37.54    1.43
  -3  -2   8   35.34    1.43
  -3  -2   8   36.25    1.46
   2   2  -8   52.36    2.02
   2   2  -8   42.37    2.70
   2   2  -8   54.95    2.01
   2   2  -8   49.83    2.02
  -2  -2   8   53.59    2.03
   1   2  -8   22.21    1.58
   1   2  -8   24.85    1.03
   1   2  -8   24.33    1.02
   1   2  -8   25.35    1.03
  -1  -2   8   24.59    1.02
  -1  -2   8   25.09    1.06
   0   2  -8   10.33    0.50
   0   2  -8   10.99    0.50
   0   2  -8   10.49    0.49
   0  -2   8   10.38    0.52
   0  -2   8   10.02    0.52
   0  -2   8   10.32    0.54
  -1   2  -8   27.32    1.08
  -1   2  -8   25.24    1.11
  -1   2  -8   26.58    1.09
   1  -2   8   26.14    1.13
   1  -2   8   25.06    1.69
   1  -2   8   28.25    1.14
   1  -2   8   27.16    1.12
  -2   2  -8   70.92    2.73
  -2   2  -8   68.91    2.78
  -2   2  -8   72.54    2.86
   2  -2   8   72.42    2.78
   2  -2   8   68.71    2.77
   2  -2   8   62.66    3.47
   2  -2   8   75.51    2.86
  -3   2  -8   25.46    1.04
  -3   2  -8   23.04    1.07
  -3   2  -8   23.80    0.96
   3  -2   8   22.33    1.00
   3  -2   8   24.36    1.03
   3   1  -8    0.86    0.15
   3   1  -8    1.05    0.16
  -3  -1   8    1.10    0.15
  -3  -1   8    1.26    0.26
   2   1  -8   61.69    2.35
   2   1  -8   56.81    3.05
   2   1  -8   61.52    2.37
  -2  -1   8   62.28    2.45
  -2  -1   8   61.78    2.37
  -2  -1   8   54.86    2.35
   1   1  -8   48.44    2.55
   1   1  -8   51.41    2.00
   1   1  -8   51.74    2.00
   1   1  -8   50.31    1.99
  -1  -1   8   45.77    2.00
  -1  -1   8   51.48    1.99
  -1  -1   8   52.20    2.02
  -1  -1   8   53.07    2.09
   0   1  -8   99.33    3.89
   0   1  -8  102.43    4.43
   0   1  -8  106.55    3.89
   0   1  -8  101.47    3.88
   0  -1   8  102.16    3.91
   0  -1   8   97.61    3.89
   0  -1   8   98.57    3.88
  -1   1  -8    9.26    0.45
  -1   1  -8    9.00    0.43
  -1   1  -8    8.85    0.41
   1  -1   8   10.13    0.52
   1  -1   8    8.57    0.95
   1  -1   8    9.21    0.49
   1  -1   8    8.50    0.48
  -2   1  -8   25.39    1.12
  -2   1  -8   29.71    1.16
  -2   1  -8   30.31    1.32
   2  -1   8   27.48    1.21
   2  -1   8   25.96    1.88
   2  -1   8   28.14    1.20
   2  -1   8   30.87    1.23
  -3   1  -8   49.24    2.09
  -3   1  -8   51.98    1.99
   3  -1   8   51.96    2.04
  -4   1  -8   29.41    1.11
   4  -1   8   27.10    1.09
   4  -1   8   27.02    1.09
   3   0  -8   60.14    2.27
   3   0  -8   58.32    2.28
  -3   0   8   57.17    2.25
  -3   0   8   55.09    2.26
  -3   0   8   58.98    2.35
   2   0  -8   29.50    1.22
   2   0  -8   27.55    1.80
   2   0  -8   29.67    1.20
  -2   0   8   30.50    1.33
  -2   0   8   27.31    1.22
  -2   0   8   30.14    1.22
   1   0  -8    9.31    0.46
   1   0  -8    8.50    0.43
   1   0  -8    8.84    0.88
   1   0  -8    8.35    0.44
  -1   0   8    8.48    0.46
  -1   0   8    8.74    0.47
  -1   0   8    9.71    0.60
  -1   0   8    8.38    0.42
   0   0  -8   14.40    0.61
   0   0  -8   13.58    0.59
   0   0  -8   13.06    0.59
   0   0  -8   13.84    1.01
   0   0   8   13.42    0.60
   0   0   8   12.48    0.58
   0   0   8   12.96    0.62
  -1   0  -8  117.60    4.46
  -1   0  -8  114.31    4.46
  -1   0  -8  122.83    4.46
   1   0   8  117.08    4.49
   1   0   8  117.83    4.49
   1   0   8  112.34    5.05
   1   0   8  114.29    4.50
  -2   0  -8  118.23    4.51
  -2   0  -8  120.73    4.62
  -2   0  -8  116.17    4.50
   2   0   8  113.09    5.31
   2   0   8  118.40    4.56
   2   0   8  119.90    4.56
  -3   0  -8   45.87    1.78
  -3   0  -8   43.54    1.87
   3   0   8   43.52    1.83
   3   0   8   48.08    1.86
  -4   0  -8    0.05    0.13
  -4   0  -8    0.04    0.05
   4   0   8    0.03    0.12
   4   0   8    0.07    0.12
   3  -1  -8   11.76    0.55
   3  -1  -8   12.61    0.59
  -3   1   8   11.52    0.58
  -3   1   8   11.40    0.69
  -3   1   8   11.95    0.51
  -3   1   8   11.16    0.68
   2  -1  -8   74.18    2.91
   2  -1  -8   73.89    3.53
   2  -1  -8   74.40    2.89
  -2   1   8   72.28    2.93
  -2   1   8   74.48    2.90
  -2   1   8   77.20    3.00
   1  -1  -8   92.16    3.52
   1  -1  -8   90.81    3.50
   1  -1  -8   94.19    4.03
  -1   1   8   88.84    3.54
  -1   1   8   96.81    3.53
  -1   1   8   87.47    3.48
  -1   1   8   87.58    3.57
   0  -1  -8  371.14   14.13
   0  -1  -8  380.76   14.14
   0  -1  -8  389.76   14.62
   0  -1  -8  360.38   14.14
   0   1   8  366.60   14.14
   0   1   8  375.67   14.15
  -1  -1  -8   34.20    1.40
  -1  -1  -8   36.53    1.41
  -1  -1  -8   35.08    1.85
  -1  -1  -8   35.66    1.41
   1   1   8   36.24    1.44
   1   1   8   34.53    1.92
   1   1   8   35.73    1.44
   1   1   8   35.32    1.44
  -2  -1  -8   23.30    0.95
  -2  -1  -8   24.57    1.09
  -2  -1  -8   23.34    0.93
   2   1   8   20.85    1.63
   2   1   8   21.04    1.01
   2   1   8   22.92    0.99
  -3  -1  -8   10.07    0.61
  -3  -1  -8   10.49    0.49
   3   1   8   10.35    0.54
  -4  -1  -8   38.19    1.50
  -4  -1  -8   41.73    1.55
   4   1   8   37.60    1.52
   4   1   8   38.19    1.54
   4  -2  -8   68.87    2.68
  -4   2   8   70.96    2.70
   3  -2  -8   19.50    0.83
   3  -2  -8   19.40    0.86
  -3   2   8   18.65    0.76
  -3   2   8   20.00    0.95
  -3   2   8   19.69    0.96
  -3   2   8   18.89    0.88
   2  -2  -8   42.02    1.66
   2  -2  -8   39.87    1.67
   2  -2  -8   42.17    2.23
  -2   2   8   42.72    1.78
  -2   2   8   41.58    1.73
  -2   2   8   41.51    1.65
  -2   2   8   41.16    1.76
   1  -2  -8    2.65    0.22
   1  -2  -8    2.52    0.23
   1  -2  -8    2.67    0.54
  -1   2   8    2.99    0.31
  -1   2   8    3.04    0.26
  -1   2   8    2.93    0.35
   0  -2  -8  205.31    8.07
   0  -2  -8  210.16    8.08
   0  -2  -8  229.11    8.53
   0   2   8  212.84    8.09
   0   2   8  213.79    8.24
   0   2   8  207.31    8.08
  -1  -2  -8  181.34    6.91
  -1  -2  -8  189.78    6.92
  -1  -2  -8  181.48    6.92
  -1  -2  -8  182.61    7.38
   1   2   8  183.51    6.94
   1   2   8  175.85    6.92
   1   2   8  178.22    7.47
   1   2   8  183.88    6.94
  -2  -2  -8  149.43    5.68
  -2  -2  -8  147.31    5.60
  -2  -2  -8  147.61    5.57
  -2  -2  -8  145.78    5.59
   2   2   8  148.06    5.63
   2   2   8  141.18    6.32
   2   2   8  146.80    5.61
  -3  -2  -8   59.53    2.43
  -3  -2  -8   67.02    2.47
   3   2   8   61.78    2.49
   3   2   8   66.32    3.56
   3   2   8   62.58    2.51
  -4  -2  -8    1.27    0.13
   4   2   8    0.99    0.16
   4   2   8    1.26    0.19
   4  -3  -8    2.55    0.19
  -4   3   8    2.38    0.25
  -4   3   8    1.99    0.18
   3  -3  -8    7.53    0.39
   3  -3  -8    7.37    0.44
  -3   3   8    7.87    0.58
  -3   3   8    7.54    0.53
  -3   3   8    7.76    0.50
   2  -3  -8   51.42    2.14
   2  -3  -8   56.50    2.70
   2  -3  -8   53.79    2.16
  -2   3   8   56.07    2.25
  -2   3   8   55.09    2.12
  -2   3   8   57.85    2.26
  -2   3   8   52.07    2.22
   1  -3  -8  126.61    5.01
   1  -3  -8  117.65    4.57
   1  -3  -8  112.90    4.58
  -1   3   8  108.08    4.70
  -1   3   8  124.99    4.65
  -1   3   8  124.05    4.64
  -1   3   8  124.72    4.59
   0  -3  -8   14.99    0.66
   0  -3  -8   14.97    0.65
   0  -3  -8   15.99    1.01
   0   3   8   16.29    0.68
   0   3   8   15.70    0.89
  -1  -3  -8    4.32    0.27
  -1  -3  -8    4.04    0.27
  -1  -3  -8    4.50    0.59
  -1  -3  -8    5.04    0.28
   1   3   8    4.64    0.31
   1   3   8    5.01    0.31
   1   3   8    4.67    0.63
  -2  -3  -8   53.32    2.08
  -2  -3  -8   54.17    2.08
  -2  -3  -8   52.20    2.09
   2   3   8   54.00    2.10
   2   3   8   52.59    2.12
  -3  -3  -8  112.01    4.24
  -3  -3  -8  105.80    4.22
   3   3   8  115.12    4.27
   3   3   8  109.35    4.28
  -4  -3  -8   21.95    0.88
   4  -4  -8   42.62    1.68
  -4   4   8   45.25    1.72
  -4   4   8   42.46    1.69
   3  -4  -8   24.30    1.05
  -3   4   8   24.63    1.14
  -3   4   8   25.82    1.13
  -3   4   8   22.81    1.09
   2  -4  -8   57.00    2.72
   2  -4  -8   54.88    2.23
  -2   4   8   56.88    2.32
  -2   4   8   56.22    2.30
  -2   4   8   56.98    2.17
  -2   4   8   57.50    2.31
   1  -4  -8    1.66    0.44
  -1   4   8    2.33    0.27
  -1   4   8    1.72    0.26
  -1   4   8    2.31    0.20
   0  -4  -8   22.52    1.10
   0  -4  -8   25.43    1.31
   0   4   8   23.46    1.14
   0   4   8   22.94    0.96
   0   4   8   22.58    0.99
  -1  -4  -8  104.67    4.10
  -1  -4  -8  103.68    4.11
  -1  -4  -8  108.08    4.56
   1   4   8  108.86    4.12
   1   4   8  111.19    4.30
  -2  -4  -8   63.18    2.48
  -2  -4  -8   64.34    2.48
  -2  -4  -8   61.79    3.02
  -2  -4  -8   64.75    2.48
   2   4   8   65.83    2.51
   2   4   8   62.44    2.49
  -3  -4  -8    0.67    0.14
  -3  -4  -8    0.58    0.12
   3   4   8    0.63    0.18
   3   4   8    0.76    0.18
  -4  -4  -8    0.31    0.09
   4   4   8    0.12    0.11
   4   4   8    0.24    0.11
   3  -5  -8    0.11    0.14
  -3   5   8    0.68    0.31
  -3   5   8    0.12    0.16
  -3   5   8    0.33    0.21
   2  -5  -8  210.66    8.67
  -2   5   8  211.22    8.29
  -2   5   8  217.53    8.30
  -2   5   8  224.54    8.28
   1  -5  -8  180.62    6.90
  -1   5   8  170.29    6.52
  -1   5   8  163.92    6.66
  -1   5   8  171.69    6.59
  -1   5   8  173.10    6.60
   0  -5  -8  128.60    5.26
   0  -5  -8  141.89    5.52
   0   5   8  132.23    5.16
   0   5   8  135.85    5.13
   0   5   8  134.37    5.28
  -1  -5  -8    7.38    0.73
  -1  -5  -8    6.50    0.35
  -1  -5  -8    6.88    0.37
   1   5   8    7.93    0.65
   1   5   8    7.30    0.38
   1   5   8    6.59    0.38
  -2  -5  -8    9.44    0.48
  -2  -5  -8    9.42    0.47
  -2  -5  -8    8.65    0.91
  -2  -5  -8   10.80    0.49
   2   5   8   10.35    0.52
   2   5   8   10.36    0.84
   2   5   8    9.47    0.49
   2   5   8   10.93    0.48
  -3  -5  -8   90.79    3.47
  -3  -5  -8   90.80    3.46
   3   5   8   87.07    3.50
   3   5   8   91.31    3.48
  -4  -5  -8   10.94    0.45
   4   5   8    9.76    0.47
   4   5   8   10.15    0.47
  -3   6   8   31.66    1.37
  -3   6   8   31.35    1.34
  -3   6   8   30.81    1.35
   2  -6  -8   62.07    2.75
  -2   6   8   59.69    2.45
  -2   6   8   60.44    2.46
  -2   6   8   60.70    2.47
   1  -6  -8   57.28    2.41
  -1   6   8   51.65    2.22
  -1   6   8   53.85    2.15
  -1   6   8   52.56    2.14
  -1   6   8   51.47    2.14
   0  -6  -8   90.12    3.73
   0  -6  -8  100.52    4.00
   0   6   8   88.30    3.69
   0   6   8   94.29    3.66
   0   6   8   98.63    3.62
  -1  -6  -8  123.20    4.60
  -1  -6  -8  124.78    5.09
  -1  -6  -8  113.81    4.72
  -1  -6  -8  118.53    4.60
   1   6   8  112.66    4.59
   1   6   8  121.67    4.71
   1   6   8  117.02    4.62
   1   6   8  124.30    4.78
   1   6   8  126.99    4.61
  -2  -6  -8  120.22    4.61
  -2  -6  -8  124.24    4.62
  -2  -6  -8  120.68    4.62
  -2  -6  -8  114.09    5.20
   2   6   8  127.77    4.65
   2   6   8  119.08    4.62
   2   6   8  112.67    4.62
   2   6   8  125.44    4.83
  -3  -6  -8   37.64    1.47
  -3  -6  -8   36.63    1.48
   3   6   8   36.78    1.51
   3   6   8   36.39    1.49
  -4  -6  -8    1.17    0.13
   4   6   8    1.67    0.16
  -3   7   8   48.87    2.09
  -3   7   8   52.00    2.07
  -3   7   8   53.58    2.09
   2  -7  -8   39.55    1.86
  -2   7   8   42.79    1.71
  -2   7   8   41.07    1.73
  -2   7   8   40.30    1.71
   1  -7  -8  257.63    9.42
  -1   7   8  243.16    9.17
  -1   7   8  237.10    9.18
  -1   7   8  246.97    9.18
  -1   7   8  228.05    9.16
  -1   7   8  229.36    9.25
   0  -7  -8   71.32    3.06
   0   7   8   71.97    2.84
   0   7   8   69.64    2.73
   0   7   8   65.40    2.76
   0   7   8   68.75    2.67
  -1  -7  -8    0.32    0.10
  -1  -7  -8    0.17    0.11
  -1  -7  -8    0.17    0.26
   1   7   8    0.26    0.12
   1   7   8    0.47    0.25
   1   7   8    0.24    0.16
   1   7   8    0.53    0.32
  -2  -7  -8    0.62    0.13
  -2  -7  -8    0.46    0.13
  -2  -7  -8    0.20    0.26
  -2  -7  -8    0.63    0.14
   2   7   8    0.57    0.17
   2   7   8    0.66    0.48
   2   7   8    0.80    0.15
   2   7   8    0.40    0.16
  -3  -7  -8  140.06    5.26
  -3  -7  -8  141.76    5.25
   3   7   8  142.00    5.26
   3   7   8  127.03    5.28
  -4  -7  -8   13.71    0.54
   4   7   8   12.36    0.55
  -3   8   8   11.47    0.57
  -3   8   8   11.89    0.59
  -3   8   8   10.61    0.60
  -2   8   8    1.02    0.28
  -2   8   8    1.05    0.22
  -2   8   8    1.06    0.23
   1  -8  -8   21.87    1.12
  -1   8   8   21.56    1.05
  -1   8   8   20.15    0.95
  -1   8   8   20.78    0.93
  -1   8   8   21.34    0.97
   0  -8  -8   92.16    3.80
   0   8   8   85.56    3.49
   0   8   8   86.61    3.55
   0   8   8   89.35    3.45
   0   8   8   88.09    3.37
   0   8   8   87.49    3.43
  -1  -8  -8  208.08    8.33
  -1  -8  -8  204.32    7.77
  -1  -8  -8  199.96    7.78
   1   8   8  206.25    7.95
   1   8   8  205.46    7.78
   1   8   8  205.54    7.90
   1   8   8  202.59    7.81
  -2  -8  -8  224.56    7.90
  -2  -8  -8  191.30    8.52
  -2  -8  -8  217.82    7.89
  -2  -8  -8  200.56    7.89
   2   8   8  204.32    7.91
   2   8   8  214.91    8.07
   2   8   8  221.98    7.91
   2   8   8  183.52    7.86
  -3  -8  -8    7.99    0.40
  -3  -8  -8    8.54    0.40
  -3  -8  -8    7.51    0.36
   3   8   8    8.54    0.40
   3   8   8    7.29    0.43
  -3   9   8   24.04    0.99
  -3   9   8   24.98    0.98
  -3   9   8   21.57    0.96
  -2   9   8   31.18    1.34
  -2   9   8   31.29    1.29
  -2   9   8   29.35    1.28
   1  -9  -8   67.17    2.88
  -1   9   8   69.93    2.75
  -1   9   8   72.40    2.71
  -1   9   8   65.65    2.74
  -1   9   8   68.56    2.83
   0  -9  -8   28.28    1.52
   0   9   8   28.89    1.22
   0   9   8   27.11    1.16
   0   9   8   27.13    1.27
   0   9   8   28.77    1.33
  -1  -9  -8    5.40    0.31
  -1  -9  -8    5.34    0.71
  -1  -9  -8    4.85    0.33
   1   9   8    5.51    0.33
   1   9   8    5.74    0.41
   1   9   8    6.27    0.59
   1   9   8    5.63    0.57
  -2  -9  -8   71.61    3.61
  -2  -9  -8   79.26    2.99
  -2  -9  -8   80.60    2.98
   2   9   8   78.25    3.02
   2   9   8   73.65    3.16
   2   9   8   77.77    3.00
  -3  -9  -8   47.01    1.75
  -3  -9  -8   42.63    1.74
  -3  -9  -8   43.17    1.71
   3   9   8   45.89    1.77
   3   9   8   44.18    1.74
  -3  10   8   53.05    2.04
  -2  10   8   30.72    1.39
  -2  10   8   32.57    1.36
  -2  10   8   32.18    1.31
  -1  10   8    7.40    0.51
  -1  10   8    7.76    0.60
  -1  10   8    8.56    0.53
   0 -10  -8   60.85    2.86
   0 -10  -8   61.49    2.46
   0  10   8   66.06    2.53
   0  10   8   60.97    2.57
   0  10   8   65.22    2.64
  -1 -10  -8   29.46    1.19
  -1 -10  -8   28.47    1.71
  -1 -10  -8   29.11    1.20
   1  10   8   30.34    1.27
   1  10   8   29.66    1.18
   1  10   8   28.99    1.38
   1  10   8   28.23    1.39
  -2 -10  -8   25.60    1.06
  -2 -10  -8   25.60    1.05
   2  10   8   25.48    1.10
   2  10   8   26.38    1.06
   2  10   8   23.95    1.27
  -3 -10  -8   10.39    0.46
  -3 -10  -8    9.96    0.46
   3  10   8   10.66    0.49
   3  10   8   10.99    0.48
  -2  11   8   70.63    2.67
  -2  11   8   64.94    2.70
  -1  11   8  177.81    7.09
  -1  11   8  187.93    7.17
  -1  11   8  187.04    7.08
   0 -11  -8   25.93    1.12
   0 -11  -8   26.54    1.50
   0  11   8   28.40    1.32
   0  11   8   26.79    1.26
   0  11   8   28.31    1.20
  -1 -11  -8    5.86    0.74
  -1 -11  -8    6.17    0.37
  -1 -11  -8    5.99    0.33
   1  11   8    6.10    0.46
   1  11   8    6.56    0.59
   1  11   8    7.25    0.62
   1  11   8    6.16    0.32
  -2 -11  -8   15.39    0.64
  -2 -11  -8   13.99    0.65
   2  11   8   14.17    0.64
   2  11   8   15.45    0.70
  -3 -11  -8   17.28    0.67
   3  11   8   14.83    0.69
   3  11   8   17.14    0.68
  -2  12   8    0.97    0.22
  -2  12   8    0.98    0.16
  -1  12   8   25.29    1.17
  -1  12   8   24.87    1.07
  -1  12   8   23.69    1.10
   0 -12  -8  139.46    5.30
   0  12   8  140.69    5.46
   0  12   8  140.17    5.35
   0  12   8  133.81    5.40
  -1 -12  -8   60.50    2.33
  -1 -12  -8   60.17    2.36
   1  12   8   62.31    2.41
   1  12   8   58.07    2.49
   1  12   8   60.06    2.48
  -2 -12  -8   74.68    2.87
  -2 -12  -8   74.40    2.86
   2  12   8   71.71    2.84
   2  12   8   76.56    2.90
  -1  13   8   21.82    0.97
  -1  13   8   21.91    0.94
  -1  13   8   22.35    1.04
   0 -13  -8   17.88    0.75
   0  13   8   17.98    0.82
   0  13   8   18.82    0.90
   0  13   8   17.02    0.92
  -1 -13  -8    2.18    0.17
  -1 -13  -8    1.93    0.21
   1  13   8    1.77    0.24
   1  13   8    2.35    0.41
  -2 -13  -8   38.75    1.49
  -2 -13  -8   37.48    1.50
   2  13   8   39.62    1.53
  -1  14   8   15.20    0.70
  -1  14   8   14.46    0.65
   0 -14  -8   43.80    1.70
   0  14   8   42.76    1.78
   0  14   8   44.63    1.82
   0  14   8   44.47    1.74
  -1 -14  -8   88.00    3.30
   1  14   8   81.54    3.35
   1  14   8   84.43    3.36
   1  14   8   92.03    3.33
   0   7  -9    9.76    0.40
   0  -7   9    8.96    0.40
   1   6  -9   78.31    2.90
  -1  -6   9   75.22    2.88
  -1  -6   9   73.22    2.90
   0   6  -9   36.06    1.42
   0   6  -9   37.73    1.46
   0  -6   9   34.59    1.43
   0  -6   9   36.55    1.43
  -1   6  -9   28.34    1.10
  -1   6  -9   28.64    1.18
   1  -6   9   28.57    1.12
   1  -6   9   26.52    1.10
   2   5  -9   13.17    0.53
   2   5  -9   13.27    0.55
  -2  -5   9   12.88    0.55
   1   5  -9    0.32    0.10
  -1  -5   9    0.15    0.10
  -1  -5   9    0.27    0.13
   0   5  -9   46.76    1.82
   0   5  -9   45.73    1.88
   0  -5   9   45.50    1.84
   0  -5   9   45.72    1.79
   0  -5   9   47.70    1.83
  -1   5  -9   53.94    2.14
   1  -5   9   56.62    2.16
  -2   5  -9   42.67    1.66
  -2   5  -9   39.39    1.58
  -2   5  -9   40.10    1.57
   2  -5   9   41.06    1.60
   2   4  -9   39.59    1.53
   2   4  -9   39.50    1.52
  -2  -4   9   37.25    1.53
  -2  -4   9   38.93    1.55
   1   4  -9  103.11    4.03
   1   4  -9  106.53    4.01
  -1  -4   9  104.47    4.01
  -1  -4   9  105.13    4.04
   0   4  -9   27.89    1.14
   0   4  -9   27.35    1.11
   0  -4   9   28.08    1.12
   0  -4   9   28.47    1.17
   0  -4   9   26.66    1.14
  -1   4  -9   81.31    3.12
   1  -4   9   83.68    3.15
   1  -4   9   82.47    3.16
   1  -4   9   76.25    3.13
  -2   4  -9   20.77    0.84
  -2   4  -9   20.75    0.87
   2  -4   9   20.37    0.89
   2  -4   9   21.37    0.88
   3   3  -9   17.54    0.68
  -3  -3   9   16.30    0.67
   2   3  -9    4.65    0.30
   2   3  -9    5.02    0.28
   2   3  -9    5.49    0.31
  -2  -3   9    5.23    0.40
  -2  -3   9    4.82    0.32
   1   3  -9    1.08    0.14
   1   3  -9    0.99    0.18
   1   3  -9    1.19    0.16
  -1  -3   9    0.96    0.16
  -1  -3   9    1.04    0.19
   0   3  -9    5.22    0.35
   0   3  -9    5.79    0.32
   0  -3   9    5.00    0.38
   0  -3   9    4.87    0.33
   0  -3   9    5.37    0.35
  -1   3  -9   34.41    1.29
  -1   3  -9   30.78    1.25
  -1   3  -9   30.97    1.35
   1  -3   9   27.32    2.01
   1  -3   9   32.08    1.31
   1  -3   9   32.90    1.31
   1  -3   9   32.12    1.32
  -2   3  -9   68.47    2.70
  -2   3  -9   68.00    2.73
   2  -3   9   70.98    2.74
   2  -3   9   72.66    2.74
  -3   3  -9   13.81    0.57
  -3   3  -9   12.64    0.56
  -3   3  -9   12.24    0.50
   3  -3   9   12.17    0.54
   3  -3   9   11.77    0.55
   3   2  -9    3.22    0.19
   3   2  -9    3.02    0.21
  -3  -2   9    3.04    0.24
  -3  -2   9    3.02    0.19
   2   2  -9    9.91    0.50
   2   2  -9   10.84    0.50
   2   2  -9   10.46    0.50
  -2  -2   9    9.55    0.51
   1   2  -9   94.87    3.53
   1   2  -9   89.66    3.54
   1   2  -9   90.83    3.53
  -1  -2   9   90.46    3.52
  -1  -2   9   91.59    3.56
   0   2  -9   96.88    3.76
   0   2  -9   93.00    3.74
   0   2  -9   97.08    3.77
   0  -2   9  100.96    3.76
   0  -2   9  101.12    3.78
   0  -2   9   98.19    3.80
  -1   2  -9    7.79    0.45
  -1   2  -9    8.41    0.42
  -1   2  -9    8.86    0.45
   1  -2   9    8.33    1.08
   1  -2   9    9.01    0.50
   1  -2   9    9.57    0.50
   1  -2   9    9.41    0.48
  -2   2  -9   12.15    0.61
  -2   2  -9   12.22    0.55
   2  -2   9   12.23    0.61
   2  -2   9   12.34    0.60
   2  -2   9   11.80    0.62
  -3   2  -9   26.97    1.07
  -3   2  -9   25.80    1.01
  -3   2  -9   25.51    1.07
   3  -2   9   24.04    1.04
   3  -2   9   25.16    1.05
   3   1  -9   16.62    0.69
   3   1  -9   16.18    0.69
  -3  -1   9   16.93    0.74
  -3  -1   9   15.56    0.67
   2   1  -9   34.76    1.43
   2   1  -9   35.47    1.42
  -2  -1   9   35.74    1.52
  -2  -1   9   34.36    1.43
   1   1  -9    0.02    0.14
   1   1  -9    0.07    0.13
   1   1  -9   -0.02    0.33
   1   1  -9    0.51    0.15
  -1  -1   9    0.21    0.13
  -1  -1   9    0.11    0.17
  -1  -1   9   -0.10    0.14
  -1  -1   9    0.09    0.26
   0   1  -9   36.02    1.46
   0   1  -9   36.94    1.45
   0   1  -9   35.44    1.45
   0  -1   9   35.19    1.48
   0  -1   9   37.62    1.47
   0  -1   9   35.50    1.43
  -1   1  -9  179.91    6.63
  -1   1  -9  158.91    6.63
  -1   1  -9  173.72    6.62
   1  -1   9  170.89    7.36
   1  -1   9  179.28    6.65
   1  -1   9  181.41    6.65
   1  -1   9  173.46    6.67
  -2   1  -9   47.62    1.95
  -2   1  -9   53.61    1.99
   2  -1   9   48.79    2.02
   2  -1   9   47.46    2.77
   2  -1   9   53.51    2.03
   2  -1   9   51.35    2.03
  -3   1  -9    1.00    0.12
  -3   1  -9    1.06    0.20
   3  -1   9    1.23    0.20
   3  -1   9    1.18    0.17
   3   0  -9   13.84    0.62
   3   0  -9   13.59    0.60
  -3   0   9   14.99    0.70
  -3   0   9   13.00    0.57
   2   0  -9   71.84    3.70
   2   0  -9   79.97    3.01
   2   0  -9   79.14    3.03
  -2   0   9   73.78    3.02
  -2   0   9   80.34    3.02
  -2   0   9   79.72    3.11
   1   0  -9  178.82    7.45
   1   0  -9  174.28    6.78
   1   0  -9  183.01    6.79
   1   0  -9  180.81    6.77
  -1   0   9  181.97    6.80
  -1   0   9  169.34    6.79
  -1   0   9  166.38    6.75
  -1   0   9  187.27    6.85
   0   0  -9   67.49    2.61
   0   0  -9   69.59    2.63
   0   0  -9   67.81    3.20
   0   0  -9   66.24    2.62
   0   0   9   65.74    2.62
   0   0   9   67.54    2.65
   0   0   9   66.95    2.59
  -1   0  -9    1.15    0.16
  -1   0  -9    1.09    0.16
  -1   0  -9    1.44    0.20
   1   0   9    1.21    0.21
   1   0   9    1.35    0.20
   1   0   9    0.93    0.17
  -2   0  -9    3.22    0.23
  -2   0  -9    3.12    0.26
   2   0   9    2.73    0.36
   2   0   9    3.65    0.34
   2   0   9    3.49    0.93
   2   0   9    2.89    0.32
  -3   0  -9   42.19    1.60
   3   0   9   39.04    1.64
   3   0   9   40.72    1.64
   3  -1  -9   27.73    1.14
   3  -1  -9   28.07    1.12
  -3   1   9   29.40    1.22
  -3   1   9   26.49    1.08
  -3   1   9   26.64    1.21
  -3   1   9   27.29    1.13
   2  -1  -9    4.91    0.37
   2  -1  -9    4.96    0.33
   2  -1  -9    5.11    0.80
  -2   1   9    5.08    0.34
  -2   1   9    4.70    0.40
  -2   1   9    5.20    0.55
   1  -1  -9   71.73    2.76
   1  -1  -9   71.30    2.74
   1  -1  -9   72.44    3.35
  -1   1   9   73.60    2.77
  -1   1   9   67.71    2.78
  -1   1   9   72.75    2.84
  -1   1   9   65.28    2.71
   0  -1  -9  104.21    4.44
   0  -1  -9  102.54    3.91
   0  -1  -9  103.09    3.90
   0  -1  -9  101.05    3.89
   0   1   9   96.39    3.94
   0   1   9  101.30    3.92
   0   1   9  101.97    3.90
  -1  -1  -9   86.98    4.00
  -1  -1  -9   86.51    3.47
  -1  -1  -9   94.68    3.47
  -1  -1  -9   90.88    3.46
   1   1   9   83.09    3.47
   1   1   9   94.60    3.50
   1   1   9   93.82    3.51
  -2  -1  -9  178.17    6.64
  -2  -1  -9  170.37    6.62
   2   1   9  177.73    6.68
   2   1   9  178.44    6.68
   2   1   9  178.04    6.67
   2   1   9  162.52    7.49
  -3  -1  -9    9.09    0.44
   3   1   9    9.43    0.51
   3   1   9    8.96    0.50
   3   1   9    8.67    0.48
  -4  -1  -9    0.19    0.15
  -4  -1  -9    0.17    0.05
   4   1   9    0.06    0.09
   3  -2  -9   19.32    1.03
   3  -2  -9   19.63    0.85
  -3   2   9   19.85    0.95
  -3   2   9   19.69    0.93
  -3   2   9   18.97    0.86
   2  -2  -9   52.73    2.76
   2  -2  -9   53.56    2.16
   2  -2  -9   55.58    2.14
  -2   2   9   53.78    2.25
  -2   2   9   54.45    2.20
  -2   2   9   53.30    2.13
  -2   2   9   56.67    2.26
   1  -2  -9   19.82    1.31
   1  -2  -9   18.90    0.83
   1  -2  -9   18.24    0.81
  -1   2   9   19.57    0.84
  -1   2   9   19.39    0.93
  -1   2   9   19.19    0.88
   0  -2  -9   74.85    2.85
   0  -2  -9   78.87    3.37
   0  -2  -9   75.10    2.86
   0  -2  -9   69.59    2.85
   0   2   9   70.72    2.90
   0   2   9   71.20    2.85
   0   2   9   76.23    2.88
  -1  -2  -9   10.71    0.92
  -1  -2  -9   10.47    0.50
  -1  -2  -9   10.60    0.50
  -1  -2  -9   11.25    0.49
   1   2   9    9.84    0.50
   1   2   9   11.13    0.54
   1   2   9   10.75    0.54
  -2  -2  -9   54.49    2.09
  -2  -2  -9   51.72    2.07
  -2  -2  -9   51.31    2.04
   2   2   9   53.29    2.11
   2   2   9   53.56    2.12
   2   2   9   53.50    2.13
  -3  -2  -9   35.48    1.45
  -3  -2  -9   37.96    1.49
   3   2   9   37.54    1.54
   3   2   9   38.91    1.53
  -4  -2  -9   47.11    1.90
  -4  -2  -9   51.38    1.94
   4   2   9   50.27    1.92
   3  -3  -9   86.96    3.35
   3  -3  -9   87.44    3.32
  -3   3   9   88.52    3.42
  -3   3   9   82.64    3.40
  -3   3   9   85.37    3.37
   2  -3  -9   13.19    1.12
   2  -3  -9   13.60    0.66
   2  -3  -9   14.69    0.65
  -2   3   9   14.90    0.75
  -2   3   9   14.18    0.78
  -2   3   9   14.58    0.81
  -2   3   9   13.97    0.62
   1  -3  -9    1.48    0.18
   1  -3  -9    1.12    0.16
   1  -3  -9    0.95    0.34
  -1   3   9    1.38    0.28
  -1   3   9    1.24    0.18
  -1   3   9    1.63    0.24
   0  -3  -9   67.12    2.62
   0  -3  -9   71.33    3.11
   0  -3  -9   67.77    2.64
   0   3   9   64.31    2.61
   0   3   9   65.41    2.67
   0   3   9   70.45    2.84
   0   3   9   69.07    2.65
  -1  -3  -9   66.55    2.66
  -1  -3  -9   72.41    2.67
  -1  -3  -9   69.56    2.66
  -1  -3  -9   67.01    3.15
   1   3   9   66.31    2.68
   1   3   9   70.01    2.69
  -2  -3  -9   43.93    1.71
  -2  -3  -9   42.35    1.71
  -2  -3  -9   42.90    1.73
   2   3   9   44.38    1.74
   2   3   9   43.54    1.76
  -3  -3  -9   40.34    1.56
  -3  -3  -9   37.08    1.53
   3   3   9   36.97    1.59
   3   3   9   42.36    1.59
  -4  -3  -9   10.78    0.44
   4   3   9   10.15    0.47
   3  -4  -9   43.02    1.68
  -3   4   9   40.78    1.72
  -3   4   9   40.86    1.75
  -3   4   9   42.22    1.75
   2  -4  -9  120.42    5.08
   2  -4  -9  111.87    4.49
   2  -4  -9  114.43    4.48
  -2   4   9  120.94    4.58
  -2   4   9  117.82    4.56
  -2   4   9  114.23    4.43
  -2   4   9  117.29    4.58
   1  -4  -9  156.71    6.13
   1  -4  -9  169.31    6.61
   1  -4  -9  159.44    6.12
  -1   4   9  156.04    6.19
  -1   4   9  166.31    6.19
  -1   4   9  149.34    6.25
  -1   4   9  167.78    6.13
   0  -4  -9   33.79    1.43
   0  -4  -9   37.12    1.86
   0  -4  -9   35.66    1.43
   0   4   9   36.64    1.45
   0   4   9   38.26    1.66
   0   4   9   35.06    1.48
  -1  -4  -9   19.64    1.26
  -1  -4  -9   18.82    0.83
  -1  -4  -9   19.28    0.83
  -1  -4  -9   18.79    0.82
   1   4   9   20.95    0.85
   1   4   9   18.98    0.84
   1   4   9   21.35    1.17
  -2  -4  -9   47.33    1.85
  -2  -4  -9   44.84    1.85
  -2  -4  -9   47.43    1.85
   2   4   9   48.38    1.87
   2   4   9   45.94    1.85
   2   4   9   47.49    1.89
  -3  -4  -9   43.90    1.73
  -3  -4  -9   43.11    1.75
   3   4   9   46.24    1.77
   3   4   9   43.95    1.78
   3   4   9   43.66    1.74
  -4  -4  -9   74.17    2.87
   4   4   9   76.30    2.89
   3  -5  -9   21.09    0.91
  -3   5   9   20.36    0.95
  -3   5   9   21.40    0.98
  -3   5   9   21.04    1.00
   2  -5  -9    0.39    0.31
   2  -5  -9    0.32    0.14
  -2   5   9    0.31    0.24
  -2   5   9    0.37    0.27
  -2   5   9    0.25    0.21
   1  -5  -9    0.33    0.11
   1  -5  -9    0.65    0.11
   1  -5  -9    0.60    0.29
  -1   5   9    0.59    0.11
  -1   5   9    0.57    0.22
  -1   5   9   -0.09    0.31
  -1   5   9    0.52    0.20
   0  -5  -9  175.06    7.00
   0  -5  -9  163.71    6.56
   0  -5  -9  169.61    6.55
   0   5   9  175.29    6.57
   0   5   9  169.00    6.60
   0   5   9  182.55    6.75
  -1  -5  -9  180.63    7.21
  -1  -5  -9  196.52    7.76
  -1  -5  -9  193.05    7.20
  -1  -5  -9  191.19    7.21
   1   5   9  193.22    7.22
   1   5   9  203.29    7.42
   1   5   9  175.99    7.22
   1   5   9  182.60    7.20
  -2  -5  -9   42.78    2.34
  -2  -5  -9   42.45    1.74
  -2  -5  -9   43.61    1.73
  -2  -5  -9   45.22    1.74
   2   5   9   43.71    1.75
   2   5   9   44.62    1.77
  -3  -5  -9    9.39    0.45
  -3  -5  -9    8.98    0.44
   3   5   9    9.29    0.49
   3   5   9    9.22    0.49
  -4  -5  -9   17.57    0.69
   4   5   9   17.50    0.70
   4   5   9   15.91    0.70
   3  -6  -9   39.98    1.61
  -3   6   9   40.68    1.67
  -3   6   9   38.67    1.68
  -3   6   9   41.30    1.66
   2  -6  -9  140.48    5.93
  -2   6   9  143.05    5.55
  -2   6   9  142.97    5.56
  -2   6   9  145.48    5.55
   1  -6  -9   50.23    2.29
  -1   6   9   45.30    2.05
  -1   6   9   50.87    1.97
  -1   6   9   47.67    1.96
  -1   6   9   46.93    1.85
  -1   6   9   47.68    1.97
   0  -6  -9  147.43    5.83
   0  -6  -9  161.05    6.30
   0  -6  -9  145.69    5.85
   0   6   9  152.51    5.89
   0   6   9  160.40    5.84
   0   6   9  144.12    5.91
   0   6   9  162.30    6.03
  -1  -6  -9    0.95    0.15
  -1  -6  -9    1.01    0.13
  -1  -6  -9    0.75    0.34
   1   6   9    0.76    0.34
   1   6   9    1.07    0.18
   1   6   9    1.34    0.18
   1   6   9    0.91    0.14
  -2  -6  -9  108.18    4.17
  -2  -6  -9  105.49    4.82
  -2  -6  -9  109.10    4.18
  -2  -6  -9  105.43    4.18
   2   6   9  112.62    4.41
   2   6   9  109.47    4.18
   2   6   9  110.69    4.21
  -3  -6  -9   35.97    1.36
   3   6   9   34.70    1.38
   3   6   9   31.23    1.39
  -4  -6  -9    6.35    0.29
   4   6   9    6.63    0.29
   4   6   9    6.09    0.31
  -3   7   9   36.16    1.49
  -3   7   9   34.91    1.51
  -3   7   9   37.15    1.50
   2  -7  -9   10.35    0.77
  -2   7   9   10.58    0.60
  -2   7   9    9.45    0.57
  -2   7   9   10.40    0.63
   1  -7  -9   45.79    2.10
  -1   7   9   43.59    1.92
  -1   7   9   43.25    1.80
  -1   7   9   44.57    1.83
  -1   7   9   43.47    1.81
   0  -7  -9  126.62    4.98
   0  -7  -9  124.22    5.00
   0  -7  -9  137.94    5.47
   0   7   9  133.74    5.05
   0   7   9  134.75    5.18
   0   7   9  122.27    5.07
   0   7   9  135.57    4.99
  -1  -7  -9  300.42   11.29
  -1  -7  -9  289.76   11.30
  -1  -7  -9  302.90   11.87
   1   7   9  281.43   11.32
   1   7   9  302.81   11.30
   1   7   9  314.26   11.49
   1   7   9  295.16   11.40
  -2  -7  -9    3.36    0.27
  -2  -7  -9    3.99    0.28
  -2  -7  -9    3.98    0.30
  -2  -7  -9    3.89    0.70
   2   7   9    4.08    0.31
   2   7   9    3.60    0.31
   2   7   9    5.06    0.74
  -3  -7  -9   14.68    0.62
  -3  -7  -9   14.33    0.63
   3   7   9   14.56    0.66
   3   7   9   13.55    0.63
  -3   8   9    0.47    0.21
  -3   8   9    0.39    0.16
  -3   8   9    0.36    0.16
  -2   8   9  149.92    5.50
  -2   8   9  138.57    5.48
  -2   8   9  137.61    5.51
   1  -8  -9   35.81    1.74
  -1   8   9   34.79    1.51
  -1   8   9   36.19    1.61
  -1   8   9   35.81    1.49
   0  -8  -9    3.59    0.26
   0  -8  -9    3.83    0.56
   0  -8  -9    3.37    0.23
   0   8   9    3.77    0.50
   0   8   9    3.76    0.35
   0   8   9    3.81    0.23
   0   8   9    3.81    0.31
   0   8   9    4.03    0.44
  -1  -8  -9   64.35    3.06
  -1  -8  -9   64.70    2.50
  -1  -8  -9   62.52    2.51
   1   8   9   64.13    2.72
   1   8   9   63.88    2.65
   1   8   9   63.20    2.54
   1   8   9   66.69    2.51
  -2  -8  -9    0.20    0.12
  -2  -8  -9    0.52    0.13
  -2  -8  -9    0.21    0.35
  -2  -8  -9    0.28    0.13
   2   8   9    0.42    0.48
   2   8   9    0.24    0.15
   2   8   9    0.37    0.18
  -3  -8  -9   81.20    3.14
  -3  -8  -9   83.80    3.14
   3   8   9   79.77    3.16
  -3   9   9   23.44    0.96
  -3   9   9   24.36    0.97
  -3   9   9   22.30    0.96
  -2   9   9   14.22    0.68
  -2   9   9   13.87    0.74
  -2   9   9   13.79    0.66
   1  -9  -9   31.75    1.56
  -1   9   9   32.26    1.38
  -1   9   9   31.67    1.47
  -1   9   9   31.30    1.33
   0  -9  -9   48.78    2.30
   0  -9  -9   43.53    1.84
   0   9   9   46.39    2.03
   0   9   9   45.28    1.87
   0   9   9   49.52    1.92
   0   9   9   46.19    1.96
  -1  -9  -9   63.50    3.12
  -1  -9  -9   65.24    2.55
  -1  -9  -9   66.37    2.57
   1   9   9   64.91    2.71
   1   9   9   66.61    2.56
   1   9   9   67.06    2.61
  -2  -9  -9   52.07    2.83
  -2  -9  -9   55.01    2.14
  -2  -9  -9   54.06    2.12
   2   9   9   52.38    2.15
   2   9   9   56.52    2.15
   2   9   9   54.78    2.34
  -3  -9  -9    3.86    0.24
  -3  -9  -9    3.80    0.24
   3   9   9    4.01    0.27
  -3  10   9   51.38    1.98
  -2  10   9  109.85    4.25
  -2  10   9  108.61    4.21
   1 -10  -9   50.35    2.21
  -1  10   9   51.27    2.02
  -1  10   9   51.08    2.17
  -1  10   9   47.64    2.06
  -1  10   9   52.88    2.08
   0 -10  -9   75.22    3.06
   0 -10  -9   78.72    3.51
   0  10   9   80.23    3.25
   0  10   9   83.90    3.13
   0  10   9   76.72    3.17
  -1 -10  -9   20.97    1.42
  -1 -10  -9   20.74    0.91
  -1 -10  -9   21.31    0.89
   1  10   9   20.91    0.88
   1  10   9   22.09    0.97
   1  10   9   21.61    1.09
   1  10   9   21.48    1.14
  -2 -10  -9   33.58    1.26
  -2 -10  -9   30.90    1.27
   2  10   9   30.27    1.27
   2  10   9   29.97    1.46
   2  10   9   31.20    1.30
  -3 -10  -9   94.81    3.64
  -3 -10  -9   95.42    3.60
   3  10   9   92.88    3.61
  -2  11   9    4.05    0.37
  -1  11   9   53.32    2.23
  -1  11   9   54.24    2.14
  -1  11   9   50.90    2.14
   0 -11  -9   63.72    2.97
   0 -11  -9   61.79    2.51
   0  11   9   64.72    2.63
   0  11   9   67.30    2.58
  -1 -11  -9  144.31    5.45
  -1 -11  -9  142.95    5.42
   1  11   9  144.16    5.49
   1  11   9  139.79    5.56
   1  11   9  140.85    5.61
   1  11   9  141.42    5.40
  -2 -11  -9   13.55    0.60
  -2 -11  -9   13.90    0.62
   2  11   9   14.15    0.61
   2  11   9   13.68    0.66
  -3 -11  -9    6.63    0.29
   3  11   9    6.13    0.30
  -2  12   9   44.50    1.74
  -1  12   9   33.10    1.44
  -1  12   9   35.94    1.44
  -1  12   9   34.31    1.52
   0 -12  -9   13.12    0.60
   0  12   9   13.93    0.76
   0  12   9   13.09    0.80
   0  12   9   13.26    0.68
  -1 -12  -9   23.45    0.97
  -1 -12  -9   24.12    0.95
   1  12   9   22.47    1.11
   1  12   9   22.37    1.13
   1  12   9   23.35    1.02
  -2 -12  -9   34.58    1.30
  -2 -12  -9   33.30    1.31
   2  12   9   30.23    1.42
   2  12   9   31.66    1.28
   2  12   9   34.37    1.34
  -1  13   9   46.89    1.84
  -1  13   9   43.12    1.84
  -1  13   9   48.57    1.92
   0 -13  -9   91.43    3.52
   0  13   9   87.69    3.60
   0  13   9   93.83    3.66
   0  13   9   93.95    3.57
  -1 -13  -9   28.40    1.13
  -1 -13  -9   29.24    1.16
   1  13   9   30.39    1.21
   1  13   9   28.00    1.28
   1  13   9   27.79    1.27
  -2 -13  -9   25.88    1.05
  -2 -13  -9   26.91    1.06
   2  13   9   27.67    1.08
   0 -14  -9    0.29    0.09
   0  14   9    0.39    0.17
   0  14   9    0.65    0.25
   0  14   9    0.61    0.20
  -1 -14  -9    2.82    0.19
   1  14   9    3.21    0.26
   1  14   9    2.59    0.35
   0  -6  10   10.60    0.44
   1   5 -10    1.44    0.15
  -1  -5  10    1.31    0.16
  -1  -5  10    1.30    0.12
   0   5 -10   49.73    2.80
   0   5 -10   50.36    1.94
   0  -5  10   46.09    1.94
   0  -5  10   53.25    1.94
  -1   5 -10    3.01    0.30
  -1   5 -10    2.80    0.19
   1  -5  10    2.61    0.16
   1  -5  10    3.11    0.21
   2   4 -10    1.96    0.13
   2   4 -10    1.74    0.13
  -2  -4  10    1.80    0.16
   1   4 -10   17.71    0.71
   1   4 -10   17.07    0.73
  -1  -4  10   17.65    0.75
  -1  -4  10   16.61    0.70
   0   4 -10   67.03    2.63
   0   4 -10   65.65    2.60
   0  -4  10   68.45    2.66
   0  -4  10   71.19    2.64
  -1   4 -10   70.15    2.73
   1  -4  10   73.06    2.72
   1  -4  10   71.61    2.74
   1  -4  10   68.50    2.75
  -2   4 -10    6.61    0.41
  -2   4 -10    6.47    0.30
   2  -4  10    6.54    0.33
   2   3 -10   16.04    0.74
   2   3 -10   19.08    0.74
  -2  -3  10   18.34    0.75
  -2  -3  10   18.93    0.79
   1   3 -10   80.11    3.18
   1   3 -10   84.43    3.17
  -1  -3  10   82.89    3.20
  -1  -3  10   82.36    3.16
   0   3 -10   23.42    0.96
   0   3 -10   23.54    0.99
   0  -3  10   23.80    1.01
   0  -3  10   23.70    0.99
  -1   3 -10    0.00    0.10
  -1   3 -10   -0.06    0.04
   1  -3  10   -0.01    0.15
   1  -3  10   -0.04    0.15
   1  -3  10    0.06    0.13
  -2   3 -10   42.11    1.66
  -2   3 -10   41.79    1.65
   2  -3  10   40.98    1.67
   2  -3  10   44.77    1.68
   2   2 -10    0.02    0.10
   2   2 -10    0.00    0.11
   2   2 -10   -0.14    0.10
  -2  -2  10    0.04    0.18
  -2  -2  10    0.09    0.12
   1   2 -10    8.66    0.42
   1   2 -10    8.11    0.43
   1   2 -10    8.68    0.42
  -1  -2  10    7.75    0.46
  -1  -2  10    7.98    0.41
   0   2 -10   53.40    2.13
   0   2 -10   54.54    2.15
   0  -2  10   53.88    2.17
   0  -2  10   55.97    2.14
  -1   2 -10   45.39    1.79
  -1   2 -10   46.89    1.82
   1  -2  10   44.07    1.82
   1  -2  10   49.00    1.84
   1  -2  10   44.45    1.85
  -2   2 -10   18.03    0.78
  -2   2 -10   19.18    0.82
   2  -2  10   18.56    0.82
   2  -2  10   18.82    0.82
   2  -2  10   19.54    0.82
  -3   2 -10    3.70    0.18
  -3   2 -10    3.49    0.24
  -3   2 -10    3.50    0.25
   3  -2  10    3.54    0.22
   3  -2  10    3.61    0.22
   3   1 -10   30.04    1.16
   3   1 -10   30.51    1.17
  -3  -1  10   27.79    1.14
  -3  -1  10   30.95    1.19
   2   1 -10   69.09    2.58
   2   1 -10   66.47    2.58
  -2  -1  10   61.36    2.58
  -2  -1  10   68.27    2.66
   1   1 -10   69.87    4.08
   1   1 -10   75.60    2.88
   1   1 -10   80.81    2.88
   1   1 -10   75.57    2.88
  -1  -1  10   71.48    2.85
  -1  -1  10   67.05    2.93
  -1  -1  10   76.85    2.90
   0   1 -10    3.87    0.29
   0   1 -10    4.15    0.29
   0   1 -10    4.02    0.30
   0  -1  10    4.05    0.30
   0  -1  10    4.06    0.35
  -1   1 -10    6.97    0.38
  -1   1 -10    7.24    0.40
   1  -1  10    7.96    0.46
   1  -1  10    7.76    0.43
   1  -1  10    7.08    0.43
  -2   1 -10    9.09    0.45
  -2   1 -10    9.13    0.49
   2  -1  10    8.73    0.50
   2  -1  10    9.27    0.50
   2  -1  10    9.87    0.49
  -3   1 -10   34.40    1.34
  -3   1 -10   33.68    1.30
   3  -1  10   31.79    1.31
   3  -1  10   33.33    1.33
   3   0 -10   13.10    0.55
   3   0 -10   12.80    0.56
  -3   0  10   13.99    0.61
  -3   0  10   11.73    0.50
   2   0 -10    7.17    0.41
   2   0 -10    6.95    0.39
  -2   0  10    7.07    0.40
  -2   0  10    6.95    0.55
  -2   0  10    7.08    0.51
  -2   0  10    7.21    0.41
   1   0 -10   11.36    1.11
   1   0 -10   12.72    0.57
   1   0 -10   12.24    0.58
   1   0 -10   11.90    0.58
  -1   0  10   12.92    0.70
  -1   0  10   11.37    0.53
  -1   0  10   11.62    0.59
  -1   0  10   12.45    0.61
   0   0 -10   67.82    2.68
   0   0 -10   67.19    2.68
   0   0 -10   67.18    3.35
   0   0 -10   71.46    2.69
   0   0  10   70.08    2.72
   0   0  10   69.17    2.68
  -1   0 -10  159.68    6.19
  -1   0 -10  165.94    6.22
  -1   0 -10  168.03    6.22
  -1   0 -10  146.58    6.22
   1   0  10  169.26    6.27
   1   0  10  166.83    6.24
   1   0  10  165.60    6.22
  -2   0 -10   21.15    0.90
  -2   0 -10   22.50    0.93
   2   0  10   23.27    0.97
   2   0  10   23.14    0.96
   2   0  10   20.65    0.96
  -3   0 -10   17.72    0.76
  -3   0 -10   19.97    0.83
   3   0  10   18.31    0.80
   3   0  10   18.72    0.79
   3  -1 -10    7.32    0.36
   3  -1 -10    7.56    0.39
  -3   1  10    7.71    0.46
   2  -1 -10   25.20    1.06
   2  -1 -10   25.24    1.04
  -2   1  10   23.90    1.07
  -2   1  10   25.78    1.05
  -2   1  10   25.38    1.16
  -2   1  10   24.36    1.16
   1  -1 -10   87.49    3.27
   1  -1 -10   79.75    3.90
   1  -1 -10   85.35    3.26
  -1   1  10   81.85    3.29
  -1   1  10   85.82    3.34
  -1   1  10   83.97    3.27
   0  -1 -10    7.43    0.41
   0  -1 -10    7.90    0.41
   0  -1 -10    8.40    0.43
   0  -1 -10    7.67    0.86
   0   1  10    7.45    0.41
  -1  -1 -10    5.94    0.38
  -1  -1 -10    5.29    0.32
  -1  -1 -10    5.07    0.33
   1   1  10    4.58    0.33
   1   1  10    5.56    0.37
   1   1  10    5.33    0.38
  -2  -1 -10   25.22    1.03
  -2  -1 -10   25.82    1.05
   2   1  10   23.47    1.06
   2   1  10   26.83    1.09
   2   1  10   24.64    1.09
  -3  -1 -10   52.86    2.05
   3   1  10   52.06    2.08
   3   1  10   53.11    2.08
   3   1  10   53.10    2.06
   3  -2 -10   12.67    0.57
   3  -2 -10   12.32    0.54
  -3   2  10   12.39    0.66
  -3   2  10   11.31    0.56
  -3   2  10   12.96    0.65
   2  -2 -10   16.95    0.73
   2  -2 -10   14.87    1.25
   2  -2 -10   17.06    0.76
  -2   2  10   16.68    0.73
  -2   2  10   16.28    0.79
  -2   2  10   17.67    0.90
  -2   2  10   16.76    0.87
   1  -2 -10   42.60    1.71
   1  -2 -10   43.60    2.32
   1  -2 -10   42.56    1.72
  -1   2  10   43.54    1.73
  -1   2  10   42.04    1.76
  -1   2  10   43.00    1.81
   0  -2 -10   57.48    2.85
   0  -2 -10   59.21    2.32
   0  -2 -10   61.16    2.31
   0  -2 -10   58.22    2.32
   0   2  10   62.31    2.35
   0   2  10   57.01    2.30
   0   2  10   59.10    2.37
  -1  -2 -10   80.53    4.01
  -1  -2 -10   90.61    3.45
  -1  -2 -10   90.17    3.46
  -1  -2 -10   90.28    3.45
   1   2  10   91.26    3.49
   1   2  10   93.75    3.47
  -2  -2 -10  117.24    4.55
  -2  -2 -10  115.74    4.54
   2   2  10  123.99    4.59
   2   2  10  115.74    4.59
   2   2  10  120.74    4.55
  -3  -2 -10    0.29    0.12
   3   2  10    0.30    0.16
   3   2  10    0.38    0.16
   3   2  10    0.05    0.15
   3  -3 -10   47.19    1.87
   3  -3 -10   49.09    1.90
  -3   3  10   49.58    1.97
  -3   3  10   47.41    1.96
  -3   3  10   47.94    1.92
   2  -3 -10   46.76    2.54
   2  -3 -10   49.67    1.96
   2  -3 -10   47.68    1.93
  -2   3  10   51.47    2.06
  -2   3  10   49.66    2.05
  -2   3  10   48.10    1.91
  -2   3  10   49.91    2.01
   1  -3 -10   83.10    3.32
   1  -3 -10   86.31    3.91
   1  -3 -10   84.58    3.31
  -1   3  10   88.41    3.38
  -1   3  10   88.30    3.32
  -1   3  10   83.54    3.39
   0  -3 -10   40.26    1.60
   0  -3 -10   40.09    1.59
   0  -3 -10   40.75    2.12
   0   3  10   38.96    1.65
   0   3  10   41.76    1.62
   0   3  10   38.51    1.57
  -1  -3 -10   23.80    0.97
  -1  -3 -10   22.65    0.95
  -1  -3 -10   22.45    1.46
  -1  -3 -10   22.61    0.96
   1   3  10   23.20    1.00
   1   3  10   23.25    0.98
  -2  -3 -10   93.57    3.64
  -2  -3 -10   96.51    3.66
  -2  -3 -10   93.82    3.62
   2   3  10   91.43    3.63
   2   3  10   95.35    3.69
   2   3  10   98.03    3.69
  -3  -3 -10   72.63    2.84
  -3  -3 -10   78.38    2.88
   3   3  10   70.80    2.90
   3   3  10   74.92    2.85
   3   3  10   75.28    2.91
   3  -4 -10   12.08    0.57
  -3   4  10   11.77    0.66
  -3   4  10   12.20    0.61
  -3   4  10   12.54    0.65
   2  -4 -10    0.26    0.15
   2  -4 -10    0.45    0.33
   2  -4 -10    0.15    0.12
  -2   4  10    0.17    0.23
  -2   4  10    0.31    0.09
  -2   4  10    0.35    0.30
  -2   4  10    0.56    0.24
   1  -4 -10   25.43    1.11
   1  -4 -10   27.51    1.61
   1  -4 -10   26.69    1.10
  -1   4  10   26.97    1.20
  -1   4  10   26.89    1.19
  -1   4  10   27.52    1.11
   0  -4 -10  120.52    5.16
   0  -4 -10  118.45    4.63
   0  -4 -10  118.64    4.65
   0   4  10  122.62    4.65
   0   4  10  124.14    4.85
   0   4  10  122.70    4.69
  -1  -4 -10  110.41    4.12
  -1  -4 -10  105.14    4.12
  -1  -4 -10  103.82    4.68
  -1  -4 -10  108.97    4.13
   1   4  10  107.84    4.15
   1   4  10  110.22    4.37
   1   4  10  104.71    4.12
  -2  -4 -10   16.00    0.68
  -2  -4 -10   15.36    0.68
  -2  -4 -10   15.17    0.69
   2   4  10   15.64    0.73
   2   4  10   15.09    0.72
  -3  -4 -10   14.20    0.61
  -3  -4 -10   14.00    0.58
   3   4  10   12.72    0.64
   3   4  10   13.53    0.64
   3  -5 -10   62.38    2.42
  -3   5  10   64.51    2.49
  -3   5  10   57.00    2.46
  -3   5  10   64.04    2.46
   2  -5 -10   94.25    3.76
   2  -5 -10   95.04    4.31
  -2   5  10   98.51    3.85
  -2   5  10   97.14    3.84
  -2   5  10  101.19    3.83
   1  -5 -10  132.93    5.24
   1  -5 -10  142.28    5.76
   1  -5 -10  134.87    5.23
  -1   5  10  142.27    5.22
  -1   5  10  142.88    5.31
  -1   5  10  134.71    5.31
  -1   5  10  128.39    5.38
   0  -5 -10    0.47    0.11
   0  -5 -10    0.34    0.12
   0   5  10    0.43    0.14
   0   5  10    1.36    0.48
   0   5  10    0.65    0.21
  -1  -5 -10    0.65    0.34
  -1  -5 -10    0.87    0.13
  -1  -5 -10    0.94    0.16
  -1  -5 -10    0.45    0.12
   1   5  10    0.57    0.17
   1   5  10    0.89    0.14
   1   5  10    1.16    0.17
   1   5  10    1.58    0.50
  -2  -5 -10   69.61    2.64
  -2  -5 -10   68.36    2.64
  -2  -5 -10   67.46    2.64
   2   5  10   69.29    2.68
   2   5  10   64.27    2.65
  -3  -5 -10   10.59    0.52
  -3  -5 -10   11.54    0.50
   3   5  10   11.79    0.56
   3   5  10   11.33    0.55
   3  -6 -10    2.40    0.24
  -3   6  10    3.33    0.32
  -3   6  10    3.13    0.38
  -3   6  10    2.99    0.31
   2  -6 -10    0.34    0.29
   2  -6 -10    0.30    0.15
  -2   6  10    0.25    0.22
  -2   6  10    0.36    0.23
  -2   6  10    0.56    0.28
   1  -6 -10  169.52    6.55
   1  -6 -10  155.18    6.02
   1  -6 -10  152.45    6.03
  -1   6  10  149.39    6.18
  -1   6  10  155.89    6.09
  -1   6  10  158.44    6.09
  -1   6  10  158.53    5.99
  -1   6  10  164.30    6.11
   0  -6 -10  190.97    7.68
   0  -6 -10  185.91    7.16
   0  -6 -10  180.91    7.18
   0   6  10  192.83    7.18
   0   6  10  185.97    7.22
   0   6  10  195.00    7.38
  -1  -6 -10   11.49    0.54
  -1  -6 -10   10.73    1.00
  -1  -6 -10   11.09    0.52
   1   6  10   10.26    0.56
   1   6  10   12.80    0.56
  -2  -6 -10   95.82    3.73
  -2  -6 -10  102.81    3.74
  -2  -6 -10   89.01    4.38
  -2  -6 -10   97.98    3.74
   2   6  10  104.38    3.77
   2   6  10   91.52    3.74
  -3  -6 -10   13.16    0.57
  -3  -6 -10   13.02    0.58
   3   6  10   12.95    0.62
   3   6  10   13.52    0.60
  -3   7  10   46.36    1.89
  -3   7  10   46.98    1.88
  -3   7  10   47.62    1.88
  -2   7  10   12.17    0.66
  -2   7  10   13.20    0.73
  -2   7  10   13.29    0.69
   1  -7 -10  126.97    5.12
   1  -7 -10  113.17    4.66
  -1   7  10  128.45    4.73
  -1   7  10  124.04    4.74
  -1   7  10  119.68    4.82
  -1   7  10  116.63    4.70
   0  -7 -10   39.00    1.54
   0  -7 -10   37.20    1.56
   0  -7 -10   40.40    2.03
   0   7  10   39.11    1.54
   0   7  10   35.46    1.63
   0   7  10   39.18    1.61
   0   7  10   42.10    1.80
  -1  -7 -10   22.20    0.97
  -1  -7 -10   22.23    1.49
  -1  -7 -10   23.38    0.99
   1   7  10   21.91    1.01
   1   7  10   25.26    1.01
   1   7  10   26.74    1.33
  -2  -7 -10  142.17    6.52
  -2  -7 -10  153.76    5.85
  -2  -7 -10  154.52    5.85
  -2  -7 -10  158.86    5.84
   2   7  10  144.73    5.83
   2   7  10  158.87    6.06
   2   7  10  158.49    5.87
  -3  -7 -10   56.71    2.26
  -3  -7 -10   60.51    2.25
   3   7  10   60.15    2.26
   3   7  10   55.45    2.28
  -3   8  10   13.12    0.63
  -3   8  10   12.80    0.59
  -3   8  10   13.41    0.61
  -2   8  10   13.46    0.69
  -2   8  10   14.12    0.75
  -2   8  10   14.49    0.71
   1  -8 -10    1.84    0.45
  -1   8  10    1.46    0.26
  -1   8  10    2.54    0.49
  -1   8  10    2.24    0.28
   0  -8 -10  134.54    5.48
   0  -8 -10  123.59    4.96
   0  -8 -10  127.28    4.94
   0   8  10  131.33    4.93
   0   8  10  128.45    5.00
   0   8  10  137.61    5.17
   0   8  10  134.35    5.02
   0   8  10  118.33    5.03
  -1  -8 -10  209.95    7.85
  -1  -8 -10  203.93    7.87
  -1  -8 -10  196.66    8.46
   1   8  10  215.15    8.08
   1   8  10  200.10    7.97
   1   8  10  217.21    7.87
   1   8  10  203.48    7.89
  -2  -8 -10    7.89    1.09
  -2  -8 -10   11.02    0.50
  -2  -8 -10    9.80    0.48
  -2  -8 -10    9.61    0.48
   2   8  10   10.70    0.86
   2   8  10   11.07    0.53
   2   8  10    9.44    0.50
  -3  -8 -10    3.50    0.22
  -3  -8 -10    2.88    0.23
   3   8  10    3.04    0.25
  -3   9  10   54.71    2.08
  -3   9  10   52.52    2.08
  -2   9  10   62.10    2.36
  -2   9  10   55.67    2.33
  -2   9  10   60.21    2.40
   1  -9 -10   74.88    3.28
  -1   9  10   77.91    2.99
  -1   9  10   73.25    3.10
  -1   9  10   76.64    3.02
   0  -9 -10    0.82    0.31
   0  -9 -10    0.80    0.12
   0  -9 -10    0.64    0.14
   0   9  10    0.93    0.24
   0   9  10    0.72    0.18
   0   9  10    0.91    0.29
   0   9  10    0.95    0.30
  -1  -9 -10   17.85    0.77
  -1  -9 -10   17.88    1.29
  -1  -9 -10   17.41    0.79
   1   9  10   17.71    0.78
   1   9  10   17.52    0.83
   1   9  10   18.48    0.99
   1   9  10   19.12    1.09
  -2  -9 -10  168.50    6.41
  -2  -9 -10  168.32    6.42
   2   9  10  176.04    6.43
   2   9  10  164.22    6.43
   2   9  10  164.36    6.57
  -3  -9 -10   21.05    0.87
  -3  -9 -10   22.69    0.87
   3   9  10   20.81    0.89
  -2  10  10    3.62    0.30
  -2  10  10    3.98    0.39
  -1  10  10   69.98    2.72
  -1  10  10   70.45    2.77
  -1  10  10   67.14    2.85
   0 -10 -10   94.15    4.11
   0 -10 -10   91.12    3.62
   0  10  10  101.08    3.70
   0  10  10   90.70    3.63
   0  10  10   95.24    3.83
   0  10  10   91.48    3.72
  -1 -10 -10   30.94    1.85
  -1 -10 -10   32.35    1.30
  -1 -10 -10   32.15    1.32
   1  10  10   32.80    1.30
   1  10  10   31.65    1.48
   1  10  10   33.39    1.56
   1  10  10   33.52    1.37
  -2 -10 -10    1.23    0.15
  -2 -10 -10    1.36    0.21
   2  10  10    1.28    0.42
   2  10  10    0.87    0.15
   2  10  10    1.25    0.21
  -3 -10 -10    1.80    0.14
   3  10  10    1.31    0.16
  -2  11  10   51.53    2.00
  -2  11  10   48.89    1.94
   0 -11 -10    5.27    0.32
   0  11  10    6.12    0.60
   0  11  10    5.27    0.50
   0  11  10    5.19    0.43
  -1 -11 -10    7.52    0.42
  -1 -11 -10    7.91    0.39
   1  11  10    7.89    0.49
   1  11  10    7.58    0.36
   1  11  10    8.57    0.70
   1  11  10    8.55    0.64
  -2 -11 -10   15.75    0.64
  -2 -11 -10   15.55    0.65
   2  11  10   14.84    0.64
   2  11  10   13.28    0.80
   2  11  10   14.97    0.68
  -2  12  10   20.49    0.84
  -1  12  10   59.46    2.36
  -1  12  10   51.35    2.24
  -1  12  10   60.41    2.28
   0 -12 -10   75.66    2.87
   0  12  10   77.99    2.94
   0  12  10   75.17    3.04
   0  12  10   68.16    2.95
  -1 -12 -10   65.73    2.57
  -1 -12 -10   68.47    2.55
   1  12  10   63.73    2.67
   1  12  10   65.19    2.72
   1  12  10   67.76    2.61
  -2 -12 -10   19.12    0.78
  -2 -12 -10   19.71    0.79
   2  12  10   19.42    0.81
   2  12  10   18.36    0.75
  -1  13  10    8.07    0.52
  -1  13  10    7.94    0.44
   0 -13 -10    0.79    0.12
   0  13  10    0.82    0.25
   0  13  10    0.98    0.22
   0  13  10    1.10    0.31
  -1 -13 -10   48.24    1.87
  -1 -13 -10   48.94    1.90
   1  13  10   52.09    1.94
   1  13  10   47.37    1.99
   1  13  10   46.99    2.01
  -2 -13 -10   42.70    1.67
  -2 -13 -10   43.76    1.67
   2  13  10   44.14    1.69
   0  14  10   59.76    2.17
   0  14  10   50.53    2.17
   0  14  10   56.30    2.23
  -1 -14 -10   33.71    1.27
   1  14  10   33.95    1.29
   1  14  10   29.77    1.33
   0  -5  11   20.93    0.82
   1   4 -11    0.37    0.10
   1   4 -11    0.25    0.06
  -1  -4  11    0.44    0.10
   0   4 -11    3.82    0.28
   0   4 -11    4.68    0.25
   0  -4  11    4.21    0.24
   0  -4  11    4.16    0.26
  -1   4 -11    3.90    0.22
  -1   4 -11    3.62    0.30
   1  -4  11    3.69    0.23
   2   3 -11    0.17    0.06
  -2  -3  11    0.16    0.07
   1   3 -11   18.64    0.72
   1   3 -11   17.21    0.73
  -1  -3  11   16.59    0.69
  -1  -3  11   17.15    0.74
   0   3 -11   18.98    0.80
   0   3 -11   19.50    0.77
   0  -3  11   18.44    0.79
   0  -3  11   19.13    0.82
  -1   3 -11    7.27    0.37
   1  -3  11    8.55    0.39
   1  -3  11    7.33    0.39
  -2   3 -11   24.51    0.97
   2  -3  11   25.01    0.99
   2   2 -11   39.67    1.58
  -2  -2  11   42.94    1.62
  -2  -2  11   39.33    1.58
   1   2 -11   16.87    0.73
   1   2 -11   17.23    0.72
  -1  -2  11   18.05    0.76
  -1  -2  11   16.19    0.69
   0   2 -11   32.59    1.29
   0   2 -11   32.05    1.30
   0  -2  11   31.67    1.29
   0  -2  11   32.76    1.33
  -1   2 -11    3.51    0.21
  -1   2 -11    3.97    0.26
   1  -2  11    3.54    0.28
   1  -2  11    3.65    0.29
  -2   2 -11   11.16    0.48
   2  -2  11   11.79    0.51
   2  -2  11   10.14    0.50
   2   1 -11    1.05    0.14
   2   1 -11    1.21    0.14
  -2  -1  11    1.02    0.14
  -2  -1  11    1.23    0.23
   1   1 -11   17.83    0.80
   1   1 -11   18.03    0.78
   1   1 -11   18.98    0.79
  -1  -1  11   18.97    0.82
   0   1 -11   87.78    3.53
   0   1 -11   93.13    3.56
   0   1 -11   93.31    3.57
   0  -1  11   92.54    3.60
   0  -1  11   91.79    3.57
   0  -1  11   96.58    3.56
  -1   1 -11   58.93    2.29
  -1   1 -11   58.10    2.27
   1  -1  11   60.97    2.30
   1  -1  11   55.82    2.31
  -2   1 -11   28.00    1.08
  -2   1 -11   26.68    1.09
   2  -1  11   26.46    1.10
   2  -1  11   25.44    1.10
  -3   1 -11    0.05    0.09
  -3   1 -11    0.18    0.06
   3  -1  11    0.10    0.08
   2   0 -11   50.75    1.97
   2   0 -11   49.82    1.96
  -2   0  11   48.21    1.95
  -2   0  11   51.29    2.04
   1   0 -11   39.92    1.56
   1   0 -11   39.35    1.56
   1   0 -11   38.72    1.56
  -1   0  11   36.72    1.56
  -1   0  11   39.49    1.58
   0   0 -11    1.85    0.24
   0   0 -11    1.88    0.24
   0   0 -11    1.68    0.22
   0   0  11    1.67    0.22
   0   0  11    1.73    0.23
  -1   0 -11    0.48    0.14
  -1   0 -11    0.69    0.14
   1   0  11    0.82    0.21
   1   0  11    0.77    0.17
  -2   0 -11   44.32    1.74
  -2   0 -11   46.79    1.73
  -2   0 -11   42.09    1.69
   2   0  11   43.47    1.76
   2   0  11   43.53    1.75
   2   0  11   42.27    1.71
  -3   0 -11   43.69    1.71
  -3   0 -11   44.77    1.73
   3   0  11   44.31    1.72
   3  -1 -11   12.35    0.52
   3  -1 -11   12.20    0.53
  -3   1  11   13.19    0.57
   2  -1 -11   14.20    0.63
   2  -1 -11   14.91    0.66
  -2   1  11   14.43    0.63
  -2   1  11   14.33    0.74
  -2   1  11   14.01    0.66
  -2   1  11   13.85    0.75
   1  -1 -11   14.64    0.66
   1  -1 -11   14.71    0.64
   1  -1 -11   13.26    1.21
  -1   1  11   13.56    0.68
  -1   1  11   13.77    0.74
  -1   1  11   14.46    0.67
   0  -1 -11  123.66    4.53
   0  -1 -11  121.40    4.53
   0  -1 -11  112.07    5.23
   0  -1 -11  116.76    4.53
   0   1  11  120.00    4.56
   0   1  11  113.32    4.51
  -1  -1 -11  146.85    5.46
  -1  -1 -11  143.97    5.48
  -1  -1 -11  143.09    5.47
   1   1  11  140.72    5.49
   1   1  11  142.02    5.52
  -2  -1 -11    8.27    0.40
  -2  -1 -11    8.84    0.43
   2   1  11    8.33    0.47
   2   1  11    8.66    0.42
   2   1  11    8.55    0.46
  -3  -1 -11    2.23    0.24
  -3  -1 -11    2.28    0.17
   3   1  11    2.33    0.22
   3   1  11    2.21    0.20
   3  -2 -11   21.28    0.88
   3  -2 -11   22.00    0.90
  -3   2  11   23.34    0.95
   2  -2 -11   51.88    2.04
   2  -2 -11   52.15    2.02
  -2   2  11   52.99    2.12
  -2   2  11   50.79    2.05
  -2   2  11   50.53    2.10
  -2   2  11   49.87    2.00
   1  -2 -11   20.57    0.90
   1  -2 -11   19.46    0.87
   1  -2 -11   20.53    1.47
  -1   2  11   19.20    0.93
  -1   2  11   22.37    1.00
  -1   2  11   21.37    0.90
   0  -2 -11    0.95    0.17
   0  -2 -11    0.72    0.15
   0  -2 -11    0.52    0.38
   0  -2 -11    0.65    0.15
   0   2  11    0.70    0.18
   0   2  11    0.88    0.14
  -1  -2 -11  100.38    3.89
  -1  -2 -11   99.93    3.88
  -1  -2 -11  104.58    3.88
   1   2  11   99.41    3.92
   1   2  11  100.58    3.89
  -2  -2 -11   55.62    2.12
  -2  -2 -11   54.33    2.11
   2   2  11   51.71    2.14
   2   2  11   54.44    2.16
  -3  -2 -11   74.74    2.77
   3   2  11   74.20    2.79
   3   2  11   67.29    2.79
   3  -3 -11   15.67    0.66
   3  -3 -11   16.57    0.70
  -3   3  11   15.79    0.69
  -3   3  11   17.71    0.76
  -3   3  11   16.51    0.76
   2  -3 -11    1.92    0.21
   2  -3 -11    1.62    0.25
  -2   3  11    1.69    0.18
  -2   3  11    1.85    0.27
  -2   3  11    1.31    0.27
  -2   3  11    2.04    0.37
   1  -3 -11   68.39    2.62
   1  -3 -11   67.20    2.64
   1  -3 -11   65.47    3.25
  -1   3  11   66.30    2.68
  -1   3  11   66.41    2.71
  -1   3  11   69.16    2.63
   0  -3 -11   32.65    1.39
   0  -3 -11   33.19    1.91
   0  -3 -11   34.32    1.36
   0  -3 -11   34.54    1.34
   0   3  11   30.11    1.39
   0   3  11   34.08    1.37
  -1  -3 -11   22.41    1.57
  -1  -3 -11   24.35    1.01
  -1  -3 -11   23.89    1.01
  -1  -3 -11   24.79    1.00
   1   3  11   25.09    1.05
   1   3  11   23.85    1.01
  -2  -3 -11    3.73    0.27
  -2  -3 -11    4.00    0.30
   2   3  11    4.37    0.35
   2   3  11    4.15    0.33
  -3  -3 -11    6.12    0.28
  -3  -3 -11    6.59    0.32
   3   3  11    5.86    0.36
   3   3  11    6.76    0.36
   3  -4 -11   28.62    1.16
  -3   4  11   28.55    1.17
  -3   4  11   29.75    1.22
  -3   4  11   29.08    1.22
   2  -4 -11  150.58    5.55
   2  -4 -11  141.74    5.57
  -2   4  11  146.91    5.64
  -2   4  11  145.06    5.61
  -2   4  11  142.82    5.64
   1  -4 -11   13.87    0.67
   1  -4 -11   14.69    0.64
   1  -4 -11   14.19    1.16
  -1   4  11   14.53    0.74
  -1   4  11   14.52    0.66
  -1   4  11   14.42    0.77
   0  -4 -11   15.83    0.70
   0  -4 -11   15.69    1.20
   0  -4 -11   16.15    0.71
   0   4  11   14.65    0.77
   0   4  11   17.19    0.74
  -1  -4 -11   25.93    1.09
  -1  -4 -11   26.25    1.10
  -1  -4 -11   25.05    1.64
  -1  -4 -11   27.41    1.09
   1   4  11   26.24    1.09
   1   4  11   27.98    1.14
  -2  -4 -11    0.41    0.14
  -2  -4 -11    0.39    0.13
  -2  -4 -11    0.46    0.12
   2   4  11    0.16    0.15
   2   4  11    0.27    0.16
  -3  -4 -11   75.58    2.94
  -3  -4 -11   77.18    2.92
   3   4  11   75.84    2.96
   3   4  11   77.30    2.97
   3  -5 -11    0.02    0.10
  -3   5  11    0.14    0.14
  -3   5  11    0.01    0.22
  -3   5  11    0.08    0.19
   2  -5 -11   25.13    1.01
   2  -5 -11   24.14    1.04
  -2   5  11   23.90    1.11
  -2   5  11   25.27    1.11
  -2   5  11   25.09    1.15
   1  -5 -11   39.41    2.12
   1  -5 -11   39.59    1.57
   1  -5 -11   38.25    1.59
  -1   5  11   39.29    1.68
  -1   5  11   41.28    1.66
  -1   5  11   39.19    1.56
   0  -5 -11  128.46    4.95
   0  -5 -11  131.17    4.97
   0  -5 -11  129.16    5.55
   0   5  11  123.99    5.01
   0   5  11  133.22    4.97
   0   5  11  131.02    5.19
  -1  -5 -11  112.21    4.17
  -1  -5 -11  114.30    4.18
  -1  -5 -11  101.53    4.76
  -1  -5 -11  105.12    4.17
   1   5  11   98.91    4.14
   1   5  11  112.59    4.20
   1   5  11  114.27    4.43
  -2  -5 -11   44.16    1.81
  -2  -5 -11   46.67    1.80
  -2  -5 -11   43.87    1.80
   2   5  11   46.00    1.82
   2   5  11   47.67    1.85
  -3  -5 -11    2.66    0.18
  -3  -5 -11    2.30    0.20
   3   5  11    2.68    0.24
   3   5  11    1.93    0.24
   3  -6 -11   30.55    1.23
  -3   6  11   30.97    1.27
  -3   6  11   30.68    1.28
  -3   6  11   32.13    1.27
   2  -6 -11   56.34    2.24
  -2   6  11   55.37    2.32
  -2   6  11   59.39    2.31
  -2   6  11   56.13    2.30
   1  -6 -11    1.27    0.40
   1  -6 -11    1.32    0.16
   1  -6 -11    1.19    0.17
  -1   6  11    1.31    0.26
  -1   6  11    0.83    0.21
  -1   6  11    1.13    0.13
  -1   6  11    1.16    0.44
  -1   6  11    1.02    0.24
   0  -6 -11  178.64    7.06
   0  -6 -11  184.10    7.65
   0  -6 -11  185.07    7.08
   0   6  11  181.40    7.13
   0   6  11  194.16    7.30
   0   6  11  191.67    7.08
  -1  -6 -11  263.39    9.98
  -1  -6 -11  250.69   10.59
  -1  -6 -11  274.39    9.98
   1   6  11  275.79   10.22
   1   6  11  269.57   10.00
   1   6  11  243.96    9.99
  -2  -6 -11   68.59    2.67
  -2  -6 -11   70.92    2.66
  -2  -6 -11   70.28    2.66
   2   6  11   65.87    2.69
   2   6  11   66.56    2.65
  -3  -6 -11   46.24    1.75
  -3  -6 -11   43.65    1.76
   3   6  11   45.71    1.76
   3   6  11   44.61    1.79
  -3   7  11    1.38    0.22
  -3   7  11    1.34    0.21
  -3   7  11    1.67    0.23
   2  -7 -11    6.89    0.39
  -2   7  11    7.29    0.53
  -2   7  11    6.62    0.45
  -2   7  11    6.69    0.47
   1  -7 -11   85.23    3.35
   1  -7 -11   88.39    3.84
  -1   7  11   85.76    3.41
  -1   7  11   91.58    3.44
  -1   7  11   84.51    3.52
  -1   7  11   84.17    3.39
   0  -7 -11  182.44    7.54
   0  -7 -11  183.16    6.97
   0  -7 -11  177.87    6.98
   0   7  11  187.44    6.97
   0   7  11  189.72    7.20
   0   7  11  178.77    7.03
  -1  -7 -11   52.41    2.79
  -1  -7 -11   55.53    2.23
  -1  -7 -11   58.49    2.22
   1   7  11   53.47    2.25
   1   7  11   61.80    2.53
   1   7  11   58.76    2.25
  -2  -7 -11    1.75    0.23
  -2  -7 -11    1.43    0.17
  -2  -7 -11    1.36    0.18
   2   7  11    1.10    0.17
  -3  -7 -11    9.20    0.45
  -3  -7 -11   10.45    0.44
   3   7  11   10.78    0.49
   3   7  11    9.88    0.42
  -3   8  11   23.83    1.00
  -3   8  11   25.63    1.03
  -3   8  11   26.50    1.03
  -2   8  11  105.34    3.96
  -2   8  11   99.24    3.97
  -2   8  11   99.81    3.94
   1  -8 -11    2.18    0.24
   1  -8 -11    2.26    0.50
  -1   8  11    2.72    0.40
  -1   8  11    2.38    0.35
  -1   8  11    3.19    0.58
   0  -8 -11   26.89    1.10
   0  -8 -11   27.31    1.60
   0  -8 -11   26.25    1.12
   0   8  11   27.22    1.19
   0   8  11   26.66    1.09
   0   8  11   26.77    1.18
   0   8  11   29.08    1.42
  -1  -8 -11   53.16    2.19
  -1  -8 -11   54.75    2.80
  -1  -8 -11   59.57    2.18
   1   8  11   57.91    2.47
   1   8  11   54.23    2.19
   1   8  11   54.51    2.22
  -2  -8 -11   34.01    1.41
  -2  -8 -11   35.29    1.40
  -2  -8 -11   35.40    1.40
   2   8  11   35.05    1.42
  -3  -8 -11   46.77    1.77
  -3  -8 -11   43.11    1.77
   3   8  11   47.15    1.80
  -2   9  11   10.61    0.61
  -2   9  11   10.80    0.56
   1  -9 -11   46.30    1.89
  -1   9  11   50.33    1.95
  -1   9  11   45.61    2.07
  -1   9  11   49.56    1.99
   0  -9 -11   63.30    2.56
   0  -9 -11   66.11    3.06
   0  -9 -11   65.12    2.54
   0   9  11   59.00    2.62
   0   9  11   70.08    2.80
   0   9  11   67.15    2.60
   0   9  11   68.64    2.63
  -1  -9 -11    7.67    0.38
  -1  -9 -11    6.55    0.81
  -1  -9 -11    7.26    0.40
   1   9  11    7.57    0.40
   1   9  11    6.81    0.45
  -2  -9 -11    4.81    0.30
  -2  -9 -11    4.33    0.28
   2   9  11    4.35    0.31
   2   9  11    4.41    0.30
   2   9  11    3.47    0.65
  -3  -9 -11    0.14    0.08
  -3  -9 -11    0.17    0.08
   3   9  11    0.10    0.10
  -2  10  11   57.90    2.27
  -2  10  11   58.11    2.31
  -1  10  11   13.03    0.64
  -1  10  11   12.99    0.82
  -1  10  11   13.51    0.70
   0 -10 -11    3.46    0.27
   0  10  11    3.50    0.44
   0  10  11    3.65    0.31
   0  10  11    3.37    0.38
   0  10  11    5.10    0.62
  -1 -10 -11   19.35    0.84
  -1 -10 -11   19.96    0.87
   1  10  11   22.08    1.15
   1  10  11   19.81    0.91
   1  10  11   20.34    0.84
  -2 -10 -11   71.30    2.59
  -2 -10 -11   69.29    2.60
   2  10  11   60.52    2.71
   2  10  11   67.10    2.60
   2  10  11   66.84    2.60
  -3 -10 -11   30.61    1.15
   3  10  11   28.64    1.16
  -2  11  11   29.56    1.19
  -2  11  11   31.35    1.25
  -1  11  11   62.11    2.43
  -1  11  11   58.79    2.50
  -1  11  11   61.31    2.36
   0 -11 -11  107.07    4.05
   0  11  11  110.69    4.11
   0  11  11  108.16    4.24
   0  11  11   95.65    4.10
  -1 -11 -11   86.50    3.35
  -1 -11 -11   88.67    3.37
   1  11  11   88.42    3.41
   1  11  11   85.90    3.54
  -2 -11 -11    1.64    0.19
  -2 -11 -11    1.67    0.17
   2  11  11    1.48    0.23
   2  11  11    1.54    0.17
  -1  12  11   15.16    0.72
  -1  12  11   14.79    0.79
   0 -12 -11   29.06    1.19
   0  12  11   26.95    1.26
   0  12  11   30.80    1.25
   0  12  11   31.23    1.39
  -1 -12 -11   46.36    1.75
  -1 -12 -11   44.48    1.77
   1  12  11   45.76    1.81
   1  12  11   43.97    1.93
  -2 -12 -11   43.95    1.71
  -2 -12 -11   45.17    1.72
   2  12  11   43.86    1.72
  -1  13  11   55.56    2.09
  -1  13  11   51.26    2.14
   0 -13 -11   46.10    1.82
   0  13  11   46.91    1.97
   0  13  11   47.85    1.87
  -1 -13 -11   12.94    0.56
   1  13  11   13.19    0.73
   1  13  11   13.10    0.61
   0  14  11    1.70    0.21
   1   3 -12   31.50    1.31
   1   3 -12   32.30    1.30
  -1  -3  12   33.81    1.32
  -1  -3  12   38.14    1.35
   0   3 -12    2.90    0.20
   0   3 -12    2.80    0.22
   0  -3  12    2.94    0.21
   0  -3  12    2.92    0.17
  -1   3 -12    5.38    0.26
   1  -3  12    5.45    0.27
   1  -3  12    5.11    0.27
   1   2 -12   20.56    0.79
  -1  -2  12   18.56    0.80
   0   2 -12   44.46    1.71
   0   2 -12   43.98    1.70
   0  -2  12   42.69    1.73
   0  -2  12   43.95    1.70
  -1   2 -12   29.25    1.17
   1  -2  12   29.67    1.18
   1  -2  12   29.09    1.17
  -2   2 -12    7.18    0.32
   2  -2  12    7.20    0.33
   2   1 -12   34.12    1.33
  -2  -1  12   33.59    1.33
  -2  -1  12   35.35    1.37
   1   1 -12    6.63    0.30
   1   1 -12    7.39    0.34
   1   1 -12    6.43    0.35
  -1  -1  12    6.27    0.36
   0   1 -12    7.11    0.38
   0   1 -12    7.06    0.36
   0  -1  12    7.40    0.36
   0  -1  12    7.24    0.41
  -1   1 -12   17.89    0.71
  -1   1 -12   17.51    0.73
   1  -1  12   15.80    0.75
   1  -1  12   17.59    0.73
  -2   1 -12   25.62    1.00
   2  -1  12   26.64    1.01
   2  -1  12   22.95    1.01
   2   0 -12    4.45    0.25
   2   0 -12    4.27    0.25
  -2   0  12    4.22    0.24
  -2   0  12    4.62    0.34
   1   0 -12   57.26    2.40
   1   0 -12   66.73    2.41
   1   0 -12   62.84    2.40
  -1   0  12   60.58    2.42
   0   0 -12  102.61    4.08
   0   0 -12  107.43    4.11
   0   0 -12  110.80    4.10
   0   0  12  108.59    4.12
   0   0  12  104.37    4.13
   0   0  12  108.29    4.09
  -1   0 -12   37.55    1.53
  -1   0 -12   35.54    1.51
   1   0  12   36.82    1.53
   1   0  12   44.31    1.61
  -2   0 -12   10.22    0.47
   2   0  12   11.00    0.49
   2   0  12   10.03    0.49
   2  -1 -12   26.11    1.06
   2  -1 -12   26.54    1.08
  -2   1  12   25.45    1.05
  -2   1  12   28.04    1.15
   1  -1 -12    4.32    0.32
   1  -1 -12    4.47    0.29
  -1   1  12    4.52    0.32
  -1   1  12    4.23    0.33
   0  -1 -12   50.89    1.93
   0  -1 -12   47.98    1.93
   0  -1 -12   50.07    1.93
   0   1  12   47.96    1.90
   0   1  12   48.46    1.96
   0   1  12   47.97    1.96
  -1  -1 -12    6.39    0.36
  -1  -1 -12    6.96    0.35
   1   1  12    6.23    0.36
   1   1  12    6.43    0.41
  -2  -1 -12  109.61    4.17
  -2  -1 -12  107.87    4.17
  -2  -1 -12  105.03    4.14
   2   1  12  114.94    4.18
   2   1  12  107.66    4.20
  -3  -1 -12   31.41    1.25
  -3  -1 -12   31.08    1.24
   3   1  12   33.89    1.25
   2  -2 -12    3.11    0.27
   2  -2 -12    3.22    0.23
  -2   2  12    3.19    0.20
  -2   2  12    2.63    0.36
  -2   2  12    2.99    0.28
  -2   2  12    3.23    0.36
   1  -2 -12   22.51    0.91
   1  -2 -12   21.98    0.93
  -1   2  12   21.02    0.95
  -1   2  12   20.35    0.98
  -1   2  12   22.30    0.93
   0  -2 -12   22.32    0.91
   0  -2 -12   20.11    0.90
   0  -2 -12   22.54    0.92
   0  -2 -12   20.00    1.57
   0   2  12   22.44    0.95
  -1  -2 -12   19.06    0.79
  -1  -2 -12   18.39    0.80
  -1  -2 -12   18.82    0.81
   1   2  12   19.69    0.86
   1   2  12   18.60    0.81
  -2  -2 -12    0.38    0.11
  -2  -2 -12    0.28    0.12
   2   2  12    0.30    0.14
   2   2  12    0.48    0.17
  -3  -2 -12    4.91    0.28
  -3  -2 -12    5.00    0.25
   3   2  12    4.66    0.27
   3   2  12    5.43    0.27
   2  -3 -12    9.97    0.51
   2  -3 -12   10.83    0.48
  -2   3  12   10.35    0.44
  -2   3  12   10.54    0.61
  -2   3  12   10.71    0.59
  -2   3  12   10.57    0.54
   1  -3 -12   86.50    3.35
   1  -3 -12   85.72    3.37
  -1   3  12   87.55    3.42
  -1   3  12   86.23    3.39
  -1   3  12   87.74    3.36
   0  -3 -12    0.87    0.15
   0  -3 -12    0.79    0.14
   0  -3 -12    0.84    0.17
   0  -3 -12    0.32    0.37
   0   3  12    0.65    0.17
  -1  -3 -12    2.49    0.24
  -1  -3 -12    2.80    0.24
  -1  -3 -12    2.42    0.26
   1   3  12    2.62    0.32
   1   3  12    2.69    0.24
  -2  -3 -12   79.83    3.21
  -2  -3 -12   83.20    3.23
   2   3  12   81.53    3.23
   2   3  12   90.70    3.30
  -3  -3 -12   13.68    0.58
   3   3  12   14.84    0.59
   3   3  12   13.59    0.60
   2  -4 -12   10.63    0.48
   2  -4 -12   10.67    0.52
  -2   4  12   10.45    0.56
  -2   4  12    9.89    0.62
   1  -4 -12   58.87    2.27
   1  -4 -12   54.22    2.86
   1  -4 -12   58.42    2.24
  -1   4  12   56.72    2.32
  -1   4  12   57.24    2.30
  -1   4  12   57.82    2.24
   0  -4 -12  112.07    4.26
   0  -4 -12  111.05    4.24
   0  -4 -12  105.57    4.88
   0   4  12  106.07    4.28
   0   4  12  117.52    4.27
  -1  -4 -12  154.26    5.70
  -1  -4 -12  158.03    5.71
  -1  -4 -12  129.45    6.35
  -1  -4 -12  153.05    5.70
   1   4  12  144.65    5.68
   1   4  12  155.48    5.73
  -2  -4 -12    4.47    0.29
  -2  -4 -12    4.56    0.28
   2   4  12    4.73    0.35
   2   4  12    4.87    0.31
  -3  -4 -12    4.36    0.24
  -3  -4 -12    4.48    0.20
   3   4  12    3.93    0.27
   3   4  12    4.87    0.25
   2  -5 -12   36.48    1.51
   2  -5 -12   38.09    1.49
  -2   5  12   38.09    1.58
  -2   5  12   37.85    1.56
  -2   5  12   38.58    1.60
   1  -5 -12   65.52    2.52
   1  -5 -12   60.56    3.08
   1  -5 -12   65.09    2.49
  -1   5  12   61.99    2.58
  -1   5  12   63.67    2.58
  -1   5  12   64.67    2.48
  -1   5  12   66.69    2.57
   0  -5 -12  103.38    4.04
   0  -5 -12  101.90    4.66
   0  -5 -12  107.83    4.03
   0   5  12  100.70    4.07
   0   5  12  109.57    4.04
  -1  -5 -12   13.57    0.58
  -1  -5 -12   11.79    0.58
  -1  -5 -12   12.59    0.59
  -1  -5 -12   12.26    1.13
   1   5  12   13.04    0.63
  -2  -5 -12  110.22    4.26
  -2  -5 -12  116.16    4.25
  -2  -5 -12  105.49    4.27
   2   5  12  114.45    4.26
   2   5  12  110.98    4.30
  -3  -5 -12   21.67    0.84
  -3  -5 -12   20.16    0.81
   3   5  12   20.52    0.83
   3   5  12   20.38    0.86
   2  -6 -12   22.40    0.95
  -2   6  12   22.32    1.01
  -2   6  12   23.32    1.01
  -2   6  12   23.00    1.05
   1  -6 -12  241.76    9.20
   1  -6 -12  233.61    9.80
   1  -6 -12  240.32    9.22
  -1   6  12  239.15    9.16
  -1   6  12  255.92    9.28
  -1   6  12  241.78    9.27
  -1   6  12  245.72    9.29
   0  -6 -12   24.72    1.00
   0  -6 -12   23.24    1.02
   0  -6 -12   23.97    1.54
   0   6  12   23.56    1.01
   0   6  12   24.80    1.08
   0   6  12   24.03    1.36
  -1  -6 -12    5.79    0.36
  -1  -6 -12    5.42    0.33
  -1  -6 -12    5.48    0.77
   1   6  12    5.80    0.38
  -2  -6 -12   16.23    0.73
  -2  -6 -12   17.97    0.73
  -2  -6 -12   17.33    0.73
   2   6  12   16.84    0.77
  -3  -6 -12   22.59    0.89
  -3  -6 -12   23.33    0.87
   3   6  12   21.93    0.86
   3   6  12   20.51    0.91
   2  -7 -12   14.50    0.66
  -2   7  12   14.07    0.69
  -2   7  12   15.45    0.73
  -2   7  12   15.17    0.76
   1  -7 -12    0.26    0.11
   1  -7 -12    0.48    0.14
  -1   7  12    0.25    0.18
  -1   7  12    0.23    0.38
  -1   7  12    0.42    0.20
  -1   7  12    0.42    0.23
   0  -7 -12   12.55    1.07
   0  -7 -12   12.75    0.61
   0  -7 -12   13.06    0.58
   0   7  12   14.91    1.01
   0   7  12   12.22    0.68
   0   7  12   12.73    0.67
   0   7  12   12.49    0.58
  -1  -7 -12   49.83    1.93
  -1  -7 -12   45.44    2.52
  -1  -7 -12   51.62    1.92
   1   7  12   45.75    1.94
   1   7  12   49.11    1.94
   1   7  12   50.13    2.22
  -2  -7 -12   40.15    1.56
  -2  -7 -12   36.18    1.56
  -2  -7 -12   39.30    1.56
   2   7  12   41.72    1.59
  -3  -7 -12   28.43    1.14
  -3  -7 -12   29.04    1.13
   3   7  12   29.62    1.17
   2  -8 -12    5.53    0.32
  -2   8  12    5.48    0.38
  -2   8  12    4.92    0.33
  -2   8  12    5.88    0.45
   1  -8 -12   18.20    0.82
  -1   8  12   19.54    0.88
  -1   8  12   20.10    0.91
  -1   8  12   17.95    1.04
   0  -8 -12   71.46    2.75
   0  -8 -12   70.32    2.77
   0  -8 -12   67.81    3.30
   0   8  12   72.12    2.83
   0   8  12   71.26    2.82
   0   8  12   74.06    3.02
   0   8  12   71.18    2.73
  -1  -8 -12   36.59    1.49
  -1  -8 -12   35.76    1.47
   1   8  12   34.49    1.50
   1   8  12   39.88    1.81
   1   8  12   38.30    1.49
  -2  -8 -12    0.62    0.13
  -2  -8 -12    0.80    0.14
   2   8  12    0.69    0.15
  -3  -8 -12   19.11    0.75
  -3  -8 -12   18.39    0.75
   3   8  12   18.95    0.77
  -2   9  12   55.86    2.20
  -2   9  12   55.99    2.23
   1  -9 -12    7.08    0.38
  -1   9  12    7.07    0.49
  -1   9  12    6.74    0.45
  -1   9  12    7.58    0.68
   0  -9 -12    0.00    0.11
   0  -9 -12    0.19    0.10
   0   9  12    0.18    0.21
   0   9  12    1.00    0.43
   0   9  12    0.13    0.17
  -1  -9 -12   83.46    3.16
  -1  -9 -12   83.97    3.18
   1   9  12   77.26    3.20
   1   9  12   81.94    3.17
   1   9  12   83.84    3.40
  -2  -9 -12   94.62    3.65
  -2  -9 -12   97.03    3.65
   2   9  12   93.93    3.66
  -3  -9 -12   16.02    0.63
   3   9  12   15.58    0.65
  -2  10  12   22.07    0.96
  -2  10  12   22.63    0.92
   1 -10 -12  121.09    4.73
  -1  10  12  127.82    4.80
  -1  10  12  126.44    4.76
  -1  10  12  119.77    4.85
   0 -10 -12   99.09    3.97
   0 -10 -12  100.88    3.94
   0  10  12  105.42    4.03
   0  10  12  106.30    3.99
   0  10  12  104.87    4.17
  -1 -10 -12    2.25    0.24
  -1 -10 -12    2.01    0.19
   1  10  12    1.66    0.23
   1  10  12    2.11    0.30
   1  10  12    1.94    0.18
  -2 -10 -12    0.64    0.12
  -2 -10 -12    0.62    0.11
   2  10  12    0.65    0.12
  -2  11  12   18.81    0.79
  -1  11  12    2.18    0.22
  -1  11  12    2.46    0.45
  -1  11  12    2.52    0.32
   0 -11 -12   23.56    1.02
   0  11  12   24.94    1.09
   0  11  12   26.52    1.26
  -1 -11 -12   46.45    1.80
  -1 -11 -12   46.78    1.82
   1  11  12   45.65    2.00
   1  11  12   45.91    1.85
  -2 -11 -12   54.03    2.10
  -2 -11 -12   55.60    2.10
   2  11  12   53.93    2.09
  -1  12  12   25.36    1.18
  -1  12  12   28.32    1.13
   0 -12 -12   42.39    1.76
   0  12  12   45.57    1.93
   0  12  12   47.68    1.82
  -1 -12 -12   16.15    0.66
  -1 -12 -12   16.57    0.69
   1  12  12   16.67    0.88
   1  12  12   15.74    0.72
  -2 -12 -12   21.75    0.84
  -2 -12 -12   20.81    0.84
   0 -13 -12   26.82    1.09
   0  13  12   27.31    1.23
   0  13  12   28.79    1.14
  -1 -13 -12   27.82    1.08
   1  13  12   28.28    1.11
   1  13  12   26.18    1.18
   0   2 -13    3.78    0.21
   0  -2  13    3.70    0.22
  -1   2 -13    5.90    0.26
   1  -2  13    5.34    0.27
   1  -2  13    5.68    0.25
   1   1 -13   54.34    2.07
  -1  -1  13   53.77    2.08
   0   1 -13   33.62    1.33
   0   1 -13   32.84    1.35
   0  -1  13   36.55    1.37
  -1   1 -13   19.79    0.83
   1  -1  13   21.84    0.83
   1  -1  13   20.50    0.85
   1   0 -13    2.18    0.18
  -1   0  13    2.15    0.20
   0   0 -13    0.26    0.11
   0   0 -13    0.26    0.11
   0   0  13    0.12    0.14
  -1   0 -13   63.77    2.47
  -1   0 -13   66.00    2.49
   1   0  13   64.42    2.50
   1   0  13   64.23    2.48
   1   0  13   64.88    2.52
  -2   0 -13   25.64    0.97
   2   0  13   23.84    0.96
   2   0  13   24.00    0.98
   2  -1 -13    1.72    0.15
   2  -1 -13    1.73    0.14
  -2   1  13    1.77    0.24
   1  -1 -13    3.43    0.24
   1  -1 -13    3.36    0.24
  -1   1  13    3.01    0.24
  -1   1  13    3.47    0.25
   0  -1 -13   69.41    2.74
   0  -1 -13   73.03    2.76
   0  -1 -13   71.74    2.76
   0   1  13   70.84    2.77
   0   1  13   72.15    2.78
  -1  -1 -13    4.88    0.27
  -1  -1 -13    3.82    0.27
   1   1  13    4.80    0.27
   1   1  13    4.84    0.32
  -2  -1 -13    0.09    0.09
   2   1  13    0.06    0.11
   2   1  13    0.07    0.09
   2  -2 -13   45.31    1.81
   2  -2 -13   47.17    1.82
  -2   2  13   48.32    1.87
   1  -2 -13    2.95    0.26
   1  -2 -13    2.85    0.23
  -1   2  13    2.68    0.28
  -1   2  13    2.98    0.24
   0  -2 -13    0.97    0.14
   0  -2 -13    1.42    0.19
   0  -2 -13    1.41    0.22
   0   2  13    1.56    0.22
   0   2  13    1.50    0.20
  -1  -2 -13   69.90    2.62
  -1  -2 -13   67.17    2.63
   1   2  13   66.21    2.66
   1   2  13   67.98    2.61
  -2  -2 -13   39.16    1.52
  -2  -2 -13   39.42    1.54
   2   2  13   37.99    1.56
   2   2  13   40.41    1.53
   2  -3 -13   38.51    1.49
   2  -3 -13   37.17    1.47
  -2   3  13   35.81    1.51
  -2   3  13   37.25    1.48
  -2   3  13   39.79    1.54
   1  -3 -13   70.29    2.75
   1  -3 -13   73.76    2.77
  -1   3  13   69.95    2.79
  -1   3  13   71.26    2.75
  -1   3  13   70.51    2.79
   0  -3 -13   81.79    3.09
   0  -3 -13   81.81    3.08
   0   3  13   73.66    3.10
   0   3  13   81.83    3.13
  -1  -3 -13    2.52    0.22
  -1  -3 -13    2.53    0.23
  -1  -3 -13    2.43    0.22
   1   3  13    2.56    0.20
   1   3  13    2.62    0.28
  -2  -3 -13    0.40    0.10
  -2  -3 -13    0.47    0.11
   2   3  13    0.45    0.11
   2   3  13    0.40    0.15
   2  -4 -13   36.23    1.48
   2  -4 -13   38.26    1.50
  -2   4  13   36.26    1.54
  -2   4  13   40.43    1.56
  -2   4  13   38.76    1.52
   1  -4 -13    5.47    0.35
   1  -4 -13    5.48    0.32
  -1   4  13    5.32    0.31
  -1   4  13    5.28    0.41
  -1   4  13    5.17    0.41
  -1   4  13    5.30    0.45
   0  -4 -13   25.92    1.07
   0  -4 -13   26.56    1.06
   0   4  13   24.25    1.07
  -1  -4 -13   29.16    1.19
  -1  -4 -13   30.15    1.19
  -1  -4 -13   29.52    1.19
   1   4  13   28.10    1.22
  -2  -4 -13   21.51    0.88
  -2  -4 -13   21.65    0.87
   2   4  13   20.88    0.91
   2   4  13   21.72    0.87
  -3  -4 -13   38.78    1.41
  -3  -4 -13   35.73    1.40
   3   4  13   34.75    1.42
   2  -5 -13   78.23    3.04
   2  -5 -13   76.88    3.02
  -2   5  13   78.88    3.09
  -2   5  13   79.55    3.09
  -2   5  13   81.57    3.07
   1  -5 -13   10.86    0.50
   1  -5 -13   10.64    0.53
  -1   5  13   10.42    0.47
  -1   5  13   10.31    0.59
  -1   5  13   10.82    0.59
  -1   5  13   11.49    0.63
   0  -5 -13   74.43    2.86
   0  -5 -13   73.31    2.88
   0   5  13   72.82    2.87
   0   5  13   75.55    2.91
   0   5  13   73.44    2.93
  -1  -5 -13   28.45    1.14
  -1  -5 -13   26.43    1.14
  -1  -5 -13   28.17    1.15
   1   5  13   28.74    1.17
  -2  -5 -13   14.25    0.62
  -2  -5 -13   15.39    0.62
   2   5  13   13.67    0.65
  -3  -5 -13    0.43    0.08
   3   5  13    0.29    0.09
   2  -6 -13    4.52    0.29
  -2   6  13    4.34    0.40
  -2   6  13    4.38    0.34
  -2   6  13    4.79    0.35
   1  -6 -13   19.78    0.82
   1  -6 -13   19.83    0.85
  -1   6  13   19.95    0.91
  -1   6  13   19.07    0.89
  -1   6  13   19.22    0.92
   0  -6 -13   12.34    0.55
   0  -6 -13   11.75    0.57
   0   6  13   11.36    0.63
   0   6  13   11.91    0.56
   0   6  13   12.41    0.64
  -1  -6 -13   88.70    3.38
  -1  -6 -13   88.31    3.38
   1   6  13   85.76    3.39
  -2  -6 -13   51.55    1.96
  -2  -6 -13   54.54    1.98
  -2  -6 -13   49.54    1.98
   2   6  13   47.99    2.01
  -3  -6 -13    7.82    0.33
  -3  -6 -13    8.32    0.35
   3   6  13    8.89    0.38
   2  -7 -13   15.38    0.68
  -2   7  13   15.73    0.71
  -2   7  13   16.85    0.74
  -2   7  13   16.31    0.76
   1  -7 -13   65.70    2.44
   1  -7 -13   61.83    2.46
  -1   7  13   61.46    2.48
  -1   7  13   64.33    2.53
  -1   7  13   62.30    2.51
   0  -7 -13   40.75    1.57
   0  -7 -13   39.72    1.59
   0   7  13   40.29    1.64
   0   7  13   36.53    1.62
   0   7  13   40.14    1.56
  -1  -7 -13   50.85    2.00
  -1  -7 -13   50.77    1.98
   1   7  13   50.15    2.00
  -2  -7 -13   17.50    0.74
  -2  -7 -13   19.19    0.74
  -2  -7 -13   17.89    0.73
   2   7  13   16.62    0.77
  -3  -7 -13   11.97    0.47
   3   7  13   11.73    0.50
   2  -8 -13   16.77    0.70
  -2   8  13   15.66    0.69
  -2   8  13   17.45    0.78
  -2   8  13   17.62    0.75
   1  -8 -13    4.02    0.29
  -1   8  13    3.84    0.36
  -1   8  13    5.06    0.41
   0  -8 -13   86.70    3.33
   0  -8 -13   85.10    3.30
   0   8  13   85.98    3.28
   0   8  13   88.27    3.37
   0   8  13   86.22    3.53
   0   8  13   83.47    3.36
  -1  -8 -13   50.89    1.91
  -1  -8 -13   49.50    1.89
   1   8  13   44.87    1.90
   1   8  13   47.11    1.89
  -2  -8 -13   51.90    1.93
  -2  -8 -13   50.23    1.92
   2   8  13   46.77    1.94
  -2   9  13   69.68    2.68
  -2   9  13   68.93    2.70
   1  -9 -13   72.98    2.78
  -1   9  13   74.92    2.82
  -1   9  13   67.11    2.88
  -1   9  13   72.58    2.84
   0  -9 -13   22.24    0.96
   0  -9 -13   23.23    0.93
   0   9  13   24.01    1.23
   0   9  13   22.47    1.01
   0   9  13   22.51    1.00
  -1  -9 -13    2.58    0.24
  -1  -9 -13    2.14    0.20
   1   9  13    2.40    0.21
   1   9  13    2.57    0.54
   1   9  13    2.43    0.28
   1   9  13    2.12    0.28
  -2  -9 -13   10.08    0.44
  -2  -9 -13    9.77    0.44
   2   9  13    9.86    0.45
   1 -10 -13    3.04    0.23
  -1  10  13    3.35    0.45
  -1  10  13    3.94    0.35
  -1  10  13    3.73    0.29
   0 -10 -13   14.04    0.63
   0 -10 -13   14.04    0.60
   0  10  13   14.27    0.66
   0  10  13   14.22    0.70
   0  10  13   15.91    0.92
  -1 -10 -13   77.67    2.82
  -1 -10 -13   73.49    2.80
   1  10  13   70.33    2.99
   1  10  13   71.44    2.82
   1  10  13   71.72    2.83
   1  10  13   72.66    2.77
  -2 -10 -13   32.32    1.24
  -2 -10 -13   31.65    1.24
   2  10  13   30.92    1.24
   1 -11 -13   69.39    2.77
  -1  11  13   78.47    2.83
  -1  11  13   73.68    2.78
  -1  11  13   68.23    2.85
   0 -11 -13   27.17    1.09
   0  11  13   27.80    1.15
   0  11  13   25.50    1.09
   0  11  13   28.42    1.30
  -1 -11 -13    0.68    0.12
  -1 -11 -13    0.77    0.10
   1  11  13    0.96    0.18
   1  11  13    0.67    0.35
  -2 -11 -13    0.54    0.08
  -2 -11 -13    0.41    0.08
  -1  12  13    0.29    0.16
   0 -12 -13   38.33    1.54
   0  12  13   41.23    1.59
   0  12  13   39.51    1.69
  -1 -12 -13   13.79    0.57
  -1 -12 -13   13.56    0.54
   1  12  13   13.39    0.59
   1  12  13   12.77    0.72
   0   0 -14    5.85    0.29
   0   0 -14    6.70    0.29
   0   0  14    6.70    0.32
  -1   0 -14   11.94    0.49
   1   0  14   11.83    0.51
   1  -1 -14    0.46    0.09
  -1   1  14    0.54    0.18
  -1   1  14    0.44    0.09
   0  -1 -14   21.95    0.93
   0  -1 -14   24.11    0.94
   0   1  14   24.11    0.95
  -1  -1 -14   18.51    0.83
  -1  -1 -14   21.70    0.82
   1   1  14   22.26    0.84
   1   1  14   20.40    0.85
   1  -2 -14   47.80    1.85
   1  -2 -14   49.28    1.85
  -1   2  14   45.96    1.84
  -1   2  14   45.83    1.84
  -1   2  14   50.14    1.91
   0  -2 -14    5.85    0.29
   0  -2 -14    5.24    0.30
   0  -2 -14    6.47    0.31
   0   2  14    6.02    0.35
   0   2  14    5.81    0.33
  -1  -2 -14    0.13    0.09
  -1  -2 -14    0.16    0.09
   1   2  14    0.33    0.14
  -2  -2 -14    0.94    0.12
   2   2  14    0.93    0.12
   1  -3 -14    1.00    0.13
   1  -3 -14    0.62    0.13
  -1   3  14    0.88    0.16
  -1   3  14    0.77    0.22
  -1   3  14    0.85    0.12
   0  -3 -14    1.34    0.20
   0  -3 -14    1.73    0.19
   0   3  14    1.37    0.21
   0   3  14    1.59    0.21
  -1  -3 -14   42.59    1.72
  -1  -3 -14   47.60    1.72
   1   3  14   41.75    1.74
  -2  -3 -14   23.24    0.95
  -2  -3 -14   24.02    0.94
   2   3  14   25.18    0.98
   2  -4 -14    1.23    0.15
  -2   4  14    1.31    0.20
   1  -4 -14   47.33    1.81
   1  -4 -14   48.58    1.83
  -1   4  14   46.23    1.79
  -1   4  14   46.62    1.87
  -1   4  14   44.05    1.83
  -1   4  14   46.83    1.85
   0  -4 -14   77.39    2.98
   0  -4 -14   74.39    2.97
   0   4  14   78.32    2.98
   0   4  14   78.13    3.01
  -1  -4 -14    1.31    0.18
  -1  -4 -14    1.46    0.18
  -1  -4 -14    1.29    0.17
   1   4  14    1.59    0.20
  -2  -4 -14    1.16    0.13
  -2  -4 -14    1.01    0.13
   2   4  14    1.05    0.14
   2  -5 -14   48.93    1.87
  -2   5  14   46.57    1.88
  -2   5  14   48.82    1.89
  -2   5  14   48.83    1.87
   1  -5 -14   16.80    0.71
   1  -5 -14   16.56    0.68
  -1   5  14   15.79    0.74
  -1   5  14   16.90    0.74
  -1   5  14   16.16    0.74
  -1   5  14   15.40    0.64
   0  -5 -14   23.35    0.97
   0  -5 -14   23.62    0.95
   0   5  14   22.07    0.95
   0   5  14   23.43    1.01
  -1  -5 -14   42.00    1.64
  -1  -5 -14   42.23    1.64
   1   5  14   41.16    1.66
  -2  -5 -14   60.62    2.46
  -2  -5 -14   68.12    2.46
   2   5  14   63.65    2.49
   2  -6 -14   52.04    2.00
  -2   6  14   50.46    2.02
  -2   6  14   52.91    2.01
  -2   6  14   51.73    2.01
   1  -6 -14   62.23    2.35
   1  -6 -14   59.04    2.32
  -1   6  14   61.46    2.38
  -1   6  14   61.05    2.38
  -1   6  14   57.56    2.36
   0  -6 -14   32.68    1.28
   0  -6 -14   33.11    1.30
   0   6  14   28.66    1.30
   0   6  14   32.61    1.34
   0   6  14   32.82    1.28
  -1  -6 -14    4.02    0.26
  -1  -6 -14    3.63    0.27
   1   6  14    3.85    0.28
  -2  -6 -14    0.25    0.10
  -2  -6 -14    0.28    0.09
   2   6  14    0.27    0.13
   2  -7 -14   14.02    0.59
  -2   7  14   14.56    0.62
  -2   7  14   13.92    0.63
   1  -7 -14   24.81    0.99
   1  -7 -14   23.81    0.95
  -1   7  14   23.92    1.04
  -1   7  14   25.57    1.03
  -1   7  14   21.84    0.98
   0  -7 -14   38.58    1.57
   0  -7 -14   41.04    1.55
   0   7  14   39.59    1.53
   0   7  14   37.49    1.59
   0   7  14   40.34    1.61
  -1  -7 -14   59.67    2.25
  -1  -7 -14   58.29    2.26
   1   7  14   56.08    2.26
  -2  -7 -14   13.45    0.56
   2   7  14   13.15    0.58
   1  -8 -14   28.07    1.15
  -1   8  14   27.72    1.19
  -1   8  14   29.91    1.21
   0  -8 -14   17.77    0.76
   0  -8 -14   18.00    0.74
   0   8  14   18.16    0.81
   0   8  14   17.16    0.80
  -1  -8 -14    0.61    0.12
  -1  -8 -14    0.55    0.12
   1   8  14    0.57    0.17
   1   8  14    0.64    0.13
  -2  -8 -14   11.21    0.46
  -2  -8 -14    9.70    0.43
   2   8  14   11.00    0.47
   1  -9 -14    0.10    0.10
  -1   9  14    0.31    0.17
  -1   9  14    0.37    0.20
   0  -9 -14   46.16    1.78
   0  -9 -14   46.09    1.81
   0   9  14   45.19    1.83
   0   9  14   46.40    1.84
  -1  -9 -14   44.39    1.73
  -1  -9 -14   43.78    1.71
   1   9  14   44.51    1.70
   1   9  14   43.67    1.75
  -2  -9 -14   34.18    1.31
  -2  -9 -14   33.69    1.29
   2   9  14   34.51    1.31
   2   9  14   32.21    1.31
   1 -10 -14   37.86    1.51
  -1  10  14   40.65    1.56
  -1  10  14   38.14    1.53
   0 -10 -14   10.71    0.47
   0 -10 -14   10.15    0.44
   0  10  14    9.57    0.70
   0  10  14   10.32    0.52
   0  10  14   10.69    0.50
  -1 -10 -14    0.71    0.12
  -1 -10 -14    0.50    0.09
   1  10  14    0.57    0.14
  -2 -10 -14   16.22    0.65
  -1  11  14   11.53    0.54
   0 -11 -14    4.64    0.25
   0  11  14    5.05    0.32
   0  11  14    3.63    0.48
   0  11  14    4.21    0.24
  -1 -11 -14  117.61    4.40
  -1 -11 -14  113.66    4.38
   0 -12 -14   24.06    0.96
   0  12  14   24.79    0.99
   0  -2 -15   18.28    0.72
   0   2  15   17.73    0.73
  -1  -2 -15   27.90    1.07
   1   2  15   27.42    1.09
   1  -3 -15   42.56    1.63
   1  -3 -15   41.48    1.62
  -1   3  15   43.01    1.66
   0  -3 -15    6.89    0.31
   0   3  15    6.37    0.32
   0   3  15    6.50    0.34
  -1  -3 -15    5.29    0.26
   1   3  15    5.62    0.30
   1   3  15    5.42    0.29
   1  -4 -15    7.64    0.35
   1  -4 -15    7.72    0.34
  -1   4  15    7.65    0.37
  -1   4  15    7.57    0.38
   0  -4 -15   39.15    1.50
   0  -4 -15   38.19    1.51
   0   4  15   37.29    1.53
   0   4  15   40.12    1.54
   0   4  15   38.51    1.51
  -1  -4 -15   36.69    1.39
   1   4  15   36.64    1.43
   1   4  15   34.04    1.41
   1  -5 -15   30.21    1.18
   1  -5 -15   30.97    1.20
  -1   5  15   29.40    1.21
  -1   5  15   30.56    1.21
   0  -5 -15    7.37    0.36
   0  -5 -15    7.44    0.35
   0   5  15    7.26    0.41
   0   5  15    6.64    0.35
   0   5  15    7.32    0.34
  -1  -5 -15    0.63    0.09
  -1  -5 -15    0.84    0.11
   1   5  15    0.97    0.13
   1   5  15    0.91    0.17
   1  -6 -15    2.43    0.16
   1  -6 -15    2.50    0.20
  -1   6  15    2.43    0.25
   0  -6 -15   31.44    1.24
   0  -6 -15   31.38    1.23
   0   6  15   30.16    1.21
   0   6  15   31.60    1.28
  -1  -6 -15   40.59    1.58
  -1  -6 -15   40.66    1.59
   1   6  15   40.35    1.60
   1   6  15   42.08    1.63
  -2  -6 -15   24.60    0.91
   2   6  15   22.30    0.93
   1  -7 -15   10.78    0.48
  -1   7  15   11.73    0.52
  -1   7  15   10.34    0.50
   0  -7 -15   25.49    1.04
   0  -7 -15   26.07    1.06
   0   7  15   27.19    1.10
  -1  -7 -15    0.30    0.10
  -1  -7 -15    0.38    0.09
   1   7  15    0.35    0.10
   1   7  15    0.25    0.14
   1  -8 -15   17.41    0.70
  -1   8  15   17.70    0.74
  -1   8  15   16.37    0.72
   0  -8 -15   33.11    1.32
   0  -8 -15   33.95    1.34
   0   8  15   34.61    1.37
  -1  -8 -15   51.65    1.96
  -1  -8 -15   51.88    1.95
   1   8  15   50.34    1.99
   1   8  15   48.74    1.94
   1  -9 -15   17.45    0.71
  -1   9  15   17.38    0.73
  -1   9  15   17.85    0.73
   0  -9 -15   11.21    0.48
   0  -9 -15   11.58    0.51
   0   9  15   11.71    0.53
  -1  -9 -15    5.86    0.27
  -1  -9 -15    5.54    0.28
   1   9  15    5.24    0.31
   0 -10 -15   88.24    3.35
   0  10  15   87.38    3.36
  -1 -10 -15   13.82    0.56
  -1 -10 -15   13.97    0.57
   0  -6 -16    0.07    0.07
   0  -6 -16    0.05    0.06
   0   6  16    0.19    0.12
   0  -7 -16   53.13    2.03
   0  -7 -16   50.99    2.02
   0   7  16   54.59    2.05
   0   0   0    0.00    0.00
;
_shelx_hkl_checksum              59019
loop_
_space_group_symop_operation_xyz
'x, y, z'
'-x, -y, -z'
loop_
_atom_site_label
_atom_site_type_symbol
_atom_site_fract_x
_atom_site_fract_y
_atom_site_fract_z
_atom_site_U_iso_or_equiv
_atom_site_adp_type
_atom_site_occupancy
_atom_site_site_symmetry_order
_atom_site_calc_flag
_atom_site_refinement_flags_posn
_atom_site_refinement_flags_adp
Br1 Br 1.09642(4) 0.25723(2) 0.79190(2) 0.01811(8) Uani 1 1 d . .
N1 N 0.6437(4) 0.52571(14) 0.61910(12) 0.0153(3) Uani 1 1 d D .
H1X H 0.644(6) 0.4611(18) 0.5978(18) 0.018 Uiso 1 1 d D U
N2 N 0.7419(4) 0.59251(13) 0.76079(12) 0.0137(3) Uani 1 1 d . .
N3 N 0.8938(4) 0.55522(14) 0.86373(12) 0.0160(3) Uani 1 1 d . .
O1 O 0.3529(3) 0.65437(12) 0.46265(10) 0.0213(3) Uani 1 1 d . .
C1 C 0.6999(5) 0.92531(17) 0.67532(15) 0.0196(4) Uani 1 1 d . .
H1 H 0.7814 0.9484 0.5985 0.024 Uiso 1 1 calc R U
C2 C 0.6936(5) 1.01412(17) 0.71815(17) 0.0231(4) Uani 1 1 d . .
H2 H 0.7714 1.0975 0.6709 0.028 Uiso 1 1 calc R U
C3 C 0.5727(5) 0.97988(18) 0.83062(17) 0.0219(4) Uani 1 1 d . .
H3 H 0.5716 1.0397 0.8606 0.026 Uiso 1 1 calc R U
C4 C 0.4537(5) 0.85879(18) 0.89918(16) 0.0199(4) Uani 1 1 d . .
H4 H 0.3661 0.8367 0.9753 0.024 Uiso 1 1 calc R U
C5 C 0.4619(4) 0.76991(17) 0.85721(15) 0.0170(3) Uani 1 1 d . .
H5 H 0.3827 0.6868 0.9047 0.020 Uiso 1 1 calc R U
C6 C 0.5872(4) 0.80285(16) 0.74475(14) 0.0154(3) Uani 1 1 d . .
C7 C 0.5957(4) 0.71022(16) 0.69766(14) 0.0149(3) Uani 1 1 d . .
C8 C 0.4740(5) 0.73201(16) 0.59536(14) 0.0170(3) Uani 1 1 d . .
H8 H 0.3776 0.8126 0.5495 0.020 Uiso 1 1 calc R U
C9 C 0.4844(4) 0.63743(16) 0.55257(14) 0.0164(3) Uani 1 1 d . .
C10 C 0.7755(4) 0.50306(15) 0.72144(14) 0.0135(3) Uani 1 1 d . .
C11 C 0.9528(4) 0.40390(16) 0.80151(14) 0.0152(3) Uani 1 1 d . .
C12 C 1.0181(4) 0.44146(16) 0.88676(14) 0.0157(3) Uani 1 1 d . .
H12 H 1.1382 0.3907 0.9535 0.019 Uiso 1 1 calc R U
loop_
_atom_site_aniso_label
_atom_site_aniso_U_11
_atom_site_aniso_U_22
_atom_site_aniso_U_33
_atom_site_aniso_U_23
_atom_site_aniso_U_13
_atom_site_aniso_U_12
Br1 0.02090(12) 0.01458(11) 0.02215(11) -0.01123(8) -0.00315(7) 0.00444(7)
N1 0.0208(7) 0.0144(7) 0.0133(6) -0.0086(6) -0.0015(5) 0.0004(6)
N2 0.0178(7) 0.0125(7) 0.0120(6) -0.0065(5) -0.0020(5) 0.0007(5)
N3 0.0198(7) 0.0167(7) 0.0130(6) -0.0076(6) -0.0039(5) 0.0012(6)
O1 0.0321(7) 0.0184(6) 0.0163(6) -0.0099(5) -0.0070(5) 0.0041(5)
C1 0.0258(9) 0.0146(8) 0.0175(8) -0.0063(7) -0.0026(7) 0.0013(7)
C2 0.0301(10) 0.0127(8) 0.0263(9) -0.0082(7) -0.0047(8) 0.0009(7)
C3 0.0250(9) 0.0188(9) 0.0291(9) -0.0168(8) -0.0072(7) 0.0057(7)
C4 0.0211(9) 0.0219(9) 0.0203(8) -0.0131(7) -0.0016(7) 0.0042(7)
C5 0.0174(8) 0.0163(8) 0.0187(8) -0.0090(7) -0.0020(6) 0.0020(6)
C6 0.0168(8) 0.0140(8) 0.0174(8) -0.0086(7) -0.0039(6) 0.0028(6)
C7 0.0166(8) 0.0123(8) 0.0158(8) -0.0064(6) 0.0011(6) 0.0000(6)
C8 0.0225(9) 0.0129(8) 0.0155(8) -0.0064(6) -0.0027(6) 0.0029(6)
C9 0.0195(8) 0.0160(8) 0.0141(8) -0.0072(7) -0.0008(6) 0.0001(6)
C10 0.0153(8) 0.0129(8) 0.0135(7) -0.0072(6) 0.0018(6) -0.0014(6)
C11 0.0173(8) 0.0132(8) 0.0163(8) -0.0077(6) -0.0006(6) 0.0008(6)
C12 0.0181(8) 0.0146(8) 0.0146(7) -0.0066(6) -0.0021(6) 0.0006(6)
loop_
_atom_type_symbol
_atom_type_description
_atom_type_scat_dispersion_real
_atom_type_scat_dispersion_imag
_atom_type_scat_source
C C 0.0181 0.0091 'International Tables Vol C Tables 4.2.6.8 and 6.1.1.4'
H H 0.0000 0.0000 'International Tables Vol C Tables 4.2.6.8 and 6.1.1.4'
Br Br -0.6763 1.2805 'International Tables Vol C Tables 4.2.6.8 and 6.1.1.4'
N N 0.0311 0.0180 'International Tables Vol C Tables 4.2.6.8 and 6.1.1.4'
O O 0.0492 0.0322 'International Tables Vol C Tables 4.2.6.8 and 6.1.1.4'
loop_
_geom_angle_atom_site_label_1
_geom_angle_atom_site_label_2
_geom_angle_atom_site_label_3
_geom_angle
C9 N1 C10 121.87(14)
C9 N1 H1X 118.9(14)
C10 N1 H1X 118.9(14)
C10 N2 N3 112.11(13)
C10 N2 C7 122.54(14)
N3 N2 C7 125.15(14)
C12 N3 N2 103.78(13)
C2 C1 C6 120.28(17)
C2 C1 H1 119.9
C6 C1 H1 119.9
C3 C2 C1 119.56(17)
C3 C2 H2 120.2
C1 C2 H2 120.2
C4 C3 C2 120.29(17)
C4 C3 H3 119.9
C2 C3 H3 119.9
C5 C4 C3 120.32(17)
C5 C4 H4 119.8
C3 C4 H4 119.8
C4 C5 C6 119.85(16)
C4 C5 H5 120.1
C6 C5 H5 120.1
C1 C6 C5 119.68(16)
C1 C6 C7 119.42(15)
C5 C6 C7 120.88(15)
C8 C7 N2 116.77(15)
C8 C7 C6 124.69(16)
N2 C7 C6 118.53(14)
C7 C8 C9 122.93(16)
C7 C8 H8 118.5
C9 C8 H8 118.5
O1 C9 N1 121.08(15)
O1 C9 C8 122.93(16)
N1 C9 C8 115.97(15)
N2 C10 N1 119.76(15)
N2 C10 C11 106.37(14)
N1 C10 C11 133.86(16)
C10 C11 C12 105.10(15)
C10 C11 Br1 126.45(13)
C12 C11 Br1 128.33(13)
N3 C12 C11 112.63(15)
N3 C12 H12 123.7
C11 C12 H12 123.7
loop_
_geom_bond_atom_site_label_1
_geom_bond_atom_site_label_2
_geom_bond_distance
Br1 C11 1.8621(17)
N1 C9 1.369(2)
N1 C10 1.370(2)
N1 H1X 0.924(16)
N2 C10 1.368(2)
N2 N3 1.3791(19)
N2 C7 1.387(2)
N3 C12 1.324(2)
O1 C9 1.240(2)
C1 C2 1.394(3)
C1 C6 1.394(2)
C1 H1 0.9500
C2 C3 1.391(3)
C2 H2 0.9500
C3 C4 1.387(3)
C3 H3 0.9500
C4 C5 1.386(3)
C4 H4 0.9500
C5 C6 1.399(2)
C5 H5 0.9500
C6 C7 1.477(2)
C7 C8 1.355(2)
C8 C9 1.457(2)
C8 H8 0.9500
C10 C11 1.374(2)
C11 C12 1.409(2)
C12 H12 0.9500
