#------------------------------------------------------------------------------
#$Date: 2019-10-29 01:34:08 +0200 (Tue, 29 Oct 2019) $
#$Revision: 220321 $
#$URL: file:///home/coder/svn-repositories/cod/cif/4/51/52/4515221.cif $
#------------------------------------------------------------------------------
#
# This file is available in the Crystallography Open Database (COD),
# http://www.crystallography.net/
#
# All data on this site have been placed in the public domain by the
# contributors.
#
data_4515221
loop_
_publ_author_name
'Yi, Wei'
'Wang, Peng-Fei'
'Lu, Meng'
'Liu, Qian-Qian'
'Bai, Xue'
'Chen, Kai-Die'
'Zhang, Jing-Wen'
'Liu, Gong-Qing'
_publ_section_title
;
 Environmentally Friendly Protocol for the Oxidative Iodofunctionalization
 of Olefins in a Green Solvent
;
_journal_issue                   19
_journal_name_full               'ACS Sustainable Chemistry &amp; Engineering'
_journal_page_first              16777
_journal_paper_doi               10.1021/acssuschemeng.9b04298
_journal_volume                  7
_journal_year                    2019
_chemical_formula_moiety         'C8 H8 Cl I O'
_chemical_formula_sum            'C8 H8 Cl I O'
_chemical_formula_weight         282.49
_space_group_crystal_system      monoclinic
_space_group_IT_number           14
_space_group_name_Hall           '-P 2yn'
_space_group_name_H-M_alt        'P 1 21/n 1'
_symmetry_space_group_name_Hall  '-P 2yn'
_symmetry_space_group_name_H-M   'P 1 21/n 1'
_atom_sites_solution_hydrogens   mixed
_atom_sites_solution_primary     dual
_audit_creation_date             2018-12-25
_audit_creation_method
;
Olex2 1.2
(compiled 2018.05.29 svn.r3508 for OlexSys, GUI svn.r5506)
;
_cell_angle_alpha                90
_cell_angle_beta                 99.661(5)
_cell_angle_gamma                90
_cell_formula_units_Z            4
_cell_length_a                   13.0502(7)
_cell_length_b                   4.5002(2)
_cell_length_c                   15.3524(8)
_cell_measurement_reflns_used    4160
_cell_measurement_temperature    100.01(10)
_cell_measurement_theta_max      29.2950
_cell_measurement_theta_min      2.6980
_cell_volume                     888.84(8)
_computing_cell_refinement       'CrysAlisPro 1.171.38.43f (Rigaku OD, 2015)'
_computing_data_collection       'CrysAlisPro 1.171.38.43f (Rigaku OD, 2015)'
_computing_data_reduction        'CrysAlisPro 1.171.38.43f (Rigaku OD, 2015)'
_computing_molecular_graphics    'Olex2 (Dolomanov et al., 2009)'
_computing_publication_material  'Olex2 (Dolomanov et al., 2009)'
_computing_structure_refinement  'ShelXL (Sheldrick, 2015)'
_computing_structure_solution    'ShelXT (Sheldrick, 2015)'
_diffrn_ambient_environment      N~2~
_diffrn_ambient_temperature      100.01(10)
_diffrn_detector                 'CCD plate'
_diffrn_detector_area_resol_mean 5.2684
_diffrn_detector_type            AtlasS2
_diffrn_measured_fraction_theta_full 0.999
_diffrn_measured_fraction_theta_max 0.999
_diffrn_measurement_details
;
List of Runs (angles in degrees, time in seconds):

  # Type    Start    End  Width  t~exp~   \w     \q     \k     \f   Frames
--------------------------------------------------------------------------
  1  \w    -76.00  13.00   1.00    1.00    --  -11.59 -57.00 -30.00   89
  2  \w    -38.00  62.00   1.00    1.00    --  -11.59  57.00 120.00  100
  3  \w    -11.00  79.00   1.00    1.00    --   11.74  77.00-120.00   90
;
_diffrn_measurement_device       'four-circle diffractometer'
_diffrn_measurement_device_type  'SuperNova, Dual, Cu at zero, AtlasS2'
_diffrn_measurement_method       '\w scans'
_diffrn_orient_matrix_type
'CrysAlisPro convention (1999,Acta A55,543-557)'
_diffrn_orient_matrix_UB_11      -0.0513727000
_diffrn_orient_matrix_UB_12      -0.0541198000
_diffrn_orient_matrix_UB_13      -0.0018894000
_diffrn_orient_matrix_UB_21      0.0016854000
_diffrn_orient_matrix_UB_22      0.0402030000
_diffrn_orient_matrix_UB_23      0.0448589000
_diffrn_orient_matrix_UB_31      -0.0199567000
_diffrn_orient_matrix_UB_32      0.1425934000
_diffrn_orient_matrix_UB_33      -0.0133675000
_diffrn_radiation_monochromator  mirror
_diffrn_radiation_probe          x-ray
_diffrn_radiation_type           MoK\a
_diffrn_radiation_wavelength     0.71073
_diffrn_reflns_av_R_equivalents  0.0244
_diffrn_reflns_av_unetI/netI     0.0244
_diffrn_reflns_Laue_measured_fraction_full 0.999
_diffrn_reflns_Laue_measured_fraction_max 0.999
_diffrn_reflns_limit_h_max       15
_diffrn_reflns_limit_h_min       -13
_diffrn_reflns_limit_k_max       5
_diffrn_reflns_limit_k_min       -5
_diffrn_reflns_limit_l_max       18
_diffrn_reflns_limit_l_min       -16
_diffrn_reflns_number            5115
_diffrn_reflns_point_group_measured_fraction_full 0.999
_diffrn_reflns_point_group_measured_fraction_max 0.999
_diffrn_reflns_theta_full        24.972
_diffrn_reflns_theta_max         24.972
_diffrn_reflns_theta_min         2.243
_diffrn_source                   'micro-focus sealed X-ray tube'
_diffrn_source_type              'SuperNova (Mo) X-ray Source'
_exptl_absorpt_coefficient_mu    3.842
_exptl_absorpt_correction_T_max  1.00000
_exptl_absorpt_correction_T_min  0.51945
_exptl_absorpt_correction_type   multi-scan
_exptl_absorpt_process_details
;
CrysAlisPro 1.171.38.43f (Rigaku Oxford Diffraction, 2015)
Empirical absorption correction using spherical harmonics,
 implemented in SCALE3 ABSPACK scaling algorithm.
;
_exptl_crystal_colour            colourless
_exptl_crystal_colour_primary    colourless
_exptl_crystal_density_diffrn    2.111
_exptl_crystal_description       block
_exptl_crystal_F_000             536
_exptl_crystal_size_max          0.12
_exptl_crystal_size_mid          0.11
_exptl_crystal_size_min          0.09
_refine_diff_density_max         0.376
_refine_diff_density_min         -0.596
_refine_diff_density_rms         0.105
_refine_ls_extinction_method     none
_refine_ls_goodness_of_fit_ref   1.077
_refine_ls_hydrogen_treatment    mixed
_refine_ls_matrix_type           full
_refine_ls_number_parameters     104
_refine_ls_number_reflns         1565
_refine_ls_number_restraints     0
_refine_ls_restrained_S_all      1.077
_refine_ls_R_factor_all          0.0198
_refine_ls_R_factor_gt           0.0189
_refine_ls_shift/su_max          0.002
_refine_ls_shift/su_mean         0.000
_refine_ls_structure_factor_coef Fsqd
_refine_ls_weighting_details
'w=1/[\s^2^(Fo^2^)+(0.0231P)^2^+0.2136P] where P=(Fo^2^+2Fc^2^)/3'
_refine_ls_weighting_scheme      calc
_refine_ls_wR_factor_gt          0.0455
_refine_ls_wR_factor_ref         0.0461
_reflns_Friedel_coverage         0.000
_reflns_number_gt                1505
_reflns_number_total             1565
_reflns_threshold_expression     'I > 2\s(I)'
_iucr_refine_instructions_details
;
TITL nt1225_a.res in P2(1)/n
    nt1225.res
    created by SHELXL-2018/3 at 16:44:04 on 25-Dec-2018
REM Old TITL nt1225 in P2(1)/n
REM SHELXT solution in P2(1)/n: R1 0.043, Rweak 0.036, Alpha 0.020
REM <I/s> 1.280 for 242 systematic absences, Orientation as input
REM Formula found by SHELXT: C8 O I Cl
CELL 0.71073 13.0502 4.5002 15.3524 90 99.661 90
ZERR 4 0.0007 0.0002 0.0008 0 0.005 0
LATT 1
SYMM 0.5-X,0.5+Y,0.5-Z
SFAC C H Cl I O
UNIT 32 32 4 4 4

L.S. 20
PLAN  20
BOND
list 4
fmap 2 53
acta
OMIT -3 50
REM <olex2.extras>
REM <HklSrc "%.\\nt1225.hkl">
REM </olex2.extras>

WGHT    0.023100    0.213600
FVAR       0.47296
I1    4    0.662266    0.894046    0.510792    11.00000    0.01345    0.01517 =
         0.01103    0.00069    0.00420   -0.00045
CL1   3    0.348183    0.111892    0.917101    11.00000    0.01663    0.02013 =
         0.01599    0.00444    0.00718   -0.00205
O1    5    0.688985    0.937587    0.734338    11.00000    0.00874    0.00997 =
         0.01875    0.00004   -0.00015   -0.00089
C1    1    0.528349    0.674475    0.750887    11.00000    0.01121    0.00837 =
         0.01183   -0.00214    0.00177    0.00168
C7    1    0.587538    0.850830    0.691418    11.00000    0.00915    0.01152 =
         0.01196    0.00199    0.00106    0.00142
AFIX  13
H7    2    0.547812    1.031316    0.672807    11.00000   -1.20000
AFIX   0
C8    1    0.592927    0.664257    0.609492    11.00000    0.01211    0.01153 =
         0.01345    0.00277    0.00238   -0.00313
AFIX  23
H8A   2    0.523130    0.603503    0.583601    11.00000   -1.20000
H8B   2    0.632835    0.485928    0.627064    11.00000   -1.20000
AFIX   0
C2    1    0.424423    0.599476    0.720643    11.00000    0.01137    0.01493 =
         0.01318    0.00220   -0.00175    0.00127
AFIX  43
H2    2    0.392076    0.666237    0.665513    11.00000   -1.20000
AFIX   0
C6    1    0.574852    0.574255    0.834085    11.00000    0.01049    0.01933 =
         0.01143   -0.00180    0.00049   -0.00065
AFIX  43
H6    2    0.643586    0.624516    0.855509    11.00000   -1.20000
AFIX   0
C3    1    0.368955    0.428044    0.771173    11.00000    0.00900    0.01689 =
         0.01592   -0.00019    0.00246   -0.00084
AFIX  43
H3    2    0.299814    0.380020    0.750616    11.00000   -1.20000
AFIX   0
C5    1    0.520615    0.401480    0.885315    11.00000    0.01725    0.01725 =
         0.01249    0.00133    0.00035    0.00351
AFIX  43
H5    2    0.552484    0.335038    0.940625    11.00000   -1.20000
AFIX   0
C4    1    0.418289    0.328836    0.853148    11.00000    0.01428    0.01191 =
         0.01225    0.00178    0.00574    0.00085
H1    2    0.725874    0.788398    0.741917    11.00000    0.01846
HKLF 4




REM  nt1225_a.res in P2(1)/n
REM wR2 = 0.0461, GooF = S = 1.077, Restrained GooF = 1.077 for all data
REM R1 = 0.0189 for 1505 Fo > 4sig(Fo) and 0.0198 for all 1565 data
REM 104 parameters refined using 0 restraints

END  
     
WGHT      0.0239      0.0000 

REM Highest difference peak  0.376,  deepest hole -0.596,  1-sigma level  0.105
Q1    1   0.5280  0.8839  0.5325  11.00000  0.05    0.38
Q2    1   0.4526  0.9131  0.7003  11.00000  0.05    0.34
Q3    1   0.5033  0.8947  0.4645  11.00000  0.05    0.34
Q4    1   0.2241  0.0019  0.9727  11.00000  0.05    0.32
Q5    1   0.5106  0.6388  0.5466  11.00000  0.05    0.31
Q6    1   0.2221  0.3163  0.9354  11.00000  0.05    0.31
Q7    1   0.6799  0.5127  0.8260  11.00000  0.05    0.31
Q8    1   0.3810  0.7828  0.5875  11.00000  0.05    0.30
Q9    1   0.3175  0.6049  0.5983  11.00000  0.05    0.30
Q10   1   0.6421  0.4293  0.6027  11.00000  0.05    0.29
Q11   1   0.4268  0.7425  0.5171  11.00000  0.05    0.29
Q12   1   0.3475  1.0100  0.6162  11.00000  0.05    0.29
Q13   1   0.6795  0.3985  0.9379  11.00000  0.05    0.27
Q14   1   0.5600  0.1060  0.9459  11.00000  0.05    0.27
Q15   1   0.7797  1.1134  0.5137  11.00000  0.05    0.27
Q16   1   0.6391  1.2583  0.7806  11.00000  0.05    0.27
Q17   1   0.3398  0.0034  0.7789  11.00000  0.05    0.26
Q18   1   0.6375  0.5036  1.0032  11.00000  0.05    0.25
Q19   1   0.5921  0.8997  0.4953  11.00000  0.05    0.25
Q20   1   0.4167  0.8547  0.6219  11.00000  0.05    0.25

  REM The information below was added by Olex2.
  REM
  REM R1 = 0.0189 for 1505 Fo > 4sig(Fo) and 0.0198 for all 6702 data
  REM n/a parameters refined using n/a restraints
  REM Highest difference peak 0.38, deepest hole -0.60
  REM Mean Shift 0, Max Shift 0.002.

  REM +++ Tabular Listing of Refinement Information +++
  REM R1_all = 0.0198
  REM R1_gt = 0.0189
  REM wR_ref = 0.0461
  REM GOOF = 1.077
  REM Shift_max = 0.002
  REM Shift_mean = 0
  REM Reflections_all = 6702
  REM Reflections_gt = 1505
  REM Parameters = n/a
  REM Hole = -0.60
  REM Peak = 0.38
  REM Flack = n/a

  
;
_cod_data_source_file            sc9b04298_si_002.cif
_cod_data_source_block           nt1225
_cod_database_code               4515221
_shelx_shelxl_version_number     2018/3
_shelx_space_group_comment
;
The symmetry employed for this shelxl refinement is uniquely defined
by the following loop, which should always be used as a source of
symmetry information in preference to the above space-group names.
They are only intended as comments.
;
_reflns_odcompleteness_completeness 99.86
_reflns_odcompleteness_iscentric 1
_reflns_odcompleteness_theta     26.32
_olex2_refinement_description
;
1. Fixed Uiso
 At 1.2 times of:
  All C(H) groups, All C(H,H) groups
2.a Ternary CH refined with riding coordinates:
 C7(H7)
2.b Secondary CH2 refined with riding coordinates:
 C8(H8A,H8B)
2.c Aromatic/amide H refined with riding coordinates:
 C2(H2), C6(H6), C3(H3), C5(H5)
;
_olex2_date_sample_data_collection 2018-12-25
_olex2_submission_special_instructions 'No special instructions were received'
_oxdiff_exptl_absorpt_empirical_details
;
Empirical correction (ABSPACK) includes:
- Absorption correction using spherical harmonics
- Frame scaling
- Detector area scaling
;
_oxdiff_exptl_absorpt_empirical_full_max 1.495
_oxdiff_exptl_absorpt_empirical_full_min 0.729
loop_
_space_group_symop_operation_xyz
'x, y, z'
'-x+1/2, y+1/2, -z+1/2'
'-x, -y, -z'
'x-1/2, -y-1/2, z-1/2'
loop_
_atom_site_label
_atom_site_type_symbol
_atom_site_fract_x
_atom_site_fract_y
_atom_site_fract_z
_atom_site_U_iso_or_equiv
_atom_site_adp_type
_atom_site_occupancy
_atom_site_site_symmetry_order
_atom_site_calc_flag
_atom_site_refinement_flags_posn
I1 I 0.66227(2) 0.89405(4) 0.51079(2) 0.01297(9) Uani 1 1 d .
Cl1 Cl 0.34818(6) 0.11189(15) 0.91710(5) 0.01707(17) Uani 1 1 d .
O1 O 0.68898(15) 0.9376(4) 0.73434(13) 0.0128(4) Uani 1 1 d .
C1 C 0.5283(2) 0.6745(6) 0.75089(18) 0.0105(6) Uani 1 1 d .
C7 C 0.5875(2) 0.8508(6) 0.69142(18) 0.0110(6) Uani 1 1 d .
H7 H 0.547812 1.031316 0.672807 0.013 Uiso 1 1 calc R
C8 C 0.5929(2) 0.6643(6) 0.60949(18) 0.0123(6) Uani 1 1 d .
H8A H 0.523130 0.603503 0.583601 0.015 Uiso 1 1 calc R
H8B H 0.632835 0.485928 0.627064 0.015 Uiso 1 1 calc R
C2 C 0.4244(2) 0.5995(6) 0.72064(19) 0.0136(6) Uani 1 1 d .
H2 H 0.392076 0.666237 0.665513 0.016 Uiso 1 1 calc R
C6 C 0.5749(2) 0.5743(6) 0.83409(18) 0.0139(6) Uani 1 1 d .
H6 H 0.643586 0.624516 0.855509 0.017 Uiso 1 1 calc R
C3 C 0.3690(2) 0.4280(6) 0.77117(19) 0.0139(6) Uani 1 1 d .
H3 H 0.299814 0.380020 0.750616 0.017 Uiso 1 1 calc R
C5 C 0.5206(2) 0.4015(6) 0.88531(19) 0.0159(7) Uani 1 1 d .
H5 H 0.552484 0.335038 0.940625 0.019 Uiso 1 1 calc R
C4 C 0.4183(2) 0.3288(6) 0.85315(18) 0.0124(6) Uani 1 1 d .
H1 H 0.726(2) 0.788(8) 0.742(2) 0.018(9) Uiso 1 1 d .
loop_
_atom_site_aniso_label
_atom_site_aniso_U_11
_atom_site_aniso_U_22
_atom_site_aniso_U_33
_atom_site_aniso_U_23
_atom_site_aniso_U_13
_atom_site_aniso_U_12
I1 0.01345(13) 0.01517(13) 0.01103(12) 0.00069(7) 0.00420(8) -0.00045(7)
Cl1 0.0166(4) 0.0201(4) 0.0160(4) 0.0044(3) 0.0072(3) -0.0020(3)
O1 0.0087(10) 0.0100(10) 0.0187(11) 0.0000(9) -0.0002(8) -0.0009(9)
C1 0.0112(15) 0.0084(13) 0.0118(14) -0.0021(12) 0.0018(11) 0.0017(11)
C7 0.0092(15) 0.0115(14) 0.0120(14) 0.0020(11) 0.0011(11) 0.0014(11)
C8 0.0121(15) 0.0115(14) 0.0135(14) 0.0028(11) 0.0024(12) -0.0031(11)
C2 0.0114(16) 0.0149(15) 0.0132(15) 0.0022(11) -0.0017(12) 0.0013(11)
C6 0.0105(15) 0.0193(16) 0.0114(14) -0.0018(12) 0.0005(12) -0.0006(11)
C3 0.0090(15) 0.0169(15) 0.0159(15) -0.0002(12) 0.0025(12) -0.0008(11)
C5 0.0173(17) 0.0172(16) 0.0125(15) 0.0013(12) 0.0004(13) 0.0035(11)
C4 0.0143(15) 0.0119(14) 0.0123(14) 0.0018(12) 0.0057(12) 0.0009(11)
loop_
_atom_type_symbol
_atom_type_description
_atom_type_scat_dispersion_real
_atom_type_scat_dispersion_imag
_atom_type_scat_source
C C 0.0033 0.0016 'International Tables Vol C Tables 4.2.6.8 and 6.1.1.4'
H H 0.0000 0.0000 'International Tables Vol C Tables 4.2.6.8 and 6.1.1.4'
Cl Cl 0.1484 0.1585 'International Tables Vol C Tables 4.2.6.8 and 6.1.1.4'
I I -0.4742 1.8119 'International Tables Vol C Tables 4.2.6.8 and 6.1.1.4'
O O 0.0106 0.0060 'International Tables Vol C Tables 4.2.6.8 and 6.1.1.4'
loop_
_geom_angle_atom_site_label_1
_geom_angle_atom_site_label_2
_geom_angle_atom_site_label_3
_geom_angle
C2 C1 C7 119.3(2)
C6 C1 C7 122.3(2)
C6 C1 C2 118.3(3)
O1 C7 C1 113.0(2)
O1 C7 C8 111.3(2)
C1 C7 C8 107.9(2)
C7 C8 I1 113.51(18)
C3 C2 C1 121.2(3)
C5 C6 C1 121.2(3)
C2 C3 C4 118.8(3)
C4 C5 C6 119.1(3)
C3 C4 Cl1 118.8(2)
C3 C4 C5 121.4(3)
C5 C4 Cl1 119.8(2)
loop_
_geom_bond_atom_site_label_1
_geom_bond_atom_site_label_2
_geom_bond_distance
I1 C8 2.155(3)
Cl1 C4 1.748(3)
O1 C7 1.431(3)
C1 C7 1.516(4)
C1 C2 1.399(4)
C1 C6 1.394(4)
C7 C8 1.524(4)
C2 C3 1.382(4)
C6 C5 1.382(4)
C3 C4 1.388(4)
C5 C4 1.383(4)
loop_
_refln_index_h
_refln_index_k
_refln_index_l
_refln_F_squared_meas
_refln_F_squared_sigma
0 0 2 2404.61 26.77
0 0 2 2451.94 21.85
0 0 -3 1.95 0.86
0 0 3 1.75 0.74
0 0 3 1.39 0.92
0 0 -4 5540.96 49.13
0 0 4 5588.31 56.37
0 0 -5 0.53 1.04
0 0 5 0.34 0.62
0 0 -5 0.15 0.7
0 0 5 1.39 0.88
0 0 -6 1134.56 27.75
0 0 6 1177.52 31.39
0 0 6 1201.74 26.26
0 0 -6 1210.67 36.41
0 0 7 4.05 1.74
0 0 7 3.3 1.91
0 0 -7 6.33 2.3
0 0 -7 1.21 1.52
0 0 8 4337.69 58.42
0 0 -8 4178.49 63.86
0 0 -8 4229.78 69.09
0 0 8 4350.9 69.15
0 0 9 2.41 2.29
0 0 -9 6.13 2.99
0 0 9 1.04 1.32
0 0 -9 3.46 3.04
0 0 -10 2245.55 57.99
0 0 -10 2250.07 68.84
0 0 10 2372.66 56.51
0 0 10 2283.21 48.01
0 0 -11 6.33 4.28
0 0 11 2.21 1.63
0 0 11 -0.81 1.27
0 0 -11 3.18 2.53
0 0 12 2694.51 66.54
0 0 12 2730.08 58.27
0 0 -12 2554.75 69.71
0 0 -13 0.39 1.28
0 0 13 -0.56 1.09
0 0 14 733.02 37.84
0 0 14 771.83 33.92
0 0 15 2.39 2.13
0 0 15 0.01 0.86
0 0 16 185.3 18.02
0 0 16 223.27 22.48
0 0 17 0.62 2.59
0 0 17 2.22 2.89
0 0 18 63.7 11.42
0 0 18 62.99 12.8
0 -1 0 10.53 1.99
0 1 0 4.36 1.19
0 -1 1 3718.89 31.89
0 1 -1 3819.58 32.2
0 1 1 3745.32 40.88
0 -1 -1 3711.95 41.18
0 -1 2 2305.27 34.97
0 1 -2 2347.82 20.48
0 -1 2 2330.1 20.31
0 -1 2 2284.36 21.6
0 -1 -2 2345.71 36.1
0 1 -3 2032.46 19.73
0 -1 -3 1969.17 36.2
0 -1 3 2043.76 19.88
0 -1 3 2055.71 35
0 1 -3 2027.32 36.42
0 -1 -4 385.39 17.33
0 -1 4 375.02 16.05
0 -1 4 367.89 9.46
0 1 -4 394.61 10.24
0 1 -4 363.29 16.74
0 1 -5 6390.24 76.14
0 -1 -5 6319.39 76.12
0 -1 5 6383.5 38.25
0 -1 5 6235.62 69.99
0 1 -5 6257.93 47.85
0 1 5 6229.37 72.2
0 1 -6 357.77 19.89
0 -1 6 387.95 18.45
0 -1 -6 362.39 19.52
0 1 6 370.77 18.45
0 1 -6 372.56 13.63
0 -1 6 370.9 10.68
0 -1 7 3715.23 38.18
0 -1 7 3593.66 59.42
0 -1 -7 3599.59 65.73
0 1 -7 3518.03 47.18
0 1 7 3635.13 60.68
0 -1 8 7.31 2.96
0 -1 8 4.63 1.53
0 1 8 5.48 2.68
0 -1 -8 14.42 4.48
0 1 -8 7.31 2.5
0 -1 9 1566.94 30.35
0 -1 -9 1630.47 49.66
0 -1 9 1530.89 42.7
0 -1 -9 1577.04 50.32
0 1 -9 1544.98 38.14
0 1 -9 1645.93 53.74
0 1 9 1442.75 42.03
0 -1 -10 513.08 29.39
0 -1 10 558.36 19.58
0 1 10 554.55 27.23
0 -1 10 515.13 25.94
0 1 -10 529.23 24.58
0 1 -10 511.29 32.52
0 -1 -10 512.4 30.61
0 -1 11 349.2 22.5
0 1 11 338.42 22.03
0 1 -11 349.94 21.42
0 -1 11 367.1 17.08
0 -1 -11 384.15 26.76
0 -1 12 448.28 26.68
0 -1 12 448.58 20.08
0 1 12 441.26 26.63
0 1 -12 413.78 24.91
0 -1 13 403.08 26.33
0 1 13 426.68 27.04
0 -1 13 399.91 20.08
0 1 -13 369.65 25.22
0 1 14 800.84 38.56
0 -1 14 738.17 37.61
0 -1 14 822.64 29.94
0 -1 15 171.46 14.25
0 -1 15 159.52 18.04
0 1 -15 138.52 17.57
0 1 15 162.03 17.96
0 1 16 618.13 36.28
0 -1 16 604.87 36.12
0 -1 16 560.58 27.01
0 1 17 457.33 32.4
0 -1 17 474.07 33.33
0 1 18 384.83 30.56
0 -1 18 439.42 33.48
0 1 19 71.98 13.81
0 -1 19 65.99 13.49
0 1 20 136.49 19.27
0 -2 0 690.47 22.42
0 2 0 747.24 23.31
0 -2 1 3.52 1.63
0 -2 -1 1.9 1.41
0 2 -2 110.18 7.76
0 -2 2 111.75 7.76
0 2 2 104.87 9.83
0 -2 -2 109.39 10.21
0 -2 3 72.08 5.3
0 -2 3 74.54 8.71
0 2 3 66.49 8.09
0 -2 3 84.9 6.15
0 2 -3 89.21 6.18
0 -2 4 425.74 21.61
0 -2 4 392.08 11.94
0 -2 4 397.49 11.69
0 -2 -4 411.53 22.26
0 -2 -5 178.44 15.33
0 -2 5 159.82 6.75
0 -2 5 154.09 7.02
0 -2 5 163.27 13.6
0 -2 6 68.56 9.24
0 -2 6 60.7 3.75
0 -2 -6 63.34 9.67
0 -2 6 64.15 4.59
0 2 7 1106.87 39.27
0 -2 7 1138.02 38.15
0 2 -7 1133.74 41.79
0 -2 -7 1167.98 44.1
0 -2 8 159.92 14.81
0 -2 -8 127.66 13.74
0 -2 -8 136.42 15.79
0 2 -8 161.95 16.69
0 2 -8 134.98 7.86
0 2 -9 1941.55 32.67
0 -2 9 1974.22 21.8
0 2 9 2093.72 58.29
0 -2 9 1975.28 53.54
0 2 -9 1992.19 61.56
0 -2 10 116.15 5.83
0 2 10 123.22 14.5
0 -2 10 106.68 12.89
0 -2 10 113.6 5.4
0 2 -10 114.05 8.71
0 2 11 1664.74 55.3
0 -2 11 1629.28 51.88
0 2 -11 1557.01 35.1
0 -2 11 1583.61 22.7
0 2 -12 86.17 8.93
0 -2 12 86.74 12.44
0 2 12 100.12 14.02
0 -2 12 85.86 5.79
0 2 -13 536.09 24.08
0 -2 13 531.16 31.28
0 -2 13 532.93 15.76
0 2 13 564.72 34.42
0 2 14 50.67 10.59
0 -2 14 51.97 10.14
0 -2 15 440.99 30.83
0 2 15 447.32 32.54
0 -2 16 7.69 4.91
0 2 16 2.1 2.55
0 2 17 790.26 46.31
0 -2 17 817.3 44.84
0 -2 18 33.23 9.61
0 2 18 27.27 8.57
0 -3 0 10 3.2
0 3 -1 317.76 18.35
0 -3 1 368.87 19.57
0 -3 -1 342.45 20.97
0 -3 -2 471.26 25.94
0 -3 2 498.86 21.22
0 3 2 474.24 25.21
0 3 -2 459.33 20.54
0 3 -3 369.03 16.95
0 -3 -3 397.26 24.79
0 3 3 383.69 23.65
0 -3 3 368.01 17.21
0 -3 3 381.3 16.98
0 -3 3 383.8 24.75
0 -3 -4 471.63 28.28
0 -3 4 482.39 28.07
0 3 4 457.83 26.53
0 3 -4 430.53 16.35
0 -3 4 437.16 17.1
0 -3 4 439.65 16.31
0 -3 5 829.93 37.26
0 -3 -5 826.05 39.27
0 -3 5 861.98 21.6
0 -3 5 839.37 20.81
0 3 5 864.32 37.78
0 -3 6 606.37 16.02
0 -3 6 592.07 15.5
0 3 6 620.21 32.72
0 -3 6 621.86 32.43
0 3 7 788.57 38
0 -3 7 776.08 37.13
0 -3 7 765.64 12.69
0 -3 7 756.14 15.41
0 -3 8 5.25 2.59
0 3 8 9 4.3
0 3 9 134.76 16.57
0 -3 9 131.44 15.61
0 -3 10 759.12 38.85
0 3 10 815.7 42.09
0 -3 11 101.44 14.48
0 3 11 79.22 13.34
0 3 12 509.38 35.07
0 -3 12 504.59 32.73
0 3 13 24.33 7.72
0 -3 13 24.23 7.17
0 -3 14 1119.36 51.21
0 3 14 1141.42 55.29
0 3 15 150.3 20.41
0 -3 15 129 17.69
0 -3 16 648.27 40.95
0 3 16 712.3 46.14
0 -4 0 3563.22 76.32
0 4 0 3648.34 76.68
0 -4 -1 19.79 6.3
0 4 -1 16.28 5.09
0 -4 1 20.99 5.71
0 4 1 17.57 5.41
0 -4 2 1388.45 43.38
0 4 2 1426.52 51.34
0 4 -2 1466.32 44.14
0 -4 3 19.97 4.74
0 4 3 14.19 5.27
0 -4 3 17.19 4.35
0 -4 3 13.99 5.6
0 -4 4 879.23 30.3
0 4 4 1021.45 45.91
0 -4 4 986.61 30.34
0 -4 4 947.86 46.91
0 4 -4 992.07 30.73
0 -4 5 267.4 25.13
0 -4 5 231.28 14.15
0 4 5 265.34 23.93
0 -4 5 265.7 14.41
0 -4 6 551.46 36.44
0 -4 6 480.62 16.81
0 -4 6 470.76 17.91
0 4 6 520.23 34.32
0 -4 7 10.97 5.23
0 4 7 34.87 9.11
0 -4 8 723.66 42.37
0 4 8 678.03 41.09
0 4 9 294.59 27.99
0 -4 9 326.89 28.82
0 4 10 917.46 49.94
0 -4 10 970.32 49.81
0 -4 11 180.4 21.77
0 4 11 134.79 19.6
0 -4 12 650.1 41.77
0 4 12 644.15 43.52
0 -4 13 157.71 21.21
0 4 13 181.85 23.58
0 -4 14 298.44 29.44
0 5 0 -0.05 1.95
0 5 -1 748.98 38.41
0 5 1 823.28 43.68
0 -5 2 80.6 11.35
0 -5 2 69.3 14.47
0 5 2 76.35 13.93
0 5 -2 67.98 10.99
0 5 3 973.24 49.87
0 -5 3 903.22 52.63
0 5 -3 888.55 37.06
0 -5 4 9.11 5.96
0 5 4 3.88 3.35
0 5 5 1203.47 57.92
0 -5 5 1243.89 62.96
0 5 6 4.43 3.38
0 -5 6 4.44 5.14
0 -5 7 1113.95 59.86
0 5 7 1073.7 56.55
0 5 8 27.88 9.45
0 -5 8 29.34 10.15
0 5 9 619 44.55
0 -5 9 638.49 46.71
0 6 3 -2.37 4.22
0 6 4 245.53 29.09
0 6 5 5.04 4.96
-1 0 19 1357.01 60.77
-1 0 18 5.24 3.64
-1 0 18 9.44 5.53
-1 0 17 1587.31 61.48
-1 0 17 1553.85 53.09
-1 0 16 0.2 0.99
-1 0 16 3.22 2.41
-1 0 15 905.67 37.52
-1 0 15 911.08 43.35
-1 0 14 1.91 1.39
-1 0 14 2.81 2.97
1 0 -13 1450.42 54.88
-1 0 13 1578.27 45.48
-1 0 13 1609.83 53.2
1 0 -12 -0.14 1.07
-1 0 12 1.95 2.36
-1 0 12 1.48 2.58
-1 0 11 3333.19 69.82
1 0 -11 3277.42 89.26
1 0 -11 3140.63 66.27
-1 0 11 3279.73 59.87
-1 0 10 3.74 2.1
1 0 -10 1.98 2.99
1 0 -10 -0.37 1.05
-1 0 10 1.88 2.18
-1 0 9 6116.05 73.35
-1 0 9 6345.44 86.91
1 0 -9 6220.86 81.25
-1 0 8 0.2 1.09
-1 0 8 2.8 1.95
1 0 -8 1.09 1.19
-1 0 7 3638.06 49.25
1 0 -7 3763.51 53.38
-1 0 6 8.18 2.23
-1 0 6 4.53 1.94
-1 0 5 5428.13 61.59
-1 0 5 5409.68 50.85
-1 0 4 1.4 1.02
1 0 -4 2.03 0.9
-1 0 4 2.3 0.88
-1 0 3 1819.26 23.36
1 0 -3 1909.03 24.33
-1 0 3 1857.01 28.05
1 0 -2 2.9 0.86
-1 0 2 0.75 0.47
-1 0 2 2.04 0.75
-1 0 -1 492.17 10.96
1 0 2 0.64 0.61
-1 0 -2 0.56 0.64
1 0 3 3179.56 38.02
1 0 3 3254.78 37.03
1 0 4 3.26 1.23
-1 0 -4 0 0.56
-1 0 -4 0.94 0.89
1 0 4 3 1.68
-1 0 -5 2026.67 38.28
1 0 5 2018.89 33.25
1 0 5 1975.91 38.01
-1 0 -5 1922.5 40.67
-1 0 -6 0.55 0.38
1 0 6 1.92 1.24
1 0 6 0.84 1.26
-1 0 -7 14.72 3.81
1 0 7 21.71 4.01
1 0 7 15.85 3.96
1 0 8 2.39 1.52
-1 0 -8 1.58 1.57
1 0 8 1.59 0.66
1 0 9 95.28 9.51
-1 0 -9 95.76 11.49
-1 0 -9 105.64 13.97
1 0 9 96.37 10.95
1 0 10 1.74 1.31
1 0 10 1.18 0.89
1 0 11 430.43 25.71
-1 0 -11 398.06 27.04
-1 0 -11 430.89 32.39
1 0 11 407.5 21.67
-1 0 -12 2.17 2.33
1 0 12 4.38 2.48
1 0 12 1.68 2.28
1 0 13 722.01 36.3
1 0 13 706.76 31.62
1 0 14 -0.21 1.6
1 0 14 1.32 2.05
1 0 15 16.84 5.33
1 0 15 25.66 7.63
1 0 16 0.3 1.67
1 0 16 2.11 2.12
1 0 17 200.96 19.84
1 0 17 192.63 21.9
1 0 18 -0.9 1.82
1 0 19 417.19 30.44
-1 1 20 262.15 26.69
-1 -1 19 8.21 5.16
-1 1 19 2.23 2.32
-1 1 18 312.04 27.49
-1 -1 18 330.3 28.71
-1 1 17 13.04 5.54
-1 -1 17 12.62 5.71
-1 -1 16 1195.57 37.83
-1 1 16 1269.24 51.68
-1 -1 16 1243.33 52.02
-1 -1 15 66.87 8.53
-1 1 15 59.4 10.77
1 1 -15 53.62 10.94
-1 -1 15 74.51 12.51
-1 1 14 2215.44 63.68
-1 -1 14 2197.79 63.78
-1 -1 14 2207.84 47.05
-1 -1 13 73.38 8.14
1 1 -13 86.27 11.73
-1 -1 13 72.31 11.27
-1 1 13 74.98 11.24
-1 -1 12 1872.99 39.03
-1 -1 12 1949.08 55.26
1 1 -12 1825.27 50.16
-1 1 12 1882.89 54.49
1 -1 -12 1835.32 60.79
1 1 -11 10.64 3.53
1 -1 -11 9.99 4.26
-1 1 11 11.83 4.15
-1 -1 11 9.88 2.75
-1 -1 11 13.78 4.59
-1 -1 10 1733.56 32.62
-1 -1 10 1806.98 48.45
1 1 -10 1685.04 59.55
1 -1 -10 1777.28 56.63
1 -1 -10 1774.8 53.91
1 1 -10 1701.37 41.38
-1 1 10 1716.93 48.03
1 1 -9 250.03 14.22
-1 -1 9 260.41 11.51
-1 -1 9 274.5 18.08
1 -1 -9 266.92 19.92
-1 1 9 266.26 18.17
1 1 -9 287.86 23.08
1 -1 -9 251.82 20.01
1 -1 -8 517.65 26.05
-1 1 8 473.62 22.89
-1 -1 8 492.99 14.19
-1 -1 8 507.14 23.49
1 1 -8 501 17.99
1 1 -7 679.31 18.55
-1 -1 7 722.2 14.83
-1 -1 7 705.45 26.62
1 -1 -7 762.46 29.77
-1 1 7 720.53 26.96
1 1 -6 2525.24 30.35
-1 1 6 2504.24 48.1
1 -1 -6 2485.13 51.23
-1 -1 6 2555.9 47.78
-1 -1 6 2397.7 22.71
-1 1 5 1138.83 30.76
1 -1 -5 1138.73 32.14
-1 -1 5 1174.84 30.81
1 1 -5 1167.78 16.49
-1 -1 4 2967.89 46.25
1 -1 -4 2955.68 48.62
-1 -1 3 4025.87 50.3
1 -1 -3 3793.64 51.66
1 -1 -2 5231.37 56.61
1 1 -2 5356.06 29.52
-1 1 1 459.99 15.27
1 -1 -1 461.31 15.47
-1 -1 1 469.75 10.9
1 1 -1 466.77 10.94
-1 -1 0 297.15 10.42
1 1 0 281.86 10.04
1 -1 0 283.81 11.12
-1 1 0 299.12 11.4
1 1 1 2264.91 32.24
-1 -1 -1 2256.71 32.9
-1 1 -1 2255.91 27.92
1 -1 1 2293.19 28.33
1 -1 1 2272.57 29.2
1 -1 2 580.91 17.28
1 -1 2 561.94 13.4
-1 1 -2 601.68 14.3
-1 -1 -2 627.14 19.11
1 -1 2 585.23 14.06
1 1 2 587.63 17.85
1 -1 3 795.02 21.33
-1 -1 -3 758.69 23.06
1 -1 3 750.84 16.7
-1 1 -3 786.69 17.03
-1 1 -3 784.33 21.88
-1 1 -4 272.67 11.02
-1 1 -4 284.75 14.57
1 -1 4 278.63 13.67
-1 -1 -4 284.86 15.29
1 -1 4 269.53 10.76
1 -1 5 3163.74 39.25
-1 1 -5 3265.96 53.51
-1 -1 -5 3098.61 50.61
1 1 5 3241.66 51.79
-1 -1 -5 3148.06 55.24
1 -1 5 3240.88 49.5
-1 1 -5 3196.1 41.28
1 -1 6 13.44 3.45
-1 -1 -6 12.47 3.81
1 -1 6 10.02 2.44
-1 -1 -6 15.16 3.95
-1 1 -6 19.17 3.5
-1 1 -6 10.6 3.39
1 1 6 16.39 3.92
-1 1 -7 2152.12 51.97
1 1 7 2153.31 46.91
1 -1 7 2211 34.18
-1 -1 -7 2132.56 51.48
1 -1 7 2242.07 46.5
-1 1 -7 2139.5 40.61
-1 -1 -8 3.36 1.85
1 -1 8 4.43 2.14
-1 -1 -8 1.7 1.49
1 -1 8 6.33 2.07
1 1 8 8.23 3.12
-1 1 -8 5.91 2.36
1 1 9 1908.7 48.59
-1 1 -9 1955.48 58.19
1 -1 9 1936.43 36.78
-1 1 -9 1941.61 46.07
-1 -1 -9 1940.14 56.31
-1 -1 -9 1981.83 56.66
1 -1 9 1882.06 47.29
-1 -1 -10 49.83 9.87
1 -1 10 66.91 7.27
1 1 10 49.38 8.27
-1 -1 -10 72.24 11.38
1 -1 10 62.22 9.08
-1 1 -10 51.56 8.01
-1 -1 -10 46.39 9.19
-1 1 -10 54.27 10.54
1 -1 11 949.1 37.14
1 1 11 997.99 38.4
-1 1 -11 939.23 37.06
1 -1 11 958.37 29.16
1 -1 12 9.17 4.1
1 -1 12 12.9 3.61
-1 1 -12 7 3.57
1 1 12 11.78 4.4
1 1 13 406.86 26.58
-1 1 -13 399.08 27.36
1 -1 13 412.21 27.04
1 -1 13 448.94 22.14
1 1 14 312.21 24.33
1 -1 14 287.51 23.3
1 -1 14 318.15 19.57
-1 1 -14 276.83 24.42
1 -1 15 192.7 19.96
1 1 15 199.91 20.07
1 -1 15 228.38 17.32
1 -1 16 325.84 21.38
1 1 16 330.65 26.81
1 -1 16 277.41 24.71
1 1 17 491.41 33.92
1 -1 17 521.55 35.25
1 1 18 703.82 41.87
1 -1 18 663.96 41.43
1 1 19 263.24 26.34
1 -1 19 283.88 27.91
1 1 20 114.96 18.04
-1 2 19 50.18 12.29
-1 2 18 213.66 24.52
-1 -2 18 201.43 23.2
-1 -2 17 35.49 9.77
-1 2 17 28.62 8.82
-1 -2 16 104.41 15.35
-1 2 16 134.4 18.41
-1 -2 15 126.11 16.45
-1 2 15 104.26 15.53
-1 2 14 15.36 5.64
-1 -2 14 8.08 4.68
-1 2 13 138.11 16.92
-1 -2 13 133.84 15.95
1 2 -13 130.14 10.58
-1 2 12 222.08 21.02
1 2 -12 212.61 12.21
-1 -2 12 200.64 18.75
-1 -2 11 19.68 5.75
-1 2 11 22.61 6.54
1 2 -11 27.27 3.91
1 2 -10 1494.51 25.1
-1 2 10 1601.41 52.52
-1 -2 10 1576.65 49.9
-1 -2 9 265.42 19.76
1 2 -9 220.35 20.75
1 2 -9 229.94 8.23
-1 2 9 256.22 20.25
1 -2 -8 385.84 26.1
1 -2 -8 361.26 22.96
-1 -2 8 337.64 21.7
-1 2 8 347.15 22.94
1 2 -8 361.46 25.21
1 2 -7 226.7 19.07
-1 -2 7 250.56 18.35
1 -2 -7 246.45 20.2
-1 2 7 246.21 18.58
1 -2 -6 165.41 15.61
-1 -2 6 148.55 13.65
1 -2 -5 192.06 16.02
-1 -2 5 171.65 14.21
-1 -2 4 1702.32 17.92
-1 -2 4 1752.47 44.37
-1 -2 4 1773.31 21.34
1 -2 -4 1814.53 47.08
1 2 -4 1777.56 20.66
-1 -2 3 121.31 11.31
-1 2 3 101.99 10.23
-1 -2 3 118.2 6.68
1 2 -3 113.36 6.72
1 -2 -3 123.62 11.79
1 -2 -2 3345.51 58.13
-1 2 2 3184.17 55.52
1 2 -2 3179.57 41.04
-1 -2 2 3240.45 40.21
1 2 -1 63.92 6.29
-1 -2 1 66.26 6.3
1 -2 -1 68.47 7.88
-1 2 1 64.39 7.51
-1 2 0 5470.98 65.79
1 2 0 5643.64 64.08
-1 -2 0 5716.02 63.85
1 -2 0 5487.55 67.41
-1 2 -1 3.43 1.71
-1 -2 -1 9.1 2.89
1 2 1 4.19 1.72
1 -2 1 3.68 1.6
1 2 2 4200.34 61.7
1 -2 2 4136.72 49.87
1 -2 2 4096.32 51.72
-1 -2 -2 4148.46 63.23
-1 2 -2 4212.89 50.59
1 -2 3 139.24 9.01
-1 -2 -3 140.55 12.35
1 -2 3 130.09 8.31
1 2 3 136.63 11.7
1 -2 3 143.05 11.9
1 -2 4 4383.08 48.16
1 -2 4 4338.49 47.23
1 -2 5 62.17 5.7
1 -2 5 67.94 8.77
1 -2 5 65.29 5.73
-1 -2 -5 60.22 9.26
1 -2 6 2667.07 56.36
-1 -2 -6 2688.2 63.9
1 -2 6 2592.38 35.34
1 -2 6 2573.06 37.41
-1 -2 -7 -0.2 1.43
-1 2 -7 -0.18 1.25
1 -2 7 -0.31 0.7
1 -2 7 2.41 1.78
-1 2 -7 0.41 0.28
1 -2 7 0.41 0.51
1 -2 8 2064.42 31.7
-1 2 -8 2092.95 58.93
-1 -2 -8 2135.3 56.4
-1 2 -8 2022.4 37.25
-1 -2 -8 2216.04 63.89
1 -2 8 2147.02 53.66
1 2 8 2166.85 57.19
1 -2 8 2168.51 37.19
1 2 9 25.26 6.35
-1 2 -9 45.63 9.23
1 -2 9 38.44 4.26
-1 2 -9 30.3 4.82
-1 2 -10 1502.08 36.51
1 -2 10 1560.46 28.41
1 -2 10 1604.65 49.75
1 2 10 1634.42 52.96
1 -2 11 14.45 2.79
1 2 11 23.31 6.81
1 -2 11 17.72 5.47
-1 2 -11 13.63 3.91
1 -2 12 2672.01 68
1 2 12 2672.66 72.77
1 -2 12 2824.91 41.42
1 2 13 5.72 4.24
1 -2 13 2.17 1.28
1 -2 13 1.88 2.24
1 -2 14 1843 36.5
1 -2 14 1991.76 63.43
1 2 14 1946.13 66.24
1 2 15 3.96 3.32
1 -2 15 3.37 3.15
1 -2 16 1134.92 51.21
1 2 16 1095.89 53.4
1 2 17 34.57 9.54
1 -2 17 28.62 8.33
1 2 18 296.44 29.7
1 -2 18 281.4 27.51
-1 -3 16 254.04 25.64
-1 3 16 289.79 29.55
-1 -3 15 13.77 5.85
-1 3 15 4.75 3.21
-1 -3 14 384.25 30.08
-1 3 14 334.03 29.83
-1 -3 13 3.44 2.79
-1 3 13 4.27 3.69
-1 -3 12 288.66 25.13
-1 3 12 347.31 28.94
-1 -3 11 15.22 5.61
-1 3 11 16.1 6.18
-1 3 10 283.28 24.74
-1 -3 10 296.81 24.38
-1 3 9 185.81 19.58
-1 -3 9 199.32 19.71
-1 3 8 3.19 2.39
-1 -3 8 5.65 3.46
-1 -3 7 532.52 30.88
-1 3 7 540.73 31.63
-1 3 6 499.33 29.74
-1 -3 6 554.37 31.07
-1 -3 5 1744.57 54.38
-1 -3 5 1740.86 28.09
-1 3 5 1727.49 53.55
-1 -3 5 1643.03 23.86
1 -3 -5 1667.27 55.97
-1 -3 4 443.69 27.15
1 3 -4 423.19 15.82
-1 -3 4 422.83 16.07
-1 3 4 423.9 25.64
-1 -3 4 402.72 14.16
1 -3 -4 444.47 27.86
1 -3 -3 2584.64 64.31
-1 3 3 2484.1 60.42
-1 -3 3 2542.17 64.4
1 3 -3 2411.2 43.01
-1 -3 3 2486.47 43.28
-1 -3 2 531.45 21.61
1 -3 -2 557.2 28.44
1 3 -2 523.59 21.65
-1 3 2 523.82 26.9
1 3 -1 1032.13 32.59
-1 -3 1 1074.8 32.74
1 -3 0 42.38 7.18
-1 -3 0 45.62 7.14
-1 -3 -1 1394.35 42.04
1 -3 1 1411.78 40.21
-1 3 -1 1395.29 39.09
-1 3 -2 140.08 11.55
-1 -3 -2 134.41 13.75
1 3 2 133.55 13.26
1 -3 2 136.95 11.79
1 -3 3 1414.25 36.43
1 -3 3 1440.63 47.39
-1 3 -3 1381.77 33.79
1 -3 3 1398.72 34.29
1 3 3 1399.87 44.78
-1 -3 -3 1388.83 46.32
-1 -3 -4 2.8 1.79
1 -3 4 6.28 2.14
1 -3 4 8.08 3.36
1 3 4 12.66 4.57
1 -3 4 8.88 2.76
-1 -3 -5 2502.05 68.36
1 -3 5 2502 41.84
1 -3 5 2501.96 64.07
1 3 5 2468.98 63.54
1 -3 5 2519.22 42.67
1 -3 6 5.36 2.13
1 -3 6 10.74 4.42
1 3 6 5.55 3.64
1 -3 6 3 1.5
1 3 7 3408.54 79.72
1 -3 7 3395.27 42.23
1 -3 7 3474.78 77.58
1 -3 7 3507.31 46.5
1 -3 8 40.47 4.83
1 -3 8 42.95 4.12
1 -3 8 41.53 8.58
1 3 8 48.01 9.81
1 -3 9 1977.78 21.59
1 3 9 2113.68 65.94
1 -3 9 2113.48 62.65
1 -3 9 1982.25 21.75
1 -3 10 92.76 13.34
1 3 10 121.64 16.25
1 -3 11 868.28 41.77
1 3 11 936.5 46.22
1 3 12 9.42 3.99
1 -3 12 9.49 4.83
1 3 13 539.64 37.04
1 -3 13 505.37 33.29
1 -3 14 11.09 5.44
1 3 14 11.85 5.32
1 3 15 622.55 42.45
1 -3 15 641.55 39.28
1 3 16 92.42 16.77
1 -3 16 95.92 15.7
-1 -4 14 8.08 4.32
-1 4 13 518.26 40.02
-1 -4 13 447.59 35.59
-1 -4 12 21.99 7.83
-1 4 12 32.35 10.05
-1 -4 11 996 51.43
-1 4 11 1043.79 54.74
-1 -4 10 65.33 13.1
-1 4 10 91.97 15.87
-1 -4 9 1480.88 61.64
-1 4 9 1603.14 64.49
-1 4 8 66.17 12.91
-1 -4 8 79.21 14.23
-1 -4 7 1229.88 54.64
-1 4 7 1238.67 54.35
-1 -4 6 79.51 13.86
-1 4 6 73.31 12.86
-1 -4 6 70.38 4.83
-1 -4 6 77.54 4.94
-1 -4 5 1093.55 51.01
1 4 -5 1032.75 27.15
-1 -4 5 1023.71 24.96
-1 -4 5 953.58 27.77
-1 4 5 1050.61 47.54
-1 4 4 97.86 14.05
-1 -4 4 120.6 10.8
1 4 -4 109.15 10.09
-1 -4 4 110.92 16.21
-1 -4 4 117.25 9.78
-1 4 3 336.75 25.67
-1 -4 3 337.97 19.77
-1 4 2 106.59 14.19
-1 -4 2 99.24 11.25
-1 4 1 157.25 16.61
1 -4 -1 151.34 16.75
-1 -4 1 156.57 15.12
1 4 -1 167.77 15.78
-1 4 0 573.44 31.02
-1 -4 0 524.02 29.09
1 -4 0 531.46 30.13
1 4 0 549.53 29.6
1 -4 1 268.33 20.85
1 4 1 253.35 20.97
-1 -4 -1 230.45 20.39
-1 4 -1 279.98 20.5
1 4 2 530.1 31.37
-1 4 -2 491.53 25.85
1 -4 2 470.7 25.25
1 -4 2 440.61 25.17
1 4 3 393.44 27.8
1 -4 3 343.64 20.99
1 -4 3 413.99 30.47
1 -4 3 419.65 22.49
1 -4 4 398.32 30.4
1 4 4 398.69 28.6
1 -4 4 409.79 21.05
1 -4 4 347.13 20.14
1 4 5 481.97 32.22
1 -4 5 470.72 33.12
1 -4 5 418.91 20.61
1 -4 5 474.49 21.37
1 -4 6 46.38 10.5
1 -4 6 62.89 7.22
1 -4 6 65.31 7.33
1 4 6 38.85 9.54
1 -4 7 2.6 1.35
1 4 7 2.36 2.36
1 -4 8 591.28 38.03
1 4 8 582.75 37.89
1 4 9 35.28 9.25
1 -4 9 43.06 10.27
1 4 10 186.45 22.46
1 -4 10 151.16 19.53
1 -4 11 177.82 21.37
1 4 11 158.52 21.17
1 4 12 261.03 27.64
1 -4 12 250.88 25.85
1 4 13 124.1 19.76
1 -4 13 129.36 18.79
1 -4 14 191.69 23.43
-1 5 9 12.1 7.03
-1 -5 9 21.33 8.36
-1 5 8 413.33 36.03
-1 -5 8 446.74 38.52
-1 5 7 45.56 11.77
-1 -5 7 61.83 14.04
-1 -5 6 426.11 36.99
-1 5 6 426.39 35.26
-1 5 5 15.42 6.34
-1 -5 5 19.04 8.3
-1 5 4 704.23 43.7
-1 -5 4 732.68 48.08
-1 -5 3 34.01 10.19
-1 5 3 50.18 11.41
-1 -5 2 951.32 53.35
-1 5 2 985.45 49.43
1 5 -2 970.79 41.8
-1 5 1 1.63 2.15
1 5 -1 6.98 3.87
-1 5 0 389.02 29.01
1 5 0 397.26 29.52
-1 5 -1 39.07 8.71
1 5 1 38.96 9.44
1 -5 1 35.95 8.11
-1 5 -2 75.18 11.56
1 5 2 62.07 12.21
1 -5 2 82.49 15.76
1 -5 2 75.32 11.34
1 5 3 3.6 4.07
-1 5 -3 -1.18 2.16
1 -5 3 3.41 4.08
1 5 4 10.1 5.14
1 -5 4 20.23 8.15
1 5 5 85.39 15.43
1 -5 5 93.06 17.52
1 5 6 2.8 2.77
1 -5 6 0.87 3.92
1 -5 7 30.4 10.2
1 5 7 31.71 9.4
1 -5 8 15.03 6.6
1 5 8 11.95 5.56
1 -5 9 29.21 9.9
1 5 9 24.61 8.71
1 -5 10 -1.32 4.32
-1 6 5 164.59 23.95
-1 6 4 43.78 12.17
-1 6 3 93.79 17.92
-1 6 2 139.62 21.02
1 6 3 83.69 16.58
1 6 4 309.07 32.88
1 6 5 55.67 13.67
-2 0 19 -0.13 1.27
-2 0 18 962.76 49.13
-2 0 18 930.32 41.79
-2 0 17 1.32 3.18
-2 0 17 0.95 2
-2 0 16 1216.08 44.95
-2 0 16 1170.67 50.16
-2 0 15 1.8 2.01
-2 0 15 2.89 2.38
-2 0 14 663.84 34.94
2 0 -14 619.7 34.63
-2 0 14 696.43 31.32
-2 0 13 3.25 2.49
-2 0 13 0.37 0.93
-2 0 12 140.6 12.96
2 0 -12 138.95 14.5
-2 0 12 144.33 15.09
-2 0 11 0.91 1.26
2 0 -11 -1.13 2.1
-2 0 11 1.42 0.94
-2 0 10 42.63 6.44
-2 0 10 67.2 9.46
2 0 -10 48.56 7.56
-2 0 9 0.52 0.78
-2 0 9 0.66 0.51
2 0 -9 1.45 1.48
-2 0 8 214.1 12.95
2 0 -8 190.57 12.95
2 0 -7 4.08 1.72
-2 0 7 1.63 1.16
-2 0 7 2.85 1.82
2 0 -6 65.52 6.51
-2 0 6 62.15 7.09
2 0 -6 48.28 7.49
-2 0 6 60.13 6
-2 0 5 5.98 2.25
2 0 -5 0.52 0.75
2 0 -5 3.74 1.42
-2 0 4 180.36 9.05
-2 0 4 208.55 10.58
2 0 -4 183.79 11.53
2 0 -4 175.65 8.95
-2 0 3 1.19 0.7
2 0 -3 1.63 0.97
-2 0 3 1.68 0.9
2 0 -2 14.02 2.08
-2 0 2 15.13 2.21
-2 0 2 12.55 1.91
2 0 -2 10.63 1.92
2 0 -1 4.02 0.8
-2 0 1 1.93 0.56
-2 0 1 4.58 1.14
-2 0 0 324.36 10.46
-2 0 -1 4.28 1.31
-2 0 -2 8200.4 63.54
-2 0 -2 8131.07 50.41
2 0 2 8229.54 47.62
-2 0 -3 5.13 1.58
2 0 3 4.76 1.33
-2 0 -4 6306.09 64.59
2 0 4 6226.14 63.13
-2 0 -4 6307.39 67.65
2 0 4 6433.55 61.25
-2 0 -5 2.64 1.45
-2 0 -5 2.88 1.87
2 0 5 3.66 1.97
2 0 5 1.52 1.15
-2 0 -6 2214.71 47.17
-2 0 -6 2108.32 47.09
2 0 6 2190.19 44.09
2 0 7 1.26 1.38
-2 0 -7 1.92 2
-2 0 -7 1.47 1.83
2 0 7 0.47 1.13
-2 0 -8 800.71 32.82
2 0 8 880.31 31.95
2 0 8 813.34 27.61
2 0 9 0.65 0.48
-2 0 -9 2.07 2
2 0 9 0.9 1.79
-2 0 -9 0.36 0.8
2 0 10 2275.11 50.91
-2 0 -10 2259.37 68.7
2 0 10 2307.61 57.47
-2 0 -10 2246 62.07
2 0 11 4.21 2.8
-2 0 -11 -2.06 2.27
-2 0 -11 5.17 3.45
2 0 11 1.2 1.63
-2 0 -12 2429.77 73.06
2 0 12 2513.22 58.94
2 0 13 4.08 3.14
2 0 13 3.47 3.22
2 0 14 3486.41 83.87
2 0 14 3110.23 70.92
2 0 15 0.96 2.12
2 0 15 2.93 2.78
2 0 16 1713.86 57.44
2 0 16 1809.54 65.1
2 0 17 -0.16 1.81
2 0 18 879.04 43.92
2 0 19 19.57 7.41
-2 1 20 86.03 15.37
-2 -1 19 399.48 32.67
-2 1 19 425.7 32.71
-2 1 18 108.7 15.99
-2 -1 18 109.89 16.53
-2 -1 17 173.07 20.01
-2 1 17 187.97 20.4
-2 -1 16 395.19 29.28
-2 -1 16 375.47 20.71
-2 1 16 438.53 30.42
2 1 -15 210.71 20.5
-2 1 15 236.51 21.42
-2 -1 15 246.85 16.18
-2 -1 15 265.25 22.94
-2 1 14 986.75 42.35
-2 -1 14 1011.8 31.13
-2 -1 14 936.52 41.97
2 1 -14 871.11 38.92
2 1 -13 35.72 7.22
-2 -1 13 25.09 4.64
-2 1 13 25.74 6.77
-2 -1 13 21.29 6.14
-2 -1 12 1383.64 46.53
-2 -1 12 1448.49 33.33
2 -1 -12 1374.12 51.67
-2 1 12 1504.92 48.64
2 1 -12 1364.25 41.98
-2 1 11 595.11 29.53
2 -1 -11 628.97 33.27
-2 -1 11 588.99 29.07
-2 -1 11 608.65 20.31
2 1 -11 562.63 24.78
2 -1 -10 1114.04 44.37
2 -1 -10 1057.63 40.95
2 1 -10 1072.46 48.5
2 1 -10 1000.25 30.06
-2 -1 10 1039.83 24.64
-2 -1 10 1044.79 36.87
-2 1 10 1065.57 37.79
2 1 -9 212.31 12.65
-2 -1 9 194.57 15.32
-2 -1 9 221.5 10.36
2 1 -9 215.52 20.28
-2 1 9 220.6 16.58
2 -1 -9 209.75 18.14
2 -1 -9 230.17 18.3
-2 -1 8 1449.07 40.22
2 -1 -8 1417.27 42.9
-2 -1 8 1416.78 23.56
2 1 -8 1416.55 29.03
-2 1 8 1429.07 40.16
-2 -1 7 101.87 5.49
2 1 -7 90.19 5.32
-2 1 7 100.33 10.22
2 -1 -7 105.84 11.07
2 -1 -7 98.06 10.69
-2 -1 7 108.91 10.47
-2 1 6 1457.41 37.17
2 -1 -6 1442.73 39.61
2 -1 -6 1390.45 36.84
-2 -1 6 1418.34 35.91
-2 -1 6 1359.89 16.39
2 -1 -5 110.75 9.46
-2 1 5 118.6 10.25
2 -1 -5 129.22 11.07
-2 -1 5 126.93 10.21
2 -1 -4 1730.36 38.3
-2 -1 4 1689.7 35.72
2 -1 -4 1621.53 32.68
2 1 -3 4158.94 54.86
2 -1 -3 4175.15 56.78
-2 -1 3 4313.26 52.89
2 -1 -2 1357.17 30.24
-2 -1 2 1396.43 28.69
-2 -1 2 1441.12 17.21
2 1 -2 1401.66 17.14
-2 -1 1 40.32 3.56
-2 1 1 42.12 5.01
2 1 -1 39.44 3.7
2 -1 -1 35.01 4.56
-2 -1 0 7126.3 55.12
-2 1 0 6974.9 59.75
2 -1 0 6837.35 60.31
2 1 0 7253.67 55.94
2 -1 0 6916.06 60.4
2 -1 1 958.47 21.36
-2 -1 -1 953.01 22.86
2 -1 1 914.11 21.17
2 1 1 956.86 22.25
2 -1 2 2044.71 32.19
-2 1 -2 2064.29 32.06
2 -1 2 2062.06 31.1
2 1 2 2027.37 35.09
-2 -1 -2 1990.09 36.87
-2 1 -3 32.08 4.2
-2 -1 -3 34.97 5.33
2 -1 3 30.61 4.04
2 -1 3 31.91 4.21
-2 1 -3 30.05 4.16
-2 1 -4 466.74 16.91
-2 -1 -4 459.98 21.07
-2 1 -4 449.59 17.72
2 -1 4 457.56 16.6
2 -1 4 446.49 16.82
2 -1 5 3234.9 49.08
-2 1 -5 3355.09 48.29
-2 1 -5 3151.43 51.49
-2 -1 -5 3132.94 59.36
2 -1 5 3386.02 48.01
2 -1 6 160.21 10.81
-2 1 -6 149.73 11
2 -1 6 154.64 11.43
-2 -1 -6 137.61 11.92
2 1 6 144.16 11.95
-2 1 -6 156.71 12.62
-2 -1 -6 142.22 13.63
2 -1 7 1537.32 38.32
2 -1 7 1536.96 35.31
2 1 7 1565.6 41.25
-2 1 -7 1646.76 44.56
-2 1 -7 1500.35 37.65
-2 -1 -7 1595.27 48.17
2 1 8 401.5 21.68
2 -1 8 440.29 21.65
-2 -1 -8 464.73 25.81
-2 -1 -8 405.66 25.79
-2 1 -8 438.1 21.86
2 -1 8 401.86 19.07
2 -1 8 408.24 17.66
-2 1 -9 3310.34 74.1
2 -1 9 3520.82 65.06
2 -1 9 3399.19 53.3
-2 -1 -9 3498.12 77.2
2 1 9 3438.35 66.36
-2 -1 -9 3335.82 78.45
-2 1 -9 3348.86 64.28
-2 -1 -10 385.92 28.08
-2 1 -10 446.5 25.03
-2 1 -10 419.51 28.5
2 -1 10 463.5 24.71
-2 -1 -10 435.61 29.12
2 -1 10 420.21 19.69
2 1 10 428.72 24.47
2 -1 11 1263.35 43.13
-2 1 -11 1086.44 49.24
-2 1 -11 1116.26 42.44
2 -1 11 1184.31 34.73
2 1 11 1144.06 41.57
2 1 12 398.1 25.56
2 -1 12 401.18 25.61
-2 1 -12 391.15 26.5
2 -1 12 398.2 21.1
-2 1 -13 804.47 40.4
2 1 13 820.45 38.17
2 -1 13 883.98 39.76
2 -1 13 877.22 32.79
2 -1 14 0.48 1.78
-2 1 -14 -0.34 1.39
2 1 14 0.45 2.03
2 1 15 676.94 37.41
2 -1 15 649.31 36.51
2 -1 15 658.76 30.59
2 1 16 14.85 5.81
2 -1 16 -0.78 2.29
2 -1 16 9.24 3.93
2 -1 17 759.97 42.83
2 1 17 697.69 41.02
2 1 18 89.35 15.28
2 -1 18 86.05 15.2
2 -1 19 567.34 39.9
2 1 19 567.12 39.57
2 1 20 2.44 3.13
-2 2 19 562.64 41.09
-2 2 18 111.78 17.71
-2 -2 18 107.2 16.94
-2 -2 17 851.32 46
-2 2 17 828.55 47.32
-2 -2 16 12.49 4.88
-2 2 16 22.4 7.96
-2 -2 15 710.09 39.16
-2 2 15 795.18 43.5
-2 2 14 94.79 14.52
-2 -2 14 99.97 14.26
-2 2 13 1627.95 58.2
-2 -2 13 1513.6 53.76
-2 -2 12 0.23 0.77
2 2 -12 0.37 0.25
-2 2 12 0.18 0.91
-2 -2 11 689.52 34.53
2 2 -11 645.42 13.79
-2 2 10 64.56 10.47
-2 -2 10 76.46 11.13
-2 -2 9 3911.03 76.3
-2 2 9 3729.95 78.72
-2 2 8 113.12 13.19
-2 -2 8 93.6 11.51
2 -2 -8 94.66 11.7
2 -2 -8 99.01 13.5
2 2 -8 103.4 13.63
-2 2 7 4090.61 76.23
2 -2 -7 4094.53 82.14
2 -2 -7 4012.24 72.61
2 2 -7 3918.86 80.38
-2 -2 7 4043.96 73.68
-2 -2 6 94.69 11.13
2 -2 -6 115.28 13.32
-2 -2 5 9811.14 108.68
2 -2 -5 9999 119.32
2 -2 -4 28.84 6.07
2 2 -4 26.19 2.71
-2 -2 4 28.47 5.69
2 -2 -3 833.15 31.66
-2 -2 3 866.73 16.12
2 2 -3 860.67 19.11
-2 -2 3 833.22 30.4
2 -2 -2 11.11 3.46
2 2 -2 9.29 2.26
-2 2 2 8.72 3.14
-2 -2 2 4.85 1.37
2 2 -1 3388.32 46.67
-2 2 1 3276.41 55.68
2 -2 -1 3351.03 57.92
-2 -2 1 3274.66 46.15
-2 2 0 202.67 13.21
-2 -2 0 213.71 12.76
2 -2 0 221.28 14.32
2 2 0 221.93 12.78
2 -2 1 1583.86 36.61
2 2 1 1590.95 36.37
-2 -2 -1 1583.2 37.5
2 -2 1 1630.55 35.93
-2 2 -2 3.24 1.67
2 -2 2 0.08 0.49
2 2 2 5.18 2.17
2 -2 2 3.37 1.81
-2 -2 -2 2.85 1.56
-2 -2 -3 3107.94 59.6
2 -2 3 3232.08 47.35
2 -2 3 3115.42 47.62
2 -2 3 3200.99 55.99
2 -2 4 395.61 16.52
2 -2 4 372.52 16.07
2 -2 4 408.16 20.41
-2 -2 -4 387.23 22.23
2 -2 5 3851.69 50.97
2 -2 5 3918.69 52.88
-2 2 -5 3944.1 54.79
2 2 5 3802.1 67.97
-2 -2 -5 3825.25 74.17
2 -2 6 94.77 8.42
-2 2 -6 98.43 8.66
2 -2 6 93.65 7.9
2 -2 6 103.1 11.06
-2 -2 -6 114.11 13.41
2 2 6 85.63 10.6
-2 2 -7 1890.08 52.12
2 -2 7 1806.56 47.07
2 -2 7 1769.19 34.46
2 2 7 1863.54 51.08
-2 -2 -7 1938.91 58.1
2 -2 7 1830.22 38.11
-2 2 -7 1762.53 37.99
-2 2 -8 70.62 8.01
2 -2 8 90.68 10.89
-2 -2 -8 79.43 10.93
2 -2 8 73.75 7.8
-2 2 -8 78.5 11.18
2 2 8 78.17 10.87
-2 2 -9 247.89 21.2
-2 2 -9 266.88 16.3
2 -2 9 242.28 14.86
2 2 9 268 20.76
2 -2 9 249.68 18.84
-2 2 -10 89.64 9.98
2 -2 10 103.39 12.52
2 -2 10 106.15 8.75
2 2 10 95.22 12.88
-2 2 -11 29.69 6.14
2 2 11 25.08 6.99
2 -2 11 23.83 4.35
2 -2 11 28.21 6.62
2 2 12 88.8 13.3
2 -2 12 90.64 12.48
-2 2 -12 82.9 10.69
2 -2 12 99.23 9.12
2 2 13 39.4 9.2
2 -2 13 39.18 8.68
2 -2 13 40.57 5.97
2 2 14 133.42 17.34
2 -2 14 130.18 16.38
2 -2 14 127.1 10.98
2 -2 15 17.46 6.41
2 2 15 8.38 4.26
2 -2 16 90.69 14.47
2 2 16 54.65 11.71
2 2 17 55.27 12.63
2 -2 17 49.93 11.12
2 2 18 33.9 10.36
2 -2 18 41.94 10.61
-2 -3 16 450.73 34.28
-2 3 16 460.06 37.07
-2 -3 15 48.32 11.01
-2 3 15 36.44 10.1
-2 3 14 1432.69 62.36
-2 -3 14 1295.06 55.69
-2 -3 13 11.48 5.78
-2 3 13 9.21 5.14
-2 3 12 1875.99 67.8
-2 -3 12 1842.46 63.53
-2 3 11 41.89 10.01
-2 -3 11 47.14 10.04
-2 3 10 1418.9 56.09
-2 -3 10 1296.77 51.45
-2 3 9 29.65 7.88
-2 -3 9 20.96 6.41
-2 3 8 1637.44 57.09
-2 -3 8 1564.64 54.56
-2 3 7 67.58 11.23
-2 -3 7 80.44 12.17
-2 3 6 1558.47 52.6
-2 -3 6 1315.25 48.57
2 3 -5 160.36 7.87
-2 3 5 166.03 16.69
-2 -3 5 191.24 18.36
-2 -3 4 2269.92 32.3
-2 -3 4 2285.19 62.29
-2 3 4 2156.1 58.96
2 3 -4 2228.33 36.91
2 -3 -4 2217.23 63.38
2 3 -3 276.23 14.66
-2 3 3 278.16 20.51
-2 -3 3 269.7 21.11
2 -3 -3 295.88 22.23
2 -3 -2 2429.2 61.84
2 3 -2 2326.81 46.38
-2 -3 2 2387.11 46.51
-2 3 2 2320.1 57.85
2 3 -1 61.6 8.09
-2 -3 1 65.62 8.28
-2 3 1 62.29 9.14
2 -3 -1 65.42 9.67
2 -3 0 4317.99 76.51
-2 -3 0 4217.71 69.85
2 -3 1 59.3 8.67
-2 -3 -1 55.25 8.48
2 3 2 1554.6 45.72
2 -3 2 1576.67 42.8
-2 3 -2 1470.04 38.78
-2 -3 -2 1495.16 46.63
2 -3 2 1513.36 39.93
2 3 3 84.32 11.08
2 -3 3 78.33 9.16
2 -3 3 75.49 8.57
-2 -3 -3 75.53 10.85
2 -3 3 73.87 10.75
2 -3 4 1118.04 33.99
-2 -3 -4 1085.73 43.61
2 -3 4 1137.92 42.39
2 -3 4 1152.47 32.66
2 3 4 1092.52 41.28
2 -3 5 37 6.06
2 -3 5 42.15 8.22
2 3 5 40.27 8.33
2 -3 5 43.16 6.24
2 -3 6 240.28 19.82
2 -3 6 262.57 15.08
2 3 6 239.64 20.72
2 -3 6 274.99 15.55
2 -3 7 757.59 36.05
2 3 7 751.55 37.26
2 -3 7 752.45 25.47
2 -3 7 789.17 25.5
2 -3 8 318.18 23.64
2 -3 8 337.98 16.09
2 3 8 322.9 25.28
2 -3 8 351.52 17.27
2 3 9 452.54 30.65
2 -3 9 397.76 16.85
2 -3 9 397.73 26.98
2 -3 9 432.81 18.87
2 3 10 463.61 31.82
2 -3 10 462.68 15.72
2 -3 10 450.27 29.12
2 -3 10 460.07 17.05
2 -3 10 477.5 19.85
2 -3 11 304.55 24.8
2 3 11 284.92 25.69
2 3 12 569.4 37.3
2 -3 12 514.28 32.67
2 3 13 63.63 12.86
2 -3 13 67.2 12.09
2 3 14 2.43 2.79
2 -3 14 2.46 2.07
2 3 15 106.66 17.51
2 -3 15 104.97 15.9
2 -3 16 11.15 4.98
-2 -4 13 121.25 18.55
-2 4 13 132.81 20.12
-2 4 12 70.36 14.2
-2 -4 12 61.39 13.48
-2 4 11 64.23 13.23
-2 -4 11 69.06 13.64
-2 4 10 9.52 4.3
-2 -4 10 5.56 3.72
-2 -4 9 532.03 37.47
-2 4 9 520.59 36.92
-2 -4 8 7.06 3.98
-2 4 8 2.15 1.79
-2 -4 7 424.13 32.31
-2 4 7 416.3 31.97
-2 4 6 1.65 2.9
-2 -4 6 2.94 2.3
-2 -4 5 486.65 15.71
-2 -4 5 478.79 14.92
-2 4 5 500.14 33.37
2 4 -5 515.78 18.8
-2 -4 5 508.13 35.21
-2 -4 4 0.02 0.8
-2 -4 4 2.77 2.27
-2 4 4 3.72 3.07
2 4 -4 2.71 1.49
-2 -4 3 226.18 22.87
-2 -4 3 190.7 13.8
-2 4 3 195.15 19.84
-2 -4 2 46.91 7.89
-2 4 2 42.52 9.05
-2 -4 1 372.02 23.55
2 4 -1 366.47 23.47
-2 4 1 383.08 26.3
2 4 0 178.96 17.22
2 -4 0 180.07 18.33
-2 4 0 179.42 17.46
-2 -4 0 191.73 17.74
-2 4 -1 156.73 15.61
2 -4 1 185.41 17.88
2 4 1 184.05 18.09
-2 -4 -1 162.06 17.04
2 4 2 1281.48 48.97
-2 4 -2 1277.13 42.43
2 -4 2 1217.41 42.31
2 -4 2 1231.93 44.69
2 4 3 316.99 24.84
2 -4 3 328.45 21.1
2 -4 3 295.65 20.8
2 -4 3 319.62 26.91
2 -4 4 967.43 36.38
2 4 4 1080.8 47.04
2 -4 4 1023.61 36.15
2 -4 4 1072.46 49.47
2 -4 5 333.8 20.32
2 -4 5 371.83 20.87
2 -4 5 343 27.94
2 4 5 368.92 28.1
2 -4 6 594.35 36.76
2 -4 6 575.95 24.52
2 4 6 632.05 37.67
2 4 7 9.4 4.86
2 -4 7 13.12 3.77
2 -4 7 12.13 5.52
2 4 8 316.42 28.08
2 -4 8 325.37 28.01
2 4 9 149.77 19.67
2 -4 9 125.99 17.56
2 -4 10 427.34 32.63
2 4 10 416.13 33.5
2 -4 11 7.29 4.48
2 4 11 5.3 4.37
2 4 12 970.63 53.72
2 -4 12 880.71 48.23
2 -4 13 44.73 11.22
2 -4 14 727.65 45.19
-2 5 9 99.93 18.09
-2 -5 9 104.24 19.14
-2 -5 8 17.87 7.97
-2 5 8 5.91 3.99
-2 -5 7 6.8 4.41
-2 5 7 -1.23 2.37
-2 5 6 20.17 7.7
-2 -5 6 27.05 9.35
-2 5 5 58.52 13.02
-2 -5 5 55.04 13.36
-2 5 4 26.03 9
-2 -5 4 22.05 8.11
-2 -5 3 385.53 34.51
-2 5 3 388.55 32.01
2 5 -2 49.46 9.51
-2 -5 2 48.35 12.08
-2 5 2 35.39 9.48
-2 5 1 87.33 14.31
2 5 -1 78.44 12.75
-2 5 0 95.9 14.62
2 5 0 89 14.03
2 5 1 148.3 18.62
2 -5 1 133.21 16.02
-2 5 -1 167.82 18.43
2 -5 2 124.3 19.4
-2 5 -2 107.28 14.32
2 -5 2 112.35 14.44
2 5 2 118.48 17.18
2 -5 3 104.99 13.62
2 -5 3 115.05 18.72
2 5 3 82.62 14.84
2 5 4 16.91 5.93
2 -5 4 20.12 7.84
2 5 5 867.82 49.06
2 -5 5 919.24 53.81
2 -5 6 13.15 6.8
2 5 6 15.34 6.74
2 5 7 504.9 39.13
2 -5 7 548.46 41.94
2 -5 8 -4.86 3.99
2 5 8 4.93 4.14
2 5 9 902.56 54.41
2 -5 9 832.99 52.44
2 -5 10 49.12 12.39
-2 6 4 -0.75 1.86
-2 6 3 233.47 28.03
-2 6 2 28.64 10.12
2 6 3 183.48 24.93
2 6 4 237.6 28.83
-3 0 19 183.29 22.06
-3 0 18 5.9 3.75
-3 0 18 1.64 2.49
-3 0 17 544.78 35.61
-3 0 17 545.68 30.77
-3 0 16 3.44 2.34
-3 0 16 -0.6 1.19
-3 0 15 994.81 38.81
-3 0 15 959.14 43.76
3 0 -15 912.65 43.23
-3 0 14 2.4 1.36
3 0 -14 0.16 1.72
3 0 -13 74.5 11.19
-3 0 13 84.99 10.49
-3 0 13 81.04 11.71
-3 0 12 1.13 2.3
3 0 -12 1.35 0.82
-3 0 12 4.36 2.17
3 0 -11 411.04 31.82
-3 0 11 389.31 20.62
-3 0 11 381.51 23.32
3 0 -11 385.44 22.43
-3 0 10 0.69 1.18
3 0 -10 5.8 3.98
3 0 -10 6.59 2.84
-3 0 10 0.05 0.96
3 0 -9 3578.42 82.96
-3 0 9 3502.05 64.17
-3 0 9 3438.38 56.27
3 0 -9 3467.07 59.35
-3 0 8 1.15 1.21
3 0 -8 1.27 1.69
3 0 -8 1.58 1.27
-3 0 8 0.01 0.88
-3 0 7 4832.67 60.63
3 0 -7 5131.21 63.84
-3 0 7 5158.28 68.35
3 0 -7 4895.52 83.24
3 0 -6 0.62 0.59
-3 0 6 1.8 1.66
-3 0 6 -0.08 0.69
3 0 -5 8384.52 72.57
3 0 -5 8304.66 89.28
3 0 -4 -0.05 0.34
-3 0 4 0.95 0.97
-3 0 4 0.61 1
3 0 -4 1.96 1
3 0 -3 4000.24 42.92
-3 0 3 4059.58 41.33
3 0 -3 3924.12 45.93
-3 0 3 3887.35 43.82
-3 0 2 2.76 1.06
3 0 -2 1.23 0.85
3 0 -2 0.79 0.5
-3 0 1 5030.59 30.3
3 0 -1 5037.88 31.68
3 0 -1 5132.6 49.48
-3 0 1 5113.24 47.63
-3 0 0 3.81 1.36
-3 0 -1 4840.27 52.43
-3 0 -2 1.51 0.85
-3 0 -2 1.48 0.79
-3 0 -3 6664.87 70.76
3 0 3 6637.41 69.61
-3 0 -4 -0.11 0.71
3 0 4 5.18 2.24
-3 0 -4 0.64 0.83
3 0 4 3.54 1.42
-3 0 -5 4581.74 61.97
3 0 5 4727.53 64.04
-3 0 -5 4782.57 69.36
3 0 5 4666.59 58.21
3 0 6 1.32 0.93
3 0 6 3.59 2.37
-3 0 -6 1.84 1.45
-3 0 -6 1.84 1.95
3 0 7 6716.28 80.29
3 0 7 6785.28 83.57
-3 0 -7 6680.27 93.73
3 0 8 3.37 2.62
-3 0 -8 -0.03 1.3
3 0 8 0.41 0.7
-3 0 -9 2675.27 69.27
-3 0 -9 2861.67 70.13
3 0 9 2785.44 60.84
-3 0 -10 0.69 1.09
3 0 10 -0.37 1.21
3 0 10 0.53 1.41
-3 0 -10 1.77 1.97
3 0 11 1170.22 39.57
-3 0 -11 1095.26 51.37
3 0 11 1220.98 44.27
-3 0 -11 1073.73 47.48
3 0 12 1.18 1.51
3 0 12 2.13 2.53
3 0 13 714.48 36.93
3 0 13 741.77 34.63
3 0 14 2.97 2.69
3 0 14 3.13 3.12
3 0 15 58.13 10.56
3 0 16 0.75 1.14
3 0 17 722.54 39.43
3 0 18 0.56 1.29
-3 1 20 0.75 1.9
-3 1 19 626.59 39.34
-3 1 18 6.3 4.27
-3 -1 18 5.41 4.41
-3 1 17 407.47 30.03
-3 -1 17 393.69 30.34
-3 -1 16 84.05 9.82
-3 1 16 83.83 13.12
-3 -1 16 88.1 13.83
-3 -1 15 346.09 26.21
-3 -1 15 356.46 19.58
-3 1 15 334.41 25.49
-3 1 14 363.2 25.51
-3 -1 14 334.92 25.27
-3 -1 14 339.77 18.16
3 1 -14 285.24 21.88
-3 -1 13 57.17 7.12
-3 -1 13 43.31 8.69
3 1 -13 44.98 8.26
-3 1 13 57.49 9.83
-3 -1 12 1096.52 29.62
-3 -1 12 1080.42 41.32
-3 1 12 1026.98 40.47
3 -1 -12 1014.13 44.08
3 1 -12 998.99 35.4
-3 1 11 1588.83 48.76
-3 -1 11 1570.34 33.1
-3 -1 11 1588.82 47.84
3 1 -11 1530.87 35.4
3 -1 -11 1535.54 52.41
-3 -1 10 1991.15 34.87
-3 1 10 2045.85 53.06
3 1 -10 2039.71 37.26
3 -1 -10 2045.26 60.88
-3 -1 10 2016.83 51.88
3 1 -10 1936.29 66.01
3 -1 -10 2174.28 59.01
-3 -1 9 1276.61 39.62
-3 -1 9 1220.48 25.38
-3 1 9 1283.45 40.69
3 -1 -9 1182.86 41.87
3 -1 -9 1298.02 45.42
3 1 -9 1214.24 48.13
3 1 -9 1255.41 26.5
3 -1 -8 1732.88 48.65
3 -1 -8 1680.21 48.66
-3 -1 8 1610.32 26.3
-3 1 8 1656.3 44.59
-3 -1 8 1744.8 44.35
3 1 -8 1660.32 27.52
3 1 -7 749.11 16.56
3 -1 -7 767.48 30.75
-3 1 7 801.28 29.47
3 -1 -7 787.21 30.59
-3 -1 7 771.49 28.34
3 -1 -6 496.5 23.78
3 1 -6 451.86 11.87
-3 -1 6 481.76 21.13
3 -1 -6 460.15 21.42
-3 1 6 465.57 21.85
3 1 -6 459.11 12.77
3 1 -6 488.26 24.38
3 1 -5 3.27 2.04
3 -1 -5 1.44 0.77
-3 -1 5 1.85 1.46
-3 1 5 3.9 1.99
3 -1 -5 3.5 1.72
3 1 -5 3.47 1.02
3 1 -5 6.14 1.29
3 -1 -4 3319.56 55.33
3 1 -4 3473.84 30.55
3 -1 -4 3300 47.17
-3 -1 4 3523.85 52.47
3 1 -4 3294.85 29.41
3 1 -4 3274.59 54.38
-3 -1 3 203.97 11.84
-3 -1 3 206.91 7.52
3 1 -3 205.58 12.47
3 -1 -3 209.87 13.1
3 1 -3 203.8 7.96
-3 -1 2 2992.88 32.43
3 -1 -2 2952.43 46.91
3 1 -2 2990.17 34.16
-3 -1 2 2960.03 43.48
3 1 -1 11.95 2.3
-3 1 1 68.14 6.89
3 -1 -1 9.52 2.52
-3 -1 1 10.28 2.14
3 -1 -1 79.61 7.5
3 -1 0 7728.37 69.96
3 -1 0 7793.2 71.32
-3 -1 0 8004.66 67.11
3 1 0 8073.86 66.05
3 1 1 48.25 5.49
-3 -1 -1 39.75 5.16
3 -1 1 52.88 5.91
3 -1 1 50.94 5.57
-3 1 -1 61.75 6.31
-3 1 -2 4998.63 57.28
-3 -1 -2 4839.72 62.22
3 -1 2 4988.33 46.63
3 1 2 4968.11 59.9
3 -1 2 4980.17 58.41
3 1 2 5033.05 60.67
-3 1 -3 24.6 4.2
3 -1 3 23.66 4.06
3 -1 3 23.61 3.53
-3 1 -3 30.12 4.03
-3 1 -4 2249.62 42.36
-3 -1 -4 2141.24 47.98
3 -1 4 2215.78 41.49
-3 1 -4 2213.47 38.49
3 -1 4 2331.97 37.6
3 -1 5 7.17 2.55
3 -1 5 10.52 2.8
-3 1 -5 10.52 2.91
-3 1 -5 12.16 3.28
-3 -1 -5 10.14 3.42
3 -1 6 1250.86 33.97
-3 1 -6 1221.02 34.58
3 -1 6 1213.38 31.81
-3 -1 -6 1237.48 36.56
-3 1 -6 1206.1 34.35
-3 -1 -6 1183.54 40.53
3 1 6 1188.76 35.66
3 -1 7 432.62 20.47
-3 -1 -7 365.53 24.02
-3 1 -7 399.98 21.59
3 -1 7 400.38 19.39
3 1 7 366.16 20.8
-3 1 -7 386.32 20.55
-3 -1 -8 1762.37 55.17
3 -1 8 1735.31 43.26
3 -1 8 1746.2 43.01
-3 -1 -8 1787.07 51.65
-3 1 -8 1662.26 45.99
3 1 8 1721.66 46.55
-3 -1 -9 509.58 30.03
-3 -1 -9 512.39 31.6
-3 1 -9 481.69 26.2
3 -1 9 506.69 24.29
3 -1 9 505.76 22.33
3 -1 9 494.03 24.52
-3 1 -9 518.44 28.89
3 1 9 484.64 25.96
-3 1 -10 833.62 36.58
3 -1 10 921.79 31.35
-3 1 -10 886.46 40.71
3 -1 10 926.23 35.63
-3 -1 -10 875.81 42.07
3 1 10 916.83 36.71
3 -1 11 455.43 23
-3 1 -11 402.79 26.8
3 -1 11 455.88 26.27
3 1 11 479.89 27.68
-3 1 -11 434.69 30.83
3 -1 12 1538.48 50.5
3 1 12 1469.42 50.85
-3 1 -12 1477.6 54.17
3 -1 12 1519.06 43.8
3 1 13 674.7 35.17
3 -1 13 680.67 34.86
3 -1 13 680.74 30.52
3 1 14 455.49 30
3 -1 14 475.26 30.44
3 -1 14 494.69 26.82
3 1 15 106.84 15.13
3 -1 15 123.75 16.17
3 -1 15 118.13 13.59
3 1 16 230.12 23.5
3 -1 16 262.59 24.54
3 -1 16 251.1 20.45
3 -1 17 114.86 16.68
3 1 17 83.23 14.4
3 -1 18 17.84 6.95
3 1 18 17.54 6.77
3 1 19 294.42 28.91
-3 2 19 0.58 2.16
-3 2 18 777.92 46.92
-3 -2 18 711.55 43.82
-3 2 17 41.42 10.6
-3 -2 17 30.93 8.75
-3 2 16 1680.81 64.83
-3 -2 16 1552.03 60.07
-3 2 15 2.73 3.6
-3 -2 15 -1.22 2.75
-3 2 14 2143 69.31
-3 -2 14 2012.67 63.79
-3 -2 13 24.03 7.19
3 2 -13 22.61 2.95
-3 2 13 23.44 7.07
-3 2 12 1054.06 45.92
-3 -2 12 1039.25 43.36
-3 -2 11 47.45 9.02
-3 2 11 62.66 10.89
-3 2 10 1396.42 49.6
-3 -2 10 1342.79 46.61
-3 -2 9 107.94 12.82
-3 2 9 106.49 13.29
3 -2 -8 75.74 11.76
-3 2 8 70.31 10.47
3 -2 -8 65.87 9.77
-3 -2 8 70.61 10.11
3 2 -8 66.51 11.35
-3 -2 7 52.47 8.69
-3 2 7 61.91 9.45
3 -2 -7 55.36 8.49
3 2 -7 53.08 9.62
3 -2 -7 48.22 9
3 -2 -6 596.46 30.68
-3 -2 6 572.86 27.64
3 -2 -5 703.94 32.04
3 2 -5 613.57 11.67
-3 -2 5 688.48 29.27
3 -2 -4 1687.87 48.12
-3 -2 4 1598.23 17.89
-3 -2 4 1626.83 44.24
3 2 -4 1592.3 24.51
3 -2 -3 79.48 10.1
-3 -2 3 84.13 9.91
-3 -2 3 72.49 5.21
3 2 -3 81.94 6.43
-3 -2 2 1565.55 28.83
3 -2 -2 1538.31 42.48
3 2 -2 1493.83 30.37
-3 -2 1 340.83 14.96
3 -2 -1 382.7 20.45
-3 2 1 386.31 19.99
3 2 -1 356.91 15.87
3 2 0 4.7 1.98
-3 -2 0 10.68 2.82
3 -2 0 8.83 2.96
3 -2 0 12.11 3.43
-3 2 0 11.56 3.27
3 -2 1 99.86 9.48
-3 2 -1 104.3 9.61
-3 -2 -1 99.87 9.71
3 2 1 100.8 9.52
3 -2 1 109.83 10.18
3 -2 2 393.66 18.56
3 -2 2 356.22 18
-3 -2 -2 368.34 20.05
3 -2 2 376.62 18.46
3 2 2 395.19 19.6
-3 -2 -3 370.38 21.49
3 -2 3 393.27 18.48
3 -2 3 438.47 19.57
3 -2 3 402.01 19.55
3 -2 4 513.66 20.94
3 -2 4 504.42 22.26
-3 -2 -4 518.82 26.93
3 -2 4 503.6 21.05
3 2 5 33.17 6.71
3 -2 5 52.64 7
-3 -2 -5 35.66 7.5
3 -2 5 32.25 5.17
3 -2 5 45.29 7.02
-3 2 -5 31.67 5.33
-3 2 -6 427.29 20.2
3 -2 6 408.35 21.44
3 2 6 428.35 24.2
3 -2 6 391.54 18.04
-3 -2 -6 420.22 27.09
3 -2 6 413.92 19.9
-3 2 -7 406.39 20.39
-3 2 -7 412.32 24.03
3 -2 7 420.64 22.57
-3 -2 -7 414.37 28.19
3 -2 7 411.86 20.3
3 2 7 386.05 23.96
-3 -2 -8 329.4 22.6
-3 2 -8 371.59 20.18
3 -2 8 334.83 18.81
-3 2 -8 343.63 23.2
3 -2 8 355.15 21.52
3 2 8 377.69 24.31
-3 2 -9 159.1 13.94
3 -2 9 170.41 13.67
3 -2 9 174.84 15.62
-3 2 -9 166.39 17.08
3 2 9 144.45 15.46
-3 2 -10 106.22 11.91
3 -2 10 114.67 13.11
3 -2 10 108.35 11.29
3 2 10 94.52 13
-3 2 -11 8.48 3.55
3 2 11 4.65 3.13
3 -2 11 8.78 4.05
3 2 12 912.07 43.19
3 -2 12 893.74 39.24
3 -2 12 850.45 30.09
3 -2 13 19.82 4.75
3 2 13 31.11 8.4
3 -2 13 21.18 6.48
3 2 14 952.44 47.27
3 -2 14 902.82 32.17
3 -2 14 904.14 42.85
3 2 15 30.48 8.92
3 -2 15 41.46 9.39
3 2 16 958.75 50.57
3 -2 16 862.8 45.2
3 -2 17 21.38 7.51
3 2 17 22.04 7.74
3 -2 18 752.83 44.99
-3 -3 16 25.37 8.76
-3 3 16 25.8 8.47
-3 3 15 490.66 37.19
-3 -3 15 474.82 34.7
-3 3 14 111.53 17.37
-3 -3 14 101.97 15.55
-3 3 13 334.74 29.3
-3 -3 13 307.28 26.89
-3 3 12 295.27 26.88
-3 -3 12 260.41 24.29
-3 3 11 1332.18 56
-3 -3 11 1232.13 51.25
-3 3 10 294.23 25.46
-3 -3 10 270.61 23.49
-3 3 9 1388.62 54.6
-3 -3 9 1426.08 53.07
-3 -3 8 329.41 25.35
-3 3 8 382.24 27.89
-3 3 7 992.01 43.9
-3 -3 7 1013.08 43.89
-3 -3 6 6.92 3.63
-3 3 6 13.03 4.51
3 3 -5 126.29 7.57
-3 3 5 139.26 15.71
-3 -3 5 128.02 15.12
3 -3 -4 431.73 28.5
3 3 -4 437.21 17.42
-3 -3 4 475.58 28.82
-3 3 4 453.29 27.48
-3 -3 4 475.24 14.89
3 3 -3 64.09 7.24
-3 3 3 73.29 10.85
3 -3 -3 70.52 11.3
-3 -3 3 68.13 10.75
-3 -3 3 72.16 6.97
-3 3 2 714.39 32.82
3 3 -2 722.09 26.43
3 -3 -2 688.8 33.9
-3 -3 2 715.55 24.4
3 -3 -1 6.95 3.15
-3 -3 1 2.89 1.81
3 3 -1 4.4 2.08
3 -3 0 1112.52 40.46
-3 3 0 1086.79 38.29
-3 -3 0 1083.6 35.63
3 -3 1 3.72 2.37
-3 -3 -1 3.74 2.62
3 -3 1 6.21 2.67
3 3 1 6.73 3.09
3 3 2 489.46 26.24
3 -3 2 474.28 25.06
-3 -3 -2 480.66 26.6
3 -3 2 475.93 23.85
3 3 3 90.16 11.61
3 -3 3 98.35 12.14
3 -3 3 91.41 10.15
3 -3 3 105.12 11.49
-3 -3 -3 93.8 12.48
3 3 4 313.18 22.28
3 -3 4 329.6 19.89
3 -3 4 340.61 19.47
3 -3 4 339.62 22.83
-3 -3 -4 312.82 23.99
-3 -3 -4 321.52 24.26
3 3 5 118.95 14.1
3 -3 5 122.76 11.93
3 -3 5 124.52 13.79
3 -3 5 114.04 11.15
3 3 6 367.07 25.44
3 -3 6 402.66 20.8
3 -3 6 371.38 20.39
3 -3 6 365.74 24.29
3 3 7 110.23 14.46
3 -3 7 114.5 11.24
3 -3 7 122.05 14.36
3 -3 7 109.73 10.89
3 3 8 118.11 15.55
3 -3 8 120.23 14.38
3 -3 8 118.22 11.2
3 -3 8 129.48 11.91
3 -3 9 1033.25 33.68
3 -3 9 979.3 42.13
3 -3 9 983.55 32.02
3 3 9 927.57 44.73
3 3 10 126.27 16.95
3 -3 10 158.77 13.12
3 -3 10 147.95 16.7
3 3 11 559.96 36.53
3 -3 11 547.81 21.03
3 -3 11 645.35 26.8
3 -3 11 588.39 33.97
3 3 12 336.35 29.01
3 -3 12 282.48 24.22
3 3 13 779.37 45.19
3 -3 13 747.47 40.1
3 3 14 99.17 16.5
3 -3 14 78.19 13.34
3 3 15 94.7 16.67
3 -3 15 66.63 12.64
3 -3 16 47.78 10.92
-3 -4 13 45.78 11.55
-3 4 13 24.53 8.53
-3 4 12 151.67 21.3
-3 -4 12 139.2 19.89
-3 -4 11 144.07 19.7
-3 4 11 149.96 20.89
-3 4 10 182.24 22.51
-3 -4 10 128.01 18.74
-3 -4 9 762.87 45.09
-3 4 9 806.19 46.4
-3 4 8 110.08 16.94
-3 -4 8 111.07 16.93
-3 4 7 1458.6 60.18
-3 -4 7 1423.53 59.67
3 4 -6 23.56 3.05
-3 -4 6 14.31 6.18
-3 4 6 17.22 5.99
-3 -4 5 1775.58 25.58
-3 -4 5 1842.06 67.42
-3 4 5 1809.16 64.24
3 4 -5 1925.58 37.37
-3 -4 5 1753.55 26.62
3 4 -4 24.43 5
-3 -4 4 25.91 4.47
-3 4 4 33.37 8.42
-3 -4 4 36.84 9.71
-3 4 3 1257.16 51.38
-3 -4 3 1177.23 34.3
-3 -4 3 1244.95 54.26
3 4 -2 153.51 14.65
-3 -4 2 122.11 12.14
-3 4 2 140.07 16.7
3 4 -1 889.09 37.11
-3 4 1 926.4 41.68
-3 -4 1 891.33 35.34
-3 4 0 19.67 5.84
3 4 0 16.83 5.33
-3 -4 0 10.6 3.96
-3 4 -1 887.96 38.07
3 4 1 965.29 41.36
-3 -4 -1 833.43 38.45
3 -4 1 891.2 40.94
3 -4 1 973.19 40.6
3 -4 2 6.78 3.48
3 4 2 3.81 2.45
3 -4 2 8.25 4.07
-3 4 -2 13.68 4.71
3 -4 3 1086.86 42.76
3 4 3 1215.47 49.13
3 -4 3 1237.55 43.48
3 -4 3 1261.78 52.76
3 -4 4 119.69 16.27
3 -4 4 120.37 13.92
3 -4 4 131.88 13.8
3 4 4 119.66 15.83
3 4 5 1380.76 55.09
3 -4 5 1378.52 43.81
3 -4 5 1414.49 56.69
3 4 6 76.24 13.19
3 -4 6 72.06 12.58
3 -4 6 68.24 9.31
3 4 7 1722.97 64.15
3 -4 7 1655.14 44.79
3 -4 7 1663.37 62.42
3 4 8 8.16 4.55
3 -4 8 5.72 3.69
3 -4 9 793.17 43.34
3 4 9 798.68 45.95
3 4 10 90.58 15.84
3 -4 10 65.11 12.63
3 4 11 395.41 33.96
3 -4 11 365.6 30.25
3 4 12 125.77 19.66
3 -4 12 125.41 18
3 -4 13 128.09 18.61
3 -4 14 108.18 17.26
-3 5 9 35.88 10.91
-3 -5 8 538.5 42.71
-3 5 8 510.45 40.6
-3 -5 7 15.5 7.2
-3 5 7 12.67 6.07
-3 -5 6 473.04 39.59
-3 5 6 489.42 38.22
-3 5 5 -1.72 1.95
-3 -5 5 2.83 3.67
-3 -5 4 559.57 42.21
-3 5 4 549.51 39.02
-3 5 3 3.53 2.53
-3 -5 3 6.7 5.31
-3 -5 2 899.55 52.2
-3 5 2 837.12 46.3
3 5 -2 864.91 40.47
3 5 -1 7.11 4.46
-3 5 1 -1.92 2.32
3 5 0 1572.44 59.69
3 -5 0 1423.99 55.86
-3 5 0 1566.5 59.51
-3 5 -1 27.82 7.99
3 -5 1 12.37 5.19
3 5 1 25.94 7.97
3 -5 2 1715.8 58.93
3 -5 2 1707.04 72.16
3 5 2 1829.59 68.04
3 5 3 29.8 9.12
3 -5 3 19.25 6.3
3 -5 3 29.95 9.69
3 5 4 572.68 39.44
3 -5 4 621.75 43.92
3 5 5 24.48 8.5
3 -5 5 37.94 10.55
3 5 6 412.08 34.64
3 -5 6 405.92 35.42
3 -5 7 52.31 12.87
3 5 7 58.93 13.18
3 5 8 397.31 35.13
3 -5 8 422.93 36.91
3 -5 9 -8.2 5.12
3 -5 10 584.46 43.39
-3 6 4 122.55 20.97
-3 6 3 160.36 23.4
-3 6 2 37.2 11.13
-4 0 19 1.53 1.81
-4 0 18 1114.33 52.36
-4 0 18 1083.51 44.95
-4 0 17 -0.78 1.73
-4 0 17 0.16 1.75
-4 0 16 965.56 45.4
-4 0 16 952.97 39.67
-4 0 15 -0.88 2.32
-4 0 15 -0.24 1.35
4 0 -15 -0.21 2.54
-4 0 14 4783.61 83.44
-4 0 14 4732.66 92.71
-4 0 13 -0.06 0.62
4 0 -13 -0.19 1.69
-4 0 13 1.37 1.92
-4 0 12 2706.24 64.61
-4 0 12 2826.05 59.33
4 0 -12 2665.78 62.18
-4 0 11 -0.1 1.76
4 0 -11 2.21 1.29
4 0 -10 4213.61 70.24
-4 0 10 4076.29 72.69
4 0 -10 3979.41 95.33
-4 0 10 4103.57 66.75
4 0 -9 2.92 1.3
-4 0 9 0.9 1.4
4 0 -9 0.31 1.33
-4 0 9 -0.2 1.36
-4 0 8 1004.67 30.41
4 0 -8 987.54 30.83
-4 0 8 1056.36 33.06
4 0 -8 1014.98 41.65
-4 0 7 1.66 1.38
4 0 -7 2.53 1.53
4 0 -7 3.95 2.7
-4 0 7 2.13 1.19
4 0 -6 4298.44 58.09
-4 0 6 4516.98 59.71
-4 0 6 4449.58 59.72
4 0 -6 4365.05 72.38
-4 0 5 1.95 1.09
-4 0 5 1.43 1.54
4 0 -5 0.22 0.55
4 0 -5 1.71 1.15
-4 0 4 3161.21 41.78
4 0 -4 3154.39 44.29
4 0 -4 3157.79 48.42
4 0 -4 3021.25 45.39
-4 0 3 1.44 0.95
4 0 -3 2.1 1.03
4 0 -3 0.23 0.9
4 0 -2 4683.1 55.3
-4 0 2 4833.99 38.61
-4 0 2 4703.18 52.32
4 0 -2 4655.93 42.55
4 0 -1 2.76 1.25
-4 0 1 1.49 0.67
-4 0 1 1.88 1.17
-4 0 0 6283.23 64.97
-4 0 -1 7.82 2.37
-4 0 -2 754.16 15.33
-4 0 -2 794.55 25.27
-4 0 -3 0.29 0.76
-4 0 -3 3.33 1.37
4 0 4 89.5 9.33
-4 0 -4 94.19 7.72
-4 0 -4 99.74 10.15
-4 0 -5 2.49 1.59
-4 0 -5 -0.28 0.73
4 0 5 2.8 1.93
-4 0 -6 4.84 2.66
-4 0 -6 10.52 3.45
4 0 6 6.32 2.82
4 0 6 6.69 2.3
-4 0 -7 1.98 0.99
4 0 7 3.36 1.9
-4 0 -7 4.38 2.24
4 0 7 5.01 2.31
4 0 8 117.36 11.7
4 0 8 97.07 10.85
-4 0 -8 114.63 13.76
4 0 9 7.64 3.21
-4 0 -9 0.48 0.64
4 0 9 5.47 2.62
-4 0 -9 2.02 2.39
-4 0 -10 26.24 7.24
4 0 10 28.9 6.24
4 0 10 33.16 7
-4 0 -10 29.02 7.84
-4 0 -11 0.19 2.35
4 0 11 4.97 2.99
4 0 11 -0.49 1.16
4 0 12 41.91 8.11
4 0 13 -0.36 2.28
4 0 14 291.05 23.15
4 0 15 6.57 3.78
4 0 16 406.17 29.41
4 0 17 0.15 1.46
4 0 18 472.28 33.92
-4 1 20 75.43 13.92
-4 1 19 816.86 45.22
-4 1 18 47.82 10.89
-4 -1 18 38.5 9.76
-4 1 17 825.66 42.92
-4 -1 17 818.87 43.47
-4 1 16 141.57 16.99
-4 -1 16 116.46 16.03
-4 -1 16 138.84 12.83
-4 1 15 556.2 33.2
-4 -1 15 538.63 33
-4 -1 15 580.26 25.33
-4 1 14 -2.79 2.35
4 1 -14 1.7 2.06
-4 -1 14 2.02 2.7
4 1 -13 1497.29 40.64
-4 1 13 1671.34 53.8
-4 -1 13 1603.8 38.88
-4 -1 13 1551.99 51.74
-4 1 12 75.34 10.95
-4 -1 12 66.13 10.23
-4 -1 12 66.13 7.44
4 1 -12 64.6 7.87
-4 -1 11 1026.48 38.81
-4 1 11 1083.05 41.02
4 -1 -11 1031.25 42.91
-4 -1 11 1034.77 27.99
4 1 -11 1100.42 30.14
4 -1 -10 348.97 24.09
4 -1 -10 322.41 24.42
-4 -1 10 318.3 14.75
-4 1 10 335.81 21.85
4 1 -10 305.98 26.62
4 1 -10 324.63 15.17
-4 -1 10 315.91 20.59
-4 1 9 2906.12 62.44
4 -1 -9 3055.56 70.32
4 1 -9 2826.02 74.95
4 -1 -9 3127.81 68.69
-4 -1 9 2928.81 60.17
4 1 -9 2907.4 42.04
4 1 -8 454.38 15.67
4 -1 -8 491.33 26.21
-4 1 8 517.06 25.62
4 -1 -8 514.73 27.02
-4 -1 8 503.44 24.17
4 1 -8 474.68 28.55
4 -1 -7 2275.94 53.81
4 1 -7 2248.18 32.71
4 -1 -7 2269.64 52.91
4 1 -7 2278.26 57.76
-4 -1 7 2365.39 49.82
-4 1 7 2224.19 51.67
4 1 -7 2259.29 34.61
-4 1 6 10.17 3.64
4 1 -6 14.77 2.6
4 1 -6 16.46 2.68
-4 -1 6 13.16 3.65
4 -1 -6 19.59 4.48
4 -1 -6 26.57 5.62
4 1 -6 7.93 3.24
4 1 -5 4493.25 42.94
-4 1 5 4605.51 69.61
4 -1 -5 4650.54 71.29
4 -1 -5 4607.66 63.2
4 1 -5 4690.5 46.24
4 1 -5 4710.73 71.9
-4 -1 5 4685.94 64.91
4 -1 -4 1044.53 32.16
4 -1 -4 1025.35 26.66
4 1 -4 1105.82 22.29
-4 1 4 1034.88 32.18
-4 -1 4 1036.77 20.61
-4 -1 4 1114.9 29.81
4 1 -4 1050.4 31.11
-4 -1 3 863.03 19.55
4 -1 -3 847.38 21.4
4 -1 -3 848.6 27.79
-4 -1 3 894.99 25.2
4 1 -3 907.84 21.33
-4 -1 2 654.66 20.96
4 1 -2 647.45 19.1
4 -1 -2 617.36 22.75
-4 -1 2 650.45 18.39
4 1 -1 1013.39 25.41
4 -1 -1 952.69 27.49
-4 -1 1 991.75 24.6
4 1 0 1616.38 33.85
4 -1 0 1594.09 36.32
-4 -1 0 1542.81 33.02
4 -1 0 1623.48 35.12
-4 1 0 1616.12 36.09
-4 1 -1 176.89 11.84
4 -1 1 170.92 12.01
4 1 1 168.22 11.45
4 -1 1 179.31 7.69
-4 -1 -1 158.8 11.41
-4 1 -2 3568.95 54.56
4 1 2 3560.58 55.53
4 -1 2 3373.72 54.6
4 -1 2 3688.61 37.91
-4 -1 -2 3475.63 56.88
-4 1 -3 1202.38 32.95
4 -1 3 1235.21 24.15
4 1 3 1236.76 34.38
-4 -1 -3 1165.19 35.55
4 -1 3 1204.79 33.03
-4 -1 -4 2338.33 53.33
4 -1 4 2418.01 37.8
-4 1 -4 2310.32 47.75
-4 1 -4 2376.26 38.46
4 -1 4 2368.91 47.71
-4 -1 -5 966.34 36.24
4 -1 5 994.84 32.2
4 -1 5 941.11 25.73
-4 1 -5 937.51 31.82
-4 1 -5 914.93 26.67
-4 -1 -6 787.42 34.91
-4 -1 -6 722.57 28.72
-4 1 -6 722.74 26.14
4 -1 6 752.44 24.84
4 1 6 769.9 30.18
4 -1 6 801.37 29.92
-4 1 -6 783.04 30.42
-4 -1 -7 314.7 23.29
4 -1 7 300.06 18.82
-4 1 -7 292.71 18.1
4 -1 7 315.94 17.45
4 1 7 305.92 19.82
-4 -1 -8 626.81 34.62
4 -1 8 645.83 28.32
-4 1 -8 617.74 29.47
-4 -1 -8 645.49 32.02
4 -1 8 606.11 25.78
4 1 8 609.88 29.12
4 -1 9 199.25 16.22
-4 1 -9 202.41 17.9
4 -1 9 209.48 16.1
-4 1 -9 215.36 18.31
-4 -1 -9 214.31 19.89
4 1 9 209.79 17.52
-4 -1 -10 901.54 43.83
-4 1 -10 870.81 39.18
4 -1 10 875.07 35.45
4 -1 10 913.51 35.82
4 -1 10 879.36 33.13
4 1 10 843.27 36.59
-4 1 -10 861.54 39.74
-4 1 -11 87.31 13.74
-4 1 -11 113.51 14.98
4 -1 11 87.76 10.79
4 1 11 97.35 12.76
4 -1 11 93.07 12.03
4 -1 12 743.09 32.38
4 1 12 753.51 37.13
4 -1 12 788.75 36.26
4 -1 13 152.28 16.55
4 -1 13 152.05 15.08
4 1 13 154.45 17.27
4 -1 14 1002.38 44.46
4 -1 14 1047.45 41.23
4 1 14 996.3 45.4
4 1 15 10.71 4.48
4 -1 15 11.59 4.66
4 -1 15 17.37 6.13
4 1 16 362.33 29.4
4 -1 16 364.2 29.03
4 -1 16 367.3 25.83
4 1 17 35.04 9.45
4 -1 17 32.56 9.29
4 1 18 223.07 24.86
4 -1 18 209.23 23.49
4 1 19 224.03 25.74
-4 2 19 17.08 7.11
-4 2 18 26.52 8.75
-4 -2 17 13.29 5.92
-4 2 17 1.63 1.51
-4 -2 16 37.05 9.42
-4 2 16 20.28 6.7
-4 -2 15 5.73 4.11
-4 2 15 2.02 2.05
-4 -2 14 231.23 21.71
-4 2 14 223.01 22.62
-4 2 13 3.57 2.42
-4 -2 13 11.96 4.95
-4 2 12 161.45 18.1
-4 -2 12 142.94 16.36
-4 -2 11 4.74 3.34
-4 2 11 0.02 1.7
-4 2 10 186.94 18.33
-4 -2 10 183.69 17.43
-4 2 9 173.81 17.35
-4 -2 9 169.18 16.21
4 -2 -8 112.53 14.65
-4 2 8 98.55 12.69
4 -2 -8 90.13 11.38
-4 -2 8 97.72 12.07
4 2 -8 95.24 13.56
-4 2 7 648.09 31.85
4 -2 -7 570.99 32.07
4 -2 -7 580.82 27.5
4 2 -7 520.4 30.03
-4 -2 7 588.62 28.95
4 -2 -6 68.02 10.45
4 2 -6 64.86 3.66
4 -2 -6 61.24 8.54
-4 -2 6 62.3 9.19
-4 2 6 54.05 8.95
4 2 -6 53.69 3.6
4 -2 -5 1192.6 42.46
-4 -2 5 1141.95 37.95
4 2 -5 1102.1 21.04
4 -2 -4 185.18 16.23
-4 -2 4 180.75 7.93
-4 -2 4 172.1 14.57
4 2 -4 179.42 9.67
4 -2 -3 5302.76 84.28
4 2 -3 5377.6 57.67
-4 -2 3 5208.08 51.77
4 -2 -2 291.92 19.18
-4 -2 2 294.1 13.9
4 2 -2 310.77 14.86
4 -2 -1 1773.82 46.06
4 2 -1 1814.87 38.44
-4 -2 1 1854.58 38.4
-4 -2 0 171.58 12.64
4 -2 0 175.65 14.05
4 2 0 197.43 13.3
4 -2 0 183.79 14.09
4 -2 1 1615.43 41.29
-4 -2 -1 1578.76 41.03
4 -2 1 1610.91 41.5
4 2 1 1568.51 39.24
4 -2 2 63.17 8.22
-4 -2 -2 49.01 7.69
4 -2 2 51.62 7.24
4 -2 2 50.66 6.6
-4 -2 -3 1500.34 45.15
4 -2 3 1568.83 39.76
4 -2 3 1559.62 37.54
4 -2 3 1571.33 40.68
4 -2 4 269.12 16.85
-4 -2 -4 278.15 20.56
4 -2 4 268.16 16.33
4 -2 4 273.32 16.19
4 2 4 260.56 18.3
-4 2 -4 288.93 17.62
-4 -2 -5 2660.18 67.04
4 -2 5 2797.59 53.49
4 -2 5 2770.9 52.73
4 -2 5 2718.35 54.8
-4 2 -5 2726.56 54.6
4 2 5 2653.99 59.74
4 2 6 11.23 4.1
-4 -2 -6 7.46 3.36
4 -2 6 7.2 2.71
-4 2 -6 7.83 3.09
4 -2 6 10.28 3.55
4 -2 6 9.22 2.89
-4 2 -7 3920.48 68.93
4 -2 7 4065.13 69.45
4 -2 7 4030.79 69.65
4 2 7 3839.4 77.22
4 -2 8 30.1 6.25
4 2 8 22.06 6.11
-4 -2 -8 24.56 6.33
4 -2 8 24.31 5.59
-4 2 -8 19.6 5.55
-4 2 -8 30.71 6.3
-4 2 -9 3671.84 72.47
4 -2 9 3824.74 70.82
4 -2 9 3955.8 73.65
4 2 9 3855.03 82.36
4 -2 10 28.46 6.34
4 2 10 22.79 6.66
4 -2 10 21.5 5.58
-4 2 -10 24.41 6.2
4 -2 11 1212.38 42.19
4 -2 11 1167.38 43.22
4 2 11 1139.18 47.5
-4 2 -12 11.61 4.57
4 2 12 21.39 6.86
4 -2 12 15.23 5.13
4 -2 12 19.42 4.94
4 2 13 672.88 38.82
4 -2 13 637.22 34.68
4 -2 13 681.08 29.9
4 -2 14 38.21 7.11
4 2 14 40.92 9.81
4 -2 14 46.45 9.86
4 2 15 532.28 37.24
4 -2 15 457.1 32.05
4 2 16 8.19 4.64
4 -2 16 5.93 3.58
4 2 17 973.71 53.41
4 -2 17 978.4 49.63
4 -2 18 23.3 7.78
-4 -3 16 151.25 20.13
-4 3 16 154.81 21.74
-4 3 15 98.9 16.82
-4 -3 15 102.84 16.31
-4 -3 14 18.66 6.72
-4 3 14 8.83 4.85
-4 3 13 225.01 24.28
-4 -3 13 190.35 21.37
-4 3 12 94.11 15.27
-4 -3 12 94.67 14.56
-4 -3 11 331.9 26.76
-4 3 11 335.08 28.37
-4 -3 10 282.86 24.49
-4 3 10 289.5 25.71
-4 -3 9 361.26 27.19
-4 3 9 339.89 27.38
-4 -3 8 864.95 41.59
-4 3 8 954.15 45.16
-4 -3 7 380.66 27.11
-4 3 7 366.82 27.17
-4 3 6 6.69 3.7
4 3 -6 5.2 1.28
-4 -3 6 4.95 3.07
4 3 -5 650.82 19.51
-4 -3 5 621.61 11.33
-4 -3 5 700.88 36.15
-4 3 5 662.4 35.32
-4 3 4 764.71 37
4 3 -4 813.92 25.21
-4 -3 4 848.79 39.05
-4 -3 4 838.89 20.97
4 3 -3 187.33 13.16
4 -3 -3 183.91 18.47
-4 3 3 173.34 17.13
-4 -3 3 186.13 17.99
-4 -3 3 187.34 11.83
-4 -3 2 706.61 25.64
4 3 -2 662.12 26.56
4 -3 -2 719.68 35.52
-4 3 2 658.52 32.63
-4 -3 1 7.17 2.83
4 -3 -1 6.57 3.52
-4 3 1 13.65 4.54
4 -3 0 2806.93 66.97
-4 -3 0 2680.47 58.09
-4 3 0 2862.35 63.76
4 -3 0 2828.27 65.03
4 -3 1 150.64 14.61
4 -3 1 154.75 15.21
-4 -3 -1 146.41 14.37
-4 3 -1 164.72 15.04
4 3 1 144.92 13.9
-4 -3 -2 1853.34 53.91
4 -3 2 1942.02 51.37
4 -3 2 1926.36 53.02
4 3 2 1851.36 51.46
4 -3 3 69.94 9.61
4 -3 3 88.65 11.03
-4 -3 -3 75.84 11.5
4 -3 3 75.38 10.54
4 3 3 73.19 10.77
-4 -3 -4 2339.03 66.8
4 -3 4 2417.97 57.7
4 -3 4 2536.92 61.76
4 -3 4 2514.8 57.28
4 3 4 2466.48 63.5
4 3 5 132.34 15.12
4 -3 5 149.48 14.14
4 -3 5 156.13 14.11
4 -3 5 164.01 15.83
4 3 6 1021.89 43.47
4 -3 6 1034.67 40.38
4 -3 6 1046.83 37.32
4 -3 6 1077.52 37.55
4 3 7 130.96 15.99
4 -3 7 137.14 13.35
4 -3 7 139.6 15
4 -3 7 130.73 13.01
4 3 8 1102.3 47.64
4 -3 8 1148.5 39.16
4 -3 8 1018.49 36.2
4 -3 8 1079.38 42.8
4 -3 9 46.96 7.97
4 3 9 51.75 10.8
4 -3 9 45.35 8.86
4 -3 9 40.21 7.16
4 3 10 1120.78 50.72
4 -3 10 1152.12 39.63
4 -3 10 1155.59 46.28
4 -3 11 44.82 7.86
4 -3 11 43.52 9.26
4 3 11 30.56 8.72
4 3 12 937.02 49.43
4 -3 12 840.08 41.28
4 3 13 54.82 12.22
4 -3 13 56.43 11.14
4 3 14 1279.56 60.88
4 -3 14 1193.09 52.12
4 -3 15 9.06 4.57
4 -3 16 491.7 35.53
-4 -4 13 23.91 8.73
-4 4 13 21.66 9.08
-4 -4 12 1012.82 53.55
-4 4 12 1063.63 57.58
-4 -4 11 17.56 6.77
-4 4 11 42.29 11.3
-4 -4 10 910.66 50.03
-4 4 10 1061.97 54.86
-4 -4 9 40.29 10.55
-4 4 9 21.97 7.6
-4 4 8 388.25 32.3
-4 -4 8 320 29.27
-4 -4 7 71.54 13.5
-4 4 7 55.27 11.79
-4 4 6 685.78 40.86
-4 -4 6 713.06 42.62
4 4 -6 674.54 17.63
4 4 -5 190.17 12.49
-4 4 5 207.06 22.04
-4 -4 5 228.3 24.02
-4 -4 5 183.87 8.03
4 4 -4 987.34 32.97
-4 4 4 928.18 45.7
-4 -4 4 890.15 26.3
-4 -4 4 973.48 49.01
-4 -4 3 173.05 20.45
-4 4 3 166.42 18.86
-4 -4 3 181.21 13.95
-4 -4 2 937.97 34.84
4 4 -2 989.91 38.24
-4 4 2 984.53 45.23
4 4 -1 293.33 21.8
-4 -4 1 258.42 19.46
-4 4 1 294.41 24.06
4 -4 -1 276.84 24.01
4 4 0 1034.44 42.63
-4 -4 0 865.01 38.01
-4 4 0 965.9 42.24
4 -4 0 953.73 43.04
4 -4 1 110.07 14.38
4 4 1 122.98 14.96
-4 -4 -1 114.66 14.49
-4 4 -1 130.91 15.31
4 4 2 204.37 19.94
4 -4 2 225.56 20
4 -4 2 193.78 19.54
4 -4 2 200.05 20.79
4 -4 3 180.85 20.07
4 4 3 191.08 19.71
4 -4 3 155.16 17.09
4 -4 3 197.6 18.45
4 -4 4 24.19 6.33
4 -4 4 29.05 7.14
4 4 4 18.2 6.13
4 -4 4 19.92 6.98
4 -4 5 432.5 30.73
4 4 5 446.72 31.66
4 -4 5 401.88 26.4
4 -4 5 421.43 26.04
4 4 6 1.56 1.19
4 -4 6 0.83 1.21
4 4 7 287.67 26.52
4 -4 7 315.96 26.78
4 -4 7 299.51 21.32
4 -4 8 14.19 4.71
4 4 8 18.94 7.35
4 -4 8 14.89 5.98
4 4 9 318.8 29.34
4 -4 9 302.15 26.57
4 4 10 35.68 10.14
4 -4 10 21.33 7.18
4 4 11 128.94 19.45
4 -4 11 101.68 15.87
4 -4 12 19.06 7.11
4 -4 13 107.39 16.6
4 -4 14 65.07 13.35
-4 5 9 1003.19 58.56
-4 -5 8 3.45 4.54
-4 5 8 2.35 2.76
-4 5 7 1231.32 62.49
-4 -5 7 1128.37 61.61
-4 -5 6 41.23 11.46
-4 5 6 23.96 8.49
-4 5 5 689.5 45.21
-4 -5 5 708.86 48.11
-4 -5 4 -0.27 2.2
-4 5 4 -2.4 3.15
-4 5 3 436.63 34.66
-4 -5 3 437.12 36.93
4 5 -2 25.44 7.04
4 -5 -2 25.73 8.25
-4 -5 2 33.28 10.33
-4 5 2 22.94 7.68
4 5 -1 173.59 19.61
-4 5 1 151.76 19.43
4 -5 -1 159.26 19.75
4 -5 0 0.62 2.65
4 5 0 3.18 1.69
-4 5 0 1.82 2.93
4 -5 1 151.33 18.68
4 5 1 170.99 20.98
4 -5 2 215.93 22.12
4 5 2 229.31 24.23
4 -5 2 225.95 25.88
4 5 3 248.55 25.98
4 -5 3 251.76 23.39
4 -5 3 246.38 27.69
4 -5 4 18.06 7.62
4 5 4 25.26 8.47
4 5 5 363.75 32.34
4 -5 5 392.65 34.71
4 5 6 23.02 8.06
4 -5 6 34.76 10.8
4 5 7 25.32 9.05
4 -5 7 29.32 9.3
4 5 8 -0.06 3.13
4 -5 8 1.31 1.47
4 -5 9 24.84 8.83
4 -5 10 9.09 5.26
-4 6 3 239.32 28.74
-4 6 2 255.77 29.04
-5 0 19 873.55 48.18
-5 0 18 -2.16 3.37
-5 0 18 -1.85 1.58
-5 0 17 464.8 32.8
-5 0 17 452.73 28.5
-5 0 16 -0.27 2.01
-5 0 16 0.09 1.75
-5 0 15 594.65 34.44
-5 0 15 681.21 33.13
5 0 -15 578.78 33.8
5 0 -14 0.6 1.6
-5 0 14 1.64 2.28
-5 0 14 2.11 1.59
-5 0 13 7.34 3.42
5 0 -13 8.06 3.44
-5 0 13 13.26 4.47
5 0 -12 3.78 2.09
-5 0 12 1.85 1.45
-5 0 12 0.27 0.63
5 0 -11 1294.58 41.86
-5 0 11 1359.98 41.38
-5 0 11 1334.43 43.48
-5 0 10 5.25 2.9
5 0 -10 1.6 1.24
5 0 -10 1.15 2.92
-5 0 10 5.45 2.24
5 0 -9 1435.35 40.12
5 0 -9 1444.6 54.1
-5 0 9 1346.76 38.82
-5 0 9 1357.67 40.47
5 0 -8 0.41 0.65
5 0 -8 1.69 1.42
-5 0 8 0.97 0.39
5 0 -7 189.13 13.35
-5 0 7 201.32 13.69
5 0 -7 209.94 17.62
-5 0 7 211.7 14.38
-5 0 6 1.85 1.61
-5 0 6 0.83 1.05
5 0 -6 0.86 0.87
5 0 -6 4.8 2.23
-5 0 5 675.98 21.43
5 0 -5 661.63 22.81
5 0 -5 697.74 26.1
5 0 -5 639.7 23.67
-5 0 4 6.4 1.9
5 0 -4 0.44 0.67
5 0 -4 4.84 1.95
5 0 -4 0.56 0.75
-5 0 3 1301.43 23.86
5 0 -3 1287.64 32.76
5 0 -3 1304.22 30.73
5 0 -3 1328.64 27.41
5 0 -2 0.66 0.44
-5 0 2 1.45 0.99
-5 0 2 0.53 0.63
-5 0 1 1708.71 36.27
-5 0 1 1632.17 19.07
5 0 -1 1736.5 38.79
-5 0 0 1.53 1.19
5 0 0 4.16 2.11
-5 0 -1 36.08 5.78
-5 0 -2 6.69 2.46
-5 0 -2 2.04 0.76
-5 0 -3 493.61 14.76
-5 0 -3 491.27 23.11
5 0 4 1.74 1.49
-5 0 -4 -0.48 1.07
-5 0 -4 0.65 0.91
-5 0 -5 1629.96 35.95
5 0 5 1699.13 45.6
-5 0 -5 1636.19 46.76
5 0 6 0.79 1.13
-5 0 -6 1.45 1.11
-5 0 -6 -0.25 1.02
-5 0 -7 2932.74 59.65
5 0 7 3132.77 65.78
-5 0 -7 3061.6 70.55
5 0 8 4.55 2.87
-5 0 -8 2.27 2.7
-5 0 -9 2610.59 67.52
-5 0 -9 2674.33 73.07
5 0 9 2632.55 61.42
5 0 10 4.4 2.71
-5 0 -10 0.14 0.8
-5 0 -11 1627.75 62.24
5 0 11 1721.92 52.65
5 0 12 1.96 2.83
5 0 13 1552.61 53.44
5 0 14 1.04 0.77
5 0 15 782.61 40.71
5 0 16 0.94 2.21
5 0 17 587.48 37.51
5 0 18 3.9 4.78
-5 1 20 215.54 23.77
-5 1 19 188.54 21.83
-5 1 18 221.41 23.15
-5 -1 18 228.29 23.95
-5 -1 17 467.54 33.4
-5 1 17 486.07 33.18
-5 -1 16 1303.61 53.54
-5 1 16 1296.89 52.94
-5 -1 15 505.81 32.06
-5 1 15 566.97 33.71
-5 -1 15 520.37 24.78
-5 1 14 511.85 31.04
-5 -1 14 529.98 24.11
-5 -1 14 481.59 30.04
5 1 -14 457.67 24.18
-5 1 13 515.17 30.24
-5 -1 13 485.95 29.2
5 1 -13 495.98 23.73
-5 -1 13 502.72 22.69
-5 -1 12 186.94 17.38
-5 1 12 220.6 19.35
5 1 -12 189.66 13.72
5 -1 -11 177.01 17.92
-5 1 11 176.58 16.88
-5 -1 11 159.48 15.29
5 1 -11 169.44 12.18
5 1 -10 47.79 6.12
-5 -1 10 51.26 8.33
5 -1 -10 44.31 8.63
-5 1 10 52.6 9.07
5 -1 -10 37.2 8.41
5 1 -10 47.72 10.67
5 -1 -9 1848.24 54.16
5 1 -9 1795 35.84
5 1 -9 1823.12 60.79
5 -1 -9 1827.45 55.64
-5 -1 9 1865.15 48.65
-5 1 9 1817.18 51.29
5 1 -9 1967.77 40.19
5 1 -8 22.91 3.89
-5 -1 8 43.69 7.28
5 -1 -8 35.55 7.29
5 -1 -8 29.55 6.56
5 1 -8 16.22 3.38
5 1 -8 25.55 6.62
-5 1 8 25.63 6.02
5 1 -7 2314.69 39.81
5 -1 -7 2498.35 58.06
5 -1 -7 2421.45 55.51
5 1 -7 2269.57 58.83
-5 -1 7 2444.14 51.62
5 1 -7 2409.59 37.98
-5 1 7 2361.64 55.37
5 1 -6 6.06 1.97
5 1 -6 2.05 0.97
-5 1 6 -0.01 0.51
5 -1 -6 2.63 1.75
5 -1 -6 8.89 3.22
-5 -1 6 3.98 2.26
5 1 -6 5.02 2.93
5 -1 -5 3976.58 67.34
5 -1 -5 3827.05 60.01
5 1 -5 3902.41 50.01
-5 -1 5 3985.25 60.18
5 1 -5 3776.62 65.13
-5 1 5 3841.98 68.06
5 1 -5 3827.22 46.38
5 -1 -4 66.72 8.44
-5 1 4 65.94 8.55
5 1 -4 56.8 6.01
-5 -1 4 60.09 7.06
5 1 -4 64.12 7.87
5 -1 -4 69.45 7.21
-5 -1 3 1075.31 25.58
5 -1 -3 1051.75 32.47
-5 -1 3 1094.07 28.69
5 -1 -3 1022.48 24.42
5 1 -3 1119.33 27.84
5 1 -2 23.42 4.27
-5 -1 2 25.9 4.17
5 -1 -2 23.41 3.16
-5 -1 2 22.01 3.95
5 -1 -2 22.21 4.48
5 -1 -1 755.87 26.4
-5 -1 1 753.88 24.06
5 1 -1 754.17 24.85
5 1 0 1417.21 35.47
-5 -1 0 1367.15 34.8
5 -1 0 1394.92 37.72
5 -1 0 1461.64 37.1
-5 1 0 1417.34 36.44
-5 1 -1 852.2 28.7
5 1 1 891.16 29.42
5 -1 1 885.96 30.48
5 -1 1 895.43 15.78
-5 -1 -1 868.53 29.3
-5 1 -2 428.32 20.82
5 1 2 421.61 20.84
5 -1 2 442.11 21.61
5 -1 2 451.48 12.38
-5 -1 -2 438.27 21.96
-5 1 -3 1672.35 42.61
5 -1 3 1754.26 27.88
5 -1 3 1687.67 43.2
-5 -1 -3 1690.54 45.58
-5 1 -4 2930.72 58.48
5 -1 4 3002.31 40.95
-5 1 -4 2894.9 40.39
5 -1 4 2934.71 58.77
-5 -1 -4 2933.1 63.59
-5 1 -5 1233.52 39.46
-5 1 -5 1141.02 29.06
5 -1 5 1200.66 28.92
5 -1 5 1235.74 39.09
-5 -1 -5 1214.32 43.11
-5 -1 -6 730.55 29.6
5 -1 6 714.34 24.21
-5 1 -6 701.78 30.99
-5 1 -6 723.16 25.12
5 1 6 719.12 30.83
5 -1 6 719.04 30.61
-5 -1 -6 721.04 34.84
5 -1 7 1178.91 40.31
5 -1 7 1250.84 34.96
-5 1 -7 1221.29 42.85
-5 1 -7 1225.7 36.12
5 1 7 1187.75 40.76
-5 -1 -7 1230.19 48.24
5 -1 8 1010.37 37.91
-5 -1 -8 1006.49 40.8
5 -1 8 1001.09 33.42
-5 1 -8 1067.29 41.59
5 1 8 1002.86 39.13
5 -1 9 62.87 8.9
5 -1 9 52.63 8.89
-5 1 -9 71.18 11.3
-5 1 -9 60.02 9.63
5 1 9 69.8 10.67
-5 -1 -9 70.37 11.59
-5 -1 -10 344.61 27.64
5 -1 10 370.17 24.4
-5 1 -10 359.68 26.28
-5 1 -10 339.69 24.45
5 1 10 384.51 25.59
5 -1 10 370.32 22.7
5 -1 11 148.93 15.17
-5 1 -11 129.35 16.28
5 -1 11 142.73 14.71
5 1 11 146.68 16.26
5 -1 12 1057.96 42.41
5 -1 12 1076.64 41.05
5 1 12 1119.65 46.65
5 -1 13 42.43 8.37
5 1 13 34.78 8.5
5 -1 13 37.5 8.44
5 -1 14 1184.27 45.91
5 1 14 1189.9 51.53
5 -1 14 1222.09 49.45
5 -1 15 -0.27 1.91
5 1 15 4.13 3.46
5 -1 15 0.98 1.55
5 -1 16 700.1 40.31
5 -1 16 700.37 37.53
5 1 16 699.98 42.01
5 1 17 5.28 3.67
5 -1 17 0.45 3.69
5 1 18 526.35 39.07
-5 2 19 46.31 11.78
-5 2 18 101.68 17.23
-5 -2 17 17.96 6.78
-5 2 17 22.39 7.78
-5 -2 16 491.22 34.21
-5 2 16 528.21 37.12
-5 -2 15 35.97 8.63
-5 2 15 41.03 9.91
-5 -2 14 1841.18 62
-5 2 14 1974.24 68.21
-5 -2 13 16.04 5.89
-5 2 13 16.62 6.18
-5 2 12 2573 73.64
-5 -2 12 2357.96 66.75
-5 -2 11 36.28 8.22
-5 2 11 42.57 9.27
-5 2 10 3031.18 76.37
-5 -2 10 2961.87 70.62
-5 -2 9 12.21 4.46
-5 2 9 21.41 6.24
-5 2 8 1684.17 54.85
-5 -2 8 1674.86 50.37
5 -2 -8 1635.79 48.8
-5 2 7 13.2 4.76
5 2 -7 16.87 2.28
5 -2 -7 13.25 4.12
5 2 -7 14.41 2.28
5 -2 -7 12.3 4.55
-5 -2 7 22.65 5.77
-5 2 6 2013.73 57.43
5 -2 -6 2123.87 59.89
5 -2 -6 2087.19 49.65
-5 -2 6 2103.87 54.09
-5 -2 5 1.17 0.69
5 -2 -5 1.47 2.14
-5 -2 5 0.95 0.98
-5 2 5 0.62 1.41
5 -2 -4 2586.73 62.38
-5 -2 4 2486.04 35.75
-5 2 4 2454.55 60.29
-5 -2 4 2512.63 56.84
5 2 -4 2394.9 40.27
-5 -2 3 35.09 4.79
5 -2 -3 32.92 6.73
-5 -2 3 35.14 6.5
5 2 -3 34.32 5.26
-5 2 3 38.54 7.43
5 -2 -2 4700.93 79.65
-5 2 2 4765.41 80.06
-5 -2 2 4699.13 61.08
5 -2 -2 4640.34 79.81
5 2 -2 4677.04 63.19
5 -2 -1 53.46 8.26
5 -2 -1 43.6 7.53
-5 -2 1 50.9 6.87
5 2 -1 49.62 6.85
5 -2 0 5393.42 81.64
-5 -2 0 5184.71 74.3
5 -2 1 55.1 8.22
5 -2 1 50.85 7.75
-5 -2 -1 65.37 8.99
5 -2 2 3149.24 62.76
5 -2 2 3127.68 50.97
5 -2 2 3112.9 61.59
-5 -2 -2 3204.44 66.51
5 -2 3 1.96 1.89
5 2 3 0.72 1.18
-5 -2 -3 3.53 2.79
5 -2 3 0.79 0.77
-5 -2 -4 1235.05 45.2
5 -2 4 1225.77 39.24
5 -2 4 1296.2 34.52
5 -2 4 1234.95 37.99
5 2 4 1250.8 41.36
-5 2 -4 1309.22 40.42
-5 2 -5 259.61 18.3
-5 -2 -5 234.73 20.83
5 -2 5 263.8 16.05
5 -2 5 275.98 18.05
5 -2 5 276.48 19.07
5 2 5 256.5 19.51
-5 2 -6 553.67 27.3
5 -2 6 568.19 24.51
5 -2 6 597.19 28.4
5 2 6 593.28 30.46
5 -2 7 12.65 4.18
5 2 7 19.23 5.67
5 -2 7 20.14 4.86
-5 2 -7 20.15 5.39
-5 2 -8 778.69 34.46
5 -2 8 824.08 31.98
-5 2 -8 795.31 34.14
5 2 8 821.28 38.17
5 -2 8 805.78 34.59
5 -2 9 198.94 17.48
-5 2 -9 166.43 16.56
5 -2 9 157.56 14.62
-5 2 -9 171.6 16.88
5 2 9 196.09 19.12
-5 2 -10 134.56 15.47
5 -2 10 180.73 16.91
-5 2 -10 141.99 16.16
5 -2 10 171.15 15.77
5 2 10 191.17 19.38
5 -2 11 94.64 12.28
5 -2 11 96.82 12.74
5 2 11 81.21 13.23
5 2 12 1116.21 50.3
5 -2 12 1203.21 45.94
5 -2 12 1262.24 47.02
5 -2 12 1196.93 41.92
5 -2 13 72.74 11.78
5 2 13 67.62 12.79
5 -2 13 82.47 11.2
5 2 14 17.61 6.93
5 -2 14 16.84 6.13
5 -2 14 28.38 6.69
5 2 15 3.69 3.73
5 -2 15 -1.13 2.15
5 2 16 6.36 4.21
5 -2 16 2.94 3
5 -2 17 135.74 18.36
5 -2 18 72.46 13.96
-5 3 16 282.64 29.63
-5 3 15 652.57 43.94
-5 -3 15 608.76 39.94
-5 3 14 100.41 16.81
-5 -3 14 69.77 13.45
-5 3 13 663.35 42.17
-5 -3 13 612.66 38.55
-5 -3 12 33.53 8.72
-5 3 12 31.93 9.14
-5 3 11 638.52 39.85
-5 -3 11 560.18 35.23
-5 -3 10 4.59 3.51
-5 3 10 -1.16 1.15
-5 3 9 1644.02 61.64
-5 -3 9 1613.8 58.27
-5 -3 8 6.15 3.34
-5 3 8 0.42 1.55
-5 3 7 2449.97 71.86
-5 -3 7 2474.18 69.79
5 3 -6 22.43 3.42
-5 3 6 14.22 5.32
5 3 -5 4103.13 55.74
-5 -3 5 4066.19 38.9
-5 3 5 4057.45 89.03
5 3 -4 174.19 12.51
-5 -3 4 139.83 9.3
-5 -3 4 140.29 16.1
-5 3 4 158.15 17.35
-5 3 3 1555.79 52.99
-5 -3 3 1558.66 53.13
-5 -3 3 1564.4 36.63
5 3 -3 1465.83 38.97
-5 -3 2 16.87 4.11
5 -3 -2 20.33 6.15
-5 3 2 22.83 6.39
5 -3 -1 1123.75 44.77
-5 3 1 1073.51 42.46
-5 -3 1 1147.11 37.53
5 -3 -1 1070.93 42.64
-5 -3 0 48 8.16
5 -3 0 42.99 8.39
5 -3 0 41.93 8.45
5 3 0 57.15 8.92
-5 -3 -1 1062.53 40.67
5 -3 1 1063.64 41.09
5 -3 1 1070.85 41.89
5 3 1 1093.74 39.49
-5 -3 -2 526.28 30.04
5 -3 2 580.93 29.98
5 -3 2 553.51 29.7
5 -3 2 547.46 27.99
5 3 2 549.59 28.84
-5 -3 -3 1613.67 55.19
5 -3 3 1635.96 50.33
5 -3 3 1702.5 49.51
5 -3 3 1624.11 50.34
5 3 3 1603.94 51.14
5 -3 4 95.1 11.68
5 -3 4 93.05 12.04
5 -3 4 88.17 11.51
5 3 4 101.19 13.25
5 -3 5 1305.41 44.2
5 -3 5 1329.69 45.03
5 -3 5 1321.41 44.45
5 3 5 1331.76 48.82
5 -3 6 132.98 14.07
5 -3 6 145.73 14.96
5 -3 6 155.51 15.43
5 3 6 139.34 16.34
5 -3 7 1266.48 44.23
5 -3 7 1229.3 44.09
5 3 7 1172.61 48.59
5 -3 8 171.5 16.9
5 -3 8 143.21 14.46
5 -3 8 169.46 16.37
5 3 8 179.82 19.52
5 3 9 204.41 21.24
5 -3 9 190.42 18.18
5 -3 9 182.96 16.14
5 -3 9 200.22 17.88
5 3 10 85.57 14.34
5 -3 10 77.74 11.25
5 -3 10 78.19 12.09
5 3 11 100.09 15.79
5 -3 11 84.61 11.8
5 -3 11 92.36 13.32
5 3 12 101.05 16.23
5 -3 12 90.81 12.29
5 -3 12 90.43 13.6
5 3 13 33.48 9.79
5 -3 13 22.94 6.84
5 3 14 299.03 30.25
5 -3 14 283.67 25.28
5 -3 15 11.82 5.61
5 -3 16 71.09 13.32
-5 -4 13 13.84 6.58
-5 4 13 11.51 6.97
-5 -4 12 177.18 22.81
-5 4 12 192.87 24.62
-5 4 11 260.11 28.31
-5 -4 11 269.62 27.64
-5 -4 10 442.67 35.3
-5 4 10 506.47 38.62
-5 4 9 436.38 35.1
-5 -4 9 396.76 33.08
-5 -4 8 46.03 11.31
-5 4 8 48.02 11.33
-5 -4 7 15.23 6.36
-5 4 7 19.79 7.37
-5 4 6 690.41 41.91
-5 -4 6 740.73 43.84
5 4 -5 51.74 7
-5 -4 5 50.06 11.66
-5 4 5 49.64 11.05
-5 -4 4 166.83 20.34
-5 4 4 158.23 19.33
-5 4 3 404.1 30.25
-5 -4 3 353.88 29.57
-5 -4 3 348.07 19.84
5 4 -2 327.55 22.71
-5 4 2 330.15 26.62
-5 -4 2 272.54 19.35
5 -4 -2 303.56 26.48
5 4 -1 210.44 18.79
-5 4 1 206.97 20.88
5 -4 -1 219.78 22.02
-5 -4 1 198.1 17.84
5 -4 0 254.09 23.02
-5 -4 0 241.27 20.77
5 4 0 283.94 22.59
-5 4 0 287.63 23.93
5 4 1 47.2 9.75
5 -4 1 52.45 10.27
-5 -4 -1 45.44 9.59
5 -4 2 563.12 34.97
5 4 2 591.29 34.36
5 -4 2 544.47 32.86
5 4 3 142.75 17.45
5 -4 3 143.37 16.72
5 -4 3 141.89 17.48
5 -4 4 182.36 19.95
5 4 4 178.59 19.8
5 -4 4 169.03 17.9
5 4 5 338.76 27.97
5 -4 5 307.04 23.7
5 -4 5 321.14 26.2
5 -4 6 26.96 6.87
5 4 6 20.16 6.79
5 -4 6 27.32 7.95
5 4 7 908.16 48.06
5 -4 7 897.61 39.72
5 -4 7 921.3 45.18
5 4 8 62.01 12.98
5 -4 8 74.76 11.27
5 -4 8 76.68 13.26
5 4 9 693.47 43.71
5 -4 9 700.58 40
5 4 10 49.9 12.07
5 -4 10 42.49 10.01
5 4 11 551.21 40.99
5 -4 11 524.69 35.71
5 -4 12 82.39 14.58
5 -4 13 363.81 30.42
-5 5 8 -1.89 3.72
-5 5 7 113.82 19.27
-5 -5 7 140.59 21.65
-5 -5 6 12.09 6.26
-5 5 6 4.08 2.48
-5 -5 5 19.19 8.44
-5 5 5 25 8.86
-5 -5 4 4.64 4.23
-5 5 4 10.09 5.33
5 -5 -3 45.84 11.37
-5 -5 3 55.56 13.29
-5 -5 2 3.2 3.4
5 -5 -2 2.92 3.75
-5 5 2 1.15 2.57
5 -5 -1 2.4 3.43
5 5 -1 3.05 3.6
-5 5 1 3.07 2.62
5 -5 0 162.43 20.28
5 5 0 174.85 20.3
5 5 1 41.46 10.18
5 -5 1 26.51 8.32
5 -5 1 27.52 8.53
5 5 2 171.34 21.24
5 -5 2 164.39 20.22
5 -5 2 181.09 23.17
5 -5 3 10.06 4.75
5 -5 3 12.31 6.58
5 5 3 17.27 7.15
5 5 4 953.96 51.62
5 -5 4 968.66 54.01
5 5 5 57.19 12.86
5 -5 5 70.82 14.8
5 5 6 287.53 29.41
5 -5 6 282.8 29.25
5 -5 7 15.37 7.25
5 5 7 15.6 7.22
5 -5 8 250.32 27.36
5 -5 9 3.32 1.79
5 -5 10 157.05 21.88
-6 0 18 12.87 5.96
-6 0 18 5.95 1.67
-6 0 17 -1.92 1.81
-6 0 17 10.63 4.26
-6 0 16 110.47 14.06
-6 0 16 111.52 15.36
-6 0 15 0.52 2.14
-6 0 15 0.84 1.07
-6 0 14 337.28 23.42
-6 0 14 324.84 24.5
6 0 -14 275.38 22.21
-6 0 13 1.88 1.38
-6 0 13 5.17 2.49
6 0 -12 1434.64 46.91
-6 0 12 1488.52 48.3
-6 0 12 1389.83 45.21
-6 0 11 0.05 0.73
6 0 -11 1.8 0.67
-6 0 11 1.89 1.75
6 0 -10 1863.44 49.07
-6 0 10 1878.44 49.95
-6 0 10 1858.37 49.15
6 0 -9 7.16 3.04
6 0 -9 7.29 4.55
-6 0 9 3.24 2.25
-6 0 9 5.2 2.72
6 0 -8 3617.29 63.57
6 0 -8 3708.16 81.59
-6 0 8 3520.09 64.54
-6 0 8 3688.79 62.52
6 0 -7 1.15 0.83
-6 0 7 1.4 1.44
6 0 -7 -0.12 0.57
6 0 -7 2.8 1.8
-6 0 6 771.02 24.89
6 0 -6 740.9 26.84
6 0 -6 741.53 30.58
6 0 -6 717.14 27.7
-6 0 5 0.18 0.68
6 0 -5 0.76 1.38
6 0 -5 1.02 1.06
6 0 -5 1.58 1.12
6 0 -4 3364.35 59.05
-6 0 4 3492.98 44.78
6 0 -4 3416.88 54.64
6 0 -4 3329.79 51.08
6 0 -3 1.87 1.54
-6 0 3 2.51 1.42
-6 0 3 -0.23 0.63
6 0 -3 0.38 0.66
6 0 -3 1.32 1.39
-6 0 2 3985.38 60.27
6 0 -2 4015.42 64.57
-6 0 2 4042.59 36.41
6 0 -2 3853.98 38.89
-6 0 1 0.89 0.49
-6 0 1 0.01 0.83
-6 0 0 5060.69 72.19
6 0 0 5031.7 74.33
-6 0 -1 0.36 0.79
-6 0 -2 8575.43 47.75
-6 0 -2 8411.79 99.85
-6 0 -3 3.36 2.13
-6 0 -3 1.14 0.81
-6 0 -4 5318 54.41
-6 0 -4 5548.17 86.91
-6 0 -5 0.38 0.73
-6 0 -5 1.25 1.21
6 0 5 0.64 1.99
6 0 6 886.25 36.39
-6 0 -6 904.53 29.24
-6 0 -6 902.44 38.8
-6 0 -7 -1.88 1.87
-6 0 -7 -0.15 0.56
6 0 7 0.19 1.33
6 0 8 1813.82 55.31
-6 0 -9 0.22 1.58
6 0 9 -0.44 1.8
6 0 10 1479.99 50.41
-6 0 -10 1461.16 53.89
6 0 11 -0.6 1.63
-6 0 -11 0.8 1.77
6 0 12 1858.15 59.39
6 0 13 -0.76 1.67
6 0 14 844.11 42.23
6 0 15 2.29 2.7
6 0 16 382.57 30.47
6 0 17 -7.48 4.35
6 0 18 30.97 9
-6 1 19 24.82 7.68
-6 -1 18 564.79 37.78
-6 1 18 576.55 37.51
-6 -1 17 327.12 27.93
-6 1 17 329.04 27.34
-6 1 16 487.26 32.91
-6 -1 16 454.45 31.9
-6 1 15 213.41 21.17
-6 -1 15 211.21 20.98
-6 -1 14 1142.52 46.72
-6 1 14 1216.87 49.2
-6 -1 13 181.01 17.92
-6 1 13 208.31 19.63
6 1 -13 177.89 14.74
6 1 -12 496.92 22.99
-6 1 12 546.86 31.35
-6 -1 12 518.66 29
6 1 -11 80.04 8.7
-6 1 11 64.05 10.46
-6 -1 11 68.27 10.26
6 1 -11 76.59 9.28
6 1 -10 652.06 26.09
6 -1 -10 600.66 32.34
6 1 -10 575.98 22.42
-6 1 10 596.64 31.15
6 -1 -10 613.36 34.45
-6 -1 10 602.78 29.16
6 1 -9 1625.22 39.63
6 -1 -9 1670.34 52.14
6 1 -9 1610.62 36.21
6 -1 -9 1702.12 54.33
-6 1 9 1628.54 50.69
-6 -1 9 1581.07 45.03
6 1 -9 1598.18 57.89
6 1 -8 142.97 11.37
6 -1 -8 154.31 15.33
-6 -1 8 148.29 13.48
6 1 -8 147.32 10.63
6 -1 -8 159.58 15.63
-6 1 8 145.22 14.81
6 1 -8 144.84 16.33
6 -1 -7 1456.7 45.26
6 1 -7 1328.81 34.1
6 1 -7 1409.12 31.88
6 -1 -7 1428.51 43.61
-6 1 7 1352.45 44.36
-6 -1 7 1404.88 39.28
6 1 -7 1328.17 45.63
6 -1 -6 317.19 20.75
6 1 -6 331.96 16.67
6 -1 -6 362.78 20.26
6 1 -6 333.53 15.28
-6 1 6 343.26 21.72
6 1 -6 331.86 21.31
-6 -1 6 335.04 18.27
6 -1 -5 3241.02 55.82
6 1 -5 3138.18 51.04
-6 1 5 3112.51 64.23
-6 -1 5 3223.02 54.7
6 -1 -5 3314.17 63.89
-6 -1 4 433.91 17.74
6 -1 -4 453.25 18.93
6 1 -4 436.11 19.31
6 -1 -4 471.98 23.43
-6 -1 4 447.33 19.63
-6 -1 3 3295.4 50.75
6 -1 -3 3280.07 45.32
-6 -1 3 3358.68 51.51
6 1 -3 3286.47 54.4
6 -1 -3 3297.1 60.52
-6 -1 2 475.35 18.59
-6 -1 2 473.82 20.24
6 -1 -2 464.77 14.54
6 1 -2 467.66 21.12
6 -1 -2 484.43 23.01
6 -1 -1 2013.08 24.83
-6 -1 1 1946.65 43.1
-6 -1 1 2006.06 36.82
6 -1 -1 2136.99 48.23
6 1 -1 2034.81 45.32
-6 1 1 2143.79 48.89
-6 -1 0 144.88 12.28
6 -1 0 183.77 14.31
6 -1 0 139.45 5.41
6 1 0 165.86 13.43
-6 1 0 153.04 12.98
-6 1 -1 1654.97 43.45
6 -1 1 1619.96 44.83
-6 -1 -1 1564.13 42.44
-6 1 -2 88.7 10.34
6 -1 2 83.38 4.74
-6 -1 -2 92.08 10.82
6 -1 2 92.54 10.72
-6 1 -3 2214.53 52.98
6 -1 3 2130.08 28.9
6 1 3 2250.73 53.8
-6 -1 -3 2291.85 56.3
6 -1 3 2243.06 54.53
-6 1 -4 591.92 28.49
6 -1 4 623.34 18.24
6 1 4 638.4 29.56
6 -1 4 621.44 29.08
-6 -1 -4 637.46 31.34
-6 -1 -5 2231.22 48.65
6 1 5 2176.67 56.99
6 -1 5 2158.16 38.05
-6 1 -5 2217.67 56.96
-6 1 -5 2189.22 38.43
-6 -1 -5 2173.64 60.74
6 -1 5 2132.65 55.59
-6 -1 -6 133.48 12.97
-6 1 -6 127.26 14.08
6 -1 6 131.85 10.53
6 1 6 127.51 14.13
-6 -1 -6 125.13 15.32
6 1 6 124.62 13.7
6 -1 6 122.29 13.49
-6 1 -6 144.06 10.94
6 -1 7 1924.37 55.11
6 -1 7 1847.15 42.09
-6 1 -7 1900.62 56.59
-6 1 -7 1937.38 44.34
6 1 7 1956.84 55.71
6 -1 8 115.13 13.72
6 -1 8 110.03 10.99
-6 -1 -8 110.3 13.95
-6 1 -8 132.18 15.69
6 1 8 107.41 13.37
6 -1 9 2502.1 65.6
-6 1 -9 2388.18 58.68
-6 -1 -9 2384.59 69.35
6 1 9 2459.74 65.87
6 -1 9 2392.4 54.73
6 -1 10 1.92 1.02
6 1 10 1.69 2.47
-6 -1 -10 -0.08 1.93
-6 1 -10 4.13 2.47
6 -1 11 373.67 24.05
-6 1 -11 291.01 23.97
6 -1 11 372.4 26.71
6 1 11 337.57 25.72
6 -1 12 219.34 19.2
6 -1 12 241.26 20.41
6 1 12 223.06 21.68
6 -1 13 279.41 22.79
6 -1 13 293.64 23.23
6 1 13 287.15 25.05
6 -1 14 341.22 26.07
6 -1 14 307.45 24.63
6 1 14 318.25 27.18
6 -1 15 102.94 15.03
6 -1 15 87.46 13.41
6 1 15 103.93 16.31
6 -1 16 315.18 26.96
6 -1 16 315.59 26.31
6 1 16 312.5 28.71
6 1 17 280.69 28.14
-6 2 19 1689.58 72.53
-6 2 18 1 1.32
-6 2 17 566.68 39.98
-6 -2 17 526.82 36.62
-6 2 16 -0.31 2.55
-6 -2 16 4.67 3.33
-6 2 15 781.03 44.34
-6 -2 15 697.45 39.53
-6 -2 14 26.88 7.6
-6 2 14 10.05 4.79
-6 2 13 745.85 41.46
-6 -2 13 651.75 36.31
-6 -2 12 33.59 8.12
-6 2 12 28.45 8.03
-6 2 11 1691.52 59.9
-6 -2 11 1598.56 54.17
-6 2 10 94.04 13.81
-6 -2 10 95.63 12.86
6 2 -10 86.5 4.88
6 2 -9 2035.97 24.38
6 2 -9 2049.7 27.91
-6 2 9 2177.56 65.05
-6 -2 9 2178.05 59.69
6 2 -8 177.63 8.3
6 -2 -8 186.54 16.52
-6 2 8 168.65 17.86
-6 -2 8 178.41 16.65
6 2 -8 183.99 9.05
6 2 -7 1339.04 25.19
6 -2 -7 1301.29 41.42
6 2 -7 1328.56 25.92
-6 -2 7 1381.72 45.53
-6 2 7 1379.37 50.32
6 -2 -6 60.84 10.43
6 2 -6 64.07 6.06
6 -2 -6 56.47 8.17
-6 -2 6 59.02 9.14
-6 2 6 70.45 11.28
-6 -2 5 789.63 21.07
6 -2 -5 855.33 37.71
6 -2 -5 826.82 29.72
-6 -2 5 893.13 34.75
-6 2 5 829.01 37.48
6 2 -5 800.18 22.88
-6 -2 4 82.47 7.5
6 -2 -4 85.23 11.48
6 2 -4 80.53 7.78
-6 2 4 84.99 11.83
-6 -2 4 76.72 10.05
6 2 -3 57.64 6.96
6 -2 -3 58.51 9.3
-6 -2 3 49.21 6.44
-6 2 3 65.39 10.22
-6 -2 3 71.52 9.61
6 -2 -3 63.02 9.92
6 -2 -2 126.99 13.54
6 2 -2 96.57 9.56
-6 -2 2 103.66 9.79
-6 -2 2 116.9 12.04
6 -2 -2 106.71 12.69
6 -2 -1 51.15 8.6
6 -2 -1 58.3 9
6 2 -1 57.47 7.68
-6 -2 1 61.56 8.2
6 -2 0 473.71 26.23
6 -2 0 502.7 26.24
-6 -2 0 478.69 24.16
6 -2 1 1.53 1.81
-6 -2 -1 1.36 1.23
6 -2 1 0 0.95
6 -2 1 3.97 2.64
6 -2 2 245.09 18.81
6 -2 2 243.2 18.18
6 -2 2 237.42 13.47
-6 -2 -2 244.23 19.19
6 2 2 240.09 17.85
6 -2 3 95.47 11.81
6 -2 3 97.57 11.4
6 2 3 84.13 10.97
-6 -2 -3 83.81 11.77
6 -2 3 94.79 8.74
-6 2 -3 88.43 11.19
6 -2 4 120.69 12.75
6 -2 4 112.05 9.83
6 -2 4 110.66 12.62
6 2 4 116.96 13.29
-6 -2 -4 102.61 13.77
-6 2 -4 119.27 13.06
6 -2 5 4.32 2.81
-6 2 -5 -2.11 1.77
6 -2 5 9.59 3.07
6 2 5 15.05 4.85
6 -2 5 7.35 3.39
6 -2 6 51.63 7.27
-6 2 -6 42.74 8.29
6 -2 6 41.13 7.98
6 2 6 52.84 9.53
6 -2 7 35.4 7.48
6 2 7 34.53 7.76
6 -2 7 35.97 6.39
-6 2 -7 38.41 7.87
-6 2 -8 126.97 14.89
6 -2 8 144.65 13.23
6 2 8 134.52 15.96
6 -2 8 144.66 15.75
6 -2 9 731.35 35.9
6 -2 9 703.36 30.69
-6 2 -9 639.63 32.01
6 2 9 767.85 39.05
6 -2 10 97.15 13.3
6 -2 10 100.15 12.1
-6 2 -10 81.81 12.1
6 2 10 84.95 13.32
6 -2 11 1007.01 43.65
6 -2 11 933.08 38.78
6 2 11 935.74 45.44
6 2 12 42.97 10.08
6 -2 12 29.89 7.08
6 -2 12 35.8 8.42
6 -2 13 598.65 33.42
6 -2 13 617.9 32.68
6 2 13 704.91 41.76
6 -2 14 39.82 8.49
6 2 14 50.71 11.51
6 -2 14 31.04 7.98
6 2 15 219.8 24.95
6 -2 15 188.2 19.97
6 -2 16 11.73 5.38
6 -2 17 60.22 12.32
-6 3 16 658.18 46.09
-6 3 15 57.6 13.58
-6 -3 15 40.85 10.39
-6 3 14 1622.74 68.91
-6 -3 14 1578.08 63.47
-6 -3 13 0.7 1.77
-6 3 13 1.55 1.11
-6 3 12 976.01 51.14
-6 -3 12 928.15 46.81
-6 -3 11 77.53 13.24
-6 3 11 77.62 14.35
-6 3 10 765.91 43.77
-6 -3 10 719.7 39.99
-6 3 9 199.3 22.02
-6 -3 9 173.09 19.27
-6 -3 8 409.99 29.44
-6 3 8 387.88 29.91
6 3 -7 439.3 14.99
-6 3 7 446.02 31.69
-6 -3 7 434.88 29.81
-6 3 6 189.64 20.22
-6 -3 6 198.67 19.66
6 3 -6 191.76 11.94
-6 -3 5 230.42 11.14
-6 3 5 250.73 22.85
-6 -3 5 267.09 22.8
6 3 -5 238.76 14.81
-6 -3 4 509.59 19.98
-6 3 4 506.9 31.91
-6 -3 4 537.57 32.03
6 3 -4 498.2 22.92
-6 3 3 817.31 39.83
-6 -3 3 817.22 28.36
-6 -3 3 864.83 40.06
6 -3 -3 825.6 41.07
-6 3 2 763.1 38.03
-6 -3 2 765.43 29.93
6 -3 -2 741.11 37.88
6 -3 -1 164.11 17.43
-6 -3 1 180.22 15.69
6 3 -1 180.69 15.55
6 -3 0 249.87 21.27
-6 -3 0 218.98 18.18
6 3 0 271.04 19.68
6 -3 1 285.11 22.54
6 -3 1 293.1 22.85
-6 -3 -1 304.22 22.79
6 3 1 285.8 21.08
6 -3 2 64.74 10.97
6 -3 2 65.87 10.69
-6 -3 -2 50.28 9.72
6 -3 2 54.98 8.69
6 3 2 51.64 9.2
6 -3 3 247.78 20.79
6 -3 3 243.65 20.6
6 -3 3 248.23 18.51
6 3 3 209.27 19.04
6 -3 4 202.43 16.78
6 -3 4 164.97 16.83
6 -3 4 184.04 17.94
6 3 4 188.87 18.6
6 -3 5 311.64 22.94
6 -3 5 333.94 23.89
6 -3 5 327.28 21.78
6 3 5 308.17 24.47
6 -3 6 157.91 15.3
6 -3 6 127.95 14.61
6 -3 6 151.81 16.42
6 3 6 146.72 17.4
6 -3 7 313.34 22.75
6 -3 7 374.54 23.94
6 -3 7 396.2 26.46
6 3 7 362.98 28.14
6 -3 8 71.77 10.74
6 -3 8 104.95 12.77
6 -3 8 100.56 13.46
6 3 8 99.4 14.82
6 -3 9 511.77 29.29
6 -3 9 494.36 30.48
6 3 9 517.98 34.99
6 3 10 38.35 9.86
6 -3 10 32.94 7.72
6 -3 10 34.22 7.94
6 -3 11 78.01 11.92
6 -3 11 56.38 10.29
6 3 11 67.73 13.15
6 3 12 237.77 25.63
6 -3 12 221.19 20.91
6 -3 12 217.31 20.62
6 3 13 26.85 8.93
6 -3 13 33.08 8.23
6 -3 14 439.72 31.29
6 -3 15 -0.87 2.86
-6 -4 12 544.74 40.31
-6 4 12 584.95 43.6
-6 -4 11 42.54 10.75
-6 4 11 65.9 14.41
-6 4 10 584.95 41.72
-6 -4 10 568.94 40.35
-6 4 9 337.19 31.28
-6 -4 9 368.07 32.46
-6 4 8 880.04 49.89
-6 -4 8 814 47.52
-6 4 7 219.17 24.56
-6 -4 7 220.34 24.37
-6 -4 6 362.74 31.02
-6 4 6 338.2 30.27
6 4 -5 65.2 8.68
-6 -4 5 54.44 12.29
-6 4 5 67.2 13.15
-6 4 4 599.53 38.3
-6 -4 4 590.49 39.15
6 -4 -3 1.51 1.48
6 4 -3 1.83 1.31
-6 -4 3 -0.34 2.09
-6 4 3 1.74 1.76
6 4 -2 1209.92 45.4
-6 4 2 1073.09 49.93
-6 -4 2 1155.89 53.27
-6 -4 2 1098.15 40.08
6 -4 -2 1113.96 52.38
6 -4 -1 150.99 18.89
6 4 -1 153.97 17.02
-6 -4 1 129.66 14.99
6 4 0 1365.85 50.93
6 -4 0 1343.46 55.35
-6 -4 0 1242.08 49.07
6 4 1 46.27 9.79
6 -4 1 54.58 11.01
6 4 2 2274.52 68.35
6 -4 2 2223.51 70.13
6 -4 2 2173.71 67.55
6 -4 3 64 11.82
6 4 3 57.54 11.2
6 -4 3 48.95 10.22
6 4 4 1020.5 48.23
6 -4 4 1026.98 46.65
6 -4 4 1084.04 47.68
6 -4 5 8.25 4.03
6 4 5 10.16 5.08
6 -4 5 7.74 5
6 4 6 432.18 32.97
6 -4 6 481.02 32.24
6 -4 6 454.58 30.57
6 4 7 26.56 8.62
6 -4 7 30.49 7.99
6 -4 7 31.39 7.9
6 4 8 389.99 32.71
6 -4 8 381.91 28.79
6 -4 8 371.73 27.39
6 4 9 98.88 17.22
6 -4 9 92.95 14.28
6 4 10 446.65 36.79
6 -4 10 382.59 29.56
6 -4 11 12.33 5.27
6 -4 12 464.73 33.34
-6 5 8 6.23 4.63
-6 5 7 615.06 45.51
-6 -5 6 6.2 4.5
-6 5 6 9.54 6.49
-6 5 5 1139.43 59.99
-6 -5 5 1291.37 66.03
6 -5 -4 48.26 12.28
-6 -5 4 43.52 12.24
-6 5 4 31.93 9.31
-6 -5 3 708 47.91
-6 5 3 723.57 46.13
6 -5 -3 666.11 44.55
6 -5 -2 4.62 3.89
-6 -5 2 1.57 3.83
-6 5 2 10.25 6.06
6 -5 -1 652.67 43.34
6 5 -1 641.43 38.86
6 5 0 1.86 2.35
6 -5 0 2.56 2.04
6 5 1 516.29 36.58
6 -5 1 467.46 35.97
6 -5 1 446.73 36.23
6 -5 2 16.26 7.71
6 5 2 35.3 9.79
6 -5 2 35.02 10.25
6 5 3 689.39 43.92
6 -5 3 655.89 41.82
6 -5 3 592.39 41.89
6 5 4 76.16 15.4
6 -5 4 67.89 13.92
6 5 5 742.78 47.41
6 -5 5 703.11 45.39
6 5 6 10.41 6.35
6 -5 6 0.67 2.57
6 5 7 718.37 48.15
6 -5 7 730 46.51
6 -5 8 5.3 4.17
-7 0 18 -2.98 0.9
-7 0 17 1243.43 53.56
-7 0 17 1231.02 49.35
-7 0 16 2.88 3.25
-7 0 16 1.13 1.51
-7 0 15 1403.45 53.21
-7 0 15 1468.95 51.83
7 0 -14 0.22 0.98
-7 0 14 4.07 3.4
-7 0 14 0.96 1.79
7 0 -13 1339.17 47.77
-7 0 13 1435.7 49.61
-7 0 13 1471.81 49.53
-7 0 12 1.62 2.2
7 0 -12 -0.37 0.95
-7 0 12 0.06 1.42
7 0 -11 1562.28 47.86
-7 0 11 1630.12 48.72
-7 0 11 1601.12 49.35
-7 0 10 -0.83 1.44
7 0 -10 -0.06 1.2
7 0 -10 3.42 3.95
7 0 -9 3044.2 62.69
-7 0 9 2915.56 58.93
7 0 -9 3051.27 80.41
7 0 -9 3027.4 65.37
-7 0 8 1.42 1.44
7 0 -8 2.18 2.6
7 0 -8 3.31 2.23
7 0 -7 5786.28 81.14
-7 0 7 5585.15 73.42
7 0 -7 5659.5 93.06
-7 0 6 2 2.03
7 0 -6 1.42 1.38
7 0 -6 0.12 0.48
-7 0 5 4941.14 59.07
7 0 -5 4912.31 70.77
-7 0 4 0.75 1.03
7 0 -4 0.85 0.6
7 0 -4 1.25 0.43
-7 0 3 1494.14 26.24
-7 0 3 1467.54 39.31
-7 0 2 2.82 1.13
-7 0 2 5.54 2.34
-7 0 1 1642.39 43.34
-7 0 1 1783.04 19.85
-7 0 0 0.6 0.83
-7 0 -1 169.93 14.74
-7 0 -2 3.9 2.54
-7 0 -2 2.01 0.67
-7 0 -3 2527.32 61.02
-7 0 -3 2481.37 29.41
7 0 4 0.9 1.53
-7 0 -4 2.3 1.28
7 0 5 499.92 28.5
-7 0 -5 468.41 28.01
-7 0 -5 456.3 17.83
-7 0 -6 -1 1.71
-7 0 -6 1.48 1.43
7 0 7 1724.03 55.1
-7 0 -7 1636.43 42.92
7 0 8 0.44 1.09
7 0 9 485.56 30.75
7 0 10 2.3 1.21
7 0 10 2.8 2.97
-7 0 -10 -0.61 2.4
7 0 11 0.29 0.81
-7 0 -11 8.73 4.88
7 0 12 0.2 1.63
7 0 13 114.11 15.76
7 0 14 0.7 2.06
7 0 15 15.77 6.35
7 0 16 0.12 1.98
7 0 17 89.09 15.48
-7 1 19 12.11 5.33
-7 -1 18 471.77 34.65
-7 1 18 450.36 33.73
-7 -1 17 16.35 6.47
-7 1 17 14.06 5.81
-7 -1 16 343.2 27.72
-7 1 16 372.89 29.23
7 1 -15 9.11 3.97
-7 -1 15 3.03 3.75
-7 1 15 7.48 4.02
-7 1 14 2072.46 66.04
-7 -1 14 2031.13 62.51
7 1 -13 29.6 5.94
-7 -1 13 30.84 7.39
-7 1 13 30.93 7.82
7 1 -12 1798.76 45.1
-7 -1 12 1892.49 56.14
-7 1 12 1828.98 59.23
7 1 -11 7.55 3.01
-7 -1 11 8.37 3.33
7 1 -11 7.86 3.52
-7 1 11 6.4 3.69
7 1 -10 2249.76 47.32
-7 -1 10 2241.78 56.25
7 -1 -10 2267.7 68.59
-7 1 10 2143.52 61.88
7 -1 -9 23.54 6.54
-7 -1 9 13.39 4.32
7 -1 -9 15.41 5.24
7 1 -9 16.22 3.99
7 1 -9 12.13 5.36
-7 1 9 22.28 6.14
7 1 -9 19.46 4.73
7 -1 -8 629.4 31.59
7 1 -8 616.98 26.41
7 1 -8 648.23 24.15
7 -1 -8 632.22 31.91
-7 -1 8 590.53 26.87
-7 1 8 587.87 31.09
7 1 -8 564.81 32.52
7 -1 -7 137.83 14.33
7 1 -7 121.99 11.45
7 1 -7 145.56 15.47
7 1 -7 140.12 11.05
-7 1 7 116.81 13.63
7 -1 -7 153.25 14.6
-7 -1 7 149.64 12.95
7 1 -6 1331.54 37.4
7 -1 -6 1452.37 45.48
7 -1 -6 1376.38 40.84
-7 1 6 1406.71 46.78
-7 -1 6 1366.18 37.46
7 1 -6 1298.23 42.72
7 1 -6 1427.68 35.07
7 -1 -6 1360.57 45.31
7 -1 -5 1002.35 36.88
7 -1 -5 955.77 31.08
7 1 -5 951.37 31.37
-7 -1 5 946.69 29.9
7 1 -5 884.15 32.75
-7 -1 5 953.09 29
7 -1 -5 901.33 36.22
-7 -1 4 1175.67 32.24
7 -1 -4 1094.23 39.48
7 -1 -4 1240.02 40.08
7 -1 -4 1150.53 30.74
-7 -1 4 1218.57 32.71
7 1 -4 1196.42 35.89
-7 -1 3 859.95 28.79
7 -1 -3 870.91 23.34
7 -1 -3 938.64 34.41
-7 -1 3 920.47 27.26
7 1 -3 880.83 31.22
-7 -1 2 3211.25 58.05
7 -1 -2 3136.14 37.34
-7 -1 2 3230.02 49.03
7 1 -2 3225.19 60.97
7 -1 -1 1560.53 44.41
-7 -1 1 1512.4 32.53
-7 1 1 1596.47 45.22
-7 -1 0 1813.2 47.13
-7 1 0 1884.56 49.21
-7 1 -1 248.06 18.1
7 -1 1 231.66 18.37
-7 -1 -1 246.53 17.85
-7 1 -2 680.55 30.45
7 1 2 653.46 30.51
7 -1 2 656.09 30.9
-7 -1 -2 656 30.65
-7 1 -3 675.56 31.4
7 1 3 688.59 31.79
7 -1 3 618.4 12.8
7 -1 3 657.64 31.64
-7 -1 -3 646.6 31.89
7 -1 4 46.96 4.46
7 1 4 48.49 8.83
7 -1 4 53.89 9.46
-7 -1 -4 46.99 8.96
-7 1 -4 40.2 7.95
-7 1 -5 844.07 37.33
-7 -1 -5 843.97 30.81
7 -1 5 775.85 21.46
7 1 5 916.08 39.1
-7 1 -5 849.29 22.3
-7 -1 -5 792.04 38.41
7 -1 5 857.72 37.75
-7 1 -6 123.6 14.74
7 -1 6 103.5 8.79
7 1 6 117.79 14.3
-7 1 -6 124.91 9.82
7 -1 6 113.73 14.13
7 -1 7 1366.29 34.96
-7 1 -7 1399.34 36.53
7 1 7 1516.15 53.28
7 1 7 1376.61 49.13
7 -1 7 1481.71 51.31
7 -1 8 61.02 10.62
7 -1 8 42.47 6.79
7 1 8 62.43 10.68
-7 1 -8 53.34 7.83
-7 -1 -8 51.93 9.93
7 -1 9 1432.75 52.5
-7 -1 -9 1423.72 54.47
7 1 9 1515.08 54.13
7 -1 9 1377.86 40.53
7 -1 10 3.14 3.3
7 1 10 3.7 2.16
7 -1 10 3.65 2.41
-7 -1 -10 0.41 2.17
-7 1 -10 4.05 2.76
7 -1 11 295.14 21.03
7 -1 11 324.61 26.27
-7 1 -11 301.39 23.71
7 1 11 284.3 24.93
7 -1 12 46.47 9.49
7 1 12 50.55 10.6
7 -1 12 45.44 8.7
7 -1 12 53.22 10.9
7 -1 13 418.93 27.35
7 -1 13 395.84 28.39
7 1 13 435.58 32.04
7 -1 14 41.39 9.4
7 1 14 39.18 10.2
7 -1 15 184.75 20.4
7 1 15 188.29 22.46
7 -1 16 122.51 17.01
7 1 16 120.41 18.4
-7 2 18 19.51 7.86
-7 -2 17 40.13 10.21
-7 2 17 51.2 12.08
-7 2 16 521.73 37.83
-7 -2 16 523.36 35.77
-7 -2 15 65.56 12.32
-7 2 15 80.53 14.67
-7 2 14 88.28 14.75
-7 -2 14 80.19 13.02
-7 -2 13 19.15 6.22
-7 2 13 24.75 7.58
7 2 -12 49.42 4.69
-7 -2 12 49.08 9.74
-7 2 12 52.32 10.98
7 2 -11 255.99 12.24
-7 2 11 302.27 25.96
-7 -2 11 299.23 23.46
7 2 -11 260.52 11.28
7 2 -10 322.61 13.28
-7 2 10 308.72 25.68
-7 -2 10 328.97 24
7 2 -10 311.45 12.98
7 2 -9 53.22 5.57
-7 -2 9 61.41 10.07
-7 2 9 66.92 11.81
7 2 -9 53.84 5.69
7 -2 -8 775.85 34.3
7 2 -8 804.67 22.72
-7 2 8 844.18 41.24
-7 -2 8 770.37 34.84
7 2 -8 784.39 22.96
-7 2 7 177.68 18.5
7 2 -7 177.84 11.11
7 -2 -7 174.03 15.28
-7 -2 7 165.1 15.82
7 2 -7 178.08 11.39
7 2 -6 309.78 15.88
7 -2 -6 337.39 19.98
-7 2 6 309.78 24.21
-7 -2 6 300.09 21.07
-7 -2 5 210.6 12.47
7 2 -5 204.56 13.37
7 -2 -5 189.99 14.18
-7 2 5 213.01 19.84
-7 -2 5 199.59 16.8
7 -2 -5 208.98 19.55
-7 -2 4 56.14 7.01
7 2 -4 76.58 8.6
7 -2 -4 54.55 9.56
-7 2 4 58.4 10.32
-7 -2 4 74.68 10.08
7 -2 -4 58.69 10.1
7 -2 -3 88.41 12.44
7 2 -3 68.02 8.41
-7 -2 3 86.68 10.78
-7 -2 3 88.36 9.3
7 -2 -3 82.91 11.64
7 -2 -2 841.54 37.69
7 -2 -2 975.6 39.39
-7 -2 2 895.45 31.68
-7 -2 2 920.67 34.29
7 -2 -1 134.98 14.88
7 -2 -1 150.24 15.4
-7 -2 1 135.01 12.97
7 -2 0 2602.82 66.02
7 -2 0 2815.54 65.94
-7 -2 0 2662.29 60.81
7 -2 1 5.51 3.11
7 2 1 6.02 3.28
7 -2 1 6.49 2
7 -2 1 3.38 2.31
7 -2 2 3174.74 72.7
7 -2 2 3212.23 70.15
7 -2 2 3079.99 46.16
-7 -2 -2 3072.85 71.65
7 2 2 3109.53 68.71
7 -2 3 83.48 11.74
7 -2 3 83.34 11.33
7 -2 3 80.89 7.71
-7 -2 -3 76.18 11.77
7 2 3 74.19 10.91
-7 2 -3 77.6 11.13
7 -2 4 2481.52 44.23
7 -2 4 2540.37 62.7
7 -2 4 2550.7 66.01
7 2 4 2506.91 64.75
-7 2 -4 2422.39 62.68
7 2 5 12.57 4.56
7 -2 5 8.09 3.94
7 -2 5 9.65 2.97
-7 2 -5 8.59 3.92
7 -2 5 6.49 2.97
7 -2 6 1103.93 32.45
7 -2 6 1145.79 45.18
7 2 6 1125.76 45.51
7 -2 7 64.16 8.24
7 -2 7 73.55 11.62
7 2 7 74.73 12
7 -2 8 1261.94 38.44
7 2 8 1321.49 52.06
7 -2 8 1357.34 51.37
7 2 9 5.52 3.51
7 -2 9 9.12 3.74
7 -2 9 6.71 3.92
7 -2 10 1194.57 49.39
7 -2 10 1209.48 41.75
7 2 10 1146.91 51.13
7 2 11 -0.58 2.05
7 -2 11 -1.27 2.63
7 -2 11 -0.27 1.47
7 -2 12 905.65 39.33
7 -2 12 1034.52 47.7
7 2 12 1046.76 51.68
7 -2 13 23.11 6.75
7 2 13 26.12 8.57
7 -2 13 22.4 6.35
7 -2 13 22.88 7.53
7 -2 14 1067.76 45.81
7 -2 14 1085.07 46.45
7 2 14 1170.14 57.21
-7 -3 15 2.97 2.41
-7 3 15 6.56 3.88
-7 3 14 463.15 37.33
-7 -3 14 438.62 33.89
-7 -3 13 4.85 3.56
-7 3 13 7.5 4.03
-7 3 12 402.52 33.72
-7 -3 12 366.16 29.62
-7 -3 11 52.47 11.02
-7 3 11 54.71 12.04
-7 -3 10 245.91 23.3
-7 3 10 274.43 26.57
-7 -3 9 36.79 9.19
-7 3 9 33.89 9.08
7 3 -8 235.51 11.1
7 3 -8 245.42 9.76
-7 3 8 262.93 25.42
-7 -3 8 261.2 23.61
-7 3 7 81.94 14.12
-7 -3 7 87.85 13.69
7 3 -7 88.54 8.42
7 3 -6 26.63 5.3
-7 -3 6 39.84 9.04
-7 3 6 36.76 9.36
-7 -3 6 41.86 4.67
-7 -3 5 859.83 24.88
-7 3 5 936.07 45.48
7 3 -5 871.5 30.99
-7 -3 4 269.41 15.92
-7 3 4 276.54 24.63
-7 -3 4 279.79 23.34
7 -3 -4 266.61 24.59
-7 -3 3 781.6 29.49
-7 3 3 779.6 40.86
-7 -3 3 764.33 38.48
7 -3 -3 778.21 41.15
7 -3 -2 486.63 31.95
-7 -3 2 473.33 24.93
-7 -3 2 558.71 32.43
7 3 -2 478.16 25.8
7 -3 -1 2034.57 64.32
-7 -3 1 1881.83 53.14
7 3 -1 1904.34 53.09
7 -3 0 429.71 29.66
-7 -3 0 408.54 26.31
7 3 0 399.72 25.16
7 -3 1 321.75 25.48
7 -3 1 294.5 19.72
-7 -3 -1 297.24 23.47
7 3 1 306.52 22.56
7 -3 2 82.13 12.8
7 -3 2 83.48 10.59
7 3 2 78.62 11.74
7 -3 3 831.56 40.63
7 -3 3 770.95 31.6
7 3 3 795.75 38.32
7 -3 4 4.78 2.9
7 3 4 5.08 3.13
7 -3 4 7.53 3.41
7 -3 5 1038.42 37.68
7 -3 5 1076.55 45.96
7 3 5 1149.17 48.42
7 3 6 28.59 7.93
7 -3 6 20.28 6.42
7 -3 6 22.58 5.51
7 -3 7 1465.19 46.28
7 -3 7 1525.75 55.75
7 3 7 1540.23 58.67
7 -3 8 17.82 5.89
7 3 8 18 6.36
7 -3 8 24.26 6.14
7 -3 9 1637.69 51.34
7 -3 9 1735.15 60.76
7 3 9 1753.69 66.48
7 3 10 4.78 4.37
7 -3 10 3.54 2.59
7 -3 10 3.23 2.25
7 -3 11 611.34 36.26
7 -3 11 588.62 32.61
7 3 12 7.28 4.15
7 -3 12 3.92 3.03
7 -3 12 4.06 2.66
-7 -4 12 1.14 2.5
-7 4 12 4.31 5.13
-7 4 11 472.72 39.15
-7 -4 11 560.34 40.53
-7 -4 10 12.75 6.09
-7 4 10 18.68 7.5
-7 4 9 1111.4 58.07
-7 -4 9 1022.37 54.34
-7 4 8 114.52 18.47
-7 -4 8 130.15 19.15
-7 4 7 1554.19 66.74
-7 -4 7 1619.52 66.71
-7 -4 6 4.01 3.6
-7 4 6 1.17 2.34
-7 4 5 1148.06 55.78
-7 -4 5 1195.76 56.92
7 -4 -5 1332.6 63.14
7 4 -4 121.3 13.71
-7 4 4 143.19 19.42
-7 -4 4 139.79 19.37
7 -4 -4 144.1 20.29
7 4 -3 634.04 32.59
-7 4 3 606.27 39.4
-7 -4 3 654.77 41.15
7 -4 -3 591.61 40.14
7 4 -2 50.52 9.56
7 -4 -2 54.85 12.18
-7 -4 2 47.42 10.9
7 4 -1 207.58 19.76
7 -4 -1 176.83 21.36
7 4 0 334.57 25.6
7 -4 0 405.3 32.09
7 4 1 136 16.74
7 -4 1 148.25 19.32
7 -4 1 149.31 17.46
7 -4 2 25.51 7.78
7 4 2 29.37 8.25
7 -4 2 23.36 6.57
7 4 3 452.97 32.04
7 -4 3 437.88 32.78
7 -4 3 449.4 30.33
7 4 4 585.67 37.2
7 -4 4 582.32 37.45
7 -4 4 584.48 34.14
7 4 5 305.21 27.32
7 -4 5 276.59 25.39
7 -4 5 285.51 24.18
7 4 6 116.02 17.44
7 -4 6 135.29 16.65
7 -4 6 140.65 18.12
7 4 7 271.12 27
7 -4 7 235.01 21.93
7 -4 7 251.98 24.06
7 4 8 161.28 21.26
7 -4 8 140.87 17.11
7 -4 8 180.13 20.19
7 4 9 32.64 9.96
7 -4 9 29.82 8.19
-7 5 7 43.1 12.21
-7 5 6 384.07 36.08
7 -5 -6 394.06 38.1
7 -5 -5 18.3 7.81
-7 -5 5 14.78 7.56
-7 5 5 18.41 8.6
-7 5 4 579.56 43.3
-7 -5 4 704.3 49.07
7 -5 -4 635.92 46.13
-7 -5 3 115.52 19.75
7 -5 -3 96.73 17.72
7 -5 -2 598.98 43.48
-7 -5 2 637.98 45.63
-7 -5 1 -3.41 3.34
7 -5 -1 6.21 5.15
7 5 0 563.7 38.09
7 -5 0 496.56 39.03
7 -5 0 492.74 37.56
7 5 1 11.11 5.41
7 -5 1 20.35 7.99
7 -5 1 13.7 6.76
7 5 2 218.95 24.65
7 -5 2 222.91 25.72
7 -5 2 213.12 24.98
7 -5 3 7.06 5.12
7 5 3 -0.74 2.88
7 -5 3 1.39 1.7
7 5 4 78.74 15.31
7 -5 4 59.24 13.15
7 5 5 9.87 5.23
7 -5 5 11.85 5.75
7 5 6 10.62 6.25
-8 0 18 618.72 39.28
-8 0 17 0.74 2.29
-8 0 17 -2.25 2.67
-8 0 16 1340.07 53.86
-8 0 16 1282 51.83
-8 0 15 -0.01 1.73
-8 0 15 0.65 1.66
-8 0 14 1466.95 52.38
8 0 -13 7.41 3.65
-8 0 13 0.8 0.91
8 0 -12 245.76 20.14
-8 0 12 258.91 20.41
8 0 -12 286.29 22.54
-8 0 11 0.23 0.7
8 0 -11 -2.15 1.86
8 0 -10 112.01 12.78
-8 0 10 108.87 12.21
8 0 -10 97.35 15.53
8 0 -10 96.39 12.49
-8 0 9 2.44 2
8 0 -9 0.01 1.8
8 0 -9 1.48 1.05
8 0 -9 1.34 1.53
-8 0 8 9.87 3.55
8 0 -8 6.33 3.41
8 0 -8 8.73 3.34
8 0 -8 3.47 1.93
-8 0 7 2.35 1.54
8 0 -7 2.91 2.31
8 0 -7 4.52 2.5
8 0 -7 2.63 1.89
8 0 -6 57.06 9.36
-8 0 6 57.71 6.94
8 0 -6 73.26 9.57
8 0 -6 65.72 9.15
8 0 -5 5.74 3.39
-8 0 5 1.76 1.25
8 0 -5 2.31 1.9
8 0 -5 1.94 1.63
8 0 -4 35.16 7.28
-8 0 4 32.49 4.44
8 0 -4 44.2 5.79
8 0 -4 34.9 6.55
-8 0 3 2.59 2.01
-8 0 3 1.11 0.75
-8 0 2 24.27 2.92
8 0 -2 15.86 4.85
-8 0 2 22.15 5.28
-8 0 1 2.55 0.77
-8 0 1 2.47 2.23
-8 0 0 693.04 30.89
8 0 0 647.32 31.42
-8 0 -1 3.17 2.5
8 0 1 5.1 2.98
-8 0 -2 303.01 21.75
8 0 2 313.69 22.55
-8 0 -3 -1.02 1.34
8 0 3 2.15 2.65
-8 0 -3 0.69 0.53
-8 0 -4 2168.16 61.85
-8 0 -4 2203.65 31.45
8 0 4 2253.76 63.42
8 0 5 1.28 2.24
-8 0 -5 0.6 0.82
8 0 6 1918.41 60.85
-8 0 -6 1976.9 40.35
8 0 7 3 2.89
-8 0 -7 0.88 0.63
8 0 8 689.4 37.53
-8 0 -8 645.52 28.5
8 0 9 0.64 1.58
8 0 10 410.2 30.4
-8 0 -10 348.57 24.96
8 0 11 0.57 1.16
8 0 12 731.4 40.6
8 0 13 -1.86 3.03
8 0 14 1622.46 63.74
8 0 15 2.06 2.65
8 0 16 811.61 47.25
-8 1 19 648.27 41.79
-8 -1 18 20.32 7.39
-8 1 18 25.74 8.37
-8 -1 17 227.48 23.47
-8 1 17 225.69 23.6
-8 -1 16 203.5 21.69
-8 1 16 219.27 22.79
8 1 -15 286.08 22.79
-8 -1 15 224.45 22
-8 1 15 221.28 22.62
-8 -1 14 570.28 33.82
-8 1 14 609.11 36.68
-8 -1 13 163.09 17.16
-8 1 13 166.71 18.85
8 1 -12 1000.49 35.1
-8 -1 12 1103.8 43.04
-8 1 12 1042.44 46.36
8 1 -11 272.98 17.84
-8 -1 11 259.45 20.14
-8 1 11 265.59 22.91
8 1 -10 972.17 32.66
8 -1 -10 1013.68 46.58
-8 -1 10 938.82 36.87
-8 1 10 980.63 43.58
8 1 -9 737.36 27.95
-8 -1 9 678.39 29.97
8 -1 -9 754.74 37.69
-8 1 9 672.36 35.64
8 -1 -9 740.44 36.62
8 1 -8 899.34 30.52
8 -1 -8 911.57 39.42
-8 -1 8 864.19 32.76
-8 1 8 826.02 38.88
8 1 -8 855.12 40.59
8 -1 -8 895.75 39.89
8 -1 -7 225.89 18.94
8 1 -7 216.6 15
-8 -1 7 227.46 16.25
8 1 -7 195.22 18
8 -1 -7 227.98 18.27
8 -1 -7 225.24 19.6
8 -1 -6 479.57 28.28
8 -1 -6 498.8 27.55
8 -1 -6 492.94 24.78
-8 -1 6 498.88 22.95
8 1 -6 435.01 24.67
8 1 -6 516.65 23.29
-8 -1 5 25.93 5.24
8 -1 -5 29.47 5.5
-8 -1 5 31.15 5.4
8 -1 -5 31.92 7.23
8 -1 -5 34.73 7.2
-8 -1 4 1592.08 41.3
8 -1 -4 1516.7 50.02
8 -1 -4 1695.31 49.32
8 -1 -4 1592.59 36.04
-8 -1 4 1574.47 37.4
-8 -1 3 112.7 11.3
8 -1 -3 98.62 12.74
8 -1 -3 120.94 13.21
8 -1 -3 106.29 7.93
-8 -1 3 114.22 9.72
-8 -1 2 1473.46 42.66
8 -1 -2 1465.46 49.05
8 -1 -2 1546.21 47.26
-8 -1 2 1487.58 33.75
8 -1 -2 1414.27 22.56
-8 -1 1 725.78 31.07
8 -1 -1 683.49 33.58
8 -1 -1 838.38 35
-8 -1 1 772.97 23.72
8 1 -1 769.54 33.26
-8 1 1 787.89 33.7
-8 -1 0 1435.28 44.93
8 -1 0 1373.79 47.87
-8 -1 0 1373.7 31.25
8 1 0 1363.76 45.1
-8 1 0 1419.17 45.68
-8 1 -1 75.9 10.65
-8 -1 -1 72.17 10.41
8 -1 1 65.03 10.25
8 1 1 77.15 11.05
8 1 2 1273.21 45.75
-8 1 -2 1286.08 44.73
-8 -1 -2 1168.4 43.22
8 -1 2 1265.56 46.46
-8 1 -3 104.78 13.14
8 1 3 108.8 13.49
-8 -1 -3 97.24 12.95
8 -1 3 103.31 13.61
8 1 4 1350.88 49.06
8 -1 4 1353.9 49.54
-8 -1 -5 283 18.46
8 1 5 293.34 23.37
8 -1 5 303.77 23.88
8 1 6 80.18 12.6
-8 1 -6 77.38 7.2
8 -1 6 68.71 11.59
8 1 7 1100.68 47.69
-8 1 -7 1024.45 30.11
8 -1 7 1056 46.19
8 -1 8 220.98 21.48
-8 -1 -8 224.85 20.63
-8 1 -8 228.27 15.66
8 1 8 217.97 21.28
8 -1 9 830.75 42.22
-8 -1 -9 744.5 39.55
8 1 9 782.76 40.56
8 -1 10 90.1 14.15
-8 1 -10 79.59 10.98
-8 -1 -10 79.94 13.87
8 1 10 88.54 14.04
8 -1 11 946.39 46.78
8 1 11 907.25 46.05
8 -1 12 383.87 30.63
8 1 12 388.98 30.83
8 -1 13 588.8 36.54
8 1 13 651.32 40.85
8 -1 14 92.35 14.9
8 1 14 144.21 21.65
8 -1 15 255.71 24.95
8 1 15 250.52 26.62
8 -1 16 1.9 2.27
-8 2 18 9.46 5.51
-8 -2 17 1085.66 53.33
-8 2 17 1127.31 58.25
-8 -2 16 32.89 9.09
-8 2 16 38.52 10.48
-8 -2 15 603.13 37.46
-8 2 15 628.75 41.62
-8 -2 14 102.82 15
-8 2 14 110.16 16.96
-8 -2 13 585 34.96
-8 2 13 618.04 39.49
-8 -2 12 12.82 5.18
-8 2 12 13.64 5.95
-8 -2 11 651.76 35.27
-8 2 11 621.93 38.28
8 2 -11 614.2 21.84
8 2 -10 26.32 4.41
-8 -2 10 33.56 7.93
8 2 -10 34.15 5.4
-8 2 10 32.43 8.72
8 2 -9 2067.95 40.3
-8 2 9 2032 67.09
-8 -2 9 2045.2 58.93
8 2 -9 2121.61 42.93
8 2 -8 2.1 1.47
8 -2 -8 2.93 2.33
-8 -2 8 2.93 1.2
8 2 -8 -0.53 0.82
-8 2 8 4.4 2.7
8 -2 -7 2991.22 64.05
8 2 -7 3295.38 55.45
-8 2 7 3125.96 81.53
-8 -2 7 3109.58 70.03
8 -2 -7 3033.92 80.33
8 2 -7 3162.68 56.03
8 2 -6 0.94 1.43
-8 -2 6 3.03 1.8
8 -2 -6 7.68 4.4
8 -2 -6 4.74 2.47
-8 -2 6 3.51 2.21
-8 2 6 3.36 3.17
-8 -2 5 3396.94 55.97
8 2 -5 3367.41 61.2
8 -2 -5 3394.25 59.74
-8 -2 5 3490.78 71.16
8 -2 -5 3314.94 81.21
8 -2 -4 27.89 5.06
8 -2 -4 22.01 6.39
-8 -2 4 25.04 5.79
-8 -2 4 22.9 4.99
8 -2 -3 3461.57 81.42
-8 -2 3 3581.42 64.92
8 -2 -3 3660.65 53.78
8 -2 -2 77.93 12.14
8 -2 -2 76.01 7.14
-8 -2 2 84.45 10.44
-8 -2 2 79.27 10.29
8 -2 -1 1251.91 48.8
8 2 -1 1248.67 41.7
-8 -2 1 1205.06 41.07
8 -2 0 27.09 7.25
-8 -2 0 23.38 6.09
8 2 0 38.04 7.61
8 -2 0 33.29 4.5
8 -2 1 1046.15 44.51
8 2 1 1032.51 40.37
8 -2 1 943.44 23.52
-8 -2 -1 1002.05 41.26
8 -2 2 61.72 6.09
8 -2 2 47.18 9.59
8 2 2 49.84 9.35
-8 -2 -2 41.61 8.76
8 -2 3 2051.29 35.68
8 -2 3 1995.59 61.44
8 2 3 2086.63 60.74
8 -2 4 51.41 5.87
8 -2 4 54.12 10.16
8 2 4 60.57 10.63
8 -2 5 1353.57 32.15
8 -2 5 1463.93 54.01
8 2 5 1408.16 52.35
8 -2 6 40.91 5.96
8 2 6 64.99 11.58
8 -2 6 48.6 9.9
8 -2 7 1434.62 37.36
8 -2 7 1499.6 56.04
8 2 7 1578.52 57.68
8 -2 8 40.68 9.43
8 2 8 45.66 10.03
8 -2 8 35.99 6.44
8 -2 9 655.75 38.28
8 -2 9 592.53 26.9
8 2 9 616.33 37.92
8 -2 10 20.01 6.82
8 2 10 23.77 7.94
8 -2 10 22.13 5.6
8 -2 11 165.05 19.71
8 -2 11 157.29 15.17
8 2 11 167.97 20.78
8 -2 12 67.57 10.37
8 -2 12 57.01 11.9
8 2 12 68.85 13.66
8 2 13 26.88 8.72
8 -2 13 14.67 6.15
-8 -3 15 4.93 4.09
-8 3 15 4.03 2.58
-8 3 14 900.27 53.22
-8 -3 14 829.45 46.85
-8 -3 13 23.71 8.01
-8 3 13 33.37 9.76
-8 3 12 1209.58 59.16
-8 -3 12 1051.17 50.93
-8 3 11 159.16 21.19
-8 -3 11 162.62 19.6
-8 3 10 1723.92 68.67
-8 -3 10 1583.01 60.62
-8 3 9 93.8 15.83
-8 -3 9 84.31 13.92
-8 3 8 949.72 49.63
-8 -3 8 969.36 46.31
8 3 -8 947.22 28.54
8 3 -7 6.15 2.39
-8 -3 7 -0.1 1.78
-8 3 7 4.88 3.62
8 -3 -6 984.25 40.27
-8 3 6 917.87 47.72
-8 -3 6 963.52 44.62
8 3 -6 977.73 33.82
8 -3 -6 1072.27 52.85
-8 -3 6 903.25 25.62
8 -3 -5 12.27 4.21
8 -3 -5 7.01 4.64
-8 -3 5 13.03 5.27
-8 -3 5 8.74 2.82
-8 3 5 10.87 5.23
-8 -3 4 1438.62 54.27
8 3 -4 1344.51 42.93
8 -3 -4 1383.68 57.56
-8 -3 3 4.01 2.45
8 3 -3 5.92 3.06
8 -3 -3 2.1 2.13
8 -3 -2 1520.73 59.41
-8 -3 2 1464.77 46.36
-8 -3 2 1666.08 56.85
8 3 -2 1501.53 48.27
8 -3 -1 276.23 25.07
-8 -3 1 225.13 19.38
8 3 -1 249.91 20.37
8 -3 0 2036 67.81
-8 -3 0 1870.43 59.01
8 3 0 1956.89 58.17
8 -3 1 0.46 2.38
8 3 1 2.75 2
8 -3 1 -0.41 1.52
8 -3 2 1859.83 64.43
8 -3 2 1824.78 47.05
8 3 2 1786.49 58.47
8 -3 3 70.95 12.57
8 -3 3 67.35 9.09
8 3 3 72.57 12.1
8 -3 4 1024.09 47.31
8 -3 4 1008.76 35.36
8 3 4 1006.25 45.93
8 3 5 31.67 8.45
8 -3 5 28.67 8.18
8 -3 5 34.93 6.67
8 -3 6 198.97 16.14
8 -3 6 212.41 21.93
8 3 6 196.08 21.23
8 -3 7 128.45 13.28
8 -3 7 142.99 18.13
8 3 7 134.3 18.07
8 -3 8 356.62 22.49
8 -3 8 368.93 29.25
8 3 8 361.66 30.36
8 -3 9 101.79 12.31
8 -3 9 120.28 16.88
8 3 9 126.5 18.37
8 -3 10 221.39 23.01
8 -3 10 197.87 17.8
8 3 10 206.98 24.06
8 -3 11 270.23 25.67
8 3 11 323.26 30.62
8 -3 12 294.18 26.82
-8 -4 11 75.4 15.23
-8 4 11 82.12 16.73
-8 -4 10 13.59 5.85
-8 4 10 25.45 9.26
-8 4 9 105.62 18.37
-8 -4 9 96.79 16.77
-8 -4 8 6.44 5.07
-8 4 8 -1.26 4.01
-8 4 7 221.39 25.82
-8 -4 7 270.62 27.76
8 -4 -7 289.27 31.44
8 -4 -6 11.13 5.51
-8 -4 6 6.13 4.94
-8 4 6 13.71 6.08
-8 4 5 703.04 45.25
-8 -4 5 644.3 42.32
8 -4 -5 618.36 43.78
8 4 -4 27.73 6.72
8 -4 -4 21.21 8.02
-8 -4 4 21.45 7.54
8 -4 -3 295.77 29.44
-8 -4 3 329.8 29.85
8 4 -3 283.64 22.67
8 4 -2 2.53 2.15
8 -4 -2 3.99 4.45
-8 -4 2 0.73 2.25
8 -4 -1 99.12 16.75
-8 -4 1 95.88 15.77
8 4 -1 79.54 12.67
8 -4 0 94.23 16.24
8 -4 0 80.57 12.78
8 4 0 100.33 14.57
8 -4 1 218.41 24.45
8 -4 1 178.5 18.92
8 4 1 173.75 19.69
8 -4 2 177.67 21.79
8 -4 2 165.17 18.03
8 4 2 192.01 21.08
8 -4 3 175.88 21.86
8 -4 3 176.21 18.47
8 4 3 175.26 20.34
8 -4 4 615.85 40.12
8 -4 4 564.5 32.99
8 4 4 558.35 37.16
8 -4 5 167.2 18.03
8 -4 5 195.8 22.55
8 4 5 183.99 21.86
8 -4 6 442.65 29.11
8 -4 6 475.2 35.29
8 4 6 482.46 36.06
8 -4 7 180.9 21.51
8 4 7 231.18 25.65
8 4 8 169 22.18
8 -4 8 175.48 21.2
8 -5 -6 8.52 5.85
8 -5 -5 7.69 5.13
-8 5 5 -2.08 2.84
8 -5 -4 41.21 12.72
-8 -5 4 35.48 11.38
8 -5 -3 122.89 20.56
-8 -5 3 111.67 19.67
-8 -5 2 78.47 16.29
8 -5 -2 45.19 12.52
-8 -5 1 75.44 15.86
8 -5 -1 78.81 16.43
8 5 0 20.21 7.36
8 -5 0 19.9 7.25
8 -5 0 15.06 6.79
8 -5 1 44.33 12.1
8 5 1 53.66 12.26
8 -5 1 41.87 10.8
8 -5 2 13.98 6.86
8 5 2 21.89 8.15
8 -5 3 31.19 9.92
8 5 3 25.12 9.15
8 5 4 54.69 13.32
8 5 5 90.35 17.08
-9 0 18 3.25 2.75
-9 0 17 199.53 21.64
9 0 -17 180.81 20.94
9 0 -16 1.63 1.21
-9 0 16 -0.79 1.54
-9 0 15 230.45 21.95
9 0 -15 282.56 24.84
-9 0 14 2.99 2.94
9 0 -14 1.55 1.78
-9 0 13 430.91 27.47
9 0 -13 543.52 33.16
-9 0 12 2.18 2.59
9 0 -12 0.54 0.76
9 0 -11 126.73 15.51
-9 0 11 129.25 13.8
-9 0 10 1.09 1.98
9 0 -10 1.79 1.6
9 0 -10 8.12 4.59
9 0 -10 3.27 2.88
9 0 -9 553.4 31.69
9 0 -9 504.14 27.56
-9 0 9 497.38 24.6
9 0 -9 503.3 32.97
-9 0 8 0.75 1.28
9 0 -8 1.53 0.97
9 0 -8 5.1 2.94
9 0 -8 2.41 1.99
9 0 -7 1908.57 57.87
-9 0 7 1904.04 43.28
9 0 -7 1953.48 52.77
9 0 -7 1834.08 52.27
9 0 -6 0.93 1.76
-9 0 6 4.96 2.41
9 0 -6 0.55 1.36
9 0 -6 -0.03 1.18
9 0 -5 4030.03 83.77
-9 0 5 4341.19 56.71
9 0 -5 4501.34 78.9
9 0 -5 3775.2 60.83
9 0 -4 0.61 1.18
-9 0 4 4.49 2.01
9 0 -4 0.9 0.53
9 0 -4 3.07 2.01
-9 0 3 3400.33 40.44
9 0 -3 3286.59 74.63
-9 0 3 3473.49 69.62
-9 0 2 -0.17 0.43
-9 0 2 0.88 0.94
-9 0 1 2875.68 65.42
9 0 -1 2802.57 69.67
9 0 0 0.75 0.67
-9 0 0 0.98 1.9
-9 0 -1 1336.39 47.03
9 0 1 1179.19 46.45
9 0 2 0.64 1.64
9 0 3 2299.88 66.89
9 0 4 4.13 6.25
-9 0 -4 1.14 0.56
9 0 5 2725.15 75.55
-9 0 -5 2580.76 36.98
-9 0 -6 1.3 1.31
9 0 6 2.99 2.48
9 0 7 2255.08 70.53
-9 0 -7 2181.45 44.94
9 0 8 3.89 3.59
-9 0 -8 -0.35 0.78
9 0 9 2858.82 82.77
9 0 10 2.21 2.65
9 0 11 710.85 42.99
9 0 11 635.29 39.1
9 0 12 -0.02 1.98
9 0 13 274.57 26.69
9 0 14 -3.43 3.1
9 0 15 230.14 25.59
-9 1 19 624.38 41.91
-9 1 18 6.49 3.97
-9 -1 17 268.69 25.81
-9 1 17 315.92 29.25
-9 -1 16 15.22 5.66
-9 1 16 14.27 5.72
-9 -1 15 366.34 28.15
-9 1 15 371.08 30.39
9 1 -14 214.43 20.46
-9 -1 14 183.08 19.25
-9 1 14 175.85 20.51
-9 -1 13 338.12 24.93
-9 1 13 399.46 30.34
9 1 -12 217.42 17.05
9 1 -12 303.61 23.47
-9 -1 12 242.21 20.38
-9 1 12 232.71 22.84
9 -1 -12 281.84 24.52
9 1 -11 326.6 20.62
9 1 -11 363.46 25.34
-9 -1 11 332.09 22.94
-9 1 11 337.63 27.2
9 -1 -11 340.64 26.69
9 1 -10 1052.09 36.41
9 1 -10 1158.36 44.31
-9 -1 10 1086.94 39.7
9 -1 -10 1132.63 50.29
9 -1 -10 1104.04 47.22
9 1 -9 617.3 27.63
-9 -1 9 639.9 29.64
9 -1 -9 687.11 37.12
9 1 -9 594.26 36
9 -1 -9 688.43 36.73
9 -1 -8 910.11 41.83
9 1 -8 821.33 31.54
-9 -1 8 915.74 33.92
9 -1 -8 927.68 40.41
9 1 -8 804.92 39.12
9 -1 -7 1134.03 46.54
-9 -1 7 1170.37 37.01
9 1 -7 1169.24 37.72
9 -1 -7 1157.26 41.78
9 -1 -6 1108.11 45.9
-9 -1 6 1190.1 35.75
9 -1 -6 1217.21 39.24
9 1 -6 1255.4 39.86
9 -1 -5 416.76 28
9 -1 -5 403.22 20.12
-9 -1 5 412.71 20.14
9 1 -5 415.85 25.11
-9 -1 5 406.35 22.36
-9 -1 4 324.28 20.16
9 -1 -4 313.92 24.33
9 -1 -4 322.49 15.57
-9 -1 4 332.63 17.36
9 1 -4 312.12 21.97
9 -1 -3 22.12 6.48
9 -1 -3 20.09 3.19
-9 -1 3 28.44 4.92
-9 -1 3 30.06 6.3
9 1 -3 24.84 6.43
-9 -1 2 1331.28 43.81
-9 -1 2 1393.9 32.7
9 -1 -2 1331.98 50.22
9 1 -2 1374.22 46.92
9 1 -1 11.82 4.32
9 -1 -1 13.03 5.05
-9 -1 1 13.15 2.98
-9 -1 0 2504.27 63.67
9 -1 0 2384.1 67.23
-9 -1 0 2598.54 43.21
9 1 0 2576.27 66.21
-9 -1 -1 8 3.72
9 -1 1 8.56 3.98
9 1 1 9.67 4.06
9 1 2 2374.66 66.29
9 -1 2 2479.2 69.85
9 1 3 72.56 11.85
9 -1 3 65.97 11.45
9 1 4 2564.06 71.3
-9 -1 -4 2555.44 51.95
9 -1 4 2637.4 73.65
9 -1 5 7.45 4.61
-9 -1 -5 3.53 2.13
9 1 5 1.85 2.16
9 1 6 253.57 23.29
9 -1 6 257.96 23.7
9 1 7 2.67 1.8
9 -1 7 1.29 1.84
-9 1 -7 2.19 1.49
9 -1 8 964.12 47.45
-9 -1 -8 853.5 39.73
9 1 8 960.74 47.93
-9 1 -8 880.91 28.87
9 1 8 986.64 47.07
9 -1 9 257.36 24.86
-9 -1 -9 235.49 22.08
9 1 9 255.75 24.43
9 -1 10 585.8 37.92
9 1 10 544.71 36.27
9 -1 11 332.12 29.31
9 1 11 308.6 27.79
9 -1 12 853.49 48.14
9 1 12 855.45 47.54
9 1 13 78.47 14.67
9 -1 13 105.38 16.11
9 -1 14 218.32 23.57
9 1 14 264.78 27.58
9 -1 15 77.32 14.2
-9 2 17 43.08 11.55
-9 -2 16 700.55 42.06
-9 2 16 740.95 46.87
-9 -2 15 24.18 7.63
-9 2 15 14.67 6.58
-9 -2 14 1715.31 61.63
-9 2 14 1719.39 69.02
-9 -2 13 35.61 8.57
-9 2 13 35.29 9.79
-9 -2 12 1564.06 56.21
-9 2 12 1569.65 63.58
-9 -2 11 26.4 7.13
-9 2 11 18.12 7.07
9 2 -11 19.52 4.68
-9 -2 10 1063.95 44.21
-9 2 10 1105.37 52.31
9 2 -10 1106.97 34.98
9 2 -9 156.93 12.36
-9 -2 9 156.22 16.53
-9 2 9 162.8 19.83
9 2 -9 163.02 13.66
9 -2 -9 162.65 19.72
9 -2 -8 398.07 25
9 2 -8 430.64 21.23
-9 -2 8 419.6 26.2
-9 2 8 413.87 31.46
9 2 -8 396.87 21.63
9 -2 -8 418.14 31.09
9 2 -7 20.02 5.1
9 -2 -7 18.55 6.61
9 -2 -7 30.79 6.58
-9 -2 7 14.87 4.84
9 2 -7 19.26 4.72
9 -2 -6 595.99 36.25
9 -2 -6 580.92 26.61
-9 -2 6 587.63 29.67
-9 -2 6 550.75 24.11
-9 -2 5 219.73 15.65
9 -2 -5 225.24 22.07
9 -2 -5 235.18 15.74
-9 -2 5 222.77 18.19
9 -2 -4 102.14 14.73
-9 -2 4 100.65 11.19
9 -2 -4 94.78 9.35
-9 -2 4 134.46 13.71
-9 -2 3 17.45 5
9 2 -3 22.06 5.59
9 -2 -3 17.68 3.66
-9 -2 3 16.96 4.63
9 -2 -3 22.24 6.86
9 -2 -2 1904.16 64.01
9 2 -2 1918.86 54.13
9 -2 -2 1882.78 33.96
-9 -2 2 1817.46 52.35
-9 -2 2 1767.33 49.38
9 -2 -1 351.99 27.43
9 -2 -1 323.36 12.7
9 2 -1 310.19 22.35
-9 -2 1 318.07 22.78
-9 -2 1 344.33 21.68
9 -2 0 264.81 10.39
9 -2 0 264.6 23.66
9 2 0 273.91 21.5
-9 -2 0 245.36 20.72
9 -2 0 252.16 11.08
9 -2 1 30.7 8.08
9 -2 1 18.72 2.83
9 2 1 19.63 6.31
9 -2 2 110.51 6.75
9 -2 2 120.14 15.84
9 2 2 121.46 15.14
9 -2 3 189 9.07
9 -2 3 241.16 22.78
9 2 3 225.3 21.04
9 -2 4 632.63 18.15
9 -2 4 692.23 39.11
9 2 4 720.06 38.49
9 -2 5 52.93 5.8
9 2 5 59.76 11.29
9 -2 5 70.14 12.44
9 2 6 26.35 7.93
9 -2 6 28.85 4.55
9 -2 6 21.34 6.98
9 -2 7 96.9 9.01
9 -2 7 119.54 16.6
9 2 7 109.08 15.83
9 -2 8 55.79 7.27
9 -2 8 61.48 12.34
9 2 8 52.62 11.59
9 2 9 41.51 10.34
9 -2 9 30.09 5.76
9 -2 9 32.31 8.81
9 -2 10 50.21 11.4
9 2 10 38.41 10.15
9 -2 11 123.61 18.09
9 2 11 107.01 17.24
9 -2 12 147.81 20.04
9 2 12 136.02 19.91
9 -2 13 10.8 5.78
-9 -3 14 4.95 3.85
-9 3 14 -1.33 2.47
-9 -3 13 305.19 28.25
-9 3 13 330.57 32.29
-9 -3 12 192.82 22.09
-9 3 12 205.48 24.9
-9 3 11 760.11 47.43
-9 -3 11 763.38 42.82
-9 3 10 110.46 17.81
-9 -3 10 143.25 18.2
-9 3 9 1004.09 53.33
-9 -3 9 932.6 45.97
9 -3 -9 1087.01 57.17
-9 3 8 190.87 23.08
-9 -3 8 175.8 19.76
9 3 -8 163.41 13.73
9 -3 -8 197.76 24.02
-9 3 7 1256.38 58.53
-9 -3 7 1183.21 51.07
9 -3 -6 222.62 18.86
-9 -3 6 235.68 22.58
9 -3 -6 234.12 25.04
9 -3 -5 515.42 37.1
-9 -3 5 463.51 22.6
9 -3 -5 474.35 26.26
-9 -3 5 492.76 32.15
9 3 -5 490.78 26.88
-9 -3 4 40.54 7.28
9 -3 -4 36.78 7.08
9 -3 -4 43.72 10.37
-9 -3 4 36.44 8.65
9 3 -4 53.96 9.13
-9 -3 3 45.61 8.23
-9 -3 3 68.05 11.79
9 -3 -3 58.74 12.57
9 3 -3 54.1 9.53
9 -3 -2 159.65 20.34
-9 -3 2 139.18 15.31
-9 -3 2 172.44 18.66
9 3 -2 134.52 15.25
9 -3 -1 96.97 15.72
-9 -3 1 71.03 11.64
-9 -3 1 118.01 15.51
9 3 -1 99 13.35
9 -3 0 370.03 30.47
9 -3 0 390.14 21.5
9 3 0 381.28 26.88
9 -3 1 12.01 5.21
9 3 1 4.46 3.06
9 -3 1 15.02 4.05
9 -3 2 724.57 42.5
9 -3 2 709.49 27.84
9 3 2 725.29 38.85
9 -3 3 77.68 13.85
9 -3 3 54.95 7.75
9 3 3 51.38 10.46
9 -3 4 230.56 15.79
9 -3 4 263.09 25.48
9 3 4 254.27 24.2
9 3 5 4.29 3.44
9 -3 5 5.45 4
9 -3 5 4.6 2.36
9 3 6 34.77 9.29
9 -3 6 31.52 6.12
9 -3 6 52.56 11.65
9 3 7 -0.95 2.63
9 -3 7 -1.32 2.44
9 -3 8 115.78 17.58
9 3 8 98.69 16.27
9 -3 9 270.27 27.01
9 3 9 302.77 29.1
9 -3 10 154.57 20.44
9 3 10 176.61 23.05
9 -3 11 183.25 22.38
-9 -4 11 62.55 13.77
-9 4 10 169.91 24.07
-9 -4 10 177.25 23.31
-9 4 9 133.55 21.13
-9 -4 9 125.26 19.36
9 -4 -9 162.53 24.93
9 -4 -8 30.71 10.81
-9 -4 8 30.94 9.82
-9 4 8 31.04 10.07
-9 4 7 690.61 47.18
-9 -4 7 705.82 45.28
9 -4 -7 784.3 52.71
-9 4 6 121.16 19.56
-9 -4 6 164.73 21.77
9 -4 -6 163.12 23.73
9 -4 -5 1053.5 59.37
-9 -4 5 1012.13 53.82
9 4 -4 37.84 8.38
9 -4 -4 23.04 8.82
-9 -4 4 19.62 6.97
9 -4 -3 1093.45 58.72
-9 -4 3 1212.02 58.02
9 4 -3 1110.56 46.88
9 -4 -2 125.29 19.6
-9 -4 2 164.24 21.1
9 4 -2 110.62 15.23
9 -4 -1 653.02 44.97
-9 -4 1 723.26 44.28
9 4 -1 641.76 37.31
9 -4 0 12.69 6.46
9 4 0 15.05 6.03
9 -4 0 8.31 3.5
9 -4 1 463.17 37.33
9 -4 1 484.94 30.45
9 4 1 440 32.1
9 -4 2 4.92 2.97
9 4 2 15.06 6.58
9 -4 2 11.84 4.17
9 -4 3 521.2 39.3
9 4 3 560.33 37.68
9 -4 4 17.94 7.2
9 4 4 11.1 5.31
9 -4 5 806.36 48.53
9 4 5 834.23 48.2
9 4 6 1.05 2.84
9 -4 6 3.61 3.55
9 -4 7 629.63 42.57
9 4 7 693.5 45.48
9 -4 8 36.99 10.51
9 -5 -4 171.58 25.87
9 -5 -3 6.21 5.42
9 -5 -2 558.05 45.57
9 -5 -1 19.47 9.24
9 -5 0 727.02 51.57
9 -5 1 2.97 3.58
9 5 1 8.9 5.69
9 5 2 683.26 45.56
9 -5 2 669.32 48.52
9 -5 3 8.21 5.81
9 5 3 -1.13 2.88
9 5 4 708.39 48.05
-10 0 18 331.75 29.07
-10 0 17 -0.03 2.37
10 0 -17 -0.95 3.1
10 0 -16 949.09 48.63
-10 0 16 865 43.81
-10 0 15 -1.72 2.56
10 0 -15 2.35 1.55
10 0 -14 1870.68 66.15
-10 0 14 1718.35 57.39
-10 0 13 4.83 3.56
10 0 -13 3 2.64
10 0 -12 3616.04 89.35
-10 0 12 3172.34 72.48
-10 0 11 0.35 1.14
10 0 -11 1.02 2.39
10 0 -10 2627.71 74.25
-10 0 10 2320.38 56.79
-10 0 9 1.61 1.36
10 0 -9 0.47 0.83
10 0 -9 -0.13 1.49
10 0 -8 1396.2 53.49
-10 0 8 1539.13 41.4
10 0 -7 1.63 3.35
-10 0 7 1.89 1.75
10 0 -7 0.99 1.96
10 0 -6 825.79 40.66
-10 0 6 859.23 27.46
10 0 -6 776.06 30.34
10 0 -5 0.62 1.38
-10 0 5 1.33 1.08
-10 0 4 2058.75 35.53
10 0 -4 2034.24 63.57
10 0 -3 2.71 2.28
-10 0 3 0.68 0.68
-10 0 2 3252.14 31.95
10 0 -2 3383.98 81.1
10 0 -1 0.24 1.53
10 0 0 1684.61 58.42
10 0 1 0.78 1.75
10 0 2 1367.42 54.13
10 0 3 -1.36 2.45
10 0 4 244 23.79
10 0 5 0.84 2.17
-10 0 -5 1.98 0.81
10 0 6 189.11 21.17
-10 0 -6 178.42 10.33
10 0 7 -0.46 2.04
-10 0 -7 1.78 1.48
10 0 8 22.95 7.86
10 0 9 11.88 5.86
10 0 10 44.06 10.71
10 0 11 3.15 2.07
10 0 11 1.47 2.15
10 0 12 10.18 5.24
10 0 13 2.25 2.78
10 0 14 18.95 8.04
10 -1 -19 563.14 41.88
10 -1 -18 55.29 12.95
-10 -1 17 838.21 45.72
10 -1 -17 907.1 50.66
-10 -1 16 138.52 18.06
10 -1 -16 166.05 21.25
-10 -1 15 589.33 35.99
10 -1 -15 680.84 41.77
10 1 -14 127.64 16.86
-10 -1 14 106.48 14.87
10 -1 -14 105.31 16.04
-10 -1 13 437.47 28.85
10 -1 -13 438.92 32.32
10 1 -12 4.4 3.55
10 -1 -12 0.34 1.84
-10 -1 12 3.65 2.56
10 1 -11 826.92 34.47
10 1 -11 971.89 44.44
-10 -1 11 910.16 38.29
10 -1 -11 938.63 46.08
10 -1 -10 171.39 19.46
10 1 -10 166.35 15.41
10 1 -10 180.5 18.87
-10 -1 10 157.79 15.33
10 1 -9 1352.33 43.78
10 1 -9 1442.78 52.54
-10 -1 9 1405.04 43.84
10 -1 -9 1451.68 53.88
10 -1 -8 113.38 15.58
10 1 -8 98.91 11.76
-10 -1 8 89.91 10.72
10 1 -8 97.78 13.33
10 -1 -8 98.62 13.01
10 1 -8 90.63 13.29
10 -1 -7 1685.44 60.01
-10 -1 7 1618.06 43.86
10 1 -7 1699.11 49.1
10 -1 -7 1674.25 49.23
10 1 -7 1755.49 55.64
10 -1 -6 238.06 22.64
-10 -1 6 236.81 16.2
10 -1 -6 225.32 16.41
10 1 -6 244.64 19.05
10 1 -6 247.98 20.99
10 -1 -5 1966.63 65.08
-10 -1 5 2028.37 44.89
10 -1 -5 1858.73 41.5
10 1 -5 2007.93 59.93
-10 -1 5 1869.69 51.44
10 -1 -4 24 7.21
-10 -1 4 20.88 5.53
-10 -1 4 24.4 4.68
10 -1 -4 23.46 3.97
10 1 -4 23.49 6.31
-10 -1 3 1002.07 39.04
10 -1 -3 1020.75 46.97
-10 -1 3 1042.63 29.53
10 -1 -3 944.86 17.69
10 1 -3 1033.32 43.3
-10 -1 2 382.13 24.93
10 -1 -2 438.91 30.74
-10 -1 2 425.88 18.26
10 1 -2 415.09 27.65
10 -1 -1 792.02 41.28
-10 -1 1 715.55 23.09
10 1 -1 752.31 37.93
10 -1 0 659.74 37.34
-10 -1 0 693.67 21.97
10 1 0 726.27 37.77
10 -1 1 180.42 19.7
-10 -1 -1 198.2 11.86
10 1 1 164.7 18.36
10 1 2 748.69 39.7
10 -1 2 761.27 41.2
10 1 3 621.44 36.67
10 -1 3 650.57 38.27
10 1 4 518.52 33.85
-10 -1 -4 525.92 23.69
-10 -1 -5 291.67 18.94
10 1 5 336.2 27.68
10 -1 5 301.37 26.72
-10 -1 -6 871.94 34.87
10 1 6 933.7 47.2
10 -1 6 930.28 47.39
10 1 7 496.84 35.23
10 -1 7 508.07 35.78
10 -1 8 274.04 26.56
10 1 8 312.99 28.57
10 -1 9 11.67 6.04
10 1 9 7.37 4.4
10 -1 10 276.14 27.27
10 1 10 301.96 28.57
10 -1 11 47.76 11.76
10 1 11 30.98 9.1
10 -1 12 282.63 28.81
10 1 12 266.69 27.71
10 -1 13 22.17 8.18
10 -1 13 21.41 7.54
10 1 13 34.48 10.53
10 -1 14 331.89 30.35
10 -1 15 11.16 6.11
-10 2 17 4.44 3.39
-10 -2 16 19.78 7.63
-10 2 16 30 9.45
-10 -2 15 3.75 3.06
-10 2 15 0.3 2.81
-10 -2 14 55.17 10.96
-10 2 14 63.29 13.63
10 -2 -13 1.39 1.32
-10 -2 13 5.44 3.81
-10 2 13 -1.64 3.63
-10 -2 12 105.85 14.6
-10 2 12 103.23 17.21
10 -2 -12 131.42 18.98
-10 -2 11 73.4 11.9
10 -2 -11 63.99 13.03
-10 2 11 67.31 13.55
-10 -2 10 191.64 18.86
10 -2 -10 202.97 22.75
10 -2 -9 9.42 4.61
-10 -2 9 14.41 4.87
10 2 -8 64.02 9.02
-10 -2 8 56.5 9.76
10 -2 -8 38.94 7.86
10 -2 -8 45.24 10.46
10 -2 -7 126.48 17.55
10 -2 -7 102.08 12
-10 -2 7 117.61 13.74
10 2 -7 134.35 13.67
10 -2 -6 97.87 15.36
10 -2 -6 84.77 10.19
-10 -2 6 117.5 13.52
-10 -2 6 99.63 11.23
10 2 -6 101.63 12.7
10 2 -5 830.35 36.37
-10 -2 5 767.61 32.07
10 -2 -5 790.11 43.45
10 -2 -5 892.73 30.44
-10 -2 5 864.06 35.91
10 2 -4 66.02 10.51
-10 -2 4 60.78 9.3
10 -2 -4 62.13 7.34
-10 -2 4 75.26 10.37
10 -2 -4 76.31 13.52
10 2 -3 576.37 31.44
-10 -2 3 523.33 28.77
10 -2 -3 597.76 37.87
10 -2 -3 520.26 18.83
-10 -2 3 584.1 28.51
10 -2 -2 55.44 11.59
-10 -2 2 48.84 9.07
10 2 -2 62.97 10.46
10 -2 -2 53.7 5.26
-10 -2 2 64.62 9.46
10 2 -1 1701.01 55.7
10 -2 -1 1793.88 65.42
10 -2 -1 1446 22.78
10 -2 -1 1543.46 24.3
-10 -2 1 1585.83 46.89
10 2 0 98.16 13.71
10 -2 0 110.82 16.26
-10 -2 0 128.81 13.48
10 2 1 734.32 38.22
10 -2 1 754.36 42.58
10 2 2 169.21 18.79
10 -2 2 136.48 18.03
10 2 3 427.5 30.79
10 -2 3 409.56 31.63
10 2 4 8.44 4.59
10 -2 4 6.67 4.16
10 2 4 8.61 4.36
10 -2 5 1048.74 51.04
10 2 5 1097.58 50.77
10 -2 6 16.64 6.54
10 2 6 19.61 6.93
10 -2 7 1368.57 59.92
10 2 7 1469.8 60.76
10 -2 8 2.31 2.14
10 2 8 2.77 2.51
10 -2 9 1585.43 66.18
10 2 9 1419.8 62.67
10 -2 10 6.58 4.39
10 2 10 6.83 4.42
10 -2 11 974.7 52.9
10 2 11 1049.6 56.1
10 -2 12 0.41 2.72
10 -2 13 448.71 37.06
10 -2 14 -2.31 3.44
-10 -3 14 227.84 25.05
-10 -3 13 96.61 15.79
-10 3 13 72.81 15.58
10 -3 -12 5.92 2.48
-10 -3 12 2.34 2.65
-10 3 12 6.13 3.69
10 -3 -11 59.13 14.3
-10 -3 11 76.96 13.82
-10 3 11 66.76 14.62
-10 -3 10 103.36 15.74
-10 3 10 116.14 19.04
10 -3 -10 131.25 20.59
-10 -3 9 494.18 33.72
-10 3 9 469.85 37.89
10 -3 -9 531.42 40.78
-10 -3 8 173.49 19.93
10 -3 -8 183.87 23.65
10 -3 -7 396.26 34.27
-10 -3 7 370.39 28.81
10 3 -7 413.02 25
10 -3 -6 229.72 25.91
-10 -3 6 220.51 22.05
10 3 -6 201.85 18.11
-10 -3 5 233.77 22.31
10 3 -5 207.08 18.74
10 3 -4 19.45 5.84
-10 -3 4 17.87 6.37
10 -3 -4 21.98 8.44
-10 -3 4 11.59 4.24
10 -3 -3 99.3 16.99
-10 -3 3 129.77 14.84
-10 -3 3 127.98 16.44
10 3 -3 162.31 17.23
10 -3 -2 244.59 26.33
-10 -3 2 278.3 24.11
10 3 -2 225.14 20.87
10 -3 -1 195.35 23.48
-10 -3 1 200.55 20.34
10 -3 -1 178.07 14.09
10 3 -1 216.32 20.87
10 -3 0 754.81 45.81
10 -3 0 688.78 26.7
-10 -3 0 774.96 40.13
10 3 0 718.41 38.77
10 -3 1 5.91 4.33
10 3 1 2.68 2.67
10 -3 1 1.92 1.67
10 -3 2 1068.94 54.61
10 -3 2 1020.22 30.55
10 3 2 1132.85 50.31
10 -3 3 205.71 23.8
10 3 3 152.06 18.86
10 -3 4 964.02 51.79
10 3 4 964.24 48.59
10 3 5 46.8 11.04
10 -3 5 65.34 13.66
10 -3 6 766.11 46.46
10 3 6 793.05 46.31
10 -3 7 45.77 11.41
10 3 7 47.98 11.52
10 -3 8 489.36 37.79
10 3 8 483.42 37.4
10 -3 9 15.74 6.99
10 3 9 8.98 5.17
10 -3 10 300.41 29.95
10 -3 11 -1.31 4.27
-10 -4 10 581.2 42.61
10 -4 -9 6.68 6.14
-10 -4 9 4.7 4.15
-10 -4 8 521.73 39.98
10 -4 -8 584.53 47.6
10 -4 -7 1.17 3.5
-10 -4 7 11.36 6.22
10 -4 -6 297.31 32.75
-10 -4 6 283.22 29.03
-10 -4 5 59.23 13.04
10 -4 -5 39.76 11.72
10 -4 -4 556.59 44.21
-10 -4 4 620.61 42.65
-10 -4 3 90.88 16.28
10 -4 -3 80.61 16.54
10 4 -3 104.21 15.1
10 -4 -2 907.56 55.78
-10 -4 2 929.23 51.7
10 4 -2 875.2 44.51
10 -4 -1 144.46 22.09
-10 -4 1 148.28 20.24
10 4 -1 135.02 17.69
10 -4 0 549.99 43.02
-10 -4 0 624.66 42.03
10 4 0 564.74 37.06
10 -4 1 114.62 19.49
10 4 1 82.85 14.61
10 -4 2 370.39 34.99
10 4 2 304.04 28.17
10 -4 3 46.74 12.52
10 4 3 50.27 11.4
10 -4 4 80.52 16.22
10 4 4 92.06 16.12
10 4 5 66.54 14.01
10 -4 5 77.92 16.25
10 4 6 19.23 7.85
10 -4 6 30.64 10.17
10 -4 7 216.55 26.51
10 -5 0 11.06 6.78
10 -5 1 104.68 20.18
10 -5 2 16.58 7.77
10 5 2 22.26 8.81
10 5 3 129.38 20.7
-11 0 17 330.89 28.28
-11 0 16 0.33 1.88
11 0 -16 2.77 3.01
11 0 -15 516.86 37.03
-11 0 15 444.79 30.48
-11 0 14 0.58 1.6
11 0 -14 2.78 1.86
11 0 -13 326.09 28.88
-11 0 13 290.85 22.98
-11 0 12 1.51 1.63
11 0 -12 3.01 2.73
11 0 -11 561.36 37.15
-11 0 11 531.4 28.54
-11 0 10 2.05 1.96
11 0 -10 2.17 2.03
11 0 -9 167.23 20.05
-11 0 9 157.52 14.21
11 0 -9 123.43 15.76
11 0 -8 -2.05 2.58
-11 0 8 0.59 1.09
11 0 -8 3.46 2.87
11 0 -7 1729.43 63.05
-11 0 7 1695.63 41.74
11 0 -6 3.52 3.22
-11 0 6 0.55 1.49
11 0 -6 2.83 1.51
-11 0 5 29.34 4.71
11 0 -5 27.28 7.99
11 0 -4 9.37 4.79
-11 0 4 0.62 0.97
-11 0 3 46.69 4.52
11 0 -3 48.44 10.42
11 0 -2 3.24 3.14
11 0 -1 736.07 41.09
11 0 0 8.1 4.78
11 0 1 103.52 15.42
11 0 2 3.7 3.72
11 0 3 55.45 11.69
11 0 4 -1.62 2.42
11 0 5 158.81 20.33
11 0 6 -0.79 2.7
11 0 7 610.01 40.45
11 0 8 -1.69 2.29
11 0 9 1361.95 62.36
11 0 10 4.48 2.79
11 0 11 760.38 48.65
11 0 11 779.52 47.34
11 0 12 1.95 2.74
11 -1 -18 300.36 30.29
-11 -1 17 193.44 21.96
11 -1 -17 178.56 23.06
-11 -1 16 356.68 29.08
11 -1 -16 441.74 35.32
-11 -1 15 242.1 23.12
11 -1 -15 263.17 27
-11 -1 14 791.72 40.58
11 -1 -14 846.85 47.54
11 -1 -13 221.17 24.02
11 1 -13 253.11 25.06
-11 -1 13 195.14 19.61
11 -1 -12 391.08 31.55
11 1 -12 434.77 32.16
-11 -1 12 334.84 24.54
11 -1 -11 459.95 33.82
-11 -1 11 433.32 26.75
11 1 -11 493.8 33.78
11 -1 -10 84.22 14.38
-11 -1 10 79.78 10.93
11 1 -10 85.08 13.92
11 -1 -9 264.9 25.32
-11 -1 9 286.13 20.03
11 1 -9 290.8 25.23
11 -1 -9 238.71 21.75
11 1 -8 1.79 1.13
-11 -1 8 3.95 2.23
11 -1 -8 0.97 1.89
11 -1 -7 883.31 46.45
-11 -1 7 860.8 31.98
11 -1 -7 763.32 32.6
11 1 -7 851.96 42.31
11 -1 -6 117.14 16.72
-11 -1 6 102.62 10.67
11 -1 -6 118.09 11.54
11 1 -6 110.01 15.18
11 -1 -5 1494.81 60.44
-11 -1 5 1531.49 39.44
11 -1 -5 1349.17 32.74
11 1 -5 1510.06 55.83
11 -1 -4 17.96 6.82
11 -1 -4 20.91 3.17
-11 -1 4 27.06 4.96
11 1 -4 25.47 7.3
11 -1 -3 1164.49 52.88
-11 -1 3 1227.69 31.79
11 1 -3 1186.42 49.76
11 -1 -2 143.21 18.82
-11 -1 2 151.36 10.73
11 1 -2 176 19.22
11 -1 -1 652.17 39.56
-11 -1 1 734.17 22.74
11 1 -1 721.01 39.31
11 1 0 46.15 10.21
-11 -1 0 54.73 6.07
11 -1 0 32.39 8.99
-11 -1 -1 148.67 9.82
11 -1 1 145.15 18.98
11 1 1 142.72 18.03
11 1 2 111.83 16.12
-11 -1 -2 135.12 9.63
11 -1 2 116 17.07
11 1 3 745.25 42.4
-11 -1 -3 630.27 23.74
11 -1 3 680.07 41.31
11 1 4 749.7 42.85
-11 -1 -4 735.26 27.12
11 -1 4 761.24 44.25
11 1 5 577.94 38.25
11 -1 5 502.52 36.35
11 1 6 414.15 33.24
11 -1 6 482.6 36.1
11 1 7 515.09 37.61
11 -1 7 519.01 37.91
11 -1 8 320.49 30.09
11 1 8 319.37 30.19
11 -1 9 341.15 31.5
11 1 9 359.16 31.68
11 -1 10 132.91 19.78
11 1 10 122.73 18.85
11 -1 11 44.74 11.64
11 1 11 50.73 12.43
11 -1 12 241.17 27.95
11 -1 13 4.41 4.01
11 -2 -16 114.64 19.43
11 -2 -15 38.31 11.05
-11 -2 15 48.92 10.92
-11 -2 14 632.78 38.19
11 -2 -14 692.14 45.74
11 -2 -13 2.48 2.11
-11 -2 13 -2.28 2.42
-11 -2 12 1230.98 50.43
11 -2 -12 1469.41 64.98
11 -2 -11 33.99 9.53
-11 -2 11 47.19 9.77
11 -2 -10 1697.25 68.18
-11 -2 10 1661.58 55.45
11 2 -10 1625.45 52.19
11 2 -9 27.66 7.11
-11 -2 9 27.21 7.03
11 -2 -9 20.14 7.61
11 -2 -8 1269.46 58.48
-11 -2 8 1181.76 44.78
11 2 -8 1280.26 47.19
11 -2 -7 60.88 9.21
-11 -2 7 61.41 9.94
11 2 -7 64.75 10.48
11 -2 -7 78.4 14.48
11 2 -7 69.61 11.26
11 -2 -6 1067.65 53.49
11 -2 -6 928.93 33.45
-11 -2 6 1070.69 40.51
-11 -2 6 937.99 37.2
11 2 -6 1112.51 45.21
11 2 -5 2.28 1.85
-11 -2 5 4.43 2.7
11 -2 -5 1.05 0.52
-11 -2 5 1.57 0.79
11 -2 -5 6.16 4.24
11 2 -4 1170.64 47.47
11 -2 -4 1204.56 56.7
11 -2 -4 1105.81 29.13
11 2 -3 3.96 3.18
11 -2 -3 5.09 3.58
11 -2 -3 2.07 1.3
-11 -2 3 0.69 0.7
11 2 -2 1362.08 52.25
11 -2 -2 1381.67 60.59
-11 -2 2 1425.83 44.29
11 -2 -1 5.6 4.6
11 2 -1 4.26 3.73
-11 -2 1 1.03 1.35
11 2 0 2216.56 68.84
11 -2 0 2280.6 78.13
11 2 1 8.79 4.85
11 -2 1 14.17 6.34
-11 -2 -1 12.9 3.82
11 2 2 1812.2 65.05
11 -2 2 1813.35 69.73
11 2 3 6.13 4.76
11 -2 3 1.44 3.09
11 2 4 1851.66 68.51
11 -2 4 1756.19 69.53
11 2 5 18.61 6.7
11 -2 5 14.3 5.8
11 -2 6 121.78 18.81
11 2 6 126.85 18.34
11 -2 7 22.83 7.9
11 2 7 22.97 8.27
11 2 8 289.94 28.69
11 -2 8 272.24 28.75
11 -2 9 105.09 17.78
11 2 9 102.99 17.45
11 -2 10 320.11 31.75
11 2 10 368.52 33.97
11 -2 11 4.24 3.33
11 -2 12 292.24 30.78
-11 -3 13 318.97 29.28
11 -3 -12 60.1 14.54
-11 -3 12 50.6 11.49
-11 3 12 55.61 14.05
-11 -3 11 291.67 26.85
11 -3 -11 338.58 34.07
11 -3 -10 -0.35 2.14
-11 -3 10 2.35 1.17
11 -3 -9 613.78 45.01
-11 -3 9 569.81 36.51
-11 -3 8 3.6 3.78
11 -3 -8 5.01 4.08
11 -3 -7 1182.61 61.47
-11 -3 7 1194.02 51.88
11 3 -7 1081.46 44.04
11 3 -6 0.96 0.9
-11 -3 6 -0.64 1.22
11 -3 -5 1945.4 78.21
-11 -3 5 1987.82 66.1
11 3 -5 1942.93 61.57
11 3 -4 3.61 3.57
-11 -3 4 3.54 3.42
11 -3 -4 1.49 3.44
11 -3 -3 1221.61 61.89
-11 -3 3 1393.99 54.38
11 3 -3 1277.93 51.74
11 -3 -2 5.08 3.81
11 3 -2 6.96 4.78
-11 -3 2 5.32 3.66
11 -3 -1 1124.82 58.92
-11 -3 1 1185.74 50.73
11 3 -1 1093.38 49.05
11 -3 0 3.18 4.21
11 3 0 3.83 3.36
-11 -3 0 0.44 2.57
11 -3 1 184.93 24.03
11 3 1 156.37 19.28
11 -3 2 28.34 9.18
11 3 2 34.6 9.41
11 -3 3 1147.51 58.97
11 3 3 1144.64 53.88
11 -3 4 196.88 24.88
11 3 4 169.57 21.58
11 -3 5 635.02 44.43
11 3 5 561.93 39.64
11 -3 6 173.1 23.21
11 3 6 177.58 22.7
11 -3 7 722.58 48.02
11 3 7 773.41 48.42
11 -3 8 1.23 1.61
11 3 8 1.2 2.27
11 -3 9 199.94 25.65
11 -3 10 26.96 9.14
-11 -4 9 131.84 20.08
-11 -4 8 91.96 16.78
11 -4 -7 331.08 36.28
-11 -4 7 344.65 32.67
11 -4 -6 162.47 25.18
-11 -4 6 145.95 21.24
-11 -4 5 6.2 4.23
11 -4 -5 0.3 2.65
-11 -4 4 71.79 14.32
11 -4 -4 75.6 16.68
11 4 -3 22.36 7.2
-11 -4 3 26.96 8.96
11 -4 -3 33.99 11.14
11 -4 -2 373.45 37.5
-11 -4 2 418.71 35.35
11 4 -2 312.04 27.54
11 -4 -1 196.06 26.82
-11 -4 1 188.68 23.74
11 4 -1 154.02 19.86
11 -4 0 117.77 20.76
-11 -4 0 140.02 20.23
11 4 0 135.64 18.86
11 -4 1 39.52 11.97
11 4 1 30.57 9.2
-11 -4 -1 35.85 10.07
11 -4 2 139.86 22.52
11 4 2 148.1 20.36
11 -4 3 11.58 6.21
11 4 3 3.87 2.53
11 -4 4 113.55 20.24
11 4 4 113.08 18.49
11 4 5 44.12 11.3
11 -4 5 45.57 13.09
11 -4 6 91.89 17.94
11 -4 7 191.86 26.02
-12 0 17 1.24 2.28
-12 0 16 63.74 12
12 0 -16 48.9 12.33
-12 0 15 -0.29 2.19
12 0 -15 -2.08 4.44
-12 0 14 80.79 12.52
12 0 -14 81.11 15.31
-12 0 13 1.46 1.29
12 0 -13 -0.11 1.4
12 0 -12 313.78 29.9
-12 0 12 279.71 21.73
12 0 -11 0.03 2.91
-12 0 11 0.66 1.03
12 0 -10 1316.57 60.26
-12 0 10 1211.68 41.77
12 0 -9 -1.6 2.53
-12 0 9 0.67 1.63
12 0 -9 2.4 1.17
-12 0 8 893.9 32.23
12 0 -8 811.14 46.41
12 0 -7 0.02 2.7
-12 0 7 3.39 2.12
12 0 -7 0.4 1.03
-12 0 6 1559.82 37.38
12 0 -6 1484.58 62.11
12 0 -5 -0.49 2.24
-12 0 5 1.11 1.19
12 0 -4 220.13 23.42
12 0 -3 -3.1 2.85
12 0 -2 1199.33 55.43
12 0 -1 4.37 4.12
12 0 0 2648.29 82.58
12 0 1 0.88 0.97
12 0 2 2379.24 79.54
12 0 3 -2.13 2.14
12 0 4 1732.14 69.95
12 0 5 0.64 1.47
12 0 6 1270.59 61.02
12 0 7 3.41 2.79
12 0 8 479.95 38.19
12 0 9 4.21 4.81
12 0 10 714.12 48.35
12 -1 -17 27.06 9.34
12 -1 -16 350.02 32.9
-12 -1 16 312.91 27.47
12 -1 -15 200.94 24.38
-12 -1 15 195.92 20.89
12 -1 -14 591.42 41.5
-12 -1 14 541.92 34.04
12 1 -13 90.82 15.87
-12 -1 13 80.31 12.82
12 -1 -13 84.6 15.68
12 -1 -12 710.54 44.67
12 1 -12 770.3 45.64
-12 -1 11 66.81 10.68
12 1 -11 67.38 13.19
12 -1 -11 69.12 14.07
12 -1 -10 543.61 38.56
-12 -1 10 476.5 27.14
12 1 -10 502.31 35.64
12 1 -9 23.33 7.59
-12 -1 9 38.16 7.41
12 -1 -9 17.06 7.12
12 -1 -8 150.64 20.21
-12 -1 8 133.95 13.27
12 1 -8 110.18 16.43
12 -1 -7 902.32 49.85
-12 -1 7 937.28 33.42
12 1 -7 901.53 46.83
12 -1 -6 236.78 25.5
-12 -1 6 209.9 15.04
12 -1 -6 166.39 12.55
12 1 -6 171.33 20.2
12 -1 -5 1130.1 55.25
-12 -1 5 1133.65 33.6
12 1 -5 1075.94 50.41
12 -1 -4 53.77 12.11
-12 -1 4 78.64 8.38
12 1 -4 81.64 13.84
12 -1 -3 960.58 51.1
-12 -1 3 1071.33 29.51
12 1 -3 1028.55 49.39
-12 -1 2 719.88 22.78
12 -1 -2 694.94 43.07
12 1 -2 688.34 40.78
-12 -1 1 1114.02 26.96
12 -1 -1 1007.17 51.96
12 1 -1 1091.44 51.47
-12 -1 0 112.94 8.21
12 -1 0 122.61 18.45
12 1 0 114.38 16.89
-12 -1 -1 691.3 20.11
12 -1 1 673.02 43.27
12 1 1 671.21 41.3
-12 -1 -2 16.73 3.05
12 1 2 18.7 7.08
12 -1 2 14 6.12
12 1 3 661.99 42.01
-12 -1 -3 654.61 20.42
12 -1 3 693.07 44.3
12 -1 4 37 10.43
12 1 4 31.54 9.39
12 1 5 846.6 48.66
12 -1 5 805.25 48.63
12 1 6 4.33 4.36
12 -1 6 8.55 5.1
12 -1 7 1085.42 57.83
12 1 7 1096.11 57.41
12 1 8 37.22 11.01
12 -1 8 33.04 10.59
12 -1 9 534.44 41.18
12 1 9 510.5 40.62
12 1 9 504.12 39.52
12 1 10 12.07 6.37
12 -1 10 1.92 1.76
12 -1 11 649.24 46.87
-12 -2 15 419.63 32.33
-12 -2 14 3.83 3.28
12 -2 -14 5.95 4.49
12 -2 -13 370.48 33.99
-12 -2 13 328.3 26.88
-12 -2 12 6.2 3.36
12 -2 -12 1.65 3.28
12 -2 -11 547.68 40.55
-12 -2 11 515.63 32.03
-12 -2 10 33.46 7.98
12 -2 -10 27.02 9.4
12 -2 -9 1371.13 63.66
-12 -2 9 1292.14 48.11
12 2 -9 1226.89 49.88
12 2 -8 29.22 7.99
-12 -2 8 36.93 7.81
12 -2 -8 36 10.58
12 -2 -7 1793.84 73.04
-12 -2 7 1690.56 52.84
12 2 -7 1690.65 59.7
-12 -2 6 77.34 11.04
12 2 -6 76.58 12.93
12 -2 -6 81.27 15.63
12 2 -5 553.8 34.62
12 -2 -5 477.86 37.84
-12 -2 5 500.9 27.53
12 -2 -4 34.28 10.02
-12 -2 4 35.03 7.18
12 2 -4 30.16 8.24
12 2 -3 177.12 19.99
12 -2 -3 177.26 23.04
-12 -2 3 169.91 15.78
12 2 -2 38.67 9.46
12 -2 -2 32.7 10.18
-12 -2 2 51.47 8.46
12 -2 -1 49.44 12.07
12 2 -1 33.1 8.87
-12 -2 1 41.51 7.46
12 -2 0 43.09 11.16
-12 -2 0 51.35 8.36
12 2 0 43.27 10.42
12 2 1 76.69 13.88
12 -2 1 86.51 16
-12 -2 -1 97.45 11.65
12 2 2 99.68 16.08
12 -2 2 120.32 19.14
-12 -2 -2 135.4 13.88
12 -2 3 27.33 9.52
12 2 3 24.72 8.03
12 2 4 137.64 19.57
12 -2 4 157.55 21.96
12 2 5 49.64 11.83
12 2 5 55.79 12.58
12 -2 5 52.41 12.61
12 -2 6 28.65 9.5
12 2 6 12.75 6.35
12 -2 7 5.77 5.22
12 2 7 1.26 1.5
12 2 8 34.32 10.77
12 -2 8 24.74 9
12 -2 9 61.94 14.47
12 -2 10 22.12 8.59
-12 -3 13 8.05 4.42
-12 -3 12 984.66 50.77
-12 -3 11 9.45 4.89
12 -3 -10 714.67 50.56
-12 -3 10 647.05 39.74
-12 -3 9 3.49 3.23
12 -3 -9 3.61 1.77
12 -3 -8 230.06 28.53
-12 -3 8 231.08 23.15
12 -3 -7 345.12 34.51
-12 -3 7 273.1 24.94
12 -3 -6 287.63 31.47
-12 -3 6 300.68 25.82
12 3 -6 248.62 23.09
12 -3 -5 274.12 31.02
-12 -3 5 308.08 26.07
12 3 -5 260.18 23.86
12 -3 -4 168.94 24.29
-12 -3 4 178.07 19.77
12 3 -4 165.78 19.43
12 -3 -3 183.76 25.01
-12 -3 3 216.42 21.55
12 3 -3 190.05 21.24
12 -3 -2 466.57 40.04
-12 -3 2 441.04 30.87
12 3 -2 408.54 31.51
12 -3 -1 117.07 20.23
-12 -3 1 106.79 15.25
12 3 -1 96.26 15.39
12 -3 0 301.64 32.23
-12 -3 0 283.5 24.99
12 3 0 244 24.92
12 -3 1 202.57 26.02
-12 -3 -1 203.01 21.14
12 3 1 184.78 22.01
12 -3 2 103.82 18.93
12 3 2 101.83 16.59
12 3 3 39.88 10.43
12 -3 3 32.79 11
12 3 4 66.51 13.82
12 -3 4 63.66 14.95
12 -3 5 271.29 30.64
12 3 5 263.46 28.38
12 3 6 26.79 9.32
12 -3 6 43.13 12.65
12 -3 7 78.07 16.48
12 -3 8 16.19 7.88
12 -3 9 144.92 22.89
-12 -4 8 306.6 30.92
-12 -4 7 119.48 19.25
-12 -4 6 367.43 33.94
-12 -4 5 112.67 18.82
-12 -4 4 147.23 21.18
12 -4 -3 82.19 18.19
-12 -4 3 108.11 18.09
12 -4 -2 321.44 36.15
-12 -4 2 303.12 30.4
12 4 -2 255.59 25.96
12 -4 -1 10.42 6.19
12 4 -1 10.18 5.76
-12 -4 1 13.17 5.53
12 -4 0 893.65 60.03
-12 -4 0 831.76 50.64
12 4 0 716.9 45.1
12 -4 1 72.07 17.07
12 4 1 68.55 14.11
-12 -4 -1 66.21 14.36
12 -4 2 683.41 51.72
-12 -4 -2 651.86 44.88
12 4 2 614.34 43.03
12 -4 3 1.92 4.37
12 4 3 7.57 4.59
12 -4 4 629.18 49.76
-13 0 17 884.68 46.93
-13 0 16 0.23 3.31
13 0 -15 807.44 52.34
-13 0 15 669.53 37.86
13 0 -14 11.76 7.32
-13 0 14 -0.8 1.25
13 0 -13 627.06 45.13
-13 0 13 573.8 32.8
13 0 -12 -1.38 2.3
-13 0 12 0.13 0.69
13 0 -11 1225.13 62.09
-13 0 11 1038.92 40.46
13 0 -10 2.21 3.83
-13 0 10 -2.13 1.79
-13 0 9 1773.69 47.97
13 0 -9 1894.39 75.98
13 0 -8 0.82 2.71
-13 0 8 0.26 1.43
-13 0 7 1306.19 36.34
13 0 -7 1285.23 61.33
13 0 -6 3.49 3.27
-13 0 6 0.83 1.2
13 0 -5 2625.51 86.36
13 0 -4 0.61 1.16
13 0 -3 1482.49 65.15
13 0 -2 0.89 1.61
13 0 -1 1131.45 56.84
13 0 0 2.87 3.86
13 0 1 98.37 17.06
13 0 2 4.61 3.97
13 0 3 700.45 45.95
13 0 4 5.66 4.87
13 0 5 473.83 38.82
13 0 6 1.35 2.46
13 0 7 469.45 39.04
13 0 8 3.15 3.54
13 0 9 178.53 24.87
13 -1 -16 376.01 35.4
-13 -1 16 300.34 26.86
-13 -1 15 0.72 1.55
13 -1 -15 6.09 4.99
13 -1 -14 593.06 43.3
-13 -1 14 512.9 32.96
-13 -1 13 8.44 4.07
13 -1 -13 6.68 4.76
13 -1 -12 1059.74 57.35
-13 -1 12 914.8 41.31
13 1 -12 1017.27 55.22
13 1 -11 48.99 12.28
-13 -1 11 35.92 8.06
13 -1 -11 40.84 11.3
13 -1 -10 1524.05 68.23
-13 -1 10 1422.41 47.92
13 1 -10 1562.05 67.24
13 -1 -9 19.18 7.85
13 1 -9 13.65 6.41
-13 -1 9 22.84 5.71
13 -1 -8 534.61 40.52
-13 -1 8 485.38 25.15
13 1 -8 493.15 37.35
13 -1 -7 17.58 7.12
-13 -1 7 15.46 4.5
13 1 -7 13.55 5.81
13 -1 -6 580.2 41.88
-13 -1 6 593.17 25.35
13 1 -6 589.5 40.07
13 -1 -5 136.19 20.31
-13 -1 5 132.22 11.22
13 1 -5 140.52 19.38
-13 -1 4 451.17 19.61
13 -1 -4 410.21 35.33
13 1 -4 431.95 34.19
-13 -1 3 219.4 12.76
13 -1 -3 221.66 25.63
13 1 -3 199.76 23.22
-13 -1 2 1171.58 27.53
13 -1 -2 1142.49 58.08
13 1 -2 1189.83 56.66
13 -1 -1 422.15 35.62
13 1 -1 403.06 33.17
13 -1 0 601.32 43.02
13 1 0 643.87 42.57
13 1 1 322.56 30.08
13 -1 1 266.72 28.59
13 1 2 753.79 46.78
13 -1 2 736.83 47.61
13 -1 3 92.58 16.93
13 1 3 87.38 15.98
13 1 4 201.24 24.42
13 -1 4 198.95 25.26
13 1 5 171.68 22.89
13 -1 5 151.66 22.2
13 1 6 15.88 7.55
13 -1 6 15.68 7.14
13 -1 7 427.54 38.03
13 1 7 422.94 37.34
13 -1 8 29.28 10.93
13 1 8 33.95 10.69
13 -1 9 415.83 38.22
-13 -2 15 98.2 15.76
-13 -2 14 121.93 17.11
-13 -2 13 18.01 6.13
13 -2 -13 19.92 8.44
13 -2 -12 143.13 21.58
-13 -2 12 114.72 15.55
-13 -2 11 22.05 6.53
13 -2 -11 35.43 10.78
13 -2 -10 251.52 28.9
-13 -2 10 220.55 20.53
13 2 -9 53.33 11.16
-13 -2 9 66.66 10.95
13 -2 -9 60.32 14.12
13 2 -8 76.48 13.59
-13 -2 8 79.49 11.73
13 -2 -8 56.24 13.82
-13 -2 7 103.26 13.08
13 2 -7 84.45 14.44
13 -2 -7 96.31 17.82
13 -2 -6 159.1 22.79
-13 -2 6 152.31 15.47
13 2 -6 149.02 19.21
13 -2 -5 70.82 15.53
-13 -2 5 95.26 11.85
13 2 -5 74.96 13.64
13 -2 -4 78.99 16.3
-13 -2 4 65.7 9.73
13 2 -4 57.84 12.22
13 2 -3 76.56 14.05
13 -2 -3 76.5 15.72
-13 -2 3 72.36 9.97
13 2 -2 72.32 13.69
13 -2 -2 64.55 14.66
-13 -2 2 74.7 10.02
13 -2 -1 32.49 10.16
13 2 -1 49.29 11.39
-13 -2 1 41.87 7.54
13 2 0 498.41 36.52
13 -2 0 517.32 40.89
-13 -2 0 549.92 26.95
13 -2 1 11.96 6.82
13 2 1 8.56 5.06
13 2 2 826.32 48.67
13 -2 2 810.8 52.4
13 2 3 47.87 11.86
13 -2 3 28.56 10.14
13 2 4 1165.91 59.57
13 -2 4 1165.49 63.18
13 -2 5 12.79 6.41
13 2 5 7 4.23
13 2 5 11.51 5.66
13 2 6 724.56 47.98
13 -2 6 750.68 51.4
13 -2 7 29.48 10.56
13 2 7 33.05 10.24
13 -2 8 433.01 39.74
-13 -3 12 292.47 27.79
-13 -3 11 22.62 7.53
-13 -3 10 168.82 20.46
-13 -3 9 2.19 2.86
-13 -3 8 95.25 14.82
13 -3 -8 96.91 19.3
-13 -3 7 11.46 6.14
13 -3 -7 21.11 9.3
-13 -3 6 78.77 13.33
13 -3 -6 81.79 17.8
13 -3 -5 213.57 28.4
-13 -3 5 211.59 21.63
13 -3 -4 172.02 25.57
-13 -3 4 145.54 17.99
13 3 -4 126.91 17.53
13 3 -4 132.15 18.34
13 -3 -3 286.78 32.82
-13 -3 3 267.65 24.29
13 3 -3 268.31 26.5
13 -3 -2 89.31 18.08
13 3 -2 66.24 13.51
-13 -3 2 72.16 12.63
13 -3 -1 396.29 38.8
-13 -3 1 425.04 30.4
13 3 -1 398.7 33
13 -3 0 266.7 31.55
-13 -3 0 232.25 22.58
13 3 0 222.96 24.9
13 -3 1 454.65 40.79
13 3 1 423.13 34.74
13 3 2 92.22 16.63
13 -3 2 88.27 18.26
13 -3 3 138.04 22.94
13 3 3 132.11 20.09
13 -3 4 148.69 23.71
13 3 4 103.15 17.85
13 -3 5 210.65 28.34
-13 -4 7 452.91 37.75
-13 -4 6 20.32 8.4
-13 -4 5 812.98 50.32
-13 -4 4 4.48 2.51
-13 -4 3 462.83 37.76
-13 -4 2 1.8 2.08
13 4 -1 237.94 26.73
13 4 0 122.99 19.36
13 4 1 61.66 13.9
14 0 -14 987.21 60.17
14 0 -13 6.24 4.26
14 0 -12 894.9 56.44
14 0 -11 2.88 4.63
14 0 -10 110.53 19.5
14 0 -9 1.16 2.12
14 0 -8 31.34 10.06
14 0 -7 1.85 3.36
14 0 -6 44.06 11.86
14 0 -5 -1.56 3.05
14 0 -4 43.58 12.16
14 0 -3 -0.43 1.9
14 0 -2 105.04 18.27
14 0 -1 17.3 7.28
14 0 0 21.45 8.64
14 0 1 0.2 3.56
14 0 2 195.67 25.45
14 0 3 7.7 6.45
14 0 4 508.68 41.64
14 0 5 2.11 1.81
14 0 6 188.34 25.65
14 0 7 6.08 3.98
14 -1 -15 250.47 30.02
14 -1 -14 101 18.97
-14 -1 13 54.85 10.48
14 -1 -13 69.7 15.57
14 -1 -12 528.7 42.7
-14 -1 12 492.27 30.31
14 -1 -11 240.66 28.76
-14 -1 11 256.09 21.06
14 1 -11 270 30.19
14 -1 -10 518.88 42.23
-14 -1 10 443.47 26.64
14 1 -10 494.78 40.25
14 -1 -9 127.48 20.83
14 1 -9 89.64 17.07
14 -1 -8 411.4 37.27
14 1 -8 464.64 38.44
14 -1 -7 715.97 49.26
14 1 -7 701.37 46.84
14 -1 -6 350.54 34.52
14 1 -6 327.69 31.76
14 -1 -5 8.18 4.88
14 1 -5 23.02 8.79
14 -1 -4 244.98 28.53
14 1 -4 227.37 26.26
14 1 -3 12.82 6.18
14 -1 -3 13.4 7.35
14 -1 -2 435.88 38.15
14 1 -2 442.82 36.52
14 -1 -1 172.13 24.43
14 1 -1 145.78 21.03
14 -1 0 864.34 54.23
14 1 0 861.3 51.75
14 1 1 7.88 4.8
14 -1 1 6.59 5.4
14 1 2 644.01 45.47
14 -1 2 621.42 46.38
14 -1 3 39.11 11.5
14 1 3 60.33 13.93
14 1 4 253.11 29.12
14 -1 4 253.93 29.88
14 -1 5 21.56 9.26
14 1 5 12.29 6.7
14 1 6 266.06 30.38
14 -1 6 260.48 31
-14 -2 13 261.95 24.46
-14 -2 12 57.9 11.11
14 -2 -11 364.77 36.39
-14 -2 11 315.27 25.15
-14 -2 10 2.39 1.59
14 -2 -10 -0.9 2.55
14 -2 -9 216.5 27.9
-14 -2 9 179.67 18
14 -2 -8 13.72 7.8
14 2 -8 3.15 3.57
-14 -2 8 18.58 6.02
-14 -2 7 1178.62 43.9
14 2 -7 1165.06 56.82
14 -2 -6 2.72 3.97
14 2 -6 0.54 2.76
14 2 -5 1910.3 73.15
14 -2 -5 1999.3 85.25
14 -2 -4 18.97 8.39
14 2 -4 16.33 6.63
14 2 -3 1375.34 62.85
14 -2 -3 1243.05 67.33
14 2 -2 23.92 8.61
14 -2 -2 21.39 8.99
14 2 -1 850.72 49.86
14 -2 -1 843.24 55.08
14 -2 0 3.77 2.05
14 2 0 2.57 4.81
14 2 1 452.49 37.1
14 -2 1 432.44 39.95
14 2 2 5.15 3.78
14 -2 2 1.67 3.61
14 2 3 460.91 38.69
14 -2 3 500.91 43.33
14 -2 4 22.03 9.04
14 2 4 28.78 9.99
14 2 5 922.52 56.27
14 -2 5 868.28 57.53
14 2 5 870.9 53.97
-14 -3 10 568.25 37.51
-14 -3 9 31.65 8.71
14 3 -3 30.53 9.53
14 -3 -2 803.18 57.52
14 3 -2 779.02 48.07
14 -3 -1 9.23 5.69
14 3 -1 2.29 2.68
14 3 0 527.65 40.44
14 3 1 23.5 8.7
14 3 2 863.48 52.46
15 0 -14 -1.24 3.93
15 0 -13 38.08 12.78
15 0 -12 2.58 2.24
15 0 -11 49.09 13.93
15 0 -10 4.14 4.3
15 0 -9 134.62 22.41
15 0 -8 0.02 2.01
15 0 -7 357.64 36.19
15 0 -6 -2.6 4.11
15 0 -5 1159.47 65.1
15 0 -4 -0.18 1.79
15 0 -3 978.69 59.15
15 0 -2 5.76 5.36
15 0 -1 1180.22 64.94
15 0 0 9.62 6.38
15 0 1 763.84 52.44
15 0 2 2.72 3.8
15 0 3 550.28 45.4
15 0 4 6.99 5.34
15 -1 -13 78.11 17.51
15 -1 -12 34.01 11.46
15 -1 -11 293.65 33.4
15 1 -11 277.47 32.33
15 -1 -10 315.94 34.54
15 1 -10 296.77 33.12
15 -1 -9 419.3 39.84
15 1 -9 402.64 38.24
15 -1 -8 341.83 35.78
15 1 -8 254.57 30.02
15 -1 -7 373.77 37.27
15 1 -7 282.36 31.43
15 -1 -6 330.5 34.96
15 1 -6 299.61 32.08
15 -1 -5 333.06 34.95
15 1 -5 353.2 34.79
15 -1 -4 286.63 32.44
15 1 -4 279.13 30.98
15 1 -3 102.47 18.34
15 -1 -3 96.47 18.9
15 -1 -2 188.87 26.83
15 1 -2 171.35 24.23
15 1 -1 54.01 13.78
15 -1 -1 55.17 14.48
15 1 0 674.69 48.22
15 -1 0 605.34 47.88
15 1 1 0.81 1.71
15 -1 1 0.25 2.7
15 1 2 823.85 53.96
15 -1 2 865.21 57.51
15 -1 3 32.2 11.44
15 1 3 23.7 8.94
15 1 4 681.09 49.48
15 -1 4 666.67 51.04
15 -2 -7 -0.19 3.63
15 2 -7 4.88 3.6
15 2 -6 295.89 30.4
15 -2 -6 313.64 35.28
15 -2 -5 88.84 18.79
15 2 -5 75.33 15.37
15 2 -4 227.39 26.81
15 -2 -4 213.61 29.18
15 2 -3 18.3 7.63
15 -2 -3 18.72 8.6
15 2 -2 333.14 32.65
15 -2 -2 345.26 36.79
15 -2 -1 77.32 17.74
15 2 -1 67.18 14.68
15 2 0 284.48 30.71
15 -2 0 362.15 38.25
15 2 1 19.84 8.53
15 -2 1 2.57 3.52
15 2 2 148.64 22.76
15 2 3 52.27 13.52
15 3 -3 179.49 23.92
15 3 -2 76.08 15.74
15 3 -1 10.79 5.58
15 3 0 75 15.83
16 0 -12 1217.24 71.91
16 0 -11 0.59 3.76
16 0 -10 1495.89 79.04
16 0 -9 3.78 4.75
16 0 -8 780.06 56.88
16 0 -7 2.43 4.56
16 0 -6 551.5 47.16
16 0 -5 4.04 4.58
16 0 -4 377.23 38.71
16 0 -3 2.82 5.25
16 0 -2 915.7 60.41
16 0 -1 5.21 5.03
16 0 0 1110.79 66.45
16 0 1 12.17 7.69
16 1 -10 33.65 11.88
16 -1 -9 303.56 35.33
16 1 -9 300.18 34.79
16 -1 -8 46.94 14.04
16 1 -8 33.29 11.82
16 -1 -7 758.98 55.48
16 1 -7 831.05 57.06
16 1 -6 35.23 11.85
16 -1 -6 30.45 11.2
16 -1 -5 630.65 50.71
16 1 -5 626 48.94
16 1 -4 28.3 10.59
16 -1 -4 15.63 7.91
16 -1 -3 788.67 57.15
16 1 -3 767.1 54.11
16 1 -2 6.28 5.39
16 -1 -2 0.99 2.98
16 -1 -1 204.55 29.01
16 1 -1 229.66 29.51
16 1 0 39.2 12.48
16 1 1 186.26 26.73
16 2 -6 46.98 12.83
16 2 -5 59.25 14.48
16 2 -4 2.03 3.22
16 2 -3 323.69 33.65
16 2 -2 151.61 22.94
16 2 -1 372 36.52
16 2 0 4.42 3
17 0 -9 343.19 39.78
17 0 -8 0.75 4.91
17 0 -7 228.55 32.32
17 0 -6 2.97 4.71
17 0 -5 197.93 29.37
17 0 -4 13.29 9.09
17 1 -9 132.67 24.68
17 1 -8 19.45 9.34
17 1 -7 286.64 35.45
17 1 -6 23.16 9.2
17 1 -5 353.64 38.73
17 1 -4 61.88 16.16
17 1 -3 423.47 42.53
17 1 -2 24.93 10.16
17 2 -4 324.18 35.45
17 2 -3 -0.26 2.21
