#------------------------------------------------------------------------------
#$Date: 2019-11-10 06:55:12 +0200 (Sun, 10 Nov 2019) $
#$Revision: 225761 $
#$URL: file:///home/coder/svn-repositories/cod/cif/4/51/56/4515617.cif $
#------------------------------------------------------------------------------
#
# This file is available in the Crystallography Open Database (COD),
# http://www.crystallography.net/
#
# All data on this site have been placed in the public domain by the
# contributors.
#
data_4515617
loop_
_publ_author_name
'Xiong, Xiaodong'
'Yeung, Ying-Yeung'
_publ_section_title
;
 Ammonium Salt-Catalyzed Highly Practical Ortho-Selective Monohalogenation
 and Phenylselenation of Phenols: Scope and Applications
;
_journal_issue                   5
_journal_name_full               'ACS Catalysis'
_journal_page_first              4033
_journal_paper_doi               10.1021/acscatal.8b00327
_journal_volume                  8
_journal_year                    2018
_chemical_formula_sum            'C12 H8 F2 O Se'
_chemical_formula_weight         285.14
_space_group_crystal_system      triclinic
_space_group_IT_number           2
_space_group_name_Hall           '-P 1'
_space_group_name_H-M_alt        'P -1'
_atom_sites_solution_hydrogens   geom
_audit_creation_method           SHELXL-2014/6
_cell_angle_alpha                106.666(2)
_cell_angle_beta                 102.943(2)
_cell_angle_gamma                93.950(2)
_cell_formula_units_Z            2
_cell_length_a                   5.6425(5)
_cell_length_b                   9.1159(8)
_cell_length_c                   11.1839(10)
_cell_measurement_reflns_used    200
_cell_measurement_temperature    298(2)
_cell_measurement_theta_max      15
_cell_measurement_theta_min      15
_cell_volume                     531.61(8)
_computing_cell_refinement       'BRUKER D8VENTURE DIFFRACTOMETER'
_computing_data_collection       'BRUKER D8VENTURE DIFFRACTOMETER'
_computing_data_reduction        'BRUKER D8VENTURE DIFFRACTOMETER'
_computing_molecular_graphics    'BRUKER SHELXTL'
_computing_publication_material  'BRUKER SHELXTL'
_computing_structure_refinement  'SHELXL-2014/6 (Sheldrick, 2014)'
_diffrn_ambient_temperature      298(2)
_diffrn_measured_fraction_theta_full 0.997
_diffrn_measured_fraction_theta_max 0.996
_diffrn_measurement_device_type  'BRUKER D8VENTURE DIFFRACTOMETER'
_diffrn_measurement_method       'PHI & OMEGA SCAN'
_diffrn_radiation_type           MoK\a
_diffrn_radiation_wavelength     0.71073
_diffrn_reflns_av_R_equivalents  0.0477
_diffrn_reflns_av_unetI/netI     0.0413
_diffrn_reflns_Laue_measured_fraction_full 0.997
_diffrn_reflns_Laue_measured_fraction_max 0.996
_diffrn_reflns_limit_h_max       9
_diffrn_reflns_limit_h_min       -9
_diffrn_reflns_limit_k_max       15
_diffrn_reflns_limit_k_min       -15
_diffrn_reflns_limit_l_max       18
_diffrn_reflns_limit_l_min       -18
_diffrn_reflns_number            27610
_diffrn_reflns_point_group_measured_fraction_full 0.997
_diffrn_reflns_point_group_measured_fraction_max 0.996
_diffrn_reflns_theta_full        25.242
_diffrn_reflns_theta_max         36.467
_diffrn_reflns_theta_min         1.966
_exptl_absorpt_coefficient_mu    3.532
_exptl_absorpt_correction_T_max  0.7471
_exptl_absorpt_correction_T_min  0.4274
_exptl_absorpt_correction_type   multi-scan
_exptl_crystal_colour            colourless
_exptl_crystal_density_diffrn    1.781
_exptl_crystal_description       block
_exptl_crystal_F_000             280
_exptl_crystal_size_max          0.400
_exptl_crystal_size_mid          0.300
_exptl_crystal_size_min          0.200
_refine_diff_density_max         0.443
_refine_diff_density_min         -0.515
_refine_diff_density_rms         0.133
_refine_ls_extinction_method     none
_refine_ls_goodness_of_fit_ref   1.104
_refine_ls_hydrogen_treatment    constr
_refine_ls_matrix_type           full
_refine_ls_number_parameters     145
_refine_ls_number_reflns         5206
_refine_ls_number_restraints     0
_refine_ls_restrained_S_all      1.104
_refine_ls_R_factor_all          0.0861
_refine_ls_R_factor_gt           0.0418
_refine_ls_shift/su_max          0.001
_refine_ls_shift/su_mean         0.000
_refine_ls_structure_factor_coef Fsqd
_refine_ls_weighting_details
'w=1/[\s^2^(Fo^2^)+(0.0565P)^2^] where P=(Fo^2^+2Fc^2^)/3'
_refine_ls_weighting_scheme      calc
_refine_ls_wR_factor_gt          0.0931
_refine_ls_wR_factor_ref         0.1136
_reflns_Friedel_coverage         0.000
_reflns_number_gt                3346
_reflns_number_total             5206
_reflns_threshold_expression     'I > 2\s(I)'
_cod_data_source_file            cs8b00327_si_015.cif
_cod_data_source_block           XXD2212
_cod_database_code               4515617
_shelx_space_group_comment
;
The symmetry employed for this shelxl refinement is uniquely defined
by the following loop, which should always be used as a source of
symmetry information in preference to the above space-group names.
They are only intended as comments.
;
_shelx_estimated_absorpt_t_min   0.332
_shelx_estimated_absorpt_t_max   0.538
_shelxl_version_number           2014/6
_shelx_res_file
;
TITL P in P-1
CELL 0.71073   5.64250   9.11590  11.18390 106.6660 102.9429  93.9504
ZERR    2.00   0.00050   0.00080   0.00100   0.0024   0.0022   0.0024
LATT 1
SFAC C  H  O  F  Se
UNIT 24 16 2 4 2
REM C12 H8 F2 O Se
REM D8VENTURE BLOCK COLOULRESS

SIZE 0.40 0.30 0.20

L.S. 4
ACTA
FMAP 2
PLAN 20
TEMP 25.230

WGHT    0.056500
FVAR       0.35724
O1    3    0.950945    1.004126    0.625504    11.00000    0.04606    0.05755 =
         0.04922    0.03178    0.00725   -0.00049
AFIX  83
H1A   2    0.825162    0.984292    0.566855    11.00000   -1.50000
AFIX   0
SE1   5    0.436453    0.793668    0.547109    11.00000    0.02875    0.06049 =
         0.03797    0.01545    0.00653    0.01037
C1    1    0.926678    0.921661    0.706629    11.00000    0.03543    0.03977 =
         0.03136    0.01255    0.00964    0.00769
C2    1    0.716425    0.819981    0.687774    11.00000    0.03166    0.04084 =
         0.02829    0.01004    0.00900    0.00659
C3    1    0.704645    0.740298    0.776313    11.00000    0.04260    0.04455 =
         0.03711    0.01421    0.01438    0.00262
AFIX  43
H3A   2    0.564960    0.672258    0.765006    11.00000   -1.20000
AFIX   0
C4    1    0.900395    0.763560    0.879401    11.00000    0.05727    0.04757 =
         0.03253    0.01890    0.01335    0.01072
C5    1    1.107374    0.862352    0.896803    11.00000    0.04554    0.04946 =
         0.03137    0.01234    0.00116    0.01133
C6    1    1.125143    0.941811    0.810888    11.00000    0.03609    0.04695 =
         0.03967    0.01318    0.00406    0.00128
AFIX  43
H6A   2    1.267601    1.007694    0.822655    11.00000   -1.20000
AFIX   0
C7    1    0.572691    0.702298    0.404835    11.00000    0.03189    0.03941 =
         0.03095    0.01325    0.00197   -0.00063
C8    1    0.774180    0.624090    0.417871    11.00000    0.03678    0.05025 =
         0.03316    0.01401    0.00426    0.00970
AFIX  43
H8A   2    0.847831    0.613725    0.497624    11.00000   -1.20000
AFIX   0
C9    1    0.865852    0.561473    0.312560    11.00000    0.04420    0.05406 =
         0.04061    0.01192    0.01113    0.00973
AFIX  43
H9A   2    1.002388    0.510162    0.321937    11.00000   -1.20000
AFIX   0
C10   1    0.755956    0.574668    0.193650    11.00000    0.06123    0.05423 =
         0.03674    0.01139    0.01678    0.00370
AFIX  43
H10A  2    0.817558    0.532441    0.122731    11.00000   -1.20000
AFIX   0
C11   1    0.554330    0.650902    0.180968    11.00000    0.06596    0.06059 =
         0.03140    0.02081    0.00381    0.00452
AFIX  43
H11A  2    0.478591    0.658680    0.100563    11.00000   -1.20000
AFIX   0
C12   1    0.462846    0.715774    0.285033    11.00000    0.04672    0.05331 =
         0.03858    0.02056   -0.00011    0.00940
AFIX  43
H12A  2    0.327983    0.768464    0.275277    11.00000   -1.20000
AFIX   0
F1    4    0.895547    0.687990    0.967252    11.00000    0.09225    0.08476 =
         0.05033    0.04434    0.01496    0.00371
F2    4    1.298419    0.879668    0.998789    11.00000    0.06372    0.08957 =
         0.04897    0.02917   -0.01496    0.00408

HKLF 4

REM  P in P-1
REM R1 =  0.0418 for    3346 Fo > 4sig(Fo)  and  0.0861 for all    5206 data
REM    145 parameters refined using      0 restraints

END

WGHT      0.0574      0.0000

REM Highest difference peak  0.443,  deepest hole -0.515,  1-sigma level  0.133
Q1    1   0.4714  0.7170  0.5592  11.00000  0.05    0.44
Q2    1   0.6443  0.5921  0.1882  11.00000  0.05    0.41
Q3    1   1.0012  0.8040  0.8824  11.00000  0.05    0.40
Q4    1   0.9156  0.7243  0.9146  11.00000  0.05    0.38
Q5    1   0.4178  0.6561  0.0047  11.00000  0.05    0.37
Q6    1   1.4710  0.8102  0.9758  11.00000  0.05    0.36
Q7    1   0.9532  0.6336  0.8985  11.00000  0.05    0.36
Q8    1   1.3335  0.8186  0.9542  11.00000  0.05    0.35
Q9    1   1.3875  1.1788  0.9640  11.00000  0.05    0.34
Q10   1   0.5248  0.7369 -0.0239  11.00000  0.05    0.34
Q11   1   1.0916  0.9336  0.8803  11.00000  0.05    0.34
Q12   1   0.9554  0.8372  0.9005  11.00000  0.05    0.34
Q13   1   0.5338  0.6483  0.1457  11.00000  0.05    0.34
Q14   1   0.3747  0.5302  0.0657  11.00000  0.05    0.34
Q15   1   1.1880  0.8318  1.0013  11.00000  0.05    0.33
Q16   1   1.5949  0.8341  0.9773  11.00000  0.05    0.33
Q17   1   0.7865  0.4957  0.0262  11.00000  0.05    0.33
Q18   1   0.8356  0.7608  0.8215  11.00000  0.05    0.32
Q19   1   1.0630  0.6621  0.9389  11.00000  0.05    0.32
Q20   1   1.1039  0.8660  0.8382  11.00000  0.05    0.32
;
_shelx_res_checksum              75790
_shelx_hkl_file
;
  -1   0   0  112.88    3.07
  -1   0   0  111.93    3.15
  -1   0   0  107.51    3.12
  -1   0   0  110.68    3.11
  -1   0   0  116.53    3.16
  -1   0   0  119.12    3.15
  -1   0   0  114.08    3.14
  -1   0   0  111.66    3.05
   1   0   0  114.93    3.07
   1   0   0  112.32    3.15
   1   0   0  112.25    3.15
   1   0   0  111.54    3.15
   1   0   0  109.77    3.13
   1   0   0  112.85    3.14
  -2   0   0  153.16    4.12
  -2   0   0  153.13    4.18
  -2   0   0  158.50    4.33
  -2   0   0  152.41    4.25
  -2   0   0  149.50    4.24
  -2   0   0  147.90    4.15
  -2   0   0  147.90    4.10
  -2   0   0  149.59    4.41
   2   0   0  148.34    4.30
   2   0   0  151.20    4.32
   2   0   0  152.93    4.29
   2   0   0  149.94    4.32
   2   0   0  153.31    4.29
  -3   0   0   52.11    1.48
  -3   0   0   53.56    1.55
  -3   0   0   50.29    1.68
  -3   0   0   50.40    1.45
   3   0   0   51.39    1.80
   3   0   0   50.63    1.75
   3   0   0   49.14    1.77
   3   0   0   50.94    1.78
   3   0   0   50.81    1.71
  -4   0   0    0.61    0.15
  -4   0   0    1.15    0.27
  -4   0   0    0.41    0.37
  -4   0   0    0.86    0.26
   4   0   0    0.15    0.39
  -5   0   0    0.49    0.52
  -5   0   0    0.48    0.33
  -5   0   0    0.78    0.17
  -5   0   0    0.58    0.50
   5   0   0    0.67    0.57
   5   0   0    1.25    0.80
   5   0   0    0.19    0.51
  -6   0   0   38.68    1.70
  -6   0   0   39.50    1.83
  -6   0   0   39.90    1.75
   6   0   0   37.40    2.02
   6   0   0   39.52    1.99
   6   0   0   39.86    2.06
  -7   0   0   19.90    1.61
  -7   0   0   20.38    1.49
   7   0   0   19.85    1.93
   7   0   0   18.12    1.85
  -8   0   0    7.31    1.41
  -8   0   0   10.30    1.48
   8   0   0    9.54    1.56
   8   0   0    7.34    1.91
  -9   0   0    1.43    1.37
  -9   0   0    0.84    1.55
  -9   0   0    1.36    1.75
   9   0   0    4.85    1.97
   9  -1   0    0.19    1.66
  -9   1   0   -0.95    1.57
  -9   1   0    1.01    1.30
  -9   1   0   -0.37    1.39
   8  -1   0    0.96    1.21
   8  -1   0   -2.23    1.62
  -8   1   0   -0.08    1.36
  -8   1   0    2.39    1.12
   7  -1   0    0.84    0.99
   7  -1   0   -0.26    0.99
   7  -1   0    0.94    0.98
  -7   1   0    0.66    0.72
  -7   1   0    1.27    0.68
  -7   1   0    0.05    0.79
   6  -1   0    6.09    0.96
   6  -1   0    5.84    1.05
   6  -1   0    4.47    0.88
  -6   1   0    5.32    0.81
  -6   1   0    5.64    0.75
  -6   1   0    5.56    0.35
  -6   1   0    5.87    0.41
  -6   1   0    6.20    0.81
   5  -1   0   48.93    2.17
   5  -1   0   52.15    2.16
   5  -1   0   50.62    2.16
   5  -1   0   53.56    2.13
  -5   1   0   52.09    1.57
  -5   1   0   49.89    1.72
  -5   1   0   52.92    1.53
  -5   1   0   52.63    2.02
   4  -1   0  104.17    3.32
   4  -1   0   97.27    3.36
   4  -1   0   99.68    3.33
   4  -1   0  102.26    3.37
   4  -1   0  101.38    3.30
  -4   1   0  101.14    2.93
  -4   1   0  119.45    3.03
  -4   1   0  101.65    3.19
  -4   1   0  103.84    3.03
   3  -1   0   60.32    2.08
   3  -1   0   62.96    2.04
   3  -1   0   60.31    2.05
   3  -1   0   60.72    2.05
  -3   1   0   63.20    1.85
  -3   1   0   59.68    1.78
  -3   1   0   63.10    1.94
   2  -1   0  453.66   12.00
   2  -1   0  441.59   12.04
   2  -1   0  432.64   12.04
   2  -1   0  416.16   12.01
   2  -1   0  439.42   11.98
  -2   1   0  449.06   12.17
  -2   1   0  431.36   11.84
  -2   1   0  446.82   11.87
  -2   1   0  443.11   11.95
   1  -1   0   86.88    2.51
   1  -1   0   86.26    2.47
   1  -1   0   89.47    2.56
   1  -1   0   89.03    2.54
   1  -1   0   86.75    2.51
   1  -1   0   87.32    2.41
  -1   1   0   86.73    2.44
  -1   1   0   87.00    2.46
  -1   1   0   91.52    2.57
  -1   1   0   87.96    2.50
  -1   1   0   90.30    2.53
  -1   1   0   86.53    2.40
  -1   1   0   91.75    2.51
   0  -1   0   54.11    1.39
   0   1   0   41.68    1.39
  -1  -1   0    0.79    0.13
  -1  -1   0    0.90    0.15
  -1  -1   0    0.86    0.14
  -1  -1   0    0.70    0.12
  -1  -1   0    0.57    0.14
  -1  -1   0    0.83    0.10
  -1  -1   0    0.91    0.13
  -1  -1   0    0.73    0.15
   1   1   0    0.54    0.13
   1   1   0    0.73    0.13
   1   1   0    1.13    0.16
   1   1   0    0.89    0.11
   1   1   0    0.59    0.14
  -2  -1   0   92.67    2.71
  -2  -1   0   97.86    2.74
  -2  -1   0   96.60    2.57
  -2  -1   0   93.20    2.62
  -2  -1   0   91.09    2.68
   2   1   0   92.01    2.60
   2   1   0   92.45    2.58
   2   1   0   91.06    2.76
   2   1   0   91.89    2.77
   2   1   0   89.23    2.74
  -3  -1   0  202.70    5.71
  -3  -1   0  207.07    6.22
  -3  -1   0  207.99    5.53
  -3  -1   0  200.25    5.59
   3   1   0  197.50    5.81
   3   1   0  199.30    5.84
   3   1   0  201.65    5.82
  -4  -1   0  121.87    3.53
  -4  -1   0  119.72    3.72
   4   1   0  123.40    3.89
   4   1   0  122.89    3.88
   4   1   0  122.67    3.90
  -5  -1   0   15.13    1.06
  -5  -1   0   16.28    0.82
  -5  -1   0   17.28    1.01
   5   1   0   15.14    1.17
   5   1   0   14.65    1.18
   5   1   0   15.98    1.37
  -6  -1   0   19.74    1.29
  -6  -1   0   19.21    1.34
  -6  -1   0   19.23    1.08
   6   1   0   19.04    1.48
   6   1   0   22.33    1.62
  -7  -1   0    6.32    1.08
  -7  -1   0    6.21    1.05
   7   1   0    7.58    1.36
   7   1   0    6.53    1.42
  -8  -1   0    2.43    1.15
  -8  -1   0    1.81    1.27
   8   1   0    1.57    1.31
   9  -2   0    2.20    1.70
  -9   2   0    2.21    1.55
  -9   2   0    1.41    1.65
   8  -2   0    8.74    1.59
   8  -2   0   10.98    1.65
  -8   2   0    8.79    1.32
   7  -2   0   18.80    1.93
   7  -2   0   22.01    1.81
   7  -2   0   18.72    1.77
  -7   2   0   19.82    1.60
  -7   2   0   18.16    1.43
  -7   2   0   17.94    1.23
   6  -2   0   49.44    2.32
   6  -2   0   51.04    2.35
   6  -2   0   53.42    2.30
   6  -2   0   49.85    2.36
  -6   2   0   51.80    1.65
  -6   2   0   49.76    2.12
  -6   2   0   50.48    1.86
  -6   2   0   50.02    1.51
   5  -2   0   30.79    1.64
   5  -2   0   30.09    1.61
   5  -2   0   30.38    1.62
   5  -2   0   29.26    1.55
   5  -2   0   27.17    1.50
  -5   2   0   29.01    1.22
  -5   2   0   31.82    1.46
  -5   2   0   30.20    0.95
  -5   2   0   29.55    1.06
   4  -2   0   43.41    1.82
   4  -2   0   45.19    1.78
   4  -2   0   44.57    1.88
   4  -2   0   45.23    1.78
   4  -2   0   44.65    1.90
  -4   2   0   47.28    1.54
  -4   2   0   48.00    1.36
  -4   2   0   45.86    1.45
   3  -2   0    8.57    0.67
   3  -2   0    9.25    0.68
   3  -2   0    8.20    0.62
   3  -2   0    8.71    0.70
   3  -2   0    8.93    0.69
  -3   2   0    9.01    0.44
  -3   2   0    9.10    0.36
  -3   2   0    9.27    0.50
   2  -2   0   59.86    1.94
   2  -2   0   58.98    1.93
   2  -2   0   61.38    1.98
   2  -2   0   59.31    1.85
   2  -2   0   59.06    1.99
  -2   2   0   62.51    1.70
  -2   2   0   61.71    1.71
  -2   2   0   60.43    1.83
  -2   2   0   61.84    1.78
  -2   2   0   61.52    1.71
  -2   2   0   59.34    1.89
  -2   2   0   58.32    1.78
   1  -2   0   68.20    1.83
   1  -2   0   65.56    1.93
   1  -2   0   64.14    1.81
   1  -2   0   69.87    1.96
   1  -2   0   65.34    2.02
   1  -2   0   65.61    1.99
   1  -2   0   67.04    1.86
  -1   2   0   68.52    1.83
  -1   2   0   66.60    1.90
  -1   2   0   65.33    1.80
  -1   2   0   65.76    1.88
  -1   2   0   64.68    1.76
  -1   2   0   65.08    1.97
  -1   2   0   63.35    2.01
  -1   2   0   65.09    1.88
  -1   2   0   64.15    1.83
  -1   2   0   58.20    1.99
   0  -2   0  522.87   14.02
   0   2   0  515.97   14.01
  -2  -2   0  153.39    4.19
  -2  -2   0  154.16    4.34
  -2  -2   0  159.18    4.22
  -2  -2   0  154.27    4.25
  -2  -2   0  150.02    4.31
   2   2   0  147.63    4.38
   2   2   0  150.97    4.22
   2   2   0  145.85    4.31
   2   2   0  151.19    4.38
   2   2   0  158.37    4.24
  -3  -2   0  126.23    3.79
  -3  -2   0  133.00    3.93
  -3  -2   0  135.94    3.83
  -3  -2   0  130.84    3.90
   3   2   0  144.46    3.97
   3   2   0  130.62    4.02
   3   2   0  131.12    4.03
   3   2   0  134.07    3.77
  -4  -2   0   31.96    1.59
  -4  -2   0   35.45    1.43
  -4  -2   0   33.83    1.23
   4   2   0   34.56    1.61
   4   2   0   33.81    1.60
  -5  -2   0    1.73    0.55
  -5  -2   0    2.08    0.60
  -5  -2   0    2.84    0.59
   5   2   0    2.95    0.81
   5   2   0    2.02    0.69
  -6  -2   0   -0.23    0.53
  -6  -2   0   -0.07    0.60
  -6  -2   0    0.40    0.49
   6   2   0    1.41    0.74
   6   2   0    2.94    1.06
  -7  -2   0    9.33    1.44
  -7  -2   0    9.54    1.25
   7   2   0    8.96    1.60
   7   2   0   11.40    1.73
  -8  -2   0    4.00    1.27
  -8  -2   0    4.89    1.37
   8   2   0    7.80    2.27
   8   2   0    6.34    1.55
   9  -3   0    3.30    1.74
   9  -3   0    1.41    1.91
  -9   3   0    3.08    1.84
  -9   3   0    0.66    1.53
   8  -3   0    0.22    1.27
   8  -3   0    2.80    1.23
  -8   3   0    2.82    0.97
  -8   3   0    1.77    1.09
  -8   3   0    0.63    1.41
   7  -3   0    5.93    1.45
   7  -3   0    4.38    1.17
   7  -3   0    3.27    1.24
   7  -3   0    4.50    1.10
  -7   3   0    4.73    0.98
  -7   3   0    4.10    0.75
  -7   3   0    5.06    0.90
   6  -3   0    2.79    0.74
   6  -3   0    2.59    0.92
   6  -3   0    1.98    0.91
   6  -3   0    2.12    0.84
  -6   3   0    1.91    0.54
  -6   3   0    1.05    0.32
  -6   3   0    1.58    0.65
   5  -3   0   27.21    1.46
   5  -3   0   28.60    1.63
   5  -3   0   27.77    1.56
   5  -3   0   25.05    1.56
   5  -3   0   28.24    1.62
  -5   3   0   26.30    0.91
  -5   3   0   28.75    1.23
  -5   3   0   26.93    1.10
  -5   3   0   27.85    0.96
   4  -3   0   89.36    3.03
   4  -3   0   88.26    2.93
   4  -3   0   89.61    3.19
  -4   3   0   86.88    2.68
  -4   3   0   90.91    2.55
  -4   3   0   90.71    2.56
  -4   3   0   92.94    2.78
   3  -3   0   62.56    2.26
   3  -3   0   62.72    2.16
   3  -3   0   60.96    2.02
   3  -3   0   59.91    2.17
   3  -3   0   61.85    2.23
  -3   3   0   64.07    1.81
  -3   3   0   61.96    1.80
  -3   3   0   63.53    1.78
   2  -3   0   42.88    1.39
   2  -3   0   42.70    1.53
   2  -3   0   42.61    1.59
   2  -3   0   42.87    1.62
  -2   3   0   45.22    1.39
  -2   3   0   42.03    1.38
  -2   3   0   46.17    1.23
  -2   3   0   45.01    1.34
  -2   3   0   43.51    1.26
  -2   3   0   44.48    1.30
   1  -3   0  180.81    4.97
   1  -3   0  180.18    4.86
   1  -3   0  182.33    4.84
   1  -3   0  174.77    4.93
   1  -3   0  178.29    5.09
   1  -3   0  180.28    4.86
   1  -3   0  181.64    5.06
  -1   3   0  169.97    4.85
  -1   3   0  177.44    4.92
  -1   3   0  173.87    4.84
  -1   3   0  171.78    4.82
   0  -3   0   17.68    0.61
   0  -3   0   18.12    0.61
   0  -3   0   18.01    0.71
   0  -3   0   17.01    0.66
   0   3   0   17.81    0.61
   0   3   0   17.72    0.61
   0   3   0   18.31    0.63
   0   3   0   18.33    0.68
   0   3   0   18.27    0.63
   0   3   0   17.72    0.70
  -1  -3   0   91.94    2.59
  -1  -3   0   93.67    2.66
  -1  -3   0   93.93    2.67
  -1  -3   0   95.87    2.71
  -1  -3   0   91.31    2.68
   1   3   0   92.32    2.65
   1   3   0   91.57    2.69
   1   3   0   93.56    2.66
   1   3   0   92.23    2.70
   1   3   0   89.74    2.62
  -2  -3   0   36.03    1.32
  -2  -3   0   37.50    1.06
  -2  -3   0   38.67    1.07
  -2  -3   0   36.83    1.26
   2   3   0   37.42    1.32
   2   3   0   37.09    1.06
   2   3   0   36.67    1.22
   2   3   0   35.53    1.28
   2   3   0   36.35    1.17
  -3  -3   0   24.03    1.06
  -3  -3   0   25.78    0.92
  -3  -3   0   24.10    1.08
  -3  -3   0   25.00    0.87
   3   3   0   26.29    0.93
   3   3   0   24.95    1.21
   3   3   0   23.88    1.16
  -4  -3   0   62.82    2.24
  -4  -3   0   61.47    1.97
  -4  -3   0   62.86    1.98
  -4  -3   0   59.29    2.16
   4   3   0   63.04    2.00
   4   3   0   59.64    2.32
   4   3   0   65.19    2.47
  -5  -3   0   26.21    1.38
  -5  -3   0   28.85    1.47
  -5  -3   0   28.69    1.47
   5   3   0   30.45    1.73
   5   3   0   27.47    1.58
  -6  -3   0    5.73    0.87
  -6  -3   0    5.44    0.87
   6   3   0    6.89    1.33
   6   3   0    3.97    0.89
  -7  -3   0    7.20    1.11
  -7  -3   0    7.02    1.26
   7   3   0    8.87    1.38
   7   3   0   11.11    1.94
  -8  -3   0    2.29    1.37
  -8  -3   0   -0.25    1.21
   8   3   0    1.65    1.43
   8   3   0   -0.33    2.29
   9  -4   0   -0.32    2.04
   9  -4   0   -1.68    1.62
   8  -4   0    3.21    1.27
   8  -4   0    4.68    1.55
  -8   4   0    3.47    1.32
  -8   4   0    2.99    1.72
   7  -4   0   11.63    1.51
   7  -4   0   11.45    1.68
   7  -4   0   14.73    2.04
   7  -4   0   13.19    1.58
  -7   4   0   11.16    1.01
  -7   4   0    9.79    1.13
  -7   4   0    9.64    1.21
   6  -4   0   14.81    1.57
   6  -4   0   15.88    1.58
   6  -4   0   13.98    1.54
   6  -4   0   14.67    1.42
   6  -4   0   16.73    1.33
  -6   4   0   12.58    1.17
  -6   4   0   13.19    0.62
  -6   4   0   13.92    1.05
  -6   4   0   13.51    0.97
   5  -4   0   63.16    2.41
   5  -4   0   63.11    2.62
   5  -4   0   63.14    2.63
   5  -4   0   60.58    2.59
  -5   4   0   63.75    1.91
  -5   4   0   68.23    2.18
  -5   4   0   68.77    2.26
  -5   4   0   62.40    1.91
   4  -4   0   67.34    2.65
   4  -4   0   66.40    2.66
   4  -4   0   70.89    2.41
   4  -4   0   70.15    2.70
  -4   4   0   71.07    2.24
  -4   4   0   72.20    2.06
  -4   4   0   70.81    2.02
   3  -4   0  147.51    4.66
   3  -4   0  147.84    4.61
   3  -4   0  148.12    4.32
   3  -4   0  147.96    4.55
  -3   4   0  145.05    4.12
  -3   4   0  153.57    4.05
  -3   4   0  147.07    4.26
  -3   4   0  147.40    4.06
   2  -4   0   -0.07    0.17
   2  -4   0    0.24    0.16
   2  -4   0    0.21    0.11
   2  -4   0    0.09    0.37
   2  -4   0    0.28    0.36
  -2   4   0    0.27    0.16
  -2   4   0    0.39    0.22
  -2   4   0    0.40    0.11
   1  -4   0    2.93    0.45
   1  -4   0    2.31    0.24
   1  -4   0    2.42    0.32
   1  -4   0    2.63    0.22
   1  -4   0    2.30    0.38
   1  -4   0    2.62    0.11
  -1   4   0    2.05    0.24
  -1   4   0    2.15    0.21
  -1   4   0    2.34    0.28
  -1   4   0    2.35    0.22
   0  -4   0   35.88    1.24
   0  -4   0   40.33    1.15
   0  -4   0   41.45    1.62
   0  -4   0   36.81    1.16
   0   4   0   35.96    1.17
   0   4   0   37.44    1.20
   0   4   0   36.79    1.29
   0   4   0   35.65    1.19
  -1  -4   0   31.47    1.01
  -1  -4   0   29.90    1.06
   1   4   0   31.44    1.02
   1   4   0   30.24    0.98
   1   4   0   30.22    1.17
  -2  -4   0  218.89    6.11
  -2  -4   0  212.03    6.06
  -2  -4   0  216.32    6.00
   2   4   0  213.32    6.10
   2   4   0  218.92    5.99
   2   4   0  210.89    5.85
  -3  -4   0  120.41    3.46
  -3  -4   0  118.88    3.62
  -3  -4   0  115.65    4.19
   3   4   0  119.58    3.72
   3   4   0  120.33    3.49
  -4  -4   0   33.45    1.19
  -4  -4   0   34.07    1.53
  -4  -4   0   30.31    1.41
   4   4   0   32.66    1.28
   4   4   0   30.62    1.56
   4   4   0   34.16    1.70
  -5  -4   0   13.14    1.16
  -5  -4   0   12.84    1.03
   5   4   0   15.71    1.48
   5   4   0   12.66    1.19
  -6  -4   0    0.32    0.72
  -6  -4   0    1.46    0.74
   6   4   0   -0.60    0.77
   6   4   0    1.41    1.18
  -7  -4   0    1.30    1.11
  -7  -4   0    0.83    0.93
   7   4   0    1.56    1.13
  -8  -4   0   -0.07    1.34
  -8  -4   0    0.80    1.43
   8   4   0   -0.34    1.58
   8   4   0   -0.59    2.61
   8  -5   0    3.59    1.64
   8  -5   0    5.64    1.63
   8  -5   0    4.13    1.30
  -8   5   0    3.52    1.15
  -8   5   0    1.27    1.52
   7  -5   0    5.17    1.67
   7  -5   0    7.02    1.19
   7  -5   0    7.02    1.60
  -7   5   0    6.90    1.11
  -7   5   0    7.31    0.92
  -7   5   0    6.41    1.30
   6  -5   0   12.02    1.59
   6  -5   0    9.07    1.43
   6  -5   0    8.74    1.13
   6  -5   0    7.75    1.28
  -6   5   0    8.67    0.69
  -6   5   0    9.20    0.91
  -6   5   0    7.26    0.62
  -6   5   0    7.73    0.94
   5  -5   0    2.67    0.89
   5  -5   0    2.48    0.82
   5  -5   0    3.13    0.68
   5  -5   0    3.24    0.91
  -5   5   0    2.87    0.33
  -5   5   0    4.82    0.64
  -5   5   0    2.63    0.58
  -5   5   0    2.84    0.35
   4  -5   0   25.00    1.52
   4  -5   0   23.90    1.18
   4  -5   0   22.94    1.45
   4  -5   0   22.99    1.51
  -4   5   0   26.27    0.92
  -4   5   0   25.00    0.84
  -4   5   0   24.88    0.84
  -4   5   0   26.57    1.17
   3  -5   0   17.03    1.15
   3  -5   0   14.39    1.63
   3  -5   0   17.36    0.80
  -3   5   0   17.42    0.70
  -3   5   0   18.10    0.59
  -3   5   0   17.26    0.87
   2  -5   0   62.22    1.91
   2  -5   0   64.73    1.95
   2  -5   0   66.45    2.23
   2  -5   0   65.67    2.34
   2  -5   0   60.43    2.32
   2  -5   0   63.97    2.00
  -2   5   0   66.41    1.87
  -2   5   0   65.92    2.06
  -2   5   0   64.36    1.94
   1  -5   0   40.11    1.11
   1  -5   0   37.67    1.38
   1  -5   0   40.13    1.11
   1  -5   0   41.94    1.26
   1  -5   0   39.31    1.55
   1  -5   0   36.41    1.48
  -1   5   0   40.03    1.25
  -1   5   0   38.30    1.27
  -1   5   0   40.05    1.35
   0  -5   0   74.68    2.25
   0  -5   0   83.94    2.30
   0  -5   0   75.21    2.46
   0  -5   0   76.24    2.37
   0  -5   0   77.66    2.43
   0   5   0   76.71    2.31
   0   5   0   73.10    2.26
   0   5   0   74.47    2.29
  -1  -5   0   68.80    2.18
  -1  -5   0   77.10    2.18
  -1  -5   0   71.95    2.27
   1   5   0   71.49    2.12
   1   5   0   71.97    2.25
   1   5   0   66.20    2.14
  -2  -5   0    1.46    0.47
  -2  -5   0    1.27    0.37
   2   5   0    1.88    0.24
   2   5   0    1.69    0.51
   2   5   0    2.03    0.37
   2   5   0    1.84    0.36
  -3  -5   0    0.05    0.44
  -3  -5   0   -0.08    0.38
  -3  -5   0    0.24    0.29
   3   5   0    0.00    0.31
   3   5   0   -0.36    0.57
   3   5   0    0.06    0.16
  -4  -5   0    2.81    0.53
  -4  -5   0    3.17    0.51
  -4  -5   0    2.38    0.59
   4   5   0    2.79    0.75
   4   5   0    2.67    0.60
   4   5   0    1.97    0.63
  -5  -5   0    9.32    0.97
  -5  -5   0    9.61    1.14
   5   5   0    9.32    1.54
   5   5   0   13.20    1.59
   5   5   0    9.24    0.93
  -6  -5   0    4.98    1.01
  -6  -5   0    2.60    0.90
   6   5   0    3.02    1.08
   6   5   0    5.44    1.50
  -7  -5   0    4.03    1.69
  -7  -5   0    2.77    1.07
   7   5   0    2.50    2.09
   7   5   0    1.71    1.24
  -8  -5   0    3.05    1.64
  -8  -5   0   -1.49    1.59
   8   5   0    1.90    1.68
   8   5   0   -2.80    3.22
   8  -6   0    3.03    1.66
   8  -6   0    2.08    1.72
   8  -6   0   -0.02    1.30
  -8   6   0   -1.35    1.28
  -8   6   0    0.65    1.18
   7  -6   0   -0.49    2.53
   7  -6   0   -1.15    1.37
   7  -6   0   -0.64    0.90
  -7   6   0    0.78    0.72
  -7   6   0    1.63    1.03
   6  -6   0    7.27    1.43
   6  -6   0    7.14    1.43
   6  -6   0    6.20    1.27
   6  -6   0    7.70    1.14
  -6   6   0    9.64    1.06
  -6   6   0    8.41    0.98
  -6   6   0    7.00    0.67
   5  -6   0    8.66    1.00
   5  -6   0    9.53    1.26
   5  -6   0    9.58    1.34
   5  -6   0   10.02    1.33
  -5   6   0    9.28    0.67
  -5   6   0   11.17    1.00
  -5   6   0    9.61    0.88
   4  -6   0   57.38    2.51
   4  -6   0   61.10    2.64
   4  -6   0   61.31    2.56
   4  -6   0   61.47    2.15
  -4   6   0   62.42    1.76
  -4   6   0   62.50    2.14
   3  -6   0   72.76    2.05
   3  -6   0   68.31    2.63
   3  -6   0   67.18    2.17
   3  -6   0   68.30    2.71
   3  -6   0   66.95    2.68
  -3   6   0   69.13    2.29
  -3   6   0   67.40    1.98
  -3   6   0   67.70    2.11
   2  -6   0   53.11    2.19
   2  -6   0   55.06    2.09
   2  -6   0   53.44    1.78
   2  -6   0   55.45    1.69
  -2   6   0   55.27    1.66
  -2   6   0   56.31    1.75
   1  -6   0   13.81    0.45
   1  -6   0   12.81    0.95
   1  -6   0   12.62    0.80
   1  -6   0   13.72    0.94
   1  -6   0   13.45    0.63
   1  -6   0   13.82    0.45
  -1   6   0   14.09    0.68
  -1   6   0   13.75    0.63
  -1   6   0   13.23    0.74
   0  -6   0   -0.20    0.36
   0  -6   0    0.13    0.33
   0  -6   0    0.04    0.19
   0  -6   0    0.13    0.39
   0  -6   0    0.12    0.21
   0   6   0   -0.21    0.25
   0   6   0   -0.12    0.27
   0   6   0    0.22    0.26
  -1  -6   0    0.55    0.29
  -1  -6   0    0.80    0.49
  -1  -6   0    0.98    0.32
   1   6   0    1.36    0.42
   1   6   0    1.19    0.27
   1   6   0    0.75    0.32
  -2  -6   0    3.37    0.51
  -2  -6   0    3.82    0.58
   2   6   0    4.62    0.34
   2   6   0    5.14    0.55
   2   6   0    3.80    0.59
  -3  -6   0   39.46    1.70
  -3  -6   0   42.74    1.64
   3   6   0   37.81    1.26
   3   6   0   43.11    1.94
   3   6   0   41.62    1.56
  -4  -6   0   15.53    1.08
  -4  -6   0   16.54    1.21
   4   6   0   16.51    1.02
   4   6   0   16.48    1.45
   4   6   0   16.43    1.18
  -5  -6   0    6.04    0.88
  -5  -6   0    7.12    0.99
   5   6   0    8.96    1.01
   5   6   0    8.32    1.51
   5   6   0    8.22    1.19
  -6  -6   0    2.25    1.77
  -6  -6   0    1.45    0.94
  -7  -6   0    0.07    1.10
  -7  -6   0    1.00    1.28
   7   6   0   -5.24    2.34
   8  -7   0    7.11    1.57
   8  -7   0    3.29    2.13
   8  -7   0    8.78    2.10
  -8   7   0    5.25    1.51
  -8   7   0    3.97    1.17
   7  -7   0    5.68    1.16
   7  -7   0    6.12    1.82
   7  -7   0    3.71    1.89
  -7   7   0    3.19    1.04
  -7   7   0    4.03    1.36
   6  -7   0    6.23    1.62
   6  -7   0    6.75    1.54
   6  -7   0    5.72    1.35
   6  -7   0    6.95    0.98
  -6   7   0    6.98    0.75
  -6   7   0    7.08    0.95
  -6   7   0    6.46    0.96
   5  -7   0    8.77    1.33
   5  -7   0    9.99    1.03
   5  -7   0   11.81    1.56
   5  -7   0   10.94    1.44
  -5   7   0   10.62    1.01
  -5   7   0   10.05    0.73
   4  -7   0    5.66    0.98
   4  -7   0    4.19    1.03
   4  -7   0    3.89    0.56
   4  -7   0    4.71    0.98
  -4   7   0    4.68    0.50
  -4   7   0    4.45    0.45
  -4   7   0    4.57    0.67
   3  -7   0    0.71    0.77
   3  -7   0    0.17    0.72
   3  -7   0    0.44    0.25
   3  -7   0    0.19    0.63
  -3   7   0   -0.19    0.32
  -3   7   0    0.09    0.44
  -3   7   0    0.03    0.18
   2  -7   0   13.68    1.21
   2  -7   0   15.58    1.35
   2  -7   0   13.79    1.17
   2  -7   0   14.28    0.61
   2  -7   0   14.92    0.78
  -2   7   0   14.70    0.78
  -2   7   0   14.07    0.89
  -2   7   0   14.59    0.71
   1  -7   0   24.05    1.20
   1  -7   0   25.48    1.36
   1  -7   0   24.57    0.77
   1  -7   0   25.63    0.98
   1  -7   0   26.21    0.78
  -1   7   0   23.96    1.02
  -1   7   0   24.63    1.00
  -1   7   0   26.30    1.16
   0  -7   0   13.31    0.60
   0  -7   0   14.28    0.72
   0  -7   0   14.84    1.54
   0  -7   0   12.42    0.96
   0   7   0   14.32    0.84
   0   7   0   14.97    0.82
   0   7   0   14.31    0.80
  -1  -7   0   26.93    1.09
  -1  -7   0   26.56    1.17
  -1  -7   0   25.86    1.29
   1   7   0   25.59    1.23
   1   7   0   26.09    1.04
   1   7   0   25.42    1.10
  -2  -7   0   11.97    0.95
  -2  -7   0   12.56    0.84
   2   7   0   11.95    0.82
   2   7   0   11.74    0.95
   2   7   0   11.71    0.61
  -3  -7   0    7.06    0.79
  -3  -7   0    8.88    0.95
   3   7   0    8.25    1.14
   3   7   0    5.86    0.66
   3   7   0    5.36    0.44
  -4  -7   0    0.16    0.62
  -4  -7   0    0.99    0.60
   4   7   0    0.43    0.51
   4   7   0    0.08    0.89
  -5  -7   0    0.15    0.72
  -5  -7   0    0.12    0.82
   5   7   0    1.00    1.40
   5   7   0    1.06    0.76
  -6  -7   0    0.73    0.91
  -6  -7   0    0.48    1.07
   6   7   0    1.54    2.17
  -7  -7   0    1.20    1.40
  -7  -7   0   -0.86    1.28
   7   7   0    1.13    2.80
   8  -8   0    3.29    2.48
   8  -8   0   -2.28    2.34
  -8   8   0    2.39    1.25
  -8   8   0    2.18    1.59
   7  -8   0    2.84    1.57
   7  -8   0    3.77    2.07
  -7   8   0    1.95    1.05
  -7   8   0    0.85    1.01
   6  -8   0   -2.82    2.27
   6  -8   0   -0.20    0.70
   6  -8   0   -1.34    2.00
   6  -8   0    0.42    1.65
  -6   8   0    0.38    0.82
  -6   8   0   -0.10    0.51
  -6   8   0    0.09    0.78
   5  -8   0    3.52    1.18
   5  -8   0    3.96    1.20
   5  -8   0    2.68    0.75
   5  -8   0    2.53    1.04
  -5   8   0    3.59    0.52
  -5   8   0    2.77    0.75
   4  -8   0    5.92    1.17
   4  -8   0    6.62    1.13
   4  -8   0    7.29    0.73
   4  -8   0    6.20    1.13
  -4   8   0    7.72    0.88
  -4   8   0    8.08    0.67
   3  -8   0   11.88    1.26
   3  -8   0   12.13    0.63
   3  -8   0   12.13    1.28
   3  -8   0   12.73    1.27
   3  -8   0   12.49    0.94
  -3   8   0   11.60    0.75
  -3   8   0   11.55    0.93
  -3   8   0   11.97    0.60
   2  -8   0   43.11    2.09
   2  -8   0   40.55    1.35
   2  -8   0   42.49    1.62
   2  -8   0   43.42    1.97
   2  -8   0   43.37    2.08
  -2   8   0   43.70    1.70
  -2   8   0   42.97    1.55
  -2   8   0   42.92    1.46
   1  -8   0   21.08    0.95
   1  -8   0   17.83    0.63
   1  -8   0   18.37    1.11
   1  -8   0   19.49    1.34
  -1   8   0   19.90    0.97
  -1   8   0   19.03    0.95
  -1   8   0   20.71    1.06
   0  -8   0   10.17    0.89
   0  -8   0    8.64    0.78
   0  -8   0    9.67    0.95
   0  -8   0   10.02    1.04
   0   8   0   10.37    0.82
   0   8   0    9.31    0.77
   0   8   0    9.74    0.73
  -1  -8   0    0.79    0.66
  -1  -8   0    1.03    0.40
  -1  -8   0    0.53    0.52
  -1  -8   0    0.61    0.41
   1   8   0    0.80    0.37
   1   8   0    0.88    0.53
   1   8   0    0.55    0.45
  -2  -8   0    2.48    0.53
  -2  -8   0    2.89    0.73
   2   8   0    2.38    0.58
   2   8   0    1.99    0.44
   2   8   0    1.48    0.59
  -3  -8   0    0.90    0.55
  -3  -8   0    0.96    0.67
   3   8   0   -0.47    0.49
  -4  -8   0    5.31    0.82
  -4  -8   0    6.39    0.97
   4   8   0    7.02    0.91
   4   8   0    6.86    1.44
  -5  -8   0    1.98    0.86
  -5  -8   0    1.33    0.95
   5   8   0    2.58    0.97
   5   8   0    3.24    1.60
  -6  -8   0    0.81    1.28
  -6  -8   0    0.37    0.97
   6   8   0   -2.68    2.05
   7  -9   0    0.91    1.74
   7  -9   0    4.18    2.39
  -7   9   0    2.33    1.29
  -7   9   0    0.09    1.11
   6  -9   0    6.46    2.05
   6  -9   0    2.91    1.57
   6  -9   0    3.91    1.63
  -6   9   0    3.93    0.71
  -6   9   0    3.47    1.05
  -6   9   0    2.74    0.95
   5  -9   0    3.30    1.50
   5  -9   0    4.10    1.28
   5  -9   0    5.51    1.57
  -5   9   0    6.72    0.81
  -5   9   0    6.75    1.02
   4  -9   0   11.03    1.54
   4  -9   0   13.21    1.75
   4  -9   0   10.80    1.44
  -4   9   0   12.86    0.85
  -4   9   0   12.64    1.11
   3  -9   0    2.38    0.87
   3  -9   0    1.01    0.79
   3  -9   0    2.55    0.99
   3  -9   0    1.72    0.75
  -3   9   0    1.14    0.55
  -3   9   0    1.54    0.48
  -3   9   0    2.50    0.38
   2  -9   0    0.66    0.75
   2  -9   0    0.05    0.59
   2  -9   0    0.64    0.79
   2  -9   0    0.39    0.61
  -2   9   0    0.87    0.42
  -2   9   0    0.90    0.55
  -2   9   0    0.36    0.42
   1  -9   0    0.29    0.50
   1  -9   0    1.27    0.55
   1  -9   0    0.69    0.22
   1  -9   0    0.47    0.18
   1  -9   0    0.94    0.77
   1  -9   0    1.15    0.83
  -1   9   0   -0.28    0.48
  -1   9   0    0.92    0.50
  -1   9   0    0.29    0.42
   0  -9   0    3.88    0.92
   0  -9   0    4.50    0.80
   0  -9   0    3.05    0.68
   0  -9   0    3.85    0.59
   0  -9   0    3.87    0.44
   0   9   0    3.33    0.61
   0   9   0    4.13    0.60
   0   9   0    3.93    0.59
  -1  -9   0    1.98    0.62
  -1  -9   0    1.18    0.49
  -1  -9   0    2.06    0.50
  -1  -9   0    2.03    0.81
  -1  -9   0    0.73    0.47
   1   9   0    0.96    0.56
   1   9   0    0.93    0.48
   1   9   0    0.34    0.45
  -2  -9   0   12.19    1.00
  -2  -9   0   11.36    1.13
   2   9   0    9.93    0.92
   2   9   0    9.30    0.97
  -3  -9   0    0.91    0.71
  -3  -9   0    0.00    0.77
   3   9   0    0.43    0.64
   3   9   0    1.83    1.14
  -4  -9   0    1.88    1.39
  -4  -9   0    3.34    1.67
   4   9   0    2.06    1.50
   4   9   0    1.04    0.80
  -5  -9   0    0.92    0.94
  -5  -9   0    1.09    1.09
   5   9   0    0.49    1.30
   5   9   0    1.03    1.85
  -6  -9   0   -0.64    1.25
  -6  -9   0   -2.54    1.66
  -6  -9   0   -0.05    1.32
   6   9   0   -3.70    2.83
   7 -10   0    4.15    2.83
   7 -10   0    2.36    1.95
  -7  10   0    0.90    1.32
  -7  10   0    1.23    1.29
   6 -10   0    3.35    2.43
   6 -10   0    2.22    1.77
   6 -10   0   -0.60    1.73
  -6  10   0    1.23    1.07
  -6  10   0    0.46    0.97
  -6  10   0    1.53    0.92
   5 -10   0   -1.06    1.39
   5 -10   0    0.53    1.47
   5 -10   0    0.38    1.38
  -5  10   0   -0.31    0.58
  -5  10   0   -0.03    0.81
   4 -10   0   -0.63    1.33
   4 -10   0    1.57    1.13
   4 -10   0   -0.40    1.10
  -4  10   0    0.36    0.55
  -4  10   0   -0.18    0.73
   3 -10   0    1.58    1.00
   3 -10   0    0.77    1.03
   3 -10   0    0.68    1.17
   3 -10   0   -0.52    0.73
  -3  10   0    0.31    0.67
  -3  10   0   -0.09    0.49
   2 -10   0    7.42    1.10
   2 -10   0    9.29    1.08
   2 -10   0    8.69    1.37
   2 -10   0    9.90    1.34
  -2  10   0    8.64    1.04
  -2  10   0    8.88    0.91
  -2  10   0    9.01    0.83
   1 -10   0   12.11    1.57
   1 -10   0   11.42    1.48
   1 -10   0   12.77    1.17
   1 -10   0   14.59    1.00
  -1  10   0   13.14    1.08
  -1  10   0   12.47    1.13
  -1  10   0   12.59    0.94
   0 -10   0    3.61    0.60
   0 -10   0    3.92    0.78
   0 -10   0    3.44    0.42
   0 -10   0    3.81    1.15
   0 -10   0    2.55    1.14
   0  10   0    4.11    0.65
   0  10   0    5.02    0.74
   0  10   0    4.24    0.72
  -1 -10   0    0.62    0.69
  -1 -10   0    2.07    0.55
  -1 -10   0    2.25    1.08
  -1 -10   0    1.17    0.57
   1  10   0    1.27    0.53
   1  10   0    1.49    0.55
   1  10   0    1.67    0.93
  -2 -10   0    0.72    1.20
  -2 -10   0    0.11    0.59
  -2 -10   0    1.20    0.77
  -2 -10   0    1.21    0.60
   2  10   0    1.14    0.69
   2  10   0    0.85    0.54
  -3 -10   0    0.61    1.01
  -3 -10   0   -0.14    0.72
  -3 -10   0    0.09    0.74
   3  10   0   -0.85    1.21
   3  10   0   -0.43    0.73
  -4 -10   0   -0.91    0.98
  -4 -10   0   -0.44    0.89
  -4 -10   0   -0.43    0.96
   4  10   0   -0.14    0.97
   4  10   0    1.50    1.68
  -5 -10   0   -0.29    1.07
  -5 -10   0    0.36    1.13
  -5 -10   0   -0.51    1.34
   5  10   0    4.43    2.39
   5  10   0    1.17    1.41
   6 -11   0    1.02    2.82
   6 -11   0    2.51    2.16
  -6  11   0    0.69    1.09
  -6  11   0    0.32    1.27
  -6  11   0   -0.66    0.96
   5 -11   0    2.57    1.84
   5 -11   0   -0.41    1.77
   5 -11   0    0.23    1.47
  -5  11   0    1.41    0.81
  -5  11   0    1.32    0.96
   4 -11   0    4.24    1.80
   4 -11   0   -0.07    2.19
  -4  11   0    2.99    0.92
  -4  11   0    1.52    0.71
   3 -11   0    1.80    1.61
   3 -11   0    1.47    1.21
   3 -11   0    2.51    1.35
  -3  11   0    0.87    0.80
  -3  11   0    2.34    0.73
   2 -11   0    1.25    1.14
   2 -11   0    0.23    1.03
   2 -11   0    1.26    1.40
   2 -11   0    3.27    0.76
  -2  11   0    0.33    0.75
  -2  11   0    0.21    0.57
  -2  11   0    1.11    0.62
   1 -11   0    2.11    1.08
   1 -11   0    2.23    0.65
   1 -11   0    2.07    0.89
   1 -11   0    3.21    1.39
  -1  11   0    1.36    0.66
  -1  11   0    2.24    0.65
  -1  11   0    1.99    0.79
   0 -11   0   -0.91    0.69
   0 -11   0    0.00    0.55
   0 -11   0    1.35    1.33
   0  11   0    0.12    0.66
   0  11   0   -0.50    0.64
   0  11   0    0.00    0.58
  -1 -11   0    1.18    1.36
  -1 -11   0   -0.30    0.60
  -1 -11   0    0.50    0.87
   1  11   0    0.97    0.73
   1  11   0    2.03    0.66
  -2 -11   0    1.83    1.10
  -2 -11   0    1.55    1.67
  -2 -11   0    1.42    0.73
  -2 -11   0   -0.23    0.92
   2  11   0    2.31    0.82
  -3 -11   0    1.87    1.05
  -3 -11   0   -0.53    3.81
  -3 -11   0    0.81    0.83
  -3 -11   0    2.26    1.00
   3  11   0    1.07    1.65
   3  11   0    2.07    0.97
  -4 -11   0    0.42    0.97
  -4 -11   0    2.32    1.09
  -4 -11   0   -1.09    1.24
   4  11   0   -0.13    1.11
   4  11   0    3.27    2.26
   6 -12   0   -5.36    3.40
   6 -12   0    2.91    2.84
  -6  12   0   -0.98    1.60
  -6  12   0    0.25    1.29
   5 -12   0   -0.49    2.23
   5 -12   0   -1.63    1.74
  -5  12   0    1.11    1.07
  -5  12   0    0.67    0.91
   4 -12   0    2.35    1.92
   4 -12   0    1.98    2.14
   4 -12   0   -0.19    1.44
  -4  12   0   -0.48    0.79
  -4  12   0    0.53    1.00
   3 -12   0    1.40    1.36
   3 -12   0    0.75    1.82
   3 -12   0   -0.73    1.99
  -3  12   0   -0.93    0.91
  -3  12   0    0.56    0.75
   2 -12   0    2.98    1.93
   2 -12   0   -0.13    1.45
  -2  12   0    0.80    0.88
  -2  12   0   -0.06    0.66
   1 -12   0    5.50    0.86
   1 -12   0    4.20    1.06
   1 -12   0    3.00    3.37
   1 -12   0    3.46    1.30
  -1  12   0    3.11    0.78
  -1  12   0    4.30    1.03
   0 -12   0   -0.07    0.72
   0 -12   0    2.29    2.45
   0 -12   0    1.03    0.91
   0  12   0   -0.37    0.64
   0  12   0    0.68    0.86
  -1 -12   0    0.39    0.99
  -1 -12   0    0.18    0.77
  -1 -12   0   -0.50    2.53
   1  12   0    0.68    0.75
   1  12   0    0.33    0.83
  -2 -12   0   -0.20    0.86
  -2 -12   0    3.14    2.21
  -2 -12   0   -0.49    1.06
   2  12   0    0.28    0.83
  -3 -12   0    4.15    2.63
  -3 -12   0   -1.67    1.22
  -3 -12   0    0.71    0.98
   3  12   0    0.83    1.85
   3  12   0    2.80    1.09
  -4 -12   0   -2.98    1.27
  -4 -12   0   -0.19    1.57
  -4 -12   0   -0.18    1.40
   4  12   0   -1.65    3.00
   4  12   0    0.29    1.40
   5 -13   0   -0.39    2.15
   5 -13   0    5.92    3.22
  -5  13   0    1.38    1.76
  -5  13   0   -0.75    1.06
  -5  13   0    0.72    1.42
   4 -13   0    0.42    1.72
   4 -13   0    2.08    2.90
  -4  13   0   -0.94    1.08
  -4  13   0    1.05    0.98
   3 -13   0    4.12    1.60
   3 -13   0    1.48    2.55
  -3  13   0    1.41    0.92
  -3  13   0    1.51    1.08
   2 -13   0    5.19    2.42
   2 -13   0   -3.02    1.18
  -2  13   0    0.82    0.84
  -2  13   0   -0.54    1.01
   1 -13   0    1.95    1.14
   1 -13   0    3.35    2.49
   1 -13   0    1.07    1.17
  -1  13   0    0.52    1.00
  -1  13   0    3.08    0.87
   0 -13   0    3.19    1.80
   0 -13   0    1.23    1.16
   0 -13   0    0.15    2.34
   0  13   0   -1.08    0.77
   0  13   0    0.23    1.05
  -1 -13   0    0.81    1.29
  -1 -13   0   -0.43    2.77
  -1 -13   0    0.49    1.01
   1  13   0   -0.08    0.90
  -2 -13   0    0.64    1.34
  -2 -13   0    0.38    1.02
  -2 -13   0    2.00    2.76
   2  13   0    0.46    1.03
   3 -14   0    2.63    1.94
   3 -14   0   -0.51    3.26
  -3  14   0   -3.28    1.37
  -3  14   0    0.71    1.13
   2 -14   0    1.40    1.61
   2 -14   0   -3.24    3.10
  -2  14   0   -0.64    0.94
  -2  14   0    1.24    1.43
   1 -14   0   -1.00    1.50
   1 -14   0   -4.66    2.93
  -1  14   0   -0.87    0.98
  -1  14   0    0.17    1.18
   0 -14   0   -1.30    1.46
   0 -14   0    0.18    3.11
   0  14   0   -1.03    1.28
   0  14   0    1.66    1.11
  -1 -14   0    4.05    3.58
  -1 -14   0    3.33    1.76
   1  14   0    2.07    1.29
   1  14  -1   -1.16    1.15
  -1 -14   1   -0.32    1.48
  -1 -14   1   -1.03    1.13
  -1 -14   1   -1.57    3.12
   0  14  -1    3.67    1.10
   0  14  -1    0.55    1.23
   0 -14   1   -1.10    1.35
   0 -14   1    3.53    2.90
  -1  14  -1   -0.24    1.07
  -1  14  -1   -0.25    1.04
   1 -14   1    4.49    2.87
   1 -14   1    0.77    1.47
  -2  14  -1    0.00    0.95
  -2  14  -1   -1.17    1.17
   2 -14   1   -1.80    2.96
   2 -14   1   -0.01    1.47
  -3  14  -1    0.77    1.00
  -3  14  -1   -1.69    1.25
   3 -14   1    0.42    3.35
   3 -14   1    1.71    1.79
  -4  14  -1   -0.95    1.83
  -4  14  -1    0.99    1.61
  -4  14  -1    2.06    1.33
   4 -14   1    3.34    3.30
   4 -14   1    4.51    2.44
   3  13  -1   -1.44    1.26
   3  13  -1   -2.02    2.23
  -3 -13   1   -0.82    1.52
  -3 -13   1   -0.99    1.15
   2  13  -1    0.62    0.94
   2  13  -1    0.28    1.63
  -2 -13   1   -1.05    2.54
  -2 -13   1   -1.66    0.97
  -2 -13   1    1.28    1.25
   1  13  -1   -0.21    1.21
   1  13  -1   -0.29    0.82
  -1 -13   1   -2.13    0.86
  -1 -13   1   -1.33    1.07
  -1 -13   1   -1.02    3.00
   0  13  -1   -0.98    0.89
   0  13  -1    0.26    0.87
   0 -13   1    0.36    1.04
   0 -13   1    1.21    2.17
  -1  13  -1    2.02    1.04
  -1  13  -1    1.54    0.86
   1 -13   1    0.59    1.16
   1 -13   1    2.71    2.35
   1 -13   1   -0.28    0.97
  -2  13  -1   -0.56    0.99
  -2  13  -1   -0.05    0.77
   2 -13   1   -0.37    2.28
   2 -13   1   -1.54    1.22
  -3  13  -1    1.16    0.88
  -3  13  -1    1.39    1.04
   3 -13   1    1.52    2.46
   3 -13   1    2.14    1.37
  -4  13  -1   -0.48    0.88
   4 -13   1    5.34    1.73
   4 -13   1    1.96    2.60
  -5  13  -1    2.75    1.66
  -5  13  -1   -3.38    1.34
  -5  13  -1   -0.39    1.09
   5 -13   1    2.29    2.20
   5 -13   1   -0.82    3.09
   4  12  -1    1.83    2.51
   4  12  -1   -1.12    1.30
  -4 -12   1   -0.46    1.21
  -4 -12   1    0.41    1.15
  -4 -12   1    2.77    1.57
   3  12  -1    1.18    1.77
   3  12  -1    0.67    0.95
  -3 -12   1    0.82    0.90
  -3 -12   1   -2.45    2.30
  -3 -12   1    0.19    0.98
  -3 -12   1   -0.54    1.15
   2  12  -1   -0.14    0.78
  -2 -12   1   -4.28    2.82
  -2 -12   1    0.97    1.00
  -2 -12   1    0.80    0.79
   1  12  -1    0.97    0.74
   1  12  -1    1.20    0.82
  -1 -12   1    0.69    0.89
  -1 -12   1    0.94    0.75
  -1 -12   1    2.00    1.84
   0  12  -1    0.52    0.78
   0  12  -1    1.34    0.74
   0 -12   1    1.61    0.90
   0 -12   1    0.94    0.69
   0 -12   1    1.10    1.76
  -1  12  -1    4.86    0.87
  -1  12  -1    6.52    1.08
   1 -12   1    6.39    1.09
   1 -12   1    6.96    0.88
   1 -12   1    5.22    1.83
  -2  12  -1    0.67    0.69
  -2  12  -1    0.06    0.87
   2 -12   1   -0.71    0.82
   2 -12   1    1.20    2.41
  -3  12  -1   -0.89    0.85
  -3  12  -1   -0.24    0.70
   3 -12   1    0.81    1.26
   3 -12   1    1.68    1.96
  -4  12  -1   -0.99    0.89
  -4  12  -1   -0.09    0.75
   4 -12   1    3.56    2.11
   4 -12   1    1.00    2.01
  -5  12  -1    0.56    1.09
  -5  12  -1    0.62    0.93
  -5  12  -1   -0.01    1.27
   5 -12   1   -3.26    1.61
   5 -12   1    0.26    2.24
  -6  12  -1   -0.03    1.38
  -6  12  -1   -0.14    1.60
   6 -12   1    0.52    2.60
   6 -12   1   -2.06    3.36
   5  11  -1    1.94    2.96
   5  11  -1    0.89    1.51
  -5 -11   1   -3.10    1.20
  -5 -11   1   -2.79    1.41
  -5 -11   1    3.38    1.35
   4  11  -1    1.68    1.03
   4  11  -1    2.07    1.84
  -4 -11   1    0.25    1.03
  -4 -11   1   -5.49    3.10
  -4 -11   1    0.85    0.93
  -4 -11   1    1.85    1.21
   3  11  -1    0.88    0.83
   3  11  -1   -0.49    1.88
  -3 -11   1    0.94    1.03
  -3 -11   1    0.87    0.87
  -3 -11   1    2.71    1.74
  -3 -11   1    2.47    0.91
   2  11  -1    1.21    0.64
   2  11  -1   -0.11    0.84
  -2 -11   1    1.82    1.67
  -2 -11   1   -0.14    0.76
  -2 -11   1    0.05    0.63
  -2 -11   1    1.98    1.41
   1  11  -1    0.55    0.69
   1  11  -1    0.91    0.65
  -1 -11   1    0.14    0.48
  -1 -11   1    0.45    1.23
  -1 -11   1    0.73    0.76
  -1 -11   1    1.33    0.63
   0  11  -1    1.70    0.62
   0  11  -1    1.48    0.66
   0 -11   1   -0.79    1.11
   0 -11   1    0.22    0.56
   0 -11   1    0.72    0.78
  -1  11  -1    2.61    0.80
  -1  11  -1    2.55    0.67
   1 -11   1    3.21    0.90
   1 -11   1    4.68    0.72
   1 -11   1    5.63    1.46
   1 -11   1    3.91    1.01
  -2  11  -1    0.93    0.74
  -2  11  -1    0.17    0.53
   2 -11   1    1.09    0.68
   2 -11   1    0.43    0.88
   2 -11   1   -0.56    1.04
   2 -11   1    0.64    1.23
  -3  11  -1    2.12    0.85
  -3  11  -1    2.23    0.64
   3 -11   1    2.68    1.62
   3 -11   1    3.05    1.36
   3 -11   1    1.26    0.85
   3 -11   1    0.38    1.18
  -4  11  -1    3.66    0.94
  -4  11  -1    2.71    0.76
   4 -11   1    1.96    1.84
  -5  11  -1    1.83    0.80
  -5  11  -1    1.99    1.12
  -5  11  -1    2.02    0.96
   5 -11   1    1.90    1.48
   5 -11   1    3.89    1.76
  -6  11  -1   -1.50    1.06
  -6  11  -1    1.45    1.31
   6 -11   1    0.31    2.22
   6 -11   1    1.45    2.70
   5  10  -1    0.30    1.28
   5  10  -1    0.44    2.20
  -5 -10   1    2.02    1.06
  -5 -10   1    0.61    1.50
  -5 -10   1    0.02    0.94
   4  10  -1    0.23    1.15
   4  10  -1   -0.36    1.48
  -4 -10   1    0.42    0.99
  -4 -10   1    0.81    0.79
  -4 -10   1    2.92    0.93
   3  10  -1   -0.58    1.36
   3  10  -1    0.01    0.76
  -3 -10   1    0.18    0.73
  -3 -10   1    1.13    0.66
  -3 -10   1    0.94    0.82
   2  10  -1   -0.22    0.48
   2  10  -1   -0.52    0.56
  -2 -10   1    0.30    0.96
  -2 -10   1    0.51    0.63
  -2 -10   1   -0.19    0.52
  -2 -10   1    0.47    0.65
   1  10  -1    0.75    0.51
   1  10  -1    0.30    0.48
  -1 -10   1    0.31    0.93
  -1 -10   1   -0.31    0.48
  -1 -10   1   -0.23    0.44
  -1 -10   1    0.41    0.60
   0  10  -1   15.21    1.08
   0  10  -1   12.32    0.95
   0 -10   1   16.46    1.24
   0 -10   1   15.31    0.97
   0 -10   1   17.68    1.61
   0 -10   1   13.27    0.70
  -1  10  -1    4.72    0.69
  -1  10  -1    4.63    0.67
  -1  10  -1    4.74    0.75
   1 -10   1    5.85    0.87
   1 -10   1    4.24    1.04
   1 -10   1    5.71    1.06
   1 -10   1    6.62    0.81
  -2  10  -1    8.80    0.85
  -2  10  -1    9.07    0.96
   2 -10   1   10.49    1.46
   2 -10   1    8.19    1.16
   2 -10   1   10.55    1.53
   2 -10   1    7.78    0.94
  -3  10  -1    2.04    0.72
  -3  10  -1    1.30    0.53
   3 -10   1    1.79    1.18
   3 -10   1    0.85    0.67
   3 -10   1    2.13    0.99
   3 -10   1    2.16    1.62
  -4  10  -1    2.63    0.87
   4 -10   1    3.64    1.59
   4 -10   1    0.57    1.19
   4 -10   1    3.54    1.23
  -5  10  -1    0.70    0.60
  -5  10  -1    0.95    0.97
  -5  10  -1    0.79    0.83
   5 -10   1    1.98    1.55
  -6  10  -1    2.69    1.04
  -6  10  -1    0.90    1.14
   6 -10   1    3.47    2.30
   6 -10   1    0.97    1.69
  -7  10  -1    1.00    1.29
  -7  10  -1    0.24    1.79
   7 -10   1    4.55    3.04
   7 -10   1   -1.51    1.92
   6   9  -1    2.45    2.55
  -6  -9   1    2.21    1.27
  -6  -9   1    0.67    1.06
  -6  -9   1    1.26    1.30
   5   9  -1    2.17    1.75
   5   9  -1   -2.42    0.99
  -5  -9   1   -1.08    0.91
  -5  -9   1   -0.37    0.84
  -5  -9   1    1.17    0.98
   4   9  -1    2.13    1.56
   4   9  -1   -0.84    0.68
  -4  -9   1    0.83    0.76
  -4  -9   1   -0.41    0.85
   3   9  -1    1.65    0.98
   3   9  -1    1.75    0.66
  -3  -9   1    3.73    0.77
  -3  -9   1    2.14    0.66
  -3  -9   1    2.99    0.68
   2   9  -1    5.70    0.68
   2   9  -1    5.55    0.73
  -2  -9   1    4.79    0.69
  -2  -9   1    5.07    0.66
  -2  -9   1    3.21    0.69
   1   9  -1    5.13    0.66
   1   9  -1    4.26    0.59
  -1  -9   1    4.17    0.91
  -1  -9   1    5.11    0.68
  -1  -9   1    5.10    0.71
  -1  -9   1    5.41    0.62
   0   9  -1    3.06    0.60
   0   9  -1    3.14    0.52
   0   9  -1    4.54    0.62
   0  -9   1    3.18    0.85
   0  -9   1    3.31    0.65
   0  -9   1    3.42    0.69
   0  -9   1    3.36    0.55
   0  -9   1    3.17    0.39
  -1   9  -1    1.48    0.52
  -1   9  -1    1.33    0.60
  -1   9  -1    2.43    0.55
   1  -9   1    1.35    0.20
   1  -9   1    2.35    0.56
   1  -9   1    1.66    0.54
   1  -9   1    2.21    0.87
   1  -9   1    3.55    0.93
  -2   9  -1    6.16    0.69
  -2   9  -1    7.83    0.85
  -2   9  -1    7.50    0.61
   2  -9   1    8.17    1.15
   2  -9   1    7.54    0.94
   2  -9   1    7.59    0.55
   2  -9   1    9.41    1.31
  -3   9  -1    1.36    0.28
  -3   9  -1    0.96    0.42
  -3   9  -1    1.75    0.61
   3  -9   1    2.63    0.91
   3  -9   1    1.50    0.88
   3  -9   1    2.15    0.99
   3  -9   1    0.92    0.67
   3  -9   1    1.50    0.36
  -4   9  -1    3.65    0.73
  -4   9  -1    3.01    0.53
   4  -9   1    2.26    0.88
   4  -9   1    4.18    1.07
   4  -9   1    3.21    1.22
  -5   9  -1    3.24    0.96
  -5   9  -1    4.06    0.87
  -5   9  -1    4.75    0.63
   5  -9   1    3.74    1.53
   5  -9   1    4.53    0.78
   5  -9   1    3.61    1.27
   5  -9   1    2.55    1.24
  -6   9  -1    0.04    0.87
  -6   9  -1    1.34    1.01
   6  -9   1    3.12    1.58
   6  -9   1    5.84    2.02
  -7   9  -1    0.77    1.24
  -7   9  -1   -0.09    1.08
   7  -9   1    0.83    2.29
   7  -9   1    0.28    2.09
  -7  -8   1   -0.46    1.50
  -7  -8   1    1.14    1.54
  -7  -8   1    2.15    1.63
   6   8  -1   -0.11    2.05
  -6  -8   1    2.51    1.16
  -6  -8   1    0.33    0.89
   5   8  -1    0.83    0.89
   5   8  -1    1.91    1.48
  -5  -8   1    0.86    0.81
  -5  -8   1    2.22    0.88
   4   8  -1    7.62    0.88
   4   8  -1    9.07    1.42
  -4  -8   1    9.18    1.10
  -4  -8   1   10.50    1.28
   3   8  -1   12.41    0.70
   3   8  -1   13.09    0.98
   3   8  -1   15.36    1.39
  -3  -8   1   13.85    1.01
  -3  -8   1   14.10    1.13
   2   8  -1    3.98    0.49
   2   8  -1    4.95    0.63
  -2  -8   1    4.57    0.62
  -2  -8   1    3.25    0.62
   1   8  -1   -0.14    0.42
   1   8  -1   -0.77    0.42
   1   8  -1   -0.15    0.33
  -1  -8   1   -0.30    0.32
  -1  -8   1   -0.14    0.46
  -1  -8   1   -0.12    0.62
  -1  -8   1    0.16    0.37
   0   8  -1    1.59    0.41
   0   8  -1    1.32    0.49
   0   8  -1    2.47    0.54
   0  -8   1    2.52    0.37
   0  -8   1    1.95    0.53
   0  -8   1    1.82    0.76
   0  -8   1    2.08    0.49
   0  -8   1    2.17    0.53
  -1   8  -1   36.15    1.34
  -1   8  -1   37.45    1.47
  -1   8  -1   35.53    1.37
   1  -8   1   35.45    1.55
   1  -8   1   34.36    1.08
   1  -8   1   37.96    1.79
   1  -8   1   36.14    1.78
   1  -8   1   35.47    1.52
  -2   8  -1    9.26    0.81
  -2   8  -1   10.06    0.68
   2  -8   1    9.41    0.57
   2  -8   1    9.94    0.81
   2  -8   1    8.58    1.18
   2  -8   1    9.22    1.13
   2  -8   1    9.02    1.01
  -3   8  -1   31.74    1.38
  -3   8  -1   29.46    1.17
  -3   8  -1   28.68    0.97
   3  -8   1   24.32    1.56
   3  -8   1   30.31    1.83
   3  -8   1   29.13    1.68
   3  -8   1   29.59    1.73
   3  -8   1   28.27    1.16
  -4   8  -1   13.69    0.82
  -4   8  -1   15.99    1.06
   4  -8   1   12.92    1.38
   4  -8   1   13.67    1.47
   4  -8   1   12.78    1.37
  -5   8  -1    7.77    1.05
  -5   8  -1    8.66    0.73
  -5   8  -1    9.60    1.09
   5  -8   1   10.12    1.51
   5  -8   1    8.59    1.06
   5  -8   1    6.36    1.22
   5  -8   1    9.06    1.51
  -6   8  -1    4.40    1.03
  -6   8  -1    2.55    0.88
   6  -8   1    4.16    1.91
   6  -8   1    4.56    0.92
   6  -8   1    0.54    1.45
  -7   8  -1    0.81    1.07
  -7   8  -1   -0.24    1.04
   7  -8   1    0.58    1.86
   7  -8   1    1.89    1.16
   7  -8   1    2.79    2.02
  -8   8  -1   -0.02    1.55
  -8   8  -1   -1.29    1.14
   8  -8   1   -0.50    2.36
   8  -8   1    1.55    2.65
   7   7  -1   -0.34    2.50
  -7  -7   1    3.06    1.25
  -7  -7   1    3.43    1.39
  -7  -7   1   -0.10    1.17
   6   7  -1    1.74    1.77
  -6  -7   1    0.56    1.06
  -6  -7   1    1.67    0.94
   5   7  -1   -1.41    0.64
   5   7  -1    0.66    1.19
  -5  -7   1    1.20    0.94
  -5  -7   1    0.73    0.74
   4   7  -1   -0.18    0.78
   4   7  -1   -0.83    0.48
  -4  -7   1    0.76    0.56
  -4  -7   1    1.07    0.55
   3   7  -1    1.96    0.46
   3   7  -1    2.20    0.75
   3   7  -1    1.70    0.31
  -3  -7   1    1.51    0.47
  -3  -7   1    2.34    0.59
   2   7  -1    0.47    0.36
   2   7  -1    0.44    0.25
  -2  -7   1    0.21    0.42
  -2  -7   1    0.20    0.35
   1   7  -1   49.01    1.65
   1   7  -1   43.93    1.61
   1   7  -1   45.99    1.79
   1   7  -1   45.14    1.55
  -1  -7   1   47.46    1.79
  -1  -7   1   47.81    1.65
  -1  -7   1   44.87    1.81
   0   7  -1   39.09    1.41
   0   7  -1   38.30    1.41
   0   7  -1   35.85    1.37
   0  -7   1   36.83    1.62
   0  -7   1   37.68    1.55
   0  -7   1   38.25    1.35
   0  -7   1   38.67    1.24
   0  -7   1   40.35    1.54
  -1   7  -1   19.59    0.91
  -1   7  -1   20.36    1.01
  -1   7  -1   20.51    0.85
   1  -7   1   20.63    1.08
   1  -7   1   21.13    0.89
   1  -7   1   20.11    1.20
   1  -7   1   20.18    0.65
  -2   7  -1   10.49    0.69
  -2   7  -1   10.59    0.82
  -2   7  -1   11.10    0.53
   2  -7   1   11.22    0.60
   2  -7   1   11.58    1.20
   2  -7   1   11.19    1.18
   2  -7   1   11.03    1.04
   2  -7   1   10.46    0.72
  -3   7  -1    4.05    0.48
  -3   7  -1    3.42    0.56
  -3   7  -1    3.73    0.29
   3  -7   1    4.06    0.94
   3  -7   1    4.70    0.49
   3  -7   1    3.28    0.85
   3  -7   1    4.67    0.82
  -4   7  -1    1.32    0.41
  -4   7  -1    1.43    0.51
   4  -7   1    1.25    0.84
   4  -7   1    1.14    0.81
   4  -7   1    1.94    0.75
  -5   7  -1    2.66    0.66
  -5   7  -1    3.67    0.50
  -5   7  -1    3.32    0.70
   5  -7   1    3.08    0.98
   5  -7   1    4.32    1.16
   5  -7   1    3.88    0.73
   5  -7   1    4.40    1.18
  -6   7  -1    4.63    0.87
  -6   7  -1    4.46    0.84
   6  -7   1    4.39    1.56
   6  -7   1    6.71    2.55
   6  -7   1    5.38    0.86
  -7   7  -1    0.95    0.98
  -7   7  -1    3.06    1.02
   7  -7   1    6.54    1.82
   7  -7   1    5.14    1.77
   7  -7   1    2.76    1.15
  -8   7  -1    2.46    1.46
  -8   7  -1    2.21    1.16
   8  -7   1    0.45    1.90
   8  -7   1    2.46    1.52
   8  -7   1    1.23    2.17
   7   6  -1    0.59    2.17
  -7  -6   1   -0.01    1.03
  -7  -6   1   -0.62    1.57
   6   6  -1    3.94    1.67
  -6  -6   1    2.55    0.92
  -6  -6   1    1.81    0.98
   5   6  -1    7.18    0.85
   5   6  -1    8.03    1.13
   5   6  -1   12.06    1.60
  -5  -6   1    9.36    1.09
  -5  -6   1    7.44    0.95
   4   6  -1   10.07    0.85
   4   6  -1    8.87    1.18
  -4  -6   1    8.99    0.88
  -4  -6   1   11.10    1.48
   3   6  -1   79.57    2.89
   3   6  -1   71.77    2.30
   3   6  -1   82.23    2.55
  -3  -6   1   77.20    2.58
  -3  -6   1   82.59    2.68
   2   6  -1   84.49    2.48
   2   6  -1   84.31    2.63
  -2  -6   1   85.59    2.74
  -2  -6   1   82.79    2.67
   1   6  -1   25.84    1.04
   1   6  -1   25.93    0.96
   1   6  -1   26.83    0.97
   1   6  -1   26.45    1.10
  -1  -6   1   25.85    1.14
  -1  -6   1   26.49    1.04
   0   6  -1   11.66    0.63
   0   6  -1   12.52    0.63
   0   6  -1   11.08    0.62
   0  -6   1   12.22    0.73
   0  -6   1   11.47    0.75
   0  -6   1   11.93    0.59
   0  -6   1   11.79    0.77
   0  -6   1   11.80    0.52
  -1   6  -1    0.50    0.27
  -1   6  -1    0.52    0.20
  -1   6  -1    0.86    0.35
   1  -6   1    0.83    0.45
   1  -6   1    1.07    0.51
   1  -6   1    0.92    0.13
   1  -6   1    0.94    0.26
   1  -6   1    0.75    0.34
  -2   6  -1   35.60    1.24
  -2   6  -1   37.63    1.15
   2  -6   1   37.80    1.29
   2  -6   1   37.86    1.60
   2  -6   1   33.88    1.62
   2  -6   1   34.54    1.18
   2  -6   1   37.93    1.74
   2  -6   1   38.52    1.35
  -3   6  -1   48.64    1.56
  -3   6  -1   50.22    1.77
  -3   6  -1   48.00    1.39
   3  -6   1   49.80    2.09
   3  -6   1   47.06    2.13
   3  -6   1   48.23    1.70
   3  -6   1   50.37    2.22
  -4   6  -1   49.34    1.60
  -4   6  -1   50.07    1.82
   4  -6   1   47.34    2.22
   4  -6   1   51.38    2.32
   4  -6   1   46.49    2.05
   4  -6   1   52.76    2.28
  -5   6  -1   26.57    1.27
  -5   6  -1   25.68    1.01
  -5   6  -1   26.76    1.38
   5  -6   1   27.65    1.80
   5  -6   1   24.23    1.67
   5  -6   1   29.70    1.94
   5  -6   1   24.59    1.42
  -6   6  -1   13.84    1.20
  -6   6  -1   17.84    1.16
   6  -6   1   18.11    1.41
   6  -6   1   17.00    1.99
   6  -6   1   17.47    1.93
  -7   6  -1    5.12    1.20
  -7   6  -1    3.96    1.00
  -7   6  -1    3.92    0.97
   7  -6   1    5.10    1.16
   7  -6   1    5.48    1.66
   7  -6   1    6.59    1.70
  -8   6  -1   -1.49    1.27
  -8   6  -1   -0.70    1.04
   8  -6   1   -3.19    1.69
   8  -6   1   -0.57    1.31
   8  -6   1    1.75    1.79
   8   5  -1   -0.21    2.82
  -8  -5   1    3.29    1.43
  -8  -5   1    1.36    1.56
  -8  -5   1    1.12    1.44
   7   5  -1    5.25    2.02
   7   5  -1    2.73    1.18
  -7  -5   1    3.76    1.01
  -7  -5   1    1.27    1.14
   6   5  -1    9.72    1.68
   6   5  -1    5.06    1.14
  -6  -5   1    5.20    0.93
  -6  -5   1    5.04    0.90
   5   5  -1   13.24    1.47
   5   5  -1   11.48    1.23
  -5  -5   1   10.87    0.98
  -5  -5   1   11.11    1.06
   4   5  -1    5.67    0.96
   4   5  -1    5.65    0.69
   4   5  -1    4.73    0.78
  -4  -5   1    4.26    0.59
  -4  -5   1    5.24    0.67
   3   5  -1    0.53    0.53
   3   5  -1    0.59    0.19
   3   5  -1    0.56    0.35
  -3  -5   1    0.37    0.41
  -3  -5   1    0.68    0.47
   2   5  -1    0.39    0.15
   2   5  -1   -0.08    0.24
  -2  -5   1    0.25    0.33
  -2  -5   1    0.61    0.33
   1   5  -1    0.73    0.18
   1   5  -1    0.62    0.27
   1   5  -1    0.56    0.19
   1   5  -1    0.09    0.20
  -1  -5   1    0.93    0.21
  -1  -5   1    0.79    0.28
  -1  -5   1    0.74    0.23
   0   5  -1  213.09    5.96
   0   5  -1  217.13    5.96
   0   5  -1  212.27    5.93
   0  -5   1  221.55    5.88
   0  -5   1  210.79    5.93
   0  -5   1  208.34    6.09
   0  -5   1  207.26    6.02
   0  -5   1  223.73    6.09
  -1   5  -1  138.03    3.90
  -1   5  -1  139.31    3.87
  -1   5  -1  140.77    3.98
   1  -5   1  136.02    3.91
   1  -5   1  139.56    3.77
   1  -5   1  138.53    4.20
   1  -5   1  141.04    3.89
   1  -5   1  139.90    4.19
   1  -5   1  134.52    4.02
  -2   5  -1   60.55    1.81
  -2   5  -1   61.65    1.76
  -2   5  -1   59.70    1.93
   2  -5   1   60.63    1.90
   2  -5   1   58.30    2.19
   2  -5   1   59.43    1.93
   2  -5   1   56.13    2.17
   2  -5   1   62.24    1.73
   2  -5   1   62.02    2.13
  -3   5  -1   25.69    1.11
  -3   5  -1   25.84    0.91
  -3   5  -1   27.87    0.94
  -3   5  -1   27.91    0.79
   3  -5   1   31.97    2.44
   3  -5   1   25.38    1.53
   3  -5   1   27.95    1.13
   3  -5   1   28.16    2.38
  -4   5  -1   16.45    0.66
  -4   5  -1   17.89    0.97
  -4   5  -1   16.40    0.91
   4  -5   1   16.20    1.03
   4  -5   1   14.36    1.24
   4  -5   1   17.31    1.38
   4  -5   1   16.12    1.28
  -5   5  -1    2.26    0.55
  -5   5  -1    3.00    0.55
  -5   5  -1    2.82    0.31
   5  -5   1    2.16    0.81
   5  -5   1    3.51    0.92
   5  -5   1    1.53    0.61
   5  -5   1    2.56    0.92
  -6   5  -1    1.39    0.51
  -6   5  -1    2.09    0.64
   6  -5   1    1.76    1.02
   6  -5   1    2.03    0.77
   6  -5   1   -1.08    0.98
  -7   5  -1    5.31    1.14
  -7   5  -1    6.33    1.03
  -7   5  -1    5.93    0.81
   7  -5   1    7.57    2.30
   7  -5   1    6.39    1.29
  -8   5  -1    0.61    1.08
  -8   5  -1    2.99    1.63
   8  -5   1    0.09    1.55
   8  -5   1    2.40    1.32
   8   4  -1    6.82    2.55
   8   4  -1    1.46    1.50
  -8  -4   1    3.29    1.40
  -8  -4   1    3.50    1.63
   7   4  -1    3.15    1.12
   7   4  -1    5.22    2.10
  -7  -4   1    3.67    1.11
  -7  -4   1    2.38    0.96
   6   4  -1    2.82    1.20
   6   4  -1    1.18    0.78
  -6  -4   1   -0.25    0.68
   5   4  -1    8.99    1.07
   5   4  -1   11.48    1.29
  -5  -4   1    9.37    1.04
  -5  -4   1    9.06    0.60
  -5  -4   1   10.52    0.92
   4   4  -1   39.91    1.75
   4   4  -1   40.20    1.26
   4   4  -1   38.96    1.49
   4   4  -1   40.42    1.90
  -4  -4   1   39.66    1.60
  -4  -4   1   39.26    1.29
  -4  -4   1   42.03    1.66
   3   4  -1   45.23    1.44
   3   4  -1   45.68    1.88
   3   4  -1   47.17    1.76
   3   4  -1   46.69    1.35
   3   4  -1   46.83    1.56
  -3  -4   1   46.59    1.66
  -3  -4   1   45.71    1.44
   2   4  -1  276.34    7.09
   2   4  -1  248.66    6.99
   2   4  -1  248.11    7.10
  -2  -4   1  263.23    7.20
  -2  -4   1  255.49    7.17
  -2  -4   1  251.10    6.98
   1   4  -1  491.28   13.82
   1   4  -1  536.12   13.82
   1   4  -1  532.52   13.89
   1   4  -1  501.55   13.93
   1   4  -1  484.32   13.85
  -1  -4   1  500.37   13.92
  -1  -4   1  506.41   13.90
  -1  -4   1  546.14   13.93
   0   4  -1  168.44    4.57
   0   4  -1  164.74    4.66
   0   4  -1  167.57    4.57
   0   4  -1  160.01    4.54
   0  -4   1  166.33    4.51
   0  -4   1  157.78    4.54
   0  -4   1  157.75    4.61
   0  -4   1  171.24    4.67
   0  -4   1  162.32    4.66
  -1   4  -1  100.32    2.82
  -1   4  -1   99.94    2.86
  -1   4  -1  100.62    2.93
   1  -4   1   98.03    3.10
   1  -4   1  106.43    2.78
   1  -4   1   99.13    2.89
   1  -4   1  101.00    3.10
   1  -4   1   98.58    2.97
   1  -4   1  103.31    3.01
   1  -4   1  106.32    2.81
  -2   4  -1    2.58    0.24
  -2   4  -1    2.74    0.34
  -2   4  -1    2.63    0.16
  -2   4  -1    2.53    0.16
   2  -4   1    2.85    0.50
   2  -4   1    3.29    0.37
   2  -4   1    2.93    0.44
   2  -4   1    3.02    0.50
   2  -4   1    2.79    0.14
   2  -4   1    2.61    0.34
  -3   4  -1   69.08    1.96
  -3   4  -1   68.88    1.85
  -3   4  -1   65.62    2.10
  -3   4  -1   68.64    1.94
   3  -4   1   62.75    2.41
   3  -4   1   67.73    2.22
   3  -4   1   67.29    2.46
   3  -4   1   68.64    2.44
  -4   4  -1   25.88    0.80
  -4   4  -1   28.70    1.20
  -4   4  -1   25.52    1.06
  -4   4  -1   25.16    0.80
  -4   4  -1   27.02    0.87
   4  -4   1   26.73    1.58
   4  -4   1   24.18    2.10
   4  -4   1   26.89    2.27
   4  -4   1   25.58    1.28
  -5   4  -1   62.66    2.02
  -5   4  -1   58.47    1.74
  -5   4  -1   58.65    1.76
  -5   4  -1   59.43    2.10
   5  -4   1   59.67    2.55
   5  -4   1   58.50    2.32
   5  -4   1   56.72    2.49
   5  -4   1   58.54    2.36
  -6   4  -1   27.67    1.37
  -6   4  -1   29.75    1.29
  -6   4  -1   28.83    1.60
   6  -4   1   27.91    1.76
   6  -4   1   28.24    1.92
   6  -4   1   30.41    1.94
   6  -4   1   27.93    1.96
  -7   4  -1   17.67    1.72
  -7   4  -1   19.67    1.39
   7  -4   1   18.38    2.17
   7  -4   1   19.78    2.06
   7  -4   1   21.45    1.92
  -8   4  -1    7.03    1.32
  -8   4  -1    4.53    1.37
  -8   4  -1    5.90    1.81
   8  -4   1    5.22    1.44
   8  -4   1    5.11    1.65
   8   3  -1    0.45    1.28
   8   3  -1    0.86    2.08
  -8  -3   1    0.90    1.36
  -8  -3   1    2.45    1.25
   7   3  -1    4.36    1.20
   7   3  -1    3.98    1.67
  -7  -3   1    5.25    1.07
   6   3  -1   14.21    1.38
   6   3  -1   17.22    1.72
  -6  -3   1   14.33    1.16
  -6  -3   1   17.10    1.29
   5   3  -1   28.20    1.72
   5   3  -1   28.13    1.55
  -5  -3   1   29.39    1.43
  -5  -3   1   29.28    1.03
  -5  -3   1   27.86    1.37
   4   3  -1   47.46    2.03
   4   3  -1   47.54    1.43
   4   3  -1   46.75    1.93
  -4  -3   1   48.64    1.50
  -4  -3   1   47.41    1.90
  -4  -3   1   49.54    1.54
  -4  -3   1   48.64    1.78
   3   3  -1   53.34    1.91
   3   3  -1   52.14    1.73
   3   3  -1   55.39    1.57
   3   3  -1   51.87    1.96
  -3  -3   1   55.59    1.61
  -3  -3   1   53.96    1.80
  -3  -3   1   55.69    1.81
  -3  -3   1   53.40    1.55
   2   3  -1  112.75    3.54
   2   3  -1  110.36    3.20
   2   3  -1  113.76    3.24
   2   3  -1  114.92    3.15
   2   3  -1  114.77    3.42
  -2  -3   1  112.68    3.61
  -2  -3   1  118.33    3.31
  -2  -3   1  112.63    3.12
  -2  -3   1  115.87    3.18
   1   3  -1   11.95    0.54
   1   3  -1   12.16    0.45
   1   3  -1   11.79    0.49
   1   3  -1   12.85    0.48
   1   3  -1   12.71    0.41
  -1  -3   1   11.94    0.53
  -1  -3   1   13.32    0.59
  -1  -3   1   11.17    0.50
  -1  -3   1   12.55    0.45
   0   3  -1    1.18    0.16
   0   3  -1    0.92    0.14
   0   3  -1    1.41    0.23
   0   3  -1    1.33    0.18
   0   3  -1    1.61    0.22
   0   3  -1    1.37    0.19
   0  -3   1    1.42    0.20
   0  -3   1    1.77    0.25
   0  -3   1    0.96    0.16
   0  -3   1    1.42    0.17
   0  -3   1    1.24    0.15
   0  -3   1    1.88    0.27
   0  -3   1    1.36    0.16
   0  -3   1    1.45    0.17
  -1   3  -1  412.02   11.49
  -1   3  -1  428.43   11.55
  -1   3  -1  424.25   11.51
   1  -3   1  415.84   11.48
   1  -3   1  440.86   11.64
   1  -3   1  430.87   11.72
   1  -3   1  423.21   11.58
   1  -3   1  436.79   11.71
  -2   3  -1  187.61    5.09
  -2   3  -1  190.07    5.19
  -2   3  -1  181.25    5.08
  -2   3  -1  169.67    5.03
  -2   3  -1  192.66    5.30
   2  -3   1  188.86    5.43
   2  -3   1  189.14    5.27
   2  -3   1  190.71    5.11
   2  -3   1  195.05    5.39
   2  -3   1  184.06    5.43
  -3   3  -1  320.32    8.57
  -3   3  -1  314.19    8.55
  -3   3  -1  317.83    8.54
  -3   3  -1  307.32    8.71
  -3   3  -1  323.82    8.77
   3  -3   1  326.14    9.07
   3  -3   1  315.39    9.05
   3  -3   1  319.45    9.03
   3  -3   1  312.82    8.87
   3  -3   1  313.35    8.89
  -4   3  -1   15.86    0.72
  -4   3  -1   17.11    0.86
  -4   3  -1   15.95    0.59
  -4   3  -1   17.19    0.57
   4  -3   1   14.18    1.19
   4  -3   1   14.93    1.18
   4  -3   1   15.33    1.35
   4  -3   1   16.95    1.20
  -5   3  -1   19.92    0.89
  -5   3  -1   19.16    0.65
  -5   3  -1   19.54    1.00
  -5   3  -1   20.90    1.18
   5  -3   1   18.84    1.41
   5  -3   1   18.22    1.24
   5  -3   1   17.77    1.35
   5  -3   1   18.59    1.25
  -6   3  -1    2.20    0.58
  -6   3  -1    3.80    0.52
  -6   3  -1    2.57    0.73
  -6   3  -1    2.64    0.36
   6  -3   1    2.46    1.01
   6  -3   1    2.40    0.79
   6  -3   1    1.63    0.83
   6  -3   1    3.96    0.97
  -7   3  -1    0.11    0.83
  -7   3  -1    0.42    0.69
   7  -3   1   -1.08    1.14
   7  -3   1    1.29    1.02
   7  -3   1    0.78    1.03
  -8   3  -1   -0.60    1.10
  -8   3  -1   -0.68    1.11
   8  -3   1    1.79    1.36
   8  -3   1    1.16    1.25
  -9   3  -1    0.66    1.93
  -9   3  -1    3.56    1.63
   9  -3   1    3.96    1.97
   9  -3   1    4.32    2.28
   8   2  -1    5.20    1.97
   8   2  -1    3.59    1.39
  -8  -2   1    2.55    1.23
  -8  -2   1    5.16    1.23
   7   2  -1   16.09    1.93
   7   2  -1   14.22    2.07
  -7  -2   1   15.25    1.49
  -7  -2   1   16.33    1.55
   6   2  -1   10.55    1.47
   6   2  -1    9.28    1.20
  -6  -2   1    7.78    0.97
  -6  -2   1    9.35    1.03
   5   2  -1    3.13    0.74
   5   2  -1    3.41    0.90
  -5  -2   1    3.06    0.41
  -5  -2   1    1.68    0.58
  -5  -2   1    3.11    0.58
   4   2  -1   34.02    1.57
   4   2  -1   31.64    1.49
  -4  -2   1   32.64    1.35
  -4  -2   1   33.14    1.32
  -4  -2   1   31.11    1.10
   3   2  -1   42.39    1.36
   3   2  -1   42.54    1.23
   3   2  -1   41.44    1.56
   3   2  -1   41.61    1.58
  -3  -2   1   40.09    1.42
  -3  -2   1   42.33    1.44
  -3  -2   1   42.60    1.29
  -3  -2   1   41.52    1.37
   2   2  -1  132.73    3.51
   2   2  -1  126.64    3.60
   2   2  -1  128.88    3.76
   2   2  -1  127.34    3.53
   2   2  -1  128.55    3.74
  -2  -2   1  128.61    3.49
  -2  -2   1  128.28    3.67
  -2  -2   1  127.84    3.65
  -2  -2   1  130.08    3.53
  -2  -2   1  128.85    3.54
  -1   2  -1  502.13   12.72
  -1   2  -1  456.93   12.82
  -1   2  -1  494.18   12.88
  -1   2  -1  430.95   12.76
  -1   2  -1  477.46   12.79
  -1   2  -1  459.78   12.71
   1  -2   1  473.25   12.80
   1  -2   1  489.14   12.86
   1  -2   1  463.42   12.71
   1  -2   1  469.11   12.83
  -2   2  -1   22.56    0.65
  -2   2  -1   21.82    0.74
  -2   2  -1   22.80    0.65
  -2   2  -1   20.63    0.77
  -2   2  -1   22.60    0.71
  -2   2  -1   21.83    0.79
   2  -2   1   21.71    0.96
   2  -2   1   22.37    0.93
   2  -2   1   21.59    0.95
   2  -2   1   20.90    0.88
   2  -2   1   22.66    0.87
   2  -2   1   20.23    0.76
  -3   2  -1   67.63    1.91
  -3   2  -1   66.65    1.97
  -3   2  -1   68.26    1.87
   3  -2   1   66.44    2.29
   3  -2   1   66.00    2.29
   3  -2   1   66.00    2.21
   3  -2   1   66.31    2.27
   3  -2   1   67.64    2.16
  -4   2  -1   25.94    1.17
  -4   2  -1   25.40    0.77
  -4   2  -1   25.62    0.89
  -4   2  -1   25.13    1.01
   4  -2   1   25.11    1.41
   4  -2   1   25.19    1.61
   4  -2   1   22.91    1.30
  -5   2  -1   16.69    0.61
  -5   2  -1   17.54    0.96
  -5   2  -1   17.03    0.76
  -5   2  -1   16.93    1.13
   5  -2   1   17.32    1.22
   5  -2   1   16.03    1.30
   5  -2   1   16.33    1.13
   5  -2   1   17.38    1.28
  -6   2  -1   44.21    2.00
  -6   2  -1   45.53    1.45
  -6   2  -1   44.40    1.75
   6  -2   1   45.43    2.18
   6  -2   1   42.68    2.17
   6  -2   1   40.75    2.16
  -7   2  -1   18.77    1.66
  -7   2  -1   21.04    1.56
  -7   2  -1   21.10    1.33
   7  -2   1   22.50    1.77
   7  -2   1   23.52    1.95
   7  -2   1   16.38    1.96
  -8   2  -1    4.05    1.27
  -8   2  -1    5.04    1.42
   8  -2   1    5.77    1.54
   8  -2   1    7.23    1.53
  -9   2  -1    0.71    1.84
  -9   2  -1    1.00    1.63
   9  -2   1    4.39    2.00
   9   1  -1    0.99    1.67
  -9  -1   1    0.93    1.50
  -9  -1   1   -0.25    1.35
   8   1  -1   -0.11    1.10
  -8  -1   1   -1.12    0.95
   7   1  -1    1.46    1.49
   7   1  -1    1.16    1.12
  -7  -1   1    0.64    0.75
  -7  -1   1    0.74    0.71
   6   1  -1   17.75    1.41
   6   1  -1   20.89    1.56
  -6  -1   1   17.57    1.26
  -6  -1   1   16.86    0.90
  -6  -1   1   16.70    1.18
   5   1  -1   57.72    2.34
   5   1  -1   58.97    2.46
  -5  -1   1   60.05    2.18
  -5  -1   1   56.96    1.85
  -5  -1   1   60.29    2.11
   4   1  -1   88.72    3.11
   4   1  -1   90.92    2.80
   4   1  -1   88.38    3.02
  -4  -1   1   91.14    2.61
  -4  -1   1   91.26    2.51
  -4  -1   1   88.64    2.79
  -4  -1   1   88.84    2.47
  -4  -1   1   90.14    2.81
   3   1  -1  173.72    4.91
   3   1  -1  175.04    5.02
   3   1  -1  173.27    5.04
   3   1  -1  171.86    5.23
  -3  -1   1  174.21    4.91
  -3  -1   1  170.43    4.92
  -3  -1   1  175.49    4.97
  -3  -1   1  169.84    4.74
  -3  -1   1  175.71    4.76
   2   1  -1    1.75    0.27
   2   1  -1    1.44    0.21
   2   1  -1    0.95    0.24
   2   1  -1    1.42    0.21
   2   1  -1    1.13    0.24
  -2  -1   1    1.70    0.28
  -2  -1   1    1.41    0.17
  -2  -1   1    1.27    0.16
  -2  -1   1    1.60    0.25
  -2  -1   1    1.24    0.20
  -2  -1   1    1.53    0.15
  -2  -1   1    1.67    0.22
   1   1  -1  120.19    3.50
   1   1  -1  122.71    3.43
   1   1  -1  124.55    3.49
   1   1  -1  129.21    3.44
   1   1  -1  123.27    3.43
   1   1  -1  122.94    3.42
   1   1  -1  128.57    3.45
  -1  -1   1  128.76    3.50
  -1  -1   1  126.37    3.42
  -1  -1   1  126.25    3.42
  -1  -1   1  126.22    3.40
  -1  -1   1  126.52    3.43
  -1  -1   1  125.35    3.49
  -1  -1   1  118.11    3.44
   0   1  -1   33.26    0.97
   0   1  -1   34.17    0.97
   0   1  -1   35.78    0.96
   0   1  -1   34.00    0.99
   0  -1   1   31.81    0.97
   0  -1   1   37.07    1.07
  -1   1  -1   17.48    0.55
  -1   1  -1   16.99    0.66
  -1   1  -1   17.41    0.57
  -1   1  -1   16.93    0.54
  -1   1  -1   17.36    0.60
  -1   1  -1   17.68    0.50
  -1   1  -1   18.03    0.55
  -1   1  -1   17.71    0.67
  -1   1  -1   17.37    0.49
   1  -1   1   17.16    0.65
   1  -1   1   17.39    0.55
   1  -1   1   16.94    0.62
   1  -1   1   17.90    0.55
   1  -1   1   17.86    0.49
   1  -1   1   17.21    0.66
   1  -1   1   16.38    0.57
   1  -1   1   18.00    0.51
  -2   1  -1  352.08    9.53
  -2   1  -1  353.89    9.52
  -2   1  -1  347.14    9.50
  -2   1  -1  359.51    9.56
  -2   1  -1  352.31    9.47
   2  -1   1  340.52    9.68
   2  -1   1  356.76    9.58
   2  -1   1  342.18    9.64
   2  -1   1  353.15    9.70
   2  -1   1  349.94    9.47
  -3   1  -1  329.32    8.89
  -3   1  -1  311.93    8.67
  -3   1  -1  308.61    8.61
  -3   1  -1  324.98    8.62
  -3   1  -1  319.92    8.76
   3  -1   1  318.68    8.98
   3  -1   1  317.93    9.03
   3  -1   1  324.85    8.91
   3  -1   1  323.65    9.03
  -4   1  -1  183.81    5.01
  -4   1  -1  181.76    4.93
  -4   1  -1  184.90    4.94
  -4   1  -1  180.69    5.33
  -4   1  -1  184.05    5.16
   4  -1   1  183.48    5.39
   4  -1   1  174.16    5.50
   4  -1   1  180.43    5.51
  -5   1  -1    7.32    0.39
  -5   1  -1    7.04    0.30
  -5   1  -1    6.49    0.69
  -5   1  -1    6.43    0.79
   5  -1   1    6.55    0.98
   5  -1   1    7.55    1.00
   5  -1   1    7.37    0.94
  -6   1  -1   22.35    1.42
  -6   1  -1   20.51    1.18
   6  -1   1   21.26    1.63
   6  -1   1   19.10    1.51
   6  -1   1   19.69    1.46
  -7   1  -1    4.36    0.87
  -7   1  -1    3.96    0.98
  -7   1  -1    3.74    0.97
   7  -1   1    3.42    1.15
   7  -1   1    3.96    1.11
   7  -1   1    1.96    1.10
  -8   1  -1    1.48    1.19
  -8   1  -1   -0.39    1.46
   8  -1   1    2.69    1.29
  -9   1  -1    1.60    1.72
   9  -1   1    3.48    2.06
   9   0  -1    4.66    1.89
  -9   0   1    3.91    1.46
  -9   0   1    0.91    1.25
   8   0  -1   14.08    2.12
   8   0  -1    9.13    1.42
  -8   0   1   12.70    1.66
  -8   0   1   12.56    1.49
   7   0  -1   12.27    1.74
   7   0  -1   12.18    1.59
  -7   0   1    8.89    1.03
  -7   0   1    9.70    1.16
   6   0  -1   33.97    1.85
   6   0  -1   33.81    1.82
   6   0  -1   34.58    1.98
  -6   0   1   34.10    1.33
  -6   0   1   37.17    1.59
  -6   0   1   33.97    1.66
   5   0  -1   42.25    1.81
   5   0  -1   40.39    1.72
   5   0  -1   40.88    1.82
   5   0  -1   42.22    2.00
  -5   0   1   41.62    1.60
  -5   0   1   40.20    1.24
  -5   0   1   35.83    1.83
  -5   0   1   42.05    1.38
   4   0  -1   39.76    1.64
   4   0  -1   40.28    1.61
   4   0  -1   39.99    1.65
   4   0  -1   40.48    1.66
   4   0  -1   41.17    1.68
  -4   0   1   39.62    1.28
  -4   0   1   40.47    1.22
  -4   0   1   38.17    1.46
  -4   0   1   41.00    1.45
   3   0  -1    3.29    0.45
   3   0  -1    3.72    0.52
   3   0  -1    4.47    0.51
   3   0  -1    3.38    0.42
   3   0  -1    4.10    0.53
  -3   0   1    3.89    0.29
  -3   0   1    3.63    0.37
  -3   0   1    3.84    0.30
   2   0  -1  200.60    5.61
   2   0  -1  193.79    5.56
   2   0  -1  191.42    5.54
   2   0  -1  197.54    5.54
   2   0  -1  201.26    5.59
  -2   0   1  198.14    5.55
  -2   0   1  204.86    5.58
  -2   0   1  194.51    5.45
  -2   0   1  191.41    5.61
  -2   0   1  198.65    5.39
  -2   0   1  209.00    5.83
   1   0  -1  373.37   10.08
   1   0  -1  375.25   10.09
  -1   0   1  372.82   10.09
  -1   0   1  365.62   10.07
  -1   0   1  360.94   10.04
  -1   0   1  377.17   10.04
  -1   0   1  378.72   10.04
   0   0  -1   -0.12    0.02
  -1   0  -1  594.30   15.86
   1   0   1  579.29   15.83
  -2   0  -1  268.64    7.49
  -2   0  -1  269.46    7.27
  -2   0  -1  271.99    7.47
  -2   0  -1  280.43    7.25
  -2   0  -1  267.82    7.37
  -2   0  -1  279.17    7.35
   2   0   1  270.95    7.37
   2   0   1  264.24    7.52
   2   0   1  269.46    7.43
   2   0   1  266.87    7.51
   2   0   1  264.65    7.36
   2   0   1  267.25    7.27
  -3   0  -1   69.63    1.94
  -3   0  -1   69.35    2.08
  -3   0  -1   73.14    1.93
  -3   0  -1   68.25    2.22
   3   0   1   68.91    2.32
   3   0   1   67.82    2.22
   3   0   1   68.69    2.30
  -4   0  -1   87.13    2.67
  -4   0  -1   88.38    2.46
  -4   0  -1   88.69    2.89
  -4   0  -1   90.96    2.46
   4   0   1   89.17    3.03
   4   0   1   89.14    2.91
   4   0   1   86.91    3.00
  -5   0  -1   26.41    1.13
  -5   0  -1   26.57    1.37
   5   0   1   27.13    1.51
   5   0   1   25.09    1.47
  -6   0  -1    8.28    1.04
  -6   0  -1    8.28    1.01
  -6   0  -1    7.91    0.97
   6   0   1    9.34    1.37
   6   0   1    8.99    1.16
   6   0   1    9.36    1.20
  -7   0  -1   11.37    1.52
  -7   0  -1   14.96    1.54
  -7   0  -1   14.38    1.86
   7   0   1   13.92    1.90
   7   0   1   13.93    1.81
  -8   0  -1    6.06    1.34
  -8   0  -1    5.08    1.35
   8   0   1    5.75    1.38
   9  -1  -1    1.21    1.65
  -9   1   1    5.32    1.42
  -9   1   1    2.59    1.27
   8  -1  -1    2.43    1.61
   8  -1  -1    3.08    1.23
  -8   1   1    4.83    1.15
  -8   1   1    3.65    1.12
  -8   1   1    4.05    1.03
   7  -1  -1    0.90    1.04
   7  -1  -1    0.46    0.86
   7  -1  -1   -0.33    0.90
  -7   1   1    0.61    0.64
  -7   1   1    0.21    0.67
  -7   1   1    0.38    0.71
   6  -1  -1    0.95    0.67
   6  -1  -1    1.58    0.80
   6  -1  -1    1.06    0.68
  -6   1   1    0.50    0.51
  -6   1   1    0.38    0.57
  -6   1   1   -0.03    0.30
  -6   1   1    0.10    0.22
   5  -1  -1   69.74    2.62
   5  -1  -1   66.37    2.55
   5  -1  -1   71.11    2.57
   5  -1  -1   71.61    2.76
  -5   1   1   67.75    2.07
  -5   1   1   69.84    2.17
   4  -1  -1   55.65    2.14
   4  -1  -1   57.85    2.10
   4  -1  -1   57.18    2.13
   4  -1  -1   58.20    2.14
   4  -1  -1   59.71    2.17
  -4   1   1   59.33    1.81
  -4   1   1   59.52    1.96
  -4   1   1   60.18    1.77
   3  -1  -1  186.08    5.38
   3  -1  -1  181.41    5.34
   3  -1  -1  186.59    5.39
   3  -1  -1  182.96    5.40
   3  -1  -1  184.54    5.31
  -3   1   1  188.27    5.13
   2  -1  -1  156.06    4.46
   2  -1  -1  155.47    4.50
   2  -1  -1  160.07    4.59
   2  -1  -1  160.06    4.54
   2  -1  -1  157.89    4.55
  -2   1   1  155.66    4.70
  -2   1   1  156.70    4.52
  -2   1   1  159.36    4.46
  -2   1   1  159.01    4.49
  -2   1   1  165.44    4.80
   1  -1  -1   54.54    1.69
   1  -1  -1   53.67    1.59
   1  -1  -1   53.82    1.54
   1  -1  -1   54.35    1.55
   1  -1  -1   52.63    1.68
   1  -1  -1   53.89    1.63
  -1   1   1   55.62    1.55
  -1   1   1   54.72    1.68
  -1   1   1   55.85    1.68
  -1   1   1   53.88    1.54
  -1   1   1   55.67    1.54
  -1   1   1   55.13    1.54
  -1   1   1   56.50    1.57
  -1   1   1   55.99    1.62
   0  -1  -1  142.14    3.77
   0  -1  -1  136.24    3.72
   0  -1  -1  138.11    3.79
   0  -1  -1  130.36    3.70
   0  -1  -1  141.49    3.74
   0  -1  -1  137.51    3.71
   0  -1  -1  133.86    3.69
   0  -1  -1  132.51    3.70
   0   1   1  140.37    3.76
   0   1   1  134.78    3.71
   0   1   1  141.23    3.74
   0   1   1  132.74    3.72
   0   1   1  133.95    3.69
   0   1   1  138.81    3.71
  -1  -1  -1  136.95    3.86
  -1  -1  -1  137.16    3.90
  -1  -1  -1  144.65    3.90
  -1  -1  -1  141.01    3.78
  -1  -1  -1  141.49    3.85
  -1  -1  -1  134.77    3.89
  -1  -1  -1  145.31    3.92
   1   1   1  135.25    3.79
   1   1   1  142.54    3.89
   1   1   1  136.10    3.91
   1   1   1  135.56    3.86
   1   1   1  144.07    3.80
  -2  -1  -1    8.46    0.50
  -2  -1  -1    8.55    0.30
  -2  -1  -1    7.37    0.43
  -2  -1  -1    8.59    0.44
   2   1   1    8.83    0.54
   2   1   1    8.13    0.51
   2   1   1    8.40    0.40
   2   1   1    8.52    0.33
   2   1   1    8.03    0.43
   2   1   1    8.39    0.47
  -3  -1  -1  189.49    5.04
  -3  -1  -1  184.04    5.34
  -3  -1  -1  184.56    5.22
   3   1   1  189.03    5.38
   3   1   1  179.92    5.40
   3   1   1  185.63    5.43
  -4  -1  -1   60.18    2.48
  -4  -1  -1   67.49    2.28
  -4  -1  -1   71.12    1.92
  -4  -1  -1   65.90    2.28
   4   1   1   65.44    2.46
   4   1   1   65.22    2.44
   4   1   1   68.23    2.39
  -5  -1  -1   44.96    1.89
  -5  -1  -1   45.13    1.82
  -5  -1  -1   44.54    1.66
   5   1   1   46.21    2.02
   5   1   1   44.45    2.12
   5   1   1   44.02    1.98
  -6  -1  -1   16.91    1.39
  -6  -1  -1   17.70    1.30
  -6  -1  -1   18.55    1.29
   6   1   1   18.55    1.57
   6   1   1   19.62    1.54
  -7  -1  -1    7.14    1.22
  -7  -1  -1    6.56    1.23
   7   1   1    7.58    1.71
   7   1   1   10.33    1.47
  -8  -1  -1    2.81    1.28
  -8  -1  -1   -0.10    1.28
   8   1   1    1.40    1.51
   9  -2  -1    1.57    1.50
  -9   2   1   -0.78    1.39
   8  -2  -1    5.88    1.71
   8  -2  -1    3.62    1.21
   8  -2  -1    2.20    1.36
  -8   2   1    4.93    1.00
  -8   2   1    4.04    1.30
  -8   2   1    3.25    1.19
   7  -2  -1   20.56    1.84
   7  -2  -1   17.17    1.71
   7  -2  -1   16.06    1.80
  -7   2   1   19.61    1.12
  -7   2   1   16.48    1.15
  -7   2   1   17.07    1.31
  -7   2   1   19.32    1.49
   6  -2  -1    3.59    0.85
   6  -2  -1    5.13    1.01
   6  -2  -1    5.21    0.84
   6  -2  -1    5.20    1.00
   6  -2  -1    4.63    0.91
  -6   2   1    4.93    0.71
  -6   2   1    3.98    0.53
  -6   2   1    3.99    0.40
  -6   2   1    4.21    0.75
  -6   2   1    4.93    0.63
   5  -2  -1  127.19    4.21
   5  -2  -1  123.54    4.47
   5  -2  -1  122.28    4.15
   5  -2  -1  122.26    4.10
   5  -2  -1  127.85    4.06
  -5   2   1  127.86    3.72
  -5   2   1  129.74    3.56
  -5   2   1  123.69    4.11
  -5   2   1  125.50    3.64
   4  -2  -1  108.36    3.37
   4  -2  -1  107.68    3.55
   4  -2  -1  103.51    3.44
   4  -2  -1  106.75    3.50
   4  -2  -1  102.73    3.48
  -4   2   1  110.51    3.16
  -4   2   1  107.83    3.03
   3  -2  -1  108.03    3.41
   3  -2  -1  110.16    3.26
   3  -2  -1  108.50    3.40
   3  -2  -1  105.87    3.43
  -3   2   1  110.65    3.06
  -3   2   1  110.80    3.13
  -3   2   1  107.84    3.06
   2  -2  -1   34.98    1.29
   2  -2  -1   34.74    1.15
   2  -2  -1   34.25    1.32
   2  -2  -1   34.87    1.23
   2  -2  -1   33.47    1.33
  -2   2   1   35.81    1.07
  -2   2   1   35.12    1.07
  -2   2   1   36.60    1.06
  -2   2   1   35.73    1.14
  -1   2   1  926.58   26.04
  -1   2   1 1000.00   26.01
   0  -2  -1  138.93    3.83
   0  -2  -1  141.55    3.82
   0  -2  -1  140.67    3.92
   0  -2  -1  140.32    3.80
   0  -2  -1  144.12    3.83
   0  -2  -1  139.69    3.95
   0  -2  -1  140.28    3.89
   0  -2  -1  138.70    3.85
   0   2   1  138.42    3.93
   0   2   1  135.78    3.83
   0   2   1  148.14    3.89
   0   2   1  151.07    3.92
   0   2   1  125.68    3.81
   0   2   1  140.20    3.83
   0   2   1  138.84    3.86
  -1  -2  -1  137.18    3.95
  -1  -2  -1  145.24    3.88
  -1  -2  -1  142.51    4.00
  -1  -2  -1  141.05    3.97
  -1  -2  -1  144.59    3.98
   1   2   1  139.27    3.98
   1   2   1  134.58    3.88
   1   2   1  149.02    3.99
  -2  -2  -1  191.21    5.50
  -2  -2  -1  193.09    5.44
  -2  -2  -1  197.11    5.30
  -2  -2  -1  188.12    5.45
   2   2   1  188.47    5.52
   2   2   1  210.30    5.53
   2   2   1  195.62    5.33
   2   2   1  192.07    5.45
  -3  -2  -1  108.75    3.23
  -3  -2  -1  105.06    3.22
  -3  -2  -1  106.18    3.16
  -3  -2  -1  104.52    3.26
   3   2   1  103.86    3.20
   3   2   1  109.65    3.04
   3   2   1  104.49    3.34
   3   2   1  107.96    3.33
  -4  -2  -1   91.79    3.08
  -4  -2  -1   96.66    3.12
  -4  -2  -1   95.37    3.06
   4   2   1   98.20    3.24
   4   2   1   93.29    3.22
  -5  -2  -1    3.57    0.68
  -5  -2  -1    4.81    0.64
  -5  -2  -1    3.86    0.72
   5   2   1    3.93    0.82
   5   2   1    4.77    0.96
  -6  -2  -1    3.03    0.74
  -6  -2  -1    2.55    0.93
   6   2   1    2.55    0.88
   6   2   1    5.39    1.15
  -7  -2  -1    0.70    1.03
  -7  -2  -1    1.31    0.85
   7   2   1    1.52    1.36
   7   2   1    1.14    1.10
  -8  -2  -1    2.19    1.27
  -8  -2  -1    3.10    1.41
   8   2   1    1.28    1.39
   9  -3  -1    3.83    1.87
   9  -3  -1    2.70    1.57
   8  -3  -1    3.81    1.62
   8  -3  -1    4.31    1.23
   8  -3  -1    4.71    1.65
  -8   3   1    2.99    1.20
  -8   3   1    3.34    1.03
   7  -3  -1   16.20    1.65
   7  -3  -1   17.65    1.86
   7  -3  -1   14.34    1.75
   7  -3  -1   15.05    1.83
  -7   3   1   17.33    1.16
  -7   3   1   16.03    1.10
  -7   3   1   14.67    1.23
  -7   3   1   14.67    1.44
  -7   3   1   14.12    1.15
   6  -3  -1    0.39    0.66
   6  -3  -1    0.65    0.84
   6  -3  -1    0.10    0.81
   6  -3  -1    0.69    0.83
   6  -3  -1    0.18    0.79
  -6   3   1    0.01    0.50
  -6   3   1   -0.12    0.46
  -6   3   1    0.18    0.25
  -6   3   1    0.18    0.58
  -6   3   1   -0.10    0.31
   5  -3  -1    0.82    0.63
   5  -3  -1   -0.39    0.85
   5  -3  -1    0.18    0.50
   5  -3  -1    0.06    0.58
   5  -3  -1    0.51    0.63
  -5   3   1    0.16    0.35
  -5   3   1    0.32    0.23
  -5   3   1    0.08    0.45
  -5   3   1    0.46    0.22
   4  -3  -1   16.13    1.15
   4  -3  -1   16.34    0.93
   4  -3  -1   15.43    1.12
  -4   3   1   16.75    0.78
  -4   3   1   17.23    0.66
  -4   3   1   16.94    0.65
   3  -3  -1   69.64    2.39
   3  -3  -1   66.92    2.50
   3  -3  -1   71.36    2.49
   3  -3  -1   73.48    2.25
  -3   3   1   72.65    2.09
  -3   3   1   74.23    2.08
  -3   3   1   73.30    2.21
   2  -3  -1   67.38    2.21
   2  -3  -1   68.22    1.91
   2  -3  -1   64.02    2.25
   2  -3  -1   66.09    2.12
   2  -3  -1   68.35    1.97
  -2   3   1   65.91    1.92
  -2   3   1   63.92    1.90
  -2   3   1   66.79    1.94
  -2   3   1   67.98    1.88
  -2   3   1   64.21    1.84
   1  -3  -1  546.68   14.78
   1  -3  -1  550.64   14.96
   1  -3  -1  561.85   15.04
   1  -3  -1  542.99   14.83
  -1   3   1  540.96   14.76
  -1   3   1  546.15   14.77
   0  -3  -1  170.46    4.83
   0  -3  -1  175.20    4.79
   0  -3  -1  171.54    4.91
   0  -3  -1  178.68    4.81
   0  -3  -1  176.40    4.99
   0   3   1  179.69    4.84
   0   3   1  172.25    4.84
   0   3   1  187.05    4.98
   0   3   1  174.41    4.87
  -1  -3  -1    6.96    0.39
  -1  -3  -1    6.89    0.38
  -1  -3  -1    6.72    0.39
  -1  -3  -1    7.43    0.47
  -1  -3  -1    6.50    0.42
   1   3   1    6.27    0.40
   1   3   1    7.06    0.31
   1   3   1    6.69    0.40
   1   3   1    7.11    0.35
  -2  -3  -1    0.27    0.22
  -2  -3  -1    0.43    0.24
  -2  -3  -1    0.44    0.29
   2   3   1    0.53    0.17
   2   3   1    0.28    0.09
   2   3   1    0.28    0.24
   2   3   1    0.53    0.26
  -3  -3  -1    0.26    0.29
  -3  -3  -1    0.56    0.44
  -3  -3  -1    0.34    0.27
   3   3   1    0.48    0.19
   3   3   1    0.45    0.39
   3   3   1    0.57    0.36
   3   3   1    0.11    0.42
  -4  -3  -1    6.02    0.62
  -4  -3  -1    7.51    0.87
  -4  -3  -1    6.24    0.76
   4   3   1    7.35    0.90
   4   3   1    6.83    0.57
   4   3   1    7.46    1.02
  -5  -3  -1   12.54    1.15
  -5  -3  -1   13.53    1.05
  -5  -3  -1   12.95    0.90
   5   3   1   15.03    1.38
   5   3   1   12.75    1.21
  -6  -3  -1   16.67    1.45
  -6  -3  -1   16.23    1.35
   6   3   1   15.25    1.54
   6   3   1   18.92    1.89
  -7  -3  -1    5.91    1.31
  -7  -3  -1    5.33    1.16
   7   3   1    7.59    1.88
   7   3   1    5.21    1.25
  -8  -3  -1    2.03    1.36
  -8  -3  -1    3.49    1.50
   8   3   1    0.57    1.53
   9  -4  -1    4.74    2.06
   9  -4  -1    0.34    1.53
   8  -4  -1   -0.56    1.13
   8  -4  -1   -0.08    1.27
   8  -4  -1   -0.17    1.47
  -8   4   1    0.73    1.23
  -8   4   1   -1.20    1.01
  -8   4   1    0.23    0.86
   7  -4  -1    2.50    1.22
   7  -4  -1    2.69    1.00
   7  -4  -1    5.57    1.39
   7  -4  -1    3.54    1.36
  -7   4   1    3.82    0.75
  -7   4   1    2.64    0.88
  -7   4   1    3.38    0.73
  -7   4   1    3.41    0.73
   6  -4  -1   11.45    1.48
   6  -4  -1   12.46    1.25
   6  -4  -1   15.03    1.53
   6  -4  -1   14.79    1.53
   6  -4  -1   13.24    1.40
  -6   4   1   14.47    0.89
  -6   4   1   12.46    0.67
  -6   4   1   11.27    0.98
  -6   4   1   12.18    0.71
  -6   4   1   12.32    0.95
   5  -4  -1   29.42    1.68
   5  -4  -1   30.76    1.74
   5  -4  -1   30.78    1.52
   5  -4  -1   32.32    1.85
   5  -4  -1   29.90    1.91
  -5   4   1   29.55    1.08
  -5   4   1   30.63    1.06
  -5   4   1   31.32    1.35
  -5   4   1   31.40    1.31
   4  -4  -1  150.05    4.40
   4  -4  -1  150.53    4.94
   4  -4  -1  128.26    4.83
   4  -4  -1  145.87    4.82
  -4   4   1  150.26    4.12
  -4   4   1  146.76    4.14
  -4   4   1  149.42    4.31
  -4   4   1  150.33    4.08
   3  -4  -1   79.27    2.86
   3  -4  -1   78.77    2.43
   3  -4  -1   78.16    2.67
   3  -4  -1   76.31    2.75
  -3   4   1   78.03    2.44
  -3   4   1   80.56    2.18
  -3   4   1   78.85    2.28
  -3   4   1   81.87    2.18
  -3   4   1   79.69    2.32
   2  -4  -1  109.16    3.09
   2  -4  -1  108.79    3.43
   2  -4  -1  120.64    3.19
   2  -4  -1  108.11    3.49
   2  -4  -1  100.00    3.09
   2  -4  -1  108.03    3.32
  -2   4   1  108.61    3.06
  -2   4   1  111.31    3.21
  -2   4   1  108.76    3.03
  -2   4   1  106.84    3.19
   1  -4  -1    9.89    0.64
   1  -4  -1   10.65    0.68
   1  -4  -1   12.35    0.58
   1  -4  -1   12.25    0.37
   1  -4  -1   11.28    0.44
   1  -4  -1   10.20    0.42
  -1   4   1   10.47    0.53
  -1   4   1   11.92    0.49
  -1   4   1   11.62    0.50
  -1   4   1   11.29    0.44
   0  -4  -1   71.13    1.99
   0  -4  -1   71.50    1.97
   0  -4  -1   69.69    2.20
   0  -4  -1   65.29    2.11
   0  -4  -1   69.34    2.02
   0   4   1   71.77    2.41
   0   4   1   66.04    2.03
   0   4   1   69.27    2.07
   0   4   1   69.63    2.06
  -1  -4  -1    8.87    0.55
  -1  -4  -1   10.25    0.51
  -1  -4  -1   10.15    0.52
  -1  -4  -1    9.33    0.61
   1   4   1    9.28    0.53
   1   4   1    9.27    0.42
   1   4   1    9.43    0.49
   1   4   1    8.82    0.54
  -2  -4  -1  116.48    3.35
  -2  -4  -1  113.40    3.21
  -2  -4  -1  115.54    3.45
  -2  -4  -1  112.60    3.36
   2   4   1  113.97    3.26
   2   4   1  110.67    3.41
   2   4   1  109.04    3.40
   2   4   1  110.60    3.13
  -3  -4  -1   45.97    1.82
  -3  -4  -1   43.87    1.40
  -3  -4  -1   45.73    1.72
   3   4   1   45.04    1.52
   3   4   1   48.50    1.97
   3   4   1   44.11    1.77
   3   4   1   44.53    1.75
  -4  -4  -1   32.76    1.54
  -4  -4  -1   32.90    1.48
  -4  -4  -1   32.06    1.31
   4   4   1   33.61    1.71
   4   4   1   32.10    1.62
   4   4   1   32.40    1.26
  -5  -4  -1   16.89    1.32
  -5  -4  -1   17.25    1.03
  -5  -4  -1   15.88    1.21
   5   4   1   16.75    1.38
   5   4   1   19.19    1.62
  -6  -4  -1    1.77    0.75
  -6  -4  -1    2.90    0.92
   6   4   1    0.76    0.91
   6   4   1   -0.58    1.23
  -7  -4  -1    1.64    1.16
  -7  -4  -1    0.35    0.98
   7   4   1   -1.04    1.16
   7   4   1    2.13    2.33
  -8  -4  -1    0.65    1.45
  -8  -4  -1   -0.37    1.54
   8   4   1   -2.41    1.67
   9  -5  -1    2.32    1.59
   9  -5  -1    5.37    2.17
   8  -5  -1    6.45    1.68
   8  -5  -1    9.39    1.74
   8  -5  -1    7.34    1.40
  -8   5   1   10.59    2.80
   7  -5  -1   10.50    1.67
   7  -5  -1   10.43    1.47
   7  -5  -1   14.06    1.90
   7  -5  -1   11.77    1.82
  -7   5   1    9.74    1.19
  -7   5   1   10.37    1.22
  -7   5   1   11.56    1.16
   6  -5  -1   13.64    1.20
   6  -5  -1   12.35    1.58
   6  -5  -1   14.08    1.81
   6  -5  -1   13.76    1.65
  -6   5   1   12.08    1.09
  -6   5   1   12.86    1.01
  -6   5   1   13.52    0.77
   5  -5  -1    3.25    0.71
   5  -5  -1    2.76    0.88
   5  -5  -1    2.99    0.86
   5  -5  -1    4.35    0.90
  -5   5   1    3.44    0.34
  -5   5   1    3.83    0.36
  -5   5   1    3.09    0.44
  -5   5   1    3.83    0.62
   4  -5  -1    6.83    0.63
   4  -5  -1    6.49    1.01
   4  -5  -1    5.88    0.89
   4  -5  -1    7.18    1.09
  -4   5   1    6.67    0.39
  -4   5   1    6.29    0.38
  -4   5   1    5.80    0.27
  -4   5   1    6.66    0.52
  -4   5   1    5.40    0.69
   3  -5  -1    1.31    0.79
   3  -5  -1    0.93    0.25
   3  -5  -1    1.19    0.51
   3  -5  -1    0.73    0.73
  -3   5   1    0.96    0.19
  -3   5   1    1.01    0.29
   2  -5  -1   34.92    1.25
   2  -5  -1   38.71    1.51
   2  -5  -1   38.25    1.63
   2  -5  -1   38.72    1.70
   2  -5  -1   38.33    1.19
  -2   5   1   37.25    1.25
  -2   5   1   40.04    1.22
   1  -5  -1   66.13    2.18
   1  -5  -1   69.03    2.36
   1  -5  -1   73.94    2.04
   1  -5  -1   68.53    1.93
   1  -5  -1   74.56    1.93
  -1   5   1   66.93    2.08
  -1   5   1   65.88    2.15
  -1   5   1   69.65    2.08
   0  -5  -1  247.48    6.89
   0  -5  -1  239.67    6.58
   0  -5  -1  242.94    6.65
   0  -5  -1  242.61    6.79
   0   5   1  246.74    6.73
   0   5   1  234.51    6.79
   0   5   1  233.99    6.67
  -1  -5  -1   17.98    0.79
  -1  -5  -1   19.30    0.94
  -1  -5  -1   17.85    0.82
   1   5   1   17.87    0.70
   1   5   1   18.54    0.77
   1   5   1   16.79    0.84
  -2  -5  -1   23.71    1.18
  -2  -5  -1   24.12    1.06
  -2  -5  -1   24.72    1.21
  -2  -5  -1   25.74    0.90
   2   5   1   24.54    1.15
   2   5   1   24.74    1.08
   2   5   1   24.07    0.83
   2   5   1   25.45    1.00
  -3  -5  -1    7.02    0.63
  -3  -5  -1    6.99    0.85
  -3  -5  -1    5.17    0.69
   3   5   1    6.30    0.81
   3   5   1    7.09    0.62
   3   5   1    6.70    0.88
  -4  -5  -1    1.84    0.58
  -4  -5  -1    1.46    0.49
  -4  -5  -1    1.12    0.50
   4   5   1    1.12    0.64
   4   5   1    1.45    0.81
   4   5   1    1.30    0.51
  -5  -5  -1   -0.64    0.70
  -5  -5  -1    0.10    0.58
  -5  -5  -1   -0.11    0.57
   5   5   1    1.11    0.76
   5   5   1    0.63    0.64
   5   5   1    2.47    1.06
  -6  -5  -1    5.13    1.11
  -6  -5  -1    4.42    1.01
   6   5   1    5.24    1.72
   6   5   1    1.49    1.10
  -7  -5  -1    3.18    1.38
  -7  -5  -1    1.73    1.14
   7   5   1    3.30    1.38
   7   5   1    1.99    2.28
   8  -6  -1    2.22    1.32
   8  -6  -1    3.07    1.75
   8  -6  -1    2.04    1.71
  -8   6   1    1.63    1.56
  -8   6   1   -1.00    1.38
   7  -6  -1    0.20    0.88
   7  -6  -1    0.35    1.41
   7  -6  -1    0.75    1.22
   7  -6  -1    2.13    1.53
  -7   6   1    1.34    0.87
  -7   6   1    1.01    0.79
   6  -6  -1    5.23    1.21
   6  -6  -1    4.48    0.82
   6  -6  -1    1.57    1.05
   6  -6  -1    2.57    1.03
  -6   6   1    4.02    0.51
  -6   6   1    4.59    0.83
  -6   6   1    4.17    0.76
   5  -6  -1   14.17    1.52
   5  -6  -1   11.65    1.53
   5  -6  -1   14.55    1.13
   5  -6  -1   13.56    1.44
  -5   6   1   12.93    0.56
  -5   6   1   13.63    0.79
  -5   6   1   14.50    1.02
   4  -6  -1   33.66    1.80
   4  -6  -1   35.60    1.38
   4  -6  -1   35.00    1.92
   4  -6  -1   36.76    1.93
  -4   6   1   35.99    1.13
  -4   6   1   36.92    1.48
  -4   6   1   34.33    1.29
   3  -6  -1   51.59    1.65
   3  -6  -1   50.75    2.25
   3  -6  -1   53.56    2.35
   3  -6  -1   46.85    2.16
  -3   6   1   51.98    1.86
  -3   6   1   52.61    1.58
  -3   6   1   50.57    1.68
   2  -6  -1   68.33    1.95
   2  -6  -1   63.29    2.06
   2  -6  -1   64.85    2.50
   2  -6  -1   67.24    2.42
   2  -6  -1   69.09    2.27
   2  -6  -1   66.78    2.60
  -2   6   1   68.41    2.23
  -2   6   1   68.15    2.04
   1  -6  -1   46.60    1.33
   1  -6  -1   46.38    1.31
   1  -6  -1   46.75    1.46
   1  -6  -1   47.18    1.87
   1  -6  -1   44.92    1.31
   1  -6  -1   44.01    1.85
   1  -6  -1   44.31    1.67
   1  -6  -1   48.46    1.33
  -1   6   1   45.42    1.61
  -1   6   1   44.57    1.53
  -1   6   1   45.45    1.52
   0  -6  -1   30.55    0.98
   0  -6  -1   29.91    1.32
   0  -6  -1   30.13    1.09
   0  -6  -1   29.94    1.40
   0  -6  -1   32.54    1.44
   0   6   1   29.37    1.18
   0   6   1   31.41    1.19
   0   6   1   30.69    1.15
  -1  -6  -1    1.73    0.39
  -1  -6  -1    1.10    0.50
  -1  -6  -1    1.47    0.34
   1   6   1    1.10    0.42
   1   6   1    1.22    0.43
   1   6   1    1.93    0.30
  -2  -6  -1    6.93    0.70
  -2  -6  -1    6.48    0.48
  -2  -6  -1    7.78    0.89
   2   6   1    7.15    0.66
   2   6   1    6.47    0.82
   2   6   1    6.74    0.41
  -3  -6  -1   14.02    0.94
  -3  -6  -1   13.52    1.09
   3   6   1   15.18    1.04
   3   6   1   14.29    1.08
   3   6   1   12.31    0.65
   3   6   1   13.43    0.89
  -4  -6  -1   12.30    1.03
  -4  -6  -1   11.19    1.00
  -4  -6  -1   11.81    1.15
   4   6   1    9.71    0.89
   4   6   1   12.23    1.16
   4   6   1   10.42    1.42
  -5  -6  -1    4.69    0.94
  -5  -6  -1    3.69    0.94
   5   6   1    5.95    1.56
   5   6   1    4.81    1.02
   5   6   1    4.20    0.79
  -6  -6  -1    4.22    1.19
  -6  -6  -1    5.60    1.29
   6   6   1   -1.86    1.88
   6   6   1    1.33    1.19
  -7  -6  -1   -0.15    1.29
  -7  -6  -1    3.90    1.53
   7   6   1    2.11    1.51
   8  -7  -1    0.82    2.08
   8  -7  -1    5.01    2.13
  -8   7   1    1.28    1.08
  -8   7   1    1.43    1.47
   7  -7  -1    6.75    1.13
   7  -7  -1    5.82    1.63
   7  -7  -1    5.82    1.92
   7  -7  -1    7.38    1.64
  -7   7   1    4.09    1.25
  -7   7   1    7.03    1.26
   6  -7  -1    9.39    1.65
   6  -7  -1   10.61    1.37
   6  -7  -1    7.61    1.61
   6  -7  -1   12.15    1.89
  -6   7   1   10.11    0.89
  -6   7   1   10.73    1.18
  -6   7   1   12.26    1.29
   5  -7  -1   11.86    1.51
   5  -7  -1   12.26    1.63
   5  -7  -1   14.34    1.17
   5  -7  -1   12.00    1.44
  -5   7   1   14.85    0.83
  -5   7   1   13.12    1.07
   4  -7  -1   14.32    1.53
   4  -7  -1   16.59    1.46
   4  -7  -1   14.13    1.31
   4  -7  -1   14.94    0.80
  -4   7   1   15.28    0.83
  -4   7   1   15.34    1.01
  -4   7   1   14.16    0.63
   3  -7  -1    1.72    0.72
   3  -7  -1    1.82    0.28
   3  -7  -1    0.28    0.69
   3  -7  -1    0.89    0.66
  -3   7   1    1.21    0.27
  -3   7   1    2.16    0.42
  -3   7   1    1.92    0.53
   2  -7  -1    0.90    0.16
   2  -7  -1    0.61    0.46
   2  -7  -1    1.16    0.73
   2  -7  -1    0.32    0.69
   2  -7  -1    0.37    0.65
   2  -7  -1    0.17    0.28
  -2   7   1    0.77    0.35
  -2   7   1    0.67    0.47
  -2   7   1    0.51    0.26
   1  -7  -1    6.11    0.90
   1  -7  -1    6.04    0.30
   1  -7  -1    5.24    0.79
   1  -7  -1    4.38    0.59
   1  -7  -1    6.78    0.30
   1  -7  -1    5.40    0.27
   1  -7  -1    6.34    0.48
   1  -7  -1    6.04    0.26
  -1   7   1    5.97    0.57
  -1   7   1    5.47    0.53
  -1   7   1    5.85    0.67
   0  -7  -1   28.82    1.32
   0  -7  -1   27.78    1.49
   0  -7  -1   26.47    0.91
   0  -7  -1   26.47    1.31
   0  -7  -1   27.44    1.07
   0   7   1   25.41    1.11
   0   7   1   28.18    1.24
  -1  -7  -1   21.63    1.22
  -1  -7  -1   21.17    1.07
  -1  -7  -1   23.00    1.06
   1   7   1   22.15    0.95
   1   7   1   22.41    1.02
   1   7   1   22.55    1.14
  -2  -7  -1   17.89    1.00
  -2  -7  -1   17.56    0.87
  -2  -7  -1   18.33    1.16
   2   7   1   16.68    0.92
   2   7   1   18.05    1.15
   2   7   1   16.08    0.75
  -3  -7  -1    5.70    0.72
  -3  -7  -1    7.54    1.01
   3   7   1    5.70    0.70
   3   7   1    4.85    0.77
  -4  -7  -1    2.77    0.75
  -4  -7  -1    1.48    0.74
   4   7   1    1.14    1.03
   4   7   1    1.74    0.63
  -5  -7  -1   -0.26    0.87
  -5  -7  -1   -0.07    1.14
   5   7   1   -0.84    1.46
   5   7   1    1.12    0.79
  -6  -7  -1   -0.32    0.88
  -6  -7  -1   -1.28    1.17
   6   7   1    1.65    2.03
  -7  -7  -1   -2.12    1.41
  -7  -7  -1   -1.08    1.59
   7   7   1    5.06    3.44
   8  -8  -1    1.50    2.40
   8  -8  -1   -1.10    2.28
  -8   8   1    0.41    1.59
  -8   8   1    1.12    2.11
  -8   8   1    1.47    1.24
   7  -8  -1    0.91    1.48
   7  -8  -1    4.09    1.98
   7  -8  -1    2.01    1.60
  -7   8   1    1.19    1.01
  -7   8   1   -0.25    0.99
   6  -8  -1   -1.72    1.55
   6  -8  -1    0.67    1.53
   6  -8  -1    1.93    1.72
  -6   8   1    1.75    0.85
  -6   8   1    0.37    0.51
  -6   8   1    1.43    0.95
   5  -8  -1    2.31    0.99
   5  -8  -1    3.91    1.25
   5  -8  -1    2.52    1.13
   5  -8  -1    2.99    0.89
  -5   8   1    2.62    0.54
  -5   8   1    3.07    0.78
   4  -8  -1    2.71    0.92
   4  -8  -1    4.26    0.56
   4  -8  -1    3.95    1.20
   4  -8  -1    4.34    0.97
  -4   8   1    3.99    0.43
  -4   8   1    3.36    0.66
  -4   8   1    3.58    0.56
   3  -8  -1   14.10    1.48
   3  -8  -1   12.51    1.34
   3  -8  -1   13.03    1.36
   3  -8  -1   15.01    0.89
   3  -8  -1   13.14    0.58
  -3   8   1   13.64    0.83
  -3   8   1   14.17    0.73
  -3   8   1   14.10    0.99
   2  -8  -1   32.50    1.78
   2  -8  -1   31.94    1.70
   2  -8  -1   32.40    1.52
   2  -8  -1   28.80    1.26
   2  -8  -1   32.50    1.82
  -2   8   1   32.74    1.41
  -2   8   1   33.42    1.28
  -2   8   1   33.66    1.30
   1  -8  -1   23.40    1.24
   1  -8  -1   22.20    1.01
   1  -8  -1   21.24    0.74
   1  -8  -1   23.08    1.45
   1  -8  -1   23.29    1.56
  -1   8   1   23.29    1.15
  -1   8   1   23.80    1.12
  -1   8   1   22.20    1.07
   0  -8  -1   18.70    1.34
   0  -8  -1   18.58    1.17
   0  -8  -1   19.56    1.02
   0  -8  -1   17.22    1.17
   0   8   1   17.99    1.08
   0   8   1   18.39    0.95
   0   8   1   19.59    1.02
  -1  -8  -1    9.30    0.93
  -1  -8  -1    7.83    0.76
  -1  -8  -1    7.70    0.78
   1   8   1    8.29    0.72
   1   8   1    8.40    0.91
   1   8   1    8.74    0.83
  -2  -8  -1    1.22    0.47
  -2  -8  -1    0.30    0.54
   2   8   1    0.07    0.46
   2   8   1   -0.27    0.49
   2   8   1    0.29    0.35
  -3  -8  -1   -0.26    0.62
  -3  -8  -1    1.03    0.59
   3   8   1    0.00    0.53
  -4  -8  -1    2.69    0.89
  -4  -8  -1    3.19    0.92
   4   8   1    2.57    0.74
   4   8   1    1.79    1.98
  -5  -8  -1    0.46    0.80
  -5  -8  -1    3.47    1.10
   5   8   1    0.45    1.01
   5   8   1    0.27    1.88
  -6  -8  -1    0.91    1.20
  -6  -8  -1    3.96    1.39
   6   8   1    2.61    2.58
   7  -9  -1    2.05    1.73
   7  -9  -1   -1.69    2.31
   7  -9  -1    1.12    1.80
  -7   9   1    1.25    1.12
  -7   9   1    1.30    1.17
   6  -9  -1    1.78    1.42
   6  -9  -1    3.96    1.60
   6  -9  -1    3.77    2.29
  -6   9   1    1.59    0.66
  -6   9   1    3.39    1.04
  -6   9   1    3.52    1.00
   5  -9  -1    4.64    1.24
   5  -9  -1    5.69    1.55
   5  -9  -1    4.15    1.52
  -5   9   1    6.45    0.74
  -5   9   1    4.49    0.93
   4  -9  -1   11.79    1.75
   4  -9  -1    7.98    1.40
   4  -9  -1   10.89    1.59
  -4   9   1   11.33    1.10
  -4   9   1    9.41    0.84
   3  -9  -1    1.61    0.55
   3  -9  -1    0.35    0.80
   3  -9  -1    2.49    1.03
   3  -9  -1    3.35    1.15
  -3   9   1    1.47    0.52
  -3   9   1    1.73    0.45
  -3   9   1    1.89    0.62
   2  -9  -1    1.81    0.83
   2  -9  -1    1.25    0.57
   2  -9  -1    2.81    0.56
   2  -9  -1    2.36    0.91
   2  -9  -1    1.30    0.78
  -2   9   1    2.28    0.52
  -2   9   1    2.81    0.67
  -2   9   1    1.24    0.48
   1  -9  -1    0.47    0.85
   1  -9  -1    1.52    0.53
   1  -9  -1    0.58    0.85
   1  -9  -1    0.43    0.53
  -1   9   1    1.20    0.53
  -1   9   1    1.23    0.49
  -1   9   1    0.54    0.50
   0  -9  -1    0.39    0.29
   0  -9  -1    0.43    0.85
   0  -9  -1    0.31    0.75
   0  -9  -1    0.34    0.46
   0  -9  -1    0.63    0.52
   0   9   1    0.15    0.46
   0   9   1    0.53    0.52
   0   9   1    0.56    0.45
  -1  -9  -1    4.77    0.67
  -1  -9  -1    5.17    0.68
  -1  -9  -1    4.65    1.03
  -1  -9  -1    3.50    0.71
   1   9   1    4.37    0.75
   1   9   1    6.32    0.76
   1   9   1    5.91    0.67
  -2  -9  -1    5.41    0.92
  -2  -9  -1    5.97    0.77
   2   9   1    6.03    0.95
   2   9   1    4.82    0.70
   2   9   1    4.80    0.73
  -3  -9  -1    0.82    0.69
  -3  -9  -1    1.98    0.96
   3   9   1    2.32    0.70
  -4  -9  -1   -0.38    0.98
  -4  -9  -1   -0.49    0.82
   4   9   1   -1.21    0.77
   4   9   1   -0.98    1.52
  -5  -9  -1    2.69    1.29
  -5  -9  -1    2.00    1.02
   5   9   1   -1.82    2.01
  -6  -9  -1    1.80    1.63
  -6  -9  -1   -1.59    1.41
   7 -10  -1   -0.44    2.03
   7 -10  -1   -6.28    2.69
  -7  10   1    0.10    1.24
  -7  10   1    2.36    1.38
   6 -10  -1    6.97    2.22
   6 -10  -1    2.33    1.84
   6 -10  -1    1.31    1.60
  -6  10   1    0.97    1.10
  -6  10   1    1.28    1.10
  -6  10   1   -0.29    1.04
   5 -10  -1    1.29    1.55
   5 -10  -1    1.46    1.57
   5 -10  -1    1.44    1.28
  -5  10   1    1.18    0.70
  -5  10   1   -0.39    0.81
   4 -10  -1    0.27    1.33
   4 -10  -1   -1.39    1.22
   4 -10  -1   -0.79    1.15
  -4  10   1   -0.38    0.70
  -4  10   1   -0.25    0.52
   3 -10  -1    3.73    0.92
   3 -10  -1   -0.07    0.99
   3 -10  -1    2.91    1.18
   3 -10  -1    2.35    1.25
  -3  10   1    4.45    0.68
  -3  10   1    2.00    0.74
  -3  10   1    3.74    0.71
   2 -10  -1    4.17    1.07
   2 -10  -1    2.87    1.17
   2 -10  -1    3.98    0.82
   2 -10  -1    2.35    1.10
   2 -10  -1    2.02    0.69
  -2  10   1    2.63    0.70
  -2  10   1    3.51    0.64
  -2  10   1    4.61    0.67
   1 -10  -1   12.36    1.15
   1 -10  -1   11.86    1.61
   1 -10  -1    9.80    1.35
   1 -10  -1    7.21    0.92
  -1  10   1   10.25    1.03
  -1  10   1    9.64    0.87
  -1  10   1   10.74    1.10
   0 -10  -1    5.25    0.72
   0 -10  -1    6.80    1.39
   0 -10  -1    4.80    1.13
   0 -10  -1    4.45    0.86
   0  10   1    4.28    0.73
   0  10   1    4.24    0.69
   0  10   1    6.70    0.88
  -1 -10  -1    1.30    1.12
  -1 -10  -1    3.58    0.90
  -1 -10  -1    1.56    0.59
  -1 -10  -1    2.11    0.55
   1  10   1    2.55    0.59
   1  10   1    2.25    0.66
   1  10   1    2.34    0.76
  -2 -10  -1    4.21    1.10
  -2 -10  -1    7.47    1.57
  -2 -10  -1    7.28    0.92
   2  10   1    7.45    1.26
   2  10   1    4.16    0.84
   2  10   1    5.73    1.12
  -3 -10  -1    0.76    0.93
  -3 -10  -1    0.30    1.20
   3  10   1   -0.13    0.77
  -4 -10  -1   -1.82    1.08
  -4 -10  -1   -0.02    0.91
   4  10   1   -1.26    1.01
   4  10   1   -2.15    1.67
  -5 -10  -1   -2.13    1.49
  -5 -10  -1    1.13    1.19
   5  10   1   -3.43    2.66
   6 -11  -1   -1.48    2.19
   6 -11  -1    6.29    2.80
   6 -11  -1   -0.65    2.05
  -6  11   1    2.15    1.40
  -6  11   1   -0.73    1.19
  -6  11   1    0.69    0.92
   5 -11  -1    1.91    1.94
   5 -11  -1    1.12    1.50
   5 -11  -1    4.16    1.95
  -5  11   1    1.00    0.78
  -5  11   1    1.16    1.02
   4 -11  -1    0.30    1.39
   4 -11  -1    5.61    1.88
   4 -11  -1    1.02    1.68
  -4  11   1    2.67    1.03
  -4  11   1    0.80    0.69
   3 -11  -1    3.69    1.38
   3 -11  -1    2.51    1.49
  -3  11   1    2.98    0.74
   2 -11  -1    0.32    1.31
   2 -11  -1    0.96    1.04
   2 -11  -1    0.53    1.54
  -2  11   1    1.14    0.65
  -2  11   1    1.27    0.75
  -2  11   1   -0.09    0.88
   1 -11  -1    0.54    1.40
   1 -11  -1    0.49    0.64
   1 -11  -1    0.67    1.44
   1 -11  -1    0.62    0.82
  -1  11   1    1.54    0.69
  -1  11   1   -0.66    0.59
  -1  11   1    1.65    0.85
   0 -11  -1    0.61    0.88
   0 -11  -1   -1.03    1.43
   0 -11  -1   -0.44    0.59
   0  11   1    0.27    0.64
   0  11   1    0.36    0.74
   0  11   1    0.24    0.65
  -1 -11  -1   -0.46    1.58
  -1 -11  -1    1.23    0.67
  -1 -11  -1    0.19    0.87
   1  11   1   -0.27    0.65
   1  11   1    2.62    1.49
  -2 -11  -1    0.76    0.70
  -2 -11  -1   -0.09    0.89
  -2 -11  -1    0.00    0.99
   2  11   1    0.27    0.83
  -3 -11  -1    0.70    0.95
  -3 -11  -1   -0.80    1.06
  -3 -11  -1   -2.21    2.10
  -3 -11  -1   -0.44    0.87
   3  11   1    1.15    0.96
   3  11   1   -0.11    1.77
  -4 -11  -1    3.38    1.32
  -4 -11  -1   -1.13    1.36
  -4 -11  -1   -2.22    1.09
   4  11   1   -1.51    2.41
   4  11   1   -1.10    1.27
   6 -12  -1    4.35    2.96
   6 -12  -1   -0.09    3.28
  -6  12   1    2.40    1.13
  -6  12   1    4.72    1.70
  -6  12   1    0.22    1.42
   5 -12  -1    2.80    2.33
   5 -12  -1   -1.47    1.78
   5 -12  -1   -0.22    2.36
  -5  12   1    1.16    1.25
  -5  12   1    1.13    0.90
   4 -12  -1    0.51    1.97
   4 -12  -1    2.74    2.23
   4 -12  -1    1.98    1.47
  -4  12   1   -0.05    0.99
  -4  12   1    1.61    0.81
   3 -12  -1    0.58    2.01
   3 -12  -1   -0.91    2.11
   3 -12  -1    3.10    1.65
  -3  12   1   -1.86    0.89
  -3  12   1    0.19    0.73
   2 -12  -1    3.80    1.54
   2 -12  -1    1.87    1.57
   2 -12  -1    3.13    1.94
  -2  12   1   -0.36    0.86
  -2  12   1    1.77    1.04
  -2  12   1    0.89    0.72
   1 -12  -1   -0.20    0.95
   1 -12  -1   -0.82    1.21
   1 -12  -1   -1.89    1.83
  -1  12   1    0.98    1.19
  -1  12   1    0.87    0.85
  -1  12   1   -0.36    0.70
   0 -12  -1    0.42    0.78
   0 -12  -1    1.80    1.96
   0 -12  -1    1.52    1.11
   0  12   1    0.46    0.75
   0  12   1    1.58    0.92
   0  12   1    2.09    1.11
  -1 -12  -1    1.64    0.89
  -1 -12  -1    2.65    2.28
  -1 -12  -1    2.08    1.10
   1  12   1    2.19    0.88
   1  12   1    1.32    0.91
  -2 -12  -1    0.44    1.13
  -2 -12  -1   -2.73    2.24
  -2 -12  -1   -0.40    0.91
   2  12   1    0.76    0.90
  -3 -12  -1    0.00    2.78
  -3 -12  -1    0.65    1.08
  -3 -12  -1    3.35    1.45
   3  12   1   -0.60    1.14
   3  12   1    2.02    2.30
   5 -13  -1   -2.03    3.23
  -5  13   1   -0.20    1.16
  -5  13   1    1.99    1.62
   4 -13  -1    6.83    3.11
   4 -13  -1    1.68    2.47
   4 -13  -1   -1.01    1.99
  -4  13   1   -1.49    0.92
   3 -13  -1   -6.50    5.18
   3 -13  -1    3.23    1.62
   3 -13  -1    0.54    2.70
  -3  13   1    1.09    1.18
  -3  13   1    0.59    0.93
   2 -13  -1    1.61    2.79
   2 -13  -1    0.09    1.32
  -2  13   1    3.22    1.20
  -2  13   1    2.13    0.90
   1 -13  -1   -0.05    1.45
   1 -13  -1    4.51    2.58
   1 -13  -1   -1.00    1.29
  -1  13   1   -0.92    1.01
  -1  13   1    0.54    0.96
   0 -13  -1   -0.38    1.23
   0 -13  -1    2.55    2.84
   0  13   1   -0.45    1.13
   0  13   1   -0.35    0.86
  -1 -13  -1    2.80    2.66
  -1 -13  -1    0.69    1.27
   1  13   1    1.09    1.04
  -2 -13  -1    1.49    3.24
  -2 -13  -1    2.51    1.67
  -2 -13  -1    1.07    1.18
   2  13   1    1.96    1.23
   3 -14  -1    6.19    3.45
   3 -14  -1    2.36    2.00
  -3  14   1   -1.15    1.55
  -3  14   1    1.07    1.21
   2 -14  -1   -1.93    1.66
   2 -14  -1    6.91    3.57
  -2  14   1    0.50    1.14
  -2  14   1    0.50    1.39
   1 -14  -1   -6.60    4.84
  -1  14   1   -2.94    1.30
  -1  14   1    0.59    1.08
   0 -14  -1    0.10    3.56
   0 -14  -1    1.03    1.77
   0  14   1   -0.69    1.27
   2  14  -2    1.89    2.04
   2  14  -2    0.94    1.36
  -2 -14   2   -0.55    1.19
  -2 -14   2   -0.61    1.52
   1  14  -2    1.18    1.02
  -1 -14   2    0.59    1.36
  -1 -14   2   -2.08    1.09
  -1 -14   2    1.52    2.79
   0  14  -2    1.74    0.99
   0  14  -2    0.56    1.15
   0 -14   2    1.13    2.69
   0 -14   2    0.01    1.28
   0 -14   2   -1.71    1.34
   0 -14   2    1.13    1.11
  -1  14  -2   -0.85    1.08
  -1  14  -2    0.92    1.02
   1 -14   2    0.13    1.38
   1 -14   2    0.48    2.78
  -2  14  -2    0.41    1.09
  -2  14  -2   -1.50    0.94
   2 -14   2    3.40    2.87
   2 -14   2   -0.12    1.41
  -3  14  -2   -0.95    1.12
  -3  14  -2   -1.04    1.02
   3 -14   2    1.09    1.67
   3 -14   2    2.30    3.01
  -4  14  -2    0.03    1.41
  -4  14  -2   -0.07    1.13
  -4  14  -2    3.33    1.80
   4 -14   2   -1.32    3.00
   4 -14   2    2.45    2.20
   3  13  -2    1.92    1.99
   3  13  -2    0.45    1.12
  -3 -13   2   -0.07    1.37
  -3 -13   2    0.34    1.09
   2  13  -2   -0.92    0.90
   2  13  -2   -1.47    1.42
  -2 -13   2   -1.18    0.90
  -2 -13   2    0.39    2.27
  -2 -13   2   -0.51    1.21
   1  13  -2    0.21    0.81
  -1 -13   2    1.47    0.99
  -1 -13   2   -0.17    2.14
  -1 -13   2   -1.06    0.83
   0  13  -2   -0.90    0.81
   0  13  -2    1.47    0.99
   0 -13   2   -1.00    2.18
   0 -13   2   -0.16    1.14
  -1  13  -2    0.90    0.92
  -1  13  -2    0.74    0.84
   1 -13   2   -1.04    0.88
   1 -13   2   -0.30    1.15
   1 -13   2   -1.16    2.05
  -2  13  -2    1.30    0.99
  -2  13  -2   -0.27    0.75
   2 -13   2    2.39    2.13
   2 -13   2    1.54    1.13
   2 -13   2   -0.82    1.09
  -3  13  -2    1.45    1.00
  -3  13  -2    1.86    0.79
   3 -13   2   -0.58    1.31
   3 -13   2    4.91    2.50
  -4  13  -2   -0.36    1.13
  -4  13  -2   -1.03    1.26
  -4  13  -2    1.28    0.93
   4 -13   2    0.48    1.62
   4 -13   2   -3.07    2.24
  -5  13  -2    3.11    1.72
  -5  13  -2    1.95    1.40
  -5  13  -2    1.47    1.02
   5 -13   2   -0.63    2.85
   5 -13   2    1.18    1.92
   4  12  -2   -0.32    1.95
   4  12  -2   -1.41    1.09
  -4 -12   2   -1.89    1.09
  -4 -12   2    1.86    1.06
  -4 -12   2   -0.53    1.25
   3  12  -2    0.70    1.32
   3  12  -2   -1.83    0.86
  -3 -12   2    1.07    2.62
  -3 -12   2   -1.29    0.90
  -3 -12   2    0.40    0.88
  -3 -12   2   -0.95    1.01
   2  12  -2    0.90    0.73
   2  12  -2   -0.07    1.10
  -2 -12   2    0.33    0.78
  -2 -12   2    0.02    1.75
  -2 -12   2   -1.23    1.08
  -2 -12   2    1.05    0.99
   1  12  -2    1.47    0.77
   1  12  -2    1.42    0.81
  -1 -12   2    1.01    0.86
  -1 -12   2    2.55    1.56
  -1 -12   2    0.83    1.10
   0  12  -2    4.13    0.91
   0  12  -2    6.57    0.94
   0 -12   2    4.30    0.82
   0 -12   2    6.94    1.78
   0 -12   2    4.09    1.10
  -1  12  -2   -0.22    0.84
   1 -12   2   -0.31    0.66
   1 -12   2    0.39    1.04
   1 -12   2    1.17    1.71
  -2  12  -2    0.72    1.04
  -2  12  -2    1.54    1.56
   2 -12   2    2.19    2.18
   2 -12   2    1.41    0.81
  -3  12  -2    2.08    1.31
  -3  12  -2    1.34    0.97
   3 -12   2    1.61    1.26
   3 -12   2   -0.91    1.84
   3 -12   2    4.76    1.05
  -4  12  -2    0.19    0.78
  -4  12  -2    0.83    1.07
  -4  12  -2    0.24    1.01
   4 -12   2    1.84    1.34
   4 -12   2   -0.45    1.94
  -5  12  -2    1.09    1.33
  -5  12  -2   -0.90    1.01
  -5  12  -2    0.18    0.94
   5 -12   2    1.08    1.67
   5 -12   2   -0.99    2.19
  -6  12  -2    0.30    1.65
  -6  12  -2    1.67    1.34
   6 -12   2   -4.80    3.52
   6 -12   2    5.32    2.74
   5  11  -2   -0.94    2.55
   5  11  -2    3.21    1.42
  -5 -11   2    0.36    1.13
  -5 -11   2   -1.65    1.11
  -5 -11   2    0.76    1.32
   4  11  -2   -2.70    1.56
   4  11  -2   -2.64    0.90
  -4 -11   2    0.12    0.86
  -4 -11   2    0.44    0.93
  -4 -11   2    1.16    1.05
   3  11  -2    0.30    0.77
   3  11  -2    3.02    1.28
  -3 -11   2   -0.07    0.76
  -3 -11   2   -0.56    0.74
  -3 -11   2    3.31    1.51
  -3 -11   2    0.07    0.86
   2  11  -2    0.85    0.66
   2  11  -2    0.70    0.68
  -2 -11   2   -0.75    0.59
  -2 -11   2    2.18    1.25
  -2 -11   2    1.84    0.76
  -2 -11   2    1.33    0.83
   1  11  -2    1.60    0.61
   1  11  -2    0.66    0.63
  -1 -11   2    0.37    0.45
  -1 -11   2   -0.23    0.68
  -1 -11   2   -0.01    1.10
  -1 -11   2    0.09    0.57
   0  11  -2    2.50    0.68
   0  11  -2    2.14    0.71
   0 -11   2    4.41    1.32
   0 -11   2    2.69    0.76
   0 -11   2    2.26    0.60
  -1  11  -2   -0.16    0.66
  -1  11  -2    0.42    0.51
   1 -11   2    0.85    0.82
   1 -11   2    0.48    0.58
   1 -11   2    0.38    1.09
  -2  11  -2    0.60    0.66
  -2  11  -2    0.22    0.52
   2 -11   2   -1.09    0.61
   2 -11   2   -0.02    0.83
   2 -11   2   -1.97    1.23
  -3  11  -2    0.25    0.77
  -3  11  -2    0.04    0.54
   3 -11   2    0.01    1.35
   3 -11   2    0.82    1.15
   3 -11   2   -0.79    0.80
  -4  11  -2    3.58    0.79
  -4  11  -2    5.36    1.11
  -4  11  -2    4.12    0.93
   4 -11   2    3.06    1.94
   4 -11   2    1.68    1.72
  -5  11  -2    0.74    0.92
  -5  11  -2   -0.99    0.77
  -5  11  -2    0.32    1.10
   5 -11   2    0.11    1.31
   5 -11   2   -0.70    1.70
  -6  11  -2   -1.89    1.26
  -6  11  -2   -0.42    1.15
   6 -11   2    0.43    2.00
   6 -11   2    3.67    2.63
   6  10  -2    3.36    3.12
  -6 -10   2   -1.20    1.40
  -6 -10   2   -0.29    1.48
  -6 -10   2    2.06    1.31
   5  10  -2   -1.59    1.83
   5  10  -2   -1.62    1.12
  -5 -10   2   -1.81    0.98
  -5 -10   2    1.07    0.86
  -5 -10   2    0.27    1.09
   4  10  -2    5.69    1.69
   4  10  -2    6.92    1.68
  -4 -10   2    5.23    1.08
  -4 -10   2    7.66    1.07
  -4 -10   2    7.19    1.80
   3  10  -2    1.22    0.74
   3  10  -2    1.84    1.07
  -3 -10   2    2.09    1.10
  -3 -10   2    3.18    0.90
  -3 -10   2    1.19    0.68
  -3 -10   2    1.83    0.79
   2  10  -2    0.88    0.59
   2  10  -2    0.43    0.48
  -2 -10   2    0.68    0.90
  -2 -10   2    0.25    0.55
  -2 -10   2    0.97    0.59
  -2 -10   2    0.18    0.62
   1  10  -2    1.11    0.53
   1  10  -2    0.84    0.50
  -1 -10   2   -0.33    0.43
  -1 -10   2    0.21    0.58
  -1 -10   2    0.09    0.88
  -1 -10   2   -0.50    0.47
   0  10  -2    9.13    0.95
   0  10  -2    6.89    0.75
   0 -10   2    6.27    0.59
   0 -10   2    8.84    0.84
   0 -10   2    8.83    0.98
   0 -10   2    9.22    1.28
  -1  10  -2    2.90    0.65
  -1  10  -2    2.80    0.58
   1 -10   2    2.43    0.66
   1 -10   2    2.85    1.06
   1 -10   2    3.18    0.60
  -2  10  -2   13.51    1.04
  -2  10  -2   12.31    0.91
   2 -10   2   13.77    0.81
   2 -10   2   13.85    1.07
   2 -10   2   11.44    1.67
   2 -10   2   12.38    1.31
  -3  10  -2    7.20    0.78
  -3  10  -2    7.52    1.00
   3 -10   2    8.15    1.57
   3 -10   2    7.18    0.82
   3 -10   2    4.84    0.90
   3 -10   2    7.64    1.26
  -4  10  -2    5.88    0.95
  -4  10  -2    6.65    0.76
  -4  10  -2    6.62    1.08
   4 -10   2    6.95    1.57
   4 -10   2    4.36    1.14
  -5  10  -2    2.81    1.02
  -5  10  -2    1.09    0.69
  -5  10  -2    2.02    0.92
   5 -10   2    2.89    1.64
   5 -10   2    2.74    1.37
  -6  10  -2   -0.33    0.97
  -6  10  -2   -1.14    1.06
   6 -10   2   -1.12    1.66
   6 -10   2    1.04    2.24
  -7  10  -2    0.93    1.32
  -7  10  -2    0.27    1.22
   7 -10   2   -0.36    2.55
   7 -10   2    1.89    2.92
   6   9  -2    1.43    2.25
  -6  -9   2    1.77    1.24
  -6  -9   2    2.36    1.15
  -6  -9   2    2.20    0.99
   5   9  -2    2.61    1.02
   5   9  -2    0.22    1.64
  -5  -9   2    0.77    0.76
  -5  -9   2    3.52    0.99
  -5  -9   2    0.85    0.98
   4   9  -2    0.17    0.75
  -4  -9   2   -0.29    0.65
  -4  -9   2    0.47    0.76
  -4  -9   2   -0.05    0.72
   3   9  -2    0.07    0.58
   3   9  -2    0.15    0.50
   3   9  -2   -0.29    0.79
  -3  -9   2    1.29    0.64
  -3  -9   2    0.99    0.58
  -3  -9   2    0.96    0.57
   2   9  -2    2.21    0.55
   2   9  -2    3.31    0.99
  -2  -9   2    2.29    0.56
  -2  -9   2    2.93    0.84
  -2  -9   2    4.26    0.62
  -2  -9   2    3.82    0.69
   1   9  -2    4.32    0.60
   1   9  -2    3.53    0.61
  -1  -9   2    3.65    0.56
  -1  -9   2    4.13    0.58
  -1  -9   2    4.02    0.68
  -1  -9   2    5.18    0.91
   0   9  -2   31.94    1.35
   0   9  -2   29.56    1.28
   0  -9   2   30.59    1.48
   0  -9   2   28.10    1.06
   0  -9   2   29.96    1.27
   0  -9   2   32.34    1.70
  -1   9  -2    3.93    0.57
  -1   9  -2    4.54    0.65
   1  -9   2    3.19    0.87
   1  -9   2    3.33    0.56
   1  -9   2    3.24    0.67
   1  -9   2    2.99    0.31
   1  -9   2    3.95    0.92
  -2   9  -2    0.03    0.39
  -2   9  -2    0.25    0.51
   2  -9   2    0.35    0.83
   2  -9   2    0.96    0.36
   2  -9   2    0.80    0.61
   2  -9   2    0.16    0.72
   2  -9   2    0.76    0.55
  -3   9  -2    1.30    0.57
  -3   9  -2    0.22    0.41
   3  -9   2   -0.39    0.89
   3  -9   2    0.47    0.47
   3  -9   2    0.95    0.79
   3  -9   2   -0.41    0.59
   3  -9   2   -0.98    0.61
  -4   9  -2    1.62    0.66
  -4   9  -2    0.73    0.66
  -4   9  -2    1.12    0.49
   4  -9   2    0.89    1.07
   4  -9   2    0.88    0.59
   4  -9   2    1.20    0.82
  -5   9  -2    1.96    0.57
  -5   9  -2    1.77    0.71
  -5   9  -2    0.76    0.87
   5  -9   2    0.74    1.22
   5  -9   2    0.27    1.08
   5  -9   2    0.97    0.82
  -6   9  -2    3.16    1.03
  -6   9  -2    1.22    0.98
   6  -9   2    3.44    1.87
   6  -9   2   -0.22    1.48
   6  -9   2    2.73    0.94
  -7   9  -2    0.50    1.25
  -7   9  -2    3.33    1.40
   7  -9   2    4.68    2.37
   7  -9   2    2.53    2.18
   7   8  -2    0.06    2.92
  -7  -8   2    1.78    1.42
  -7  -8   2    0.09    1.43
  -7  -8   2   -0.53    1.26
   6   8  -2    1.36    1.87
  -6  -8   2    0.29    1.02
  -6  -8   2   -0.25    0.91
  -6  -8   2   -0.57    0.99
   5   8  -2    3.29    0.86
  -5  -8   2    5.98    1.61
  -5  -8   2    4.56    0.91
  -5  -8   2    4.58    1.07
   4   8  -2    7.43    1.21
   4   8  -2    7.34    0.92
  -4  -8   2    8.50    0.94
  -4  -8   2    7.18    0.99
  -4  -8   2    9.11    1.12
   3   8  -2   33.39    1.30
   3   8  -2   35.32    1.84
   3   8  -2   33.63    1.52
  -3  -8   2   35.21    1.52
  -3  -8   2   34.44    1.79
  -3  -8   2   38.28    1.62
   2   8  -2    8.53    0.65
   2   8  -2    8.95    0.72
  -2  -8   2    9.31    0.76
  -2  -8   2    8.21    0.86
  -2  -8   2    9.06    0.80
   1   8  -2    0.93    0.43
   1   8  -2    0.79    0.47
  -1  -8   2    0.77    0.67
  -1  -8   2    1.40    0.51
  -1  -8   2    1.36    0.38
  -1  -8   2    0.91    0.40
   0   8  -2    8.33    0.70
   0   8  -2    8.41    0.74
   0  -8   2    8.37    0.70
   0  -8   2    9.28    1.07
   0  -8   2    7.86    0.85
  -1   8  -2    2.82    0.56
  -1   8  -2    3.07    0.46
   1  -8   2    2.45    0.24
   1  -8   2    2.96    0.75
   1  -8   2    2.64    0.49
   1  -8   2    3.22    0.87
   1  -8   2    1.25    0.52
  -2   8  -2   13.07    0.92
  -2   8  -2   13.30    0.78
   2  -8   2   13.47    1.02
   2  -8   2   13.76    0.79
   2  -8   2   15.14    1.25
   2  -8   2   15.11    1.33
  -3   8  -2   47.77    1.65
  -3   8  -2   47.72    1.84
   3  -8   2   50.64    2.30
   3  -8   2   46.59    2.14
   3  -8   2   47.14    2.21
   3  -8   2   47.37    1.80
   3  -8   2   44.45    2.00
  -4   8  -2   26.43    1.16
  -4   8  -2   28.71    1.45
  -4   8  -2   27.03    1.34
   4  -8   2   26.61    1.44
   4  -8   2   26.25    1.88
   4  -8   2   26.01    1.75
   4  -8   2   22.67    1.64
  -5   8  -2    7.84    0.74
  -5   8  -2    7.21    0.97
  -5   8  -2    9.59    1.01
   5  -8   2    9.83    1.08
   5  -8   2    9.13    1.52
   5  -8   2    7.82    1.40
  -6   8  -2    6.16    0.99
  -6   8  -2    7.63    1.80
   6  -8   2    6.58    1.07
   6  -8   2    5.52    1.57
  -7   8  -2    2.10    1.09
  -7   8  -2    2.39    1.07
   7  -8   2    2.99    1.98
   7  -8   2    0.53    1.21
   7  -8   2    1.07    1.81
  -8   8  -2   -0.09    1.30
  -8   8  -2   -1.69    1.53
   8  -8   2   -2.17    2.65
   8  -8   2   -0.15    1.70
   8  -8   2    2.09    2.49
   7   7  -2    3.66    2.32
  -7  -7   2    1.42    1.14
  -7  -7   2    0.85    1.19
  -7  -7   2    1.16    1.10
   6   7  -2    3.06    1.66
  -6  -7   2    1.07    0.99
  -6  -7   2    0.50    0.86
  -6  -7   2    0.04    0.88
   5   7  -2    3.59    1.25
   5   7  -2    3.75    0.76
  -5  -7   2    3.61    0.80
  -5  -7   2    3.40    0.78
   4   7  -2    2.41    0.56
   4   7  -2    3.91    0.92
  -4  -7   2    3.50    0.66
  -4  -7   2    1.79    0.55
   3   7  -2    0.06    0.27
   3   7  -2    0.23    0.41
   3   7  -2   -0.04    0.52
  -3  -7   2    0.16    0.41
  -3  -7   2    0.33    0.49
   2   7  -2    3.83    0.41
   2   7  -2    4.08    0.53
  -2  -7   2    4.81    0.56
  -2  -7   2    4.65    0.63
  -2  -7   2    5.05    0.61
   1   7  -2   22.93    1.03
   1   7  -2   22.29    0.96
  -1  -7   2   21.87    1.15
  -1  -7   2   23.05    0.94
  -1  -7   2   23.59    1.04
  -1  -7   2   22.54    1.13
   0   7  -2   47.54    1.64
   0   7  -2   46.89    1.62
   0  -7   2   46.20    1.81
   0  -7   2   45.92    1.59
   0  -7   2   46.97    1.46
   0  -7   2   46.39    1.74
  -1   7  -2  116.50    3.44
  -1   7  -2  107.83    3.35
   1  -7   2  114.55    3.70
   1  -7   2  114.94    3.66
   1  -7   2  111.25    3.35
   1  -7   2  113.03    3.14
   1  -7   2  111.81    3.52
  -2   7  -2    5.15    0.69
   2  -7   2    5.46    0.61
   2  -7   2    5.24    0.97
   2  -7   2    4.47    0.70
   2  -7   2    3.96    0.39
   2  -7   2    5.44    0.53
   2  -7   2    5.40    0.94
  -3   7  -2   15.38    0.97
   3  -7   2   16.90    1.29
   3  -7   2   16.75    1.35
   3  -7   2   16.23    0.97
   3  -7   2   16.93    1.39
  -4   7  -2    1.46    0.42
  -4   7  -2    1.76    0.56
  -4   7  -2    1.55    0.53
   4  -7   2    1.11    0.62
   4  -7   2    0.52    0.78
   4  -7   2    1.79    0.94
   4  -7   2    1.32    0.76
  -5   7  -2    1.07    0.52
  -5   7  -2    0.44    0.41
  -5   7  -2    0.80    0.62
   5  -7   2    0.18    0.56
   5  -7   2   -0.53    0.98
   5  -7   2   -0.36    0.83
  -6   7  -2    5.31    0.92
  -6   7  -2    3.70    0.82
   6  -7   2    5.44    1.61
   6  -7   2    4.89    0.96
   6  -7   2    5.77    1.62
  -7   7  -2    4.73    1.09
  -7   7  -2    4.43    1.03
   7  -7   2    5.82    1.80
   7  -7   2    9.08    1.91
  -8   7  -2    1.06    1.21
  -8   7  -2    2.43    1.57
   8  -7   2   -2.64    2.25
   8  -7   2    2.92    1.98
   8  -7   2    1.87    1.52
   8   6  -2   -1.88    3.38
  -8  -6   2    0.44    1.46
  -8  -6   2   -0.83    1.49
   7   6  -2    5.84    2.09
  -7  -6   2   -0.14    1.20
  -7  -6   2    0.46    0.99
  -7  -6   2    0.53    0.99
   6   6  -2    3.17    1.55
  -6  -6   2    0.23    0.78
   5   6  -2    4.51    0.68
   5   6  -2    5.16    1.10
  -5  -6   2    4.68    0.78
  -5  -6   2    3.67    0.75
   4   6  -2   30.20    1.71
   4   6  -2   28.75    1.33
  -4  -6   2   29.31    1.37
  -4  -6   2   30.03    1.41
   3   6  -2   41.70    1.81
   3   6  -2   36.15    1.31
   3   6  -2   39.03    1.51
  -3  -6   2   41.43    1.59
  -3  -6   2   40.24    1.55
   2   6  -2   92.86    2.82
   2   6  -2   98.73    2.97
  -2  -6   2   98.95    2.99
   1   6  -2   58.41    1.90
   1   6  -2   59.41    1.86
   1   6  -2   59.61    1.85
  -1  -6   2   59.66    2.13
  -1  -6   2   60.48    1.87
  -1  -6   2   57.08    1.97
  -1  -6   2   59.52    1.91
   0   6  -2    8.88    0.56
   0   6  -2    9.02    0.55
   0  -6   2    8.59    0.52
   0  -6   2    9.46    0.68
   0  -6   2    9.09    0.43
   0  -6   2    8.66    0.63
  -1   6  -2   83.62    2.58
  -1   6  -2   81.75    2.50
   1  -6   2   84.18    2.66
   1  -6   2   86.93    2.81
   1  -6   2   84.48    2.53
   1  -6   2   86.55    2.37
   1  -6   2   81.99    2.80
  -2   6  -2    5.47    0.25
  -2   6  -2    5.16    0.41
   2  -6   2    4.98    0.57
   2  -6   2    4.34    0.71
   2  -6   2    4.73    0.28
   2  -6   2    5.37    0.82
   2  -6   2    4.83    0.73
   2  -6   2    5.84    0.25
  -3   6  -2   39.78    1.31
  -3   6  -2   39.02    1.16
  -3   6  -2   40.19    1.54
   3  -6   2   41.24    1.95
   3  -6   2   41.18    1.88
   3  -6   2   38.02    1.86
   3  -6   2   40.62    1.57
  -4   6  -2   58.26    2.07
  -4   6  -2   56.30    1.97
  -4   6  -2   55.70    1.73
   4  -6   2   55.40    2.39
   4  -6   2   55.52    2.43
   4  -6   2   54.18    2.40
   4  -6   2   56.08    2.18
  -5   6  -2   39.20    1.66
  -5   6  -2   37.92    1.52
  -5   6  -2   35.37    1.21
   5  -6   2   36.59    2.07
   5  -6   2   33.61    2.09
   5  -6   2   35.72    1.75
  -6   6  -2   10.52    1.20
  -6   6  -2   12.39    1.05
   6  -6   2   13.26    1.47
   6  -6   2   13.62    1.84
   6  -6   2   10.92    1.58
  -7   6  -2    9.64    1.46
  -7   6  -2   12.40    1.90
  -7   6  -2   11.24    1.66
   7  -6   2    8.88    2.33
   7  -6   2   12.27    2.07
   7  -6   2   11.17    1.93
  -8   6  -2    1.69    1.40
  -8   6  -2    1.62    1.14
   8  -6   2    0.46    1.96
   8  -6   2    2.26    1.50
   8   5  -2    2.06    2.54
  -8  -5   2    3.34    1.42
  -8  -5   2    1.13    1.24
  -8  -5   2    2.04    1.38
   7   5  -2    6.81    1.98
  -7  -5   2    3.37    1.03
  -7  -5   2    3.41    1.09
  -7  -5   2    4.22    1.04
   6   5  -2   10.71    1.79
   6   5  -2    6.24    1.12
  -6  -5   2    4.62    0.89
  -6  -5   2    5.74    0.95
   5   5  -2    8.41    1.06
   5   5  -2   10.75    1.33
  -5  -5   2    9.19    0.95
  -5  -5   2    7.83    0.90
   4   5  -2   24.37    1.49
   4   5  -2   23.52    1.30
   4   5  -2   22.35    1.17
  -4  -5   2   22.44    1.17
  -4  -5   2   23.84    1.18
   3   5  -2    0.44    0.36
   3   5  -2    0.57    0.60
   3   5  -2    0.34    0.22
   3   5  -2    0.18    0.23
  -3  -5   2    0.28    0.18
  -3  -5   2    1.33    0.44
  -3  -5   2    0.65    0.40
   2   5  -2   37.90    1.21
   2   5  -2   36.56    1.51
   2   5  -2   39.19    1.24
  -2  -5   2   37.36    1.36
  -2  -5   2   37.65    1.36
   1   5  -2   37.32    1.27
   1   5  -2   37.32    1.22
   1   5  -2   37.32    1.22
  -1  -5   2   37.42    1.27
  -1  -5   2   37.72    1.32
  -1  -5   2   39.37    1.26
   0   5  -2   60.37    1.98
   0   5  -2   61.72    1.88
   0  -5   2   64.68    1.82
   0  -5   2   62.50    1.96
   0  -5   2   58.87    2.06
   0  -5   2   63.60    2.02
  -1   5  -2  150.36    4.37
  -1   5  -2  152.25    4.21
  -1   5  -2  157.73    4.49
   1  -5   2  156.73    4.22
   1  -5   2  153.22    4.34
   1  -5   2  157.61    4.59
   1  -5   2  150.56    4.72
   1  -5   2  147.84    4.45
   1  -5   2  155.49    4.21
  -2   5  -2  135.02    4.00
  -2   5  -2  139.57    3.89
  -2   5  -2  139.42    3.80
   2  -5   2  137.79    4.21
   2  -5   2  139.46    4.09
   2  -5   2  138.71    4.30
   2  -5   2  138.18    4.07
   2  -5   2  139.30    4.30
   2  -5   2  140.37    3.82
  -3   5  -2   90.22    2.77
  -3   5  -2   94.59    2.61
  -3   5  -2   87.49    2.84
   3  -5   2   90.45    3.23
   3  -5   2   93.03    3.17
   3  -5   2   84.62    3.10
   3  -5   2   92.61    2.92
  -4   5  -2   28.50    0.96
  -4   5  -2   31.01    1.32
  -4   5  -2   28.27    1.22
   4  -5   2   28.91    1.47
   4  -5   2   29.63    1.70
  -5   5  -2    3.29    0.32
  -5   5  -2    3.78    0.68
  -5   5  -2    3.53    0.57
   5  -5   2    3.88    0.91
   5  -5   2    3.80    0.99
   5  -5   2    6.51    0.94
  -6   5  -2   -0.13    0.48
  -6   5  -2    0.21    0.55
   6  -5   2    2.34    0.92
   6  -5   2    2.20    1.09
   6  -5   2   -0.78    0.95
  -7   5  -2    3.85    0.99
  -7   5  -2    2.42    1.00
   7  -5   2    4.66    1.45
   7  -5   2    5.21    1.31
   7  -5   2    4.48    1.55
  -8   5  -2    1.44    1.34
  -8   5  -2   -0.03    1.25
   8  -5   2   -0.51    1.76
   8  -5   2    2.87    1.47
   8   4  -2    2.19    1.29
   8   4  -2    0.00    2.22
  -8  -4   2    3.18    1.30
  -8  -4   2    3.98    1.25
  -8  -4   2    1.33    1.27
   7   4  -2    6.53    1.98
   7   4  -2    3.67    1.09
  -7  -4   2    3.89    0.99
  -7  -4   2    3.48    1.03
   6   4  -2    4.89    1.00
   6   4  -2    6.55    1.34
  -6  -4   2    5.06    0.83
  -6  -4   2    4.19    0.80
   5   4  -2   -0.44    0.72
   5   4  -2    0.90    0.56
  -5  -4   2    0.92    0.52
  -5  -4   2    0.40    0.45
   4   4  -2   14.19    1.15
   4   4  -2   12.33    0.83
   4   4  -2   12.61    1.04
   3   4  -2   61.43    2.23
   3   4  -2   58.80    1.82
   3   4  -2   62.75    1.71
   3   4  -2   59.87    2.10
   3   4  -2   60.11    1.94
  -3  -4   2   60.63    1.73
  -3  -4   2   59.53    1.97
  -3  -4   2   59.80    2.02
   2   4  -2  110.58    3.35
   2   4  -2  109.24    3.10
   2   4  -2  116.32    3.08
   2   4  -2  107.34    3.18
  -2  -4   2  107.50    3.21
  -2  -4   2  107.65    3.30
  -2  -4   2  108.37    3.06
   1   4  -2  334.57    8.88
   1   4  -2  326.11    8.89
   1   4  -2  325.56    8.92
  -1  -4   2  321.46    8.95
  -1  -4   2  324.93    8.94
  -1  -4   2  328.01    8.93
   0   4  -2  119.51    3.38
   0   4  -2  117.83    3.36
   0   4  -2  122.72    3.49
   0  -4   2  120.28    3.34
   0  -4   2  116.91    3.45
   0  -4   2  118.82    3.36
   0  -4   2  118.78    3.42
   0  -4   2  119.81    3.31
  -1   4  -2   30.42    1.06
  -1   4  -2   30.66    0.93
  -1   4  -2   30.19    0.98
   1  -4   2   31.77    0.99
   1  -4   2   31.39    1.21
   1  -4   2   31.51    1.06
   1  -4   2   30.62    1.13
   1  -4   2   32.62    1.24
   1  -4   2   31.96    0.91
  -2   4  -2   83.08    2.31
  -2   4  -2   79.89    2.50
  -2   4  -2   82.40    2.43
  -2   4  -2   79.37    2.45
  -2   4  -2   80.68    2.28
   2  -4   2   78.39    2.65
   2  -4   2   79.62    2.51
   2  -4   2   82.88    2.30
   2  -4   2   84.63    2.54
   2  -4   2   82.42    2.70
   2  -4   2   78.78    2.61
  -3   4  -2    0.97    0.17
  -3   4  -2    0.79    0.35
  -3   4  -2    0.71    0.28
   3  -4   2    0.38    0.59
   3  -4   2    0.92    0.37
   3  -4   2    1.45    0.56
   3  -4   2    0.66    0.47
  -4   4  -2   31.01    1.28
  -4   4  -2   30.22    0.95
  -4   4  -2   29.74    1.15
   4  -4   2   30.74    1.67
   4  -4   2   30.86    1.62
   4  -4   2   30.39    1.49
  -5   4  -2   51.27    1.88
  -5   4  -2   52.26    1.80
  -5   4  -2   49.66    1.47
   5  -4   2   52.28    2.33
   5  -4   2   50.12    2.18
   5  -4   2   49.68    2.30
  -6   4  -2   27.33    1.29
  -6   4  -2   30.92    1.45
  -6   4  -2   30.96    1.69
   6  -4   2   28.99    1.98
   6  -4   2   29.58    1.86
   6  -4   2   30.34    1.97
  -7   4  -2   15.98    1.71
  -7   4  -2   19.08    1.44
   7  -4   2   18.99    2.40
   7  -4   2   18.49    2.01
  -8   4  -2    4.24    1.37
  -8   4  -2    3.54    1.31
   8  -4   2    4.50    1.78
   8  -4   2    8.10    1.52
   8   3  -2    0.08    1.94
   8   3  -2    0.16    1.28
  -8  -3   2    1.05    1.06
  -8  -3   2    0.39    1.26
  -8  -3   2    1.37    1.17
   7   3  -2    4.29    1.82
   7   3  -2    3.85    1.54
  -7  -3   2    4.23    0.94
  -7  -3   2    4.47    0.89
   6   3  -2   15.12    1.66
   6   3  -2   13.22    1.29
  -6  -3   2   11.89    1.10
  -6  -3   2   12.49    1.11
   5   3  -2   27.84    1.66
   5   3  -2   28.84    1.54
  -5  -3   2   29.05    1.35
  -5  -3   2   28.37    1.40
  -5  -3   2   28.67    0.90
   4   3  -2   48.60    2.04
   4   3  -2   47.84    1.93
  -4  -3   2   46.65    1.35
  -4  -3   2   45.06    1.70
  -4  -3   2   47.26    1.66
  -4  -3   2   46.72    1.50
   3   3  -2  107.35    3.47
   3   3  -2  113.16    3.42
   3   3  -2  110.47    3.24
  -3  -3   2  110.31    3.28
  -3  -3   2  111.28    3.04
   2   3  -2   15.96    0.50
   2   3  -2   14.80    0.63
   2   3  -2   14.37    0.75
   2   3  -2   16.14    0.59
  -2  -3   2   15.57    0.53
  -2  -3   2   14.70    0.65
  -2  -3   2   15.12    0.63
   1   3  -2  150.00    4.16
   1   3  -2  148.94    4.26
   1   3  -2  146.94    4.18
   1   3  -2  157.90    4.14
   1   3  -2  145.49    4.19
  -1  -3   2  148.30    4.19
  -1  -3   2  155.01    4.15
  -1  -3   2  151.59    4.20
  -1  -3   2  150.70    4.19
   0   3  -2   52.73    1.58
   0   3  -2   50.77    1.52
   0   3  -2   47.83    1.51
   0   3  -2   49.73    1.49
   0   3  -2   52.22    1.46
   0   3  -2   50.28    1.48
   0   3  -2   50.87    1.50
   0  -3   2   49.77    1.54
   0  -3   2   51.73    1.47
   0  -3   2   49.83    1.45
   0  -3   2   49.94    1.62
   0  -3   2   46.80    1.47
   0  -3   2   49.53    1.52
   0  -3   2   49.35    1.47
  -1   3  -2  120.47    3.19
  -1   3  -2  115.34    3.19
  -1   3  -2  116.60    3.27
   1  -3   2  116.51    3.29
   1  -3   2  117.68    3.36
   1  -3   2  107.36    3.22
   1  -3   2  114.49    3.12
   1  -3   2  114.94    3.19
   1  -3   2  118.20    3.41
  -2   3  -2  257.60    6.86
  -2   3  -2  245.45    6.84
  -2   3  -2  243.40    6.78
  -2   3  -2  248.45    6.73
   2  -3   2  253.53    7.00
   2  -3   2  250.60    6.74
   2  -3   2  239.71    6.79
   2  -3   2  251.29    7.08
   2  -3   2  249.33    7.09
  -3   3  -2  117.24    3.47
  -3   3  -2  119.32    3.42
  -3   3  -2  115.65    3.47
  -3   3  -2  122.31    3.21
  -3   3  -2  120.42    3.25
   3  -3   2  117.88    3.51
   3  -3   2  115.47    3.73
   3  -3   2  117.08    3.63
   3  -3   2  118.85    3.76
  -4   3  -2  108.11    2.97
  -4   3  -2  111.22    3.00
  -4   3  -2  107.87    3.16
   4  -3   2  105.91    3.36
   4  -3   2  108.97    3.68
   4  -3   2  106.26    3.65
   4  -3   2  108.59    3.56
  -5   3  -2   34.78    1.23
  -5   3  -2   34.08    1.59
  -5   3  -2   33.70    1.40
   5  -3   2   33.74    1.71
   5  -3   2   34.02    1.83
   5  -3   2   33.12    1.53
   5  -3   2   32.88    1.80
  -6   3  -2    3.01    0.75
  -6   3  -2    3.26    0.65
  -6   3  -2    4.33    0.55
   6  -3   2    3.42    0.87
   6  -3   2    3.98    1.11
   6  -3   2    3.59    1.11
  -7   3  -2    1.01    0.94
  -7   3  -2    1.28    0.74
   7  -3   2    0.60    1.11
  -8   3  -2    0.95    1.18
  -8   3  -2    3.03    1.23
   8  -3   2    2.99    1.47
   8  -3   2    3.44    1.44
   9   2  -2    2.27    2.98
   9   2  -2    1.09    1.83
  -9  -2   2    1.41    1.55
  -9  -2   2    0.96    1.59
   8   2  -2    6.06    1.41
   8   2  -2    5.84    2.04
  -8  -2   2    3.16    1.28
  -8  -2   2    6.07    1.66
  -8  -2   2    4.10    1.09
   7   2  -2   10.61    1.77
   7   2  -2    7.55    1.28
  -7  -2   2    7.12    1.02
  -7  -2   2    8.48    1.03
   6   2  -2   16.62    1.40
   6   2  -2   21.77    1.77
  -6  -2   2   18.44    1.20
  -6  -2   2   19.69    1.23
   5   2  -2   19.56    1.21
   5   2  -2   19.95    1.41
  -5  -2   2   19.29    0.99
  -5  -2   2   19.35    1.12
  -5  -2   2   19.76    1.08
   4   2  -2    9.55    0.57
   4   2  -2    8.25    1.01
   4   2  -2    9.11    0.91
  -4  -2   2    9.34    0.64
  -4  -2   2    7.58    0.69
  -4  -2   2    8.71    0.42
  -4  -2   2    9.07    0.34
   3   2  -2    1.91    0.30
   3   2  -2    1.93    0.41
   3   2  -2    2.39    0.49
  -3  -2   2    1.85    0.27
  -3  -2   2    1.76    0.19
  -3  -2   2    2.38    0.32
  -3  -2   2    2.16    0.33
  -3  -2   2    1.75    0.18
   2   2  -2  227.40    6.41
   2   2  -2  227.43    6.42
   2   2  -2  242.05    6.43
   2   2  -2  237.60    6.53
   2   2  -2  230.36    6.56
   2   2  -2  240.17    6.39
  -2  -2   2  229.04    6.42
  -2  -2   2  233.94    6.59
  -2  -2   2  233.23    6.33
   1   2  -2   64.52    2.07
   1   2  -2   76.29    2.15
   1   2  -2   75.91    2.15
   1   2  -2   77.28    2.12
   1   2  -2   78.51    2.23
   1   2  -2   76.96    2.14
  -1  -2   2   73.87    2.14
  -1  -2   2   78.95    2.12
  -1  -2   2   73.79    2.11
  -1  -2   2   76.86    2.16
  -1  -2   2   74.84    2.14
  -1   2  -2   61.63    1.83
  -1   2  -2   57.07    1.88
  -1   2  -2   57.40    1.76
  -1   2  -2   58.53    1.72
  -1   2  -2   60.98    1.67
  -1   2  -2   58.58    1.87
  -1   2  -2   56.33    1.77
  -1   2  -2   62.10    1.92
  -1   2  -2   58.47    1.81
   1  -2   2   61.13    1.74
   1  -2   2   60.36    1.66
   1  -2   2   61.78    1.62
   1  -2   2   60.54    1.84
   1  -2   2   59.79    1.79
   1  -2   2   59.51    1.74
  -2   2  -2   52.57    1.43
  -2   2  -2   52.34    1.54
  -2   2  -2   52.49    1.59
  -2   2  -2   52.60    1.43
  -2   2  -2   51.35    1.51
   2  -2   2   51.63    1.57
   2  -2   2   49.17    1.73
   2  -2   2   50.97    1.77
   2  -2   2   50.82    1.55
   2  -2   2   52.41    1.43
   2  -2   2   50.25    1.70
  -3   2  -2  135.62    3.68
  -3   2  -2  128.10    3.51
  -3   2  -2  127.85    3.44
  -3   2  -2  128.18    3.59
  -3   2  -2  124.78    3.67
   3  -2   2  129.37    3.72
   3  -2   2  122.01    3.92
   3  -2   2  125.78    3.88
   3  -2   2  123.85    3.94
  -4   2  -2   -0.47    0.45
  -4   2  -2    0.24    0.21
  -4   2  -2    0.13    0.33
   4  -2   2    0.48    0.37
   4  -2   2    0.48    0.69
   4  -2   2    0.06    0.47
   4  -2   2    0.42    0.57
  -5   2  -2   12.71    1.04
  -5   2  -2   11.92    0.86
   5  -2   2   11.59    1.18
   5  -2   2   11.77    0.93
   5  -2   2   14.90    1.17
  -6   2  -2   29.03    1.67
  -6   2  -2   26.39    1.36
   6  -2   2   26.61    1.72
   6  -2   2   27.75    1.79
   6  -2   2   28.60    1.79
  -7   2  -2   13.32    1.56
  -7   2  -2   13.96    1.30
   7  -2   2   10.09    1.97
  -8   2  -2    8.46    1.48
  -8   2  -2    6.65    1.41
   8  -2   2    6.28    1.49
   8  -2   2    7.24    1.60
   9   1  -2    0.07    1.72
   9   1  -2    4.46    2.67
  -9  -1   2   -0.40    1.29
  -9  -1   2    1.47    1.39
   8   1  -2    1.27    1.12
   8   1  -2   -0.93    2.42
  -8  -1   2    1.87    1.03
  -8  -1   2    4.42    1.19
  -8  -1   2    1.99    1.02
   7   1  -2    1.43    1.13
   7   1  -2    1.87    0.94
  -7  -1   2    0.66    0.70
  -7  -1   2   -0.24    0.64
   6   1  -2    9.15    1.11
   6   1  -2   11.01    1.32
  -6  -1   2    9.75    1.01
  -6  -1   2    9.04    0.63
  -6  -1   2   10.83    0.95
   5   1  -2   29.98    1.51
   5   1  -2   29.81    1.33
   5   1  -2   30.23    1.70
  -5  -1   2   31.53    1.33
  -5  -1   2   30.15    0.95
  -5  -1   2   29.25    1.04
  -5  -1   2   31.27    1.02
  -5  -1   2   31.59    1.33
   4   1  -2  115.32    3.72
   4   1  -2  113.81    3.48
   4   1  -2  116.49    3.56
   4   1  -2  107.42    3.77
  -4  -1   2  117.37    3.21
  -4  -1   2  115.44    3.42
  -4  -1   2  111.28    3.26
  -4  -1   2  118.21    3.40
   3   1  -2   11.43    0.63
   3   1  -2   13.26    0.78
   3   1  -2   12.48    0.75
   3   1  -2   11.99    0.66
   3   1  -2   12.10    0.68
  -3  -1   2   12.09    0.54
  -3  -1   2   12.50    0.57
  -3  -1   2   13.14    0.44
  -3  -1   2   12.51    0.58
   2   1  -2  779.87   20.85
   2   1  -2  749.31   20.74
   2   1  -2  777.06   20.91
  -2  -1   2  772.61   20.74
  -2  -1   2  779.14   20.80
  -2  -1   2  748.23   20.83
  -2  -1   2  792.39   20.78
   1   1  -2  109.76    3.06
   1   1  -2  112.80    3.12
   1   1  -2  115.73    3.08
   1   1  -2  110.84    3.01
   1   1  -2  108.78    3.12
   1   1  -2  110.42    3.15
   1   1  -2  108.78    3.01
   1   1  -2  113.00    3.01
  -1  -1   2  110.13    3.13
  -1  -1   2  113.78    3.08
  -1  -1   2  112.96    3.09
  -1  -1   2  107.03    3.01
  -1  -1   2  111.19    3.07
  -1  -1   2  108.51    3.05
  -1  -1   2  109.70    3.00
   0   1  -2   49.72    1.49
   0   1  -2   52.21    1.47
   0   1  -2   52.02    1.48
   0   1  -2   52.33    1.47
   0   1  -2   49.55    1.46
   0   1  -2   49.67    1.47
   0  -1   2   50.55    1.46
   0  -1   2   51.03    1.45
   0  -1   2   50.65    1.47
   0  -1   2   50.17    1.47
   0  -1   2   50.47    1.45
   0  -1   2   52.10    1.47
   0  -1   2   51.98    1.46
   0  -1   2   52.88    1.47
   0  -1   2   52.73    1.49
  -1   1  -2   -0.11    0.12
  -1   1  -2   -0.12    0.14
  -1   1  -2   -0.04    0.12
  -1   1  -2   -0.14    0.20
  -1   1  -2   -0.13    0.06
  -1   1  -2   -0.03    0.11
  -1   1  -2    0.19    0.31
   1  -1   2   -0.09    0.12
   1  -1   2   -0.30    0.07
   1  -1   2   -0.14    0.16
   1  -1   2    0.01    0.11
   1  -1   2   -0.04    0.07
   1  -1   2   -0.03    0.18
   1  -1   2   -0.13    0.04
   1  -1   2   -0.04    0.13
   1  -1   2   -0.09    0.19
  -2   1  -2  346.52    9.15
  -2   1  -2  343.74    9.26
  -2   1  -2  340.82    9.17
   2  -1   2  340.27    9.18
   2  -1   2  332.05    9.17
   2  -1   2  335.26    9.41
   2  -1   2  334.17    9.41
   2  -1   2  349.38    9.24
   2  -1   2  329.14    9.38
  -3   1  -2   16.27    0.84
  -3   1  -2   17.03    0.59
  -3   1  -2   16.96    0.81
   3  -1   2   14.96    0.91
   3  -1   2   16.25    0.92
   3  -1   2   17.19    0.76
   3  -1   2   16.35    0.58
   3  -1   2   15.49    0.93
  -4   1  -2   63.95    1.89
  -4   1  -2   67.85    2.32
  -4   1  -2   64.89    2.08
   4  -1   2   60.81    2.40
   4  -1   2   65.48    2.20
   4  -1   2   64.67    2.41
  -5   1  -2   61.31    2.12
  -5   1  -2   60.83    1.79
  -5   1  -2   63.18    2.35
   5  -1   2   57.74    2.43
   5  -1   2   60.56    2.44
   5  -1   2   58.46    2.27
  -6   1  -2   27.07    1.59
  -6   1  -2   25.46    1.40
   6  -1   2   26.38    1.76
   6  -1   2   30.29    1.81
   6  -1   2   24.54    1.73
  -7   1  -2    3.79    1.08
  -7   1  -2    4.82    0.98
  -7   1  -2    5.19    1.11
   7  -1   2    5.58    1.40
   7  -1   2    3.90    2.00
  -8   1  -2    0.04    1.20
  -8   1  -2   -1.57    1.20
   8  -1   2    1.29    1.34
   9   0  -2    0.30    1.47
  -9   0   2    0.50    1.29
  -9   0   2   -0.60    1.21
   8   0  -2    7.09    1.76
   8   0  -2    6.15    1.27
  -8   0   2    3.38    1.12
  -8   0   2    3.17    1.34
   7   0  -2   12.17    1.74
   7   0  -2   11.99    1.47
  -7   0   2   11.11    1.18
  -7   0   2   11.73    1.22
   6   0  -2   36.19    1.97
   6   0  -2   33.76    1.73
   6   0  -2   33.45    1.77
   6   0  -2   33.55    1.81
  -6   0   2   32.53    1.22
  -6   0   2   33.13    1.09
  -6   0   2   33.51    1.57
  -6   0   2   31.59    1.49
   5   0  -2   52.14    2.28
   5   0  -2   51.84    2.06
   5   0  -2   51.44    2.13
   5   0  -2   50.02    2.05
   5   0  -2   54.37    2.14
  -5   0   2   53.14    1.89
  -5   0   2   52.88    1.65
  -5   0   2   52.71    1.61
  -5   0   2   53.64    1.88
   4   0  -2  105.40    3.49
   4   0  -2  104.62    3.38
   4   0  -2  106.60    3.36
   4   0  -2  108.11    3.41
   4   0  -2  107.94    3.36
  -4   0   2  107.38    3.04
  -4   0   2  106.53    3.31
  -4   0   2  109.33    3.18
   3   0  -2    8.07    0.57
   3   0  -2    8.58    0.63
   3   0  -2    8.93    0.66
   3   0  -2    9.44    0.58
   3   0  -2    7.85    0.77
  -3   0   2    9.39    0.49
  -3   0   2    9.40    0.39
  -3   0   2    9.53    0.46
   2   0  -2    0.10    0.17
   2   0  -2   -0.03    0.22
   2   0  -2   -0.15    0.19
   2   0  -2   -0.12    0.15
  -2   0   2   -0.24    0.19
  -2   0   2   -0.07    0.10
  -2   0   2   -0.09    0.13
  -2   0   2    0.07    0.18
  -2   0   2   -0.20    0.18
  -2   0   2   -0.01    0.11
  -2   0   2   -0.39    0.19
   1   0  -2  126.96    3.48
   1   0  -2  124.13    3.46
   1   0  -2  124.01    3.50
   1   0  -2  126.60    3.60
   1   0  -2  127.70    3.44
   1   0  -2  127.18    3.60
   1   0  -2  126.31    3.49
  -1   0   2  128.68    3.48
  -1   0   2  125.09    3.41
  -1   0   2  127.63    3.59
  -1   0   2  124.26    3.51
  -1   0   2  131.11    3.60
  -1   0   2  132.30    3.55
  -1   0   2  128.78    3.49
  -1   0   2  126.98    3.47
  -1   0   2  129.75    3.49
  -1   0   2  122.65    3.44
  -1   0   2  121.93    3.49
   0   0  -2  110.02    3.07
   0   0  -2  111.44    3.08
   0   0  -2  111.53    3.06
   0   0  -2  113.49    3.04
   0   0  -2  107.73    3.12
   0   0  -2  111.61    3.07
   0   0  -2  113.04    3.12
   0   0   2  114.58    3.06
   0   0   2  113.04    3.12
   0   0   2  109.34    3.04
   0   0   2  115.05    3.12
   0   0   2  108.46    3.07
   0   0   2  104.17    3.08
   0   0   2  117.09    3.12
  -1   0  -2  203.66    5.71
  -1   0  -2  214.84    5.73
  -1   0  -2  196.78    5.64
  -1   0  -2  205.15    5.60
  -1   0  -2  207.36    5.63
  -1   0  -2  205.91    5.69
  -1   0  -2  202.53    5.69
   1   0   2  202.21    5.62
   1   0   2  218.67    5.70
   1   0   2  206.75    5.69
   1   0   2  204.48    5.72
   1   0   2  217.58    5.69
   1   0   2  203.35    5.72
   1   0   2  203.61    5.67
  -2   0  -2  249.17    6.53
  -2   0  -2  248.22    6.73
  -2   0  -2  238.65    6.61
  -2   0  -2  257.28    6.67
  -2   0  -2  245.08    6.81
   2   0   2  236.64    6.84
   2   0   2  242.75    6.59
   2   0   2  243.93    6.72
   2   0   2  234.92    6.68
   2   0   2  241.15    6.85
  -3   0  -2   66.01    1.88
  -3   0  -2   67.26    2.21
  -3   0  -2   69.66    1.81
  -3   0  -2   65.38    2.07
   3   0   2   67.18    2.13
   3   0   2   64.77    2.26
   3   0   2   65.42    2.28
   3   0   2   65.95    1.87
  -4   0  -2   47.90    1.41
  -4   0  -2   48.15    1.68
  -4   0  -2   48.49    1.91
   4   0   2   48.35    2.00
   4   0   2   49.47    1.82
   4   0   2   49.69    2.04
  -5   0  -2    0.43    0.56
  -5   0  -2    0.74    0.58
   5   0   2   -0.28    0.58
   5   0   2    0.09    0.60
   5   0   2    0.64    0.64
  -6   0  -2    1.47    0.75
  -6   0  -2    1.05    0.66
  -6   0  -2    1.27    0.68
   6   0   2    2.41    0.90
   6   0   2    2.46    0.89
   6   0   2    1.97    0.89
  -7   0  -2    2.78    1.56
  -7   0  -2    4.42    0.96
   7   0   2    3.37    1.28
   7   0   2    4.82    1.23
  -8   0  -2    3.58    1.35
  -8   0  -2    6.51    1.46
   8   0   2    3.94    1.58
   9  -1  -2    3.36    1.51
  -9   1   2    4.23    1.20
  -9   1   2    2.71    1.35
   8  -1  -2    6.27    1.34
   8  -1  -2    8.80    1.89
  -8   1   2    8.53    1.23
  -8   1   2    7.34    1.19
  -8   1   2    4.98    1.74
   7  -1  -2    8.10    1.28
   7  -1  -2    7.93    1.24
   7  -1  -2    5.66    1.24
  -7   1   2    5.82    0.85
  -7   1   2    5.59    0.85
  -7   1   2    6.83    0.96
  -7   1   2    6.92    0.82
   6  -1  -2    1.86    0.78
   6  -1  -2    1.87    0.78
   6  -1  -2    2.89    0.76
   6  -1  -2    2.38    0.70
   6  -1  -2    2.44    0.88
  -6   1   2    2.38    0.36
  -6   1   2    1.86    0.35
  -6   1   2    1.81    0.44
  -6   1   2    1.64    0.51
  -6   1   2    1.81    0.63
   5  -1  -2    7.81    1.03
   5  -1  -2    6.54    1.02
   5  -1  -2    6.31    0.88
   5  -1  -2    5.95    0.87
  -5   1   2    6.06    0.46
  -5   1   2    5.19    0.68
  -5   1   2    5.76    0.48
  -5   1   2    6.17    0.79
   4  -1  -2   33.61    1.41
   4  -1  -2   33.25    1.40
   4  -1  -2   33.33    1.45
   4  -1  -2   33.26    1.51
   4  -1  -2   32.39    1.54
  -4   1   2   34.73    1.15
  -4   1   2   33.65    1.20
  -4   1   2   33.41    1.33
   3  -1  -2   84.75    2.76
   3  -1  -2   82.88    2.78
   3  -1  -2   85.85    2.61
   3  -1  -2   84.02    2.69
   3  -1  -2   87.70    2.64
   2  -1  -2  108.13    3.21
   2  -1  -2  107.79    3.29
   2  -1  -2  109.23    3.31
   2  -1  -2  111.27    3.13
   2  -1  -2  109.23    3.15
  -2   1   2  106.40    3.06
  -2   1   2  109.66    3.13
  -2   1   2  112.73    3.14
  -2   1   2  109.96    3.20
  -2   1   2  108.67    3.04
   0  -1  -2   52.54    1.47
   0  -1  -2   50.88    1.45
   0  -1  -2   51.89    1.50
   0  -1  -2   51.12    1.48
   0  -1  -2   51.80    1.56
   0   1   2   51.35    1.50
   0   1   2   50.15    1.46
   0   1   2   53.63    1.55
   0   1   2   48.89    1.45
   0   1   2   51.03    1.48
   0   1   2   52.63    1.49
  -1  -1  -2   35.55    1.17
  -1  -1  -2   36.26    1.21
  -1  -1  -2   34.82    1.18
  -1  -1  -2   38.47    1.04
  -1  -1  -2   35.64    1.15
   1   1   2   34.63    1.12
   1   1   2   37.11    1.11
   1   1   2   35.24    1.19
   1   1   2   36.50    1.04
   1   1   2   36.01    1.18
  -2  -1  -2    0.25    0.23
  -2  -1  -2    0.68    0.09
  -2  -1  -2    0.74    0.28
   2   1   2    0.35    0.27
   2   1   2    0.51    0.11
   2   1   2    0.52    0.09
   2   1   2    0.59    0.18
   2   1   2    0.42    0.23
  -3  -1  -2   42.06    1.49
  -3  -1  -2   43.54    1.20
  -3  -1  -2   42.05    1.59
   3   1   2   40.75    1.63
   3   1   2   43.45    1.54
   3   1   2   40.38    1.43
   3   1   2   39.75    1.63
   3   1   2   43.35    1.26
  -4  -1  -2    1.54    0.53
  -4  -1  -2    1.11    0.42
  -4  -1  -2    1.32    0.15
   4   1   2    1.58    0.49
   4   1   2    2.24    0.72
   4   1   2    0.86    0.56
  -5  -1  -2   43.81    1.83
  -5  -1  -2   42.23    1.89
   5   1   2   41.90    1.96
   5   1   2   41.59    2.00
   5   1   2   43.71    2.10
  -6  -1  -2   18.49    1.51
  -6  -1  -2   16.07    1.32
  -6  -1  -2   18.69    1.32
   6   1   2   17.25    1.57
   6   1   2   17.68    1.58
  -7  -1  -2   10.23    1.31
  -7  -1  -2    8.89    1.45
   7   1   2    9.71    1.50
   7   1   2   10.05    1.49
  -8  -1  -2    1.71    1.30
  -8  -1  -2    1.82    1.39
   8   1   2   -2.14    1.43
   9  -2  -2    3.40    1.52
  -9   2   2   -2.76    1.73
   8  -2  -2    0.29    1.15
   8  -2  -2   -1.16    1.56
   8  -2  -2    1.29    1.14
  -8   2   2    2.16    0.98
  -8   2   2    1.49    1.06
  -8   2   2    0.71    0.83
   7  -2  -2    7.92    1.44
   7  -2  -2   10.70    1.36
   7  -2  -2   10.24    1.51
   7  -2  -2   11.18    1.58
   7  -2  -2    8.99    1.32
  -7   2   2    8.65    0.91
  -7   2   2    7.02    0.90
  -7   2   2    9.76    1.05
  -7   2   2    7.43    0.96
  -7   2   2    8.56    0.99
   6  -2  -2   32.50    1.71
   6  -2  -2   32.90    1.85
   6  -2  -2   32.51    1.71
   6  -2  -2   28.88    1.72
   6  -2  -2   29.88    1.88
  -6   2   2   29.69    1.57
  -6   2   2   30.39    1.41
  -6   2   2   31.61    1.39
  -6   2   2   31.69    1.27
  -6   2   2   31.68    1.31
  -6   2   2   31.13    1.34
  -6   2   2   30.86    1.16
   5  -2  -2  104.13    3.78
   5  -2  -2  104.65    3.73
   5  -2  -2  105.03    3.67
   5  -2  -2  111.77    3.57
   5  -2  -2  107.06    3.60
  -5   2   2  109.02    3.19
  -5   2   2  104.96    3.35
  -5   2   2  110.64    3.22
  -5   2   2  110.01    3.24
  -5   2   2  108.34    3.14
  -5   2   2  110.71    3.25
   4  -2  -2   87.97    3.08
   4  -2  -2   90.09    3.05
   4  -2  -2   87.79    2.93
   4  -2  -2   89.14    3.11
   4  -2  -2   89.33    2.87
  -4   2   2   92.86    2.62
  -4   2   2   90.92    2.64
  -4   2   2   88.85    2.71
   3  -2  -2  108.96    3.55
   3  -2  -2  108.74    3.29
   3  -2  -2  113.23    3.58
   3  -2  -2  109.71    3.38
   3  -2  -2  114.62    3.68
  -3   2   2  112.61    3.14
  -3   2   2  112.30    3.17
  -3   2   2  113.79    3.18
   2  -2  -2    6.64    0.45
   2  -2  -2    7.79    0.38
   2  -2  -2    6.79    0.53
   2  -2  -2    6.90    0.35
   2  -2  -2    7.64    0.62
   2  -2  -2    7.59    0.62
  -2   2   2    8.16    0.43
  -2   2   2    8.14    0.30
  -2   2   2    8.31    0.38
  -2   2   2    7.51    0.37
  -2   2   2    7.56    0.38
  -2   2   2    7.91    0.37
  -2   2   2    7.45    0.29
   1  -2  -2  370.35    9.99
   1  -2  -2  367.19   10.08
   1  -2  -2  364.30    9.86
   1  -2  -2  365.20    9.87
  -1   2   2  372.40    9.85
  -1   2   2  349.67    9.79
  -1   2   2  341.99    9.86
  -1   2   2  380.59    9.85
   0  -2  -2   77.63    2.16
   0  -2  -2   74.27    2.15
   0  -2  -2   76.69    2.23
   0  -2  -2   77.52    2.29
   0  -2  -2   76.39    2.33
   0  -2  -2   75.66    2.15
   0  -2  -2   77.66    2.12
   0   2   2   74.97    2.16
   0   2   2   73.35    2.17
   0   2   2   78.03    2.20
   0   2   2   77.17    2.32
   0   2   2   76.93    2.21
   0   2   2   77.22    2.22
  -1  -2  -2  209.60    5.57
  -1  -2  -2  211.41    5.74
  -1  -2  -2  209.19    5.75
  -1  -2  -2  204.63    5.66
  -1  -2  -2  201.17    5.66
   1   2   2  201.01    5.58
   1   2   2  199.16    5.67
   1   2   2  200.79    5.69
  -2  -2  -2  154.10    4.37
  -2  -2  -2  149.41    4.39
  -2  -2  -2  154.71    4.17
  -2  -2  -2  153.61    4.43
   2   2   2  156.82    4.21
   2   2   2  153.53    4.16
   2   2   2  143.75    4.34
   2   2   2  150.95    4.43
  -3  -2  -2  223.63    6.45
  -3  -2  -2  226.91    6.52
  -3  -2  -2  221.62    6.57
   3   2   2  232.79    6.55
   3   2   2  222.46    6.56
   3   2   2  228.47    6.21
   3   2   2  223.65    6.41
  -4  -2  -2    3.21    0.64
  -4  -2  -2    3.04    0.54
  -4  -2  -2    3.48    0.67
   4   2   2    2.86    0.69
   4   2   2    1.99    0.65
  -5  -2  -2   29.59    1.65
  -5  -2  -2   32.53    1.56
   5   2   2   33.16    1.83
   5   2   2   32.62    1.76
  -6  -2  -2    0.56    0.76
  -6  -2  -2    1.63    0.75
  -6  -2  -2    1.59    0.86
   6   2   2    1.47    0.88
   6   2   2    1.85    1.00
  -7  -2  -2    0.22    1.04
  -7  -2  -2    1.59    0.98
   7   2   2    0.57    1.52
   7   2   2    0.13    1.09
  -8  -2  -2    0.65    1.38
  -8  -2  -2   -0.01    1.47
   8   2   2   -0.29    1.54
   9  -3  -2    4.15    1.68
   9  -3  -2    5.96    1.63
   8  -3  -2    4.28    1.37
   8  -3  -2    8.76    1.35
   8  -3  -2    7.19    1.87
  -8   3   2    7.49    1.26
  -8   3   2    6.16    1.09
   7  -3  -2   16.83    1.85
   7  -3  -2   17.02    1.84
   7  -3  -2   17.85    1.60
   7  -3  -2   19.15    1.94
   7  -3  -2   18.93    1.85
  -7   3   2   18.47    1.18
  -7   3   2   18.70    1.20
  -7   3   2   18.95    1.44
  -7   3   2   15.16    1.02
  -7   3   2   17.83    1.11
  -7   3   2   17.08    1.18
   6  -3  -2    5.58    1.14
   6  -3  -2    7.40    1.18
   6  -3  -2    5.36    1.09
   6  -3  -2    4.94    0.99
   6  -3  -2    6.63    0.92
  -6   3   2    5.87    0.71
  -6   3   2    4.52    0.77
  -6   3   2    4.87    0.67
  -6   3   2    5.66    0.67
  -6   3   2    5.40    0.60
  -6   3   2    4.45    0.76
  -6   3   2    4.70    0.55
   5  -3  -2    8.97    0.98
   5  -3  -2    6.75    0.95
   5  -3  -2    7.68    1.06
   5  -3  -2    7.49    1.03
   5  -3  -2    5.97    1.10
  -5   3   2    7.05    0.52
  -5   3   2    8.03    0.53
  -5   3   2    6.94    0.53
  -5   3   2    8.00    0.74
   4  -3  -2    3.14    0.60
   4  -3  -2    2.57    0.73
   4  -3  -2    3.03    0.87
   4  -3  -2    3.15    0.47
   4  -3  -2    3.44    0.88
  -4   3   2    3.30    0.36
  -4   3   2    3.37    0.45
  -4   3   2    2.88    0.34
  -4   3   2    2.43    0.30
   3  -3  -2    5.77    0.42
   3  -3  -2    5.94    0.76
   3  -3  -2    5.97    0.81
   3  -3  -2    6.36    0.71
  -3   3   2    5.81    0.34
  -3   3   2    5.78    0.28
  -3   3   2    5.21    0.38
  -3   3   2    5.87    0.37
   2  -3  -2  157.28    4.50
   2  -3  -2  152.31    4.51
   2  -3  -2  155.68    4.64
  -2   3   2  158.81    4.26
  -2   3   2  154.17    4.37
  -2   3   2  160.08    4.35
  -2   3   2  159.92    4.38
  -2   3   2  158.63    4.25
   1  -3  -2  262.40    7.34
   1  -3  -2  252.88    7.09
   1  -3  -2  244.61    6.98
   1  -3  -2  261.75    6.96
   1  -3  -2  257.76    7.24
  -1   3   2  262.72    6.96
  -1   3   2  253.67    7.05
  -1   3   2  272.28    7.03
  -1   3   2  254.02    7.06
   0  -3  -2  144.70    3.98
   0  -3  -2  143.33    4.04
   0  -3  -2  145.57    4.14
   0  -3  -2  144.78    4.03
   0  -3  -2  146.25    4.20
   0  -3  -2  144.50    4.24
   0   3   2  148.33    4.11
   0   3   2  148.83    4.06
   0   3   2  148.00    3.99
  -1  -3  -2  187.71    5.27
  -1  -3  -2  192.71    5.32
  -1  -3  -2  185.94    5.23
  -1  -3  -2  189.66    5.33
   1   3   2  182.75    5.16
   1   3   2  184.89    5.24
  -2  -3  -2   21.18    0.98
  -2  -3  -2   20.87    0.91
  -2  -3  -2   23.19    0.96
   2   3   2   19.79    0.91
   2   3   2   23.04    0.74
   2   3   2   21.71    0.78
   2   3   2   21.70    0.69
  -3  -3  -2   27.03    1.25
  -3  -3  -2   26.33    1.19
  -3  -3  -2   28.58    1.36
   3   3   2   28.32    0.98
   3   3   2   25.85    1.25
   3   3   2   26.37    1.36
   3   3   2   27.34    1.33
  -4  -3  -2    5.26    0.72
  -4  -3  -2    5.11    0.77
  -4  -3  -2    5.63    0.71
   4   3   2    6.10    0.86
   4   3   2    5.27    0.46
   4   3   2    5.68    0.91
  -5  -3  -2    3.10    1.01
  -5  -3  -2    3.29    0.69
  -5  -3  -2    3.55    0.74
   5   3   2    4.43    0.93
   5   3   2    2.74    0.79
  -6  -3  -2    5.73    1.00
  -6  -3  -2    5.84    1.06
   6   3   2    6.39    1.21
   6   3   2    5.69    1.26
  -7  -3  -2    2.10    1.01
  -7  -3  -2    3.01    1.19
   7   3   2    2.70    1.85
   7   3   2    2.74    1.25
  -8  -3  -2    0.56    1.59
  -8  -3  -2    1.42    1.48
   8   3   2    2.09    1.83
   9  -4  -2   -1.24    1.74
   9  -4  -2    1.64    1.41
   8  -4  -2    2.02    1.12
   8  -4  -2    0.04    1.29
   8  -4  -2    1.58    1.37
  -8   4   2   -0.07    1.20
   7  -4  -2   -0.72    1.03
   7  -4  -2    0.34    1.22
   7  -4  -2    0.32    1.02
   7  -4  -2   -0.59    1.20
   7  -4  -2    1.46    0.84
  -7   4   2    1.04    0.64
  -7   4   2    0.37    0.64
  -7   4   2    0.43    0.61
  -7   4   2    0.22    0.77
  -7   4   2   -0.27    0.64
   6  -4  -2   29.37    2.01
   6  -4  -2   26.26    1.80
   6  -4  -2   34.51    2.08
   6  -4  -2   31.17    1.62
   6  -4  -2   32.99    1.89
  -6   4   2   30.19    1.48
  -6   4   2   29.35    1.18
  -6   4   2   28.42    1.16
  -6   4   2   30.62    1.43
  -6   4   2   29.83    1.18
   5  -4  -2   36.15    1.65
   5  -4  -2   34.88    2.00
   5  -4  -2   35.68    1.78
   5  -4  -2   34.56    1.88
   5  -4  -2   33.43    1.82
  -5   4   2   35.28    1.22
  -5   4   2   35.58    1.44
  -5   4   2   34.53    1.16
  -5   4   2   32.04    1.41
   4  -4  -2  119.11    4.12
   4  -4  -2  115.87    3.85
   4  -4  -2  116.40    3.98
   4  -4  -2  119.16    3.58
  -4   4   2  119.56    3.42
  -4   4   2  118.58    3.28
  -4   4   2  114.86    3.29
  -4   4   2  120.08    3.60
  -4   4   2  118.87    3.40
   3  -4  -2  117.22    3.43
   3  -4  -2  110.72    3.67
   3  -4  -2  117.42    3.85
   3  -4  -2  116.90    3.93
  -3   4   2  122.38    3.30
  -3   4   2  118.29    3.38
  -3   4   2  121.35    3.41
  -3   4   2  122.74    3.22
   2  -4  -2    8.81    0.84
   2  -4  -2    8.53    0.36
   2  -4  -2    8.22    0.73
   2  -4  -2    9.26    0.40
   2  -4  -2    8.25    0.54
   2  -4  -2    8.45    0.62
  -2   4   2    9.71    0.49
  -2   4   2    8.95    0.46
  -2   4   2    8.64    0.34
   1  -4  -2  197.18    5.29
   1  -4  -2  196.48    5.28
   1  -4  -2  193.24    5.45
   1  -4  -2  195.65    5.70
   1  -4  -2  184.84    5.60
  -1   4   2  198.94    5.40
  -1   4   2  199.13    5.29
  -1   4   2  183.12    5.36
   0  -4  -2   71.60    1.97
   0  -4  -2   67.03    2.35
   0  -4  -2   69.02    2.29
   0  -4  -2   71.47    2.19
   0  -4  -2   71.33    2.06
   0   4   2   68.76    2.08
   0   4   2   71.20    2.16
  -1  -4  -2   26.86    1.09
  -1  -4  -2   23.99    1.05
  -1  -4  -2   24.59    1.01
  -1  -4  -2   25.53    1.06
   1   4   2   24.76    0.90
   1   4   2   25.01    1.02
   1   4   2   25.76    0.93
  -2  -4  -2   57.87    2.22
  -2  -4  -2   55.03    1.91
  -2  -4  -2   56.82    1.95
  -2  -4  -2   60.07    1.88
   2   4   2   59.93    1.80
   2   4   2   56.49    1.67
   2   4   2   55.63    2.08
   2   4   2   57.37    1.95
  -3  -4  -2   73.44    2.40
  -3  -4  -2   83.42    2.77
  -3  -4  -2   81.11    2.65
  -3  -4  -2   81.49    2.67
   3   4   2   79.75    2.68
   3   4   2   79.86    2.44
  -4  -4  -2   25.24    1.31
  -4  -4  -2   24.94    1.29
  -4  -4  -2   25.38    1.44
   4   4   2   26.32    1.51
   4   4   2   24.05    1.07
   4   4   2   26.37    1.58
  -5  -4  -2    7.73    1.05
  -5  -4  -2    7.72    0.96
  -5  -4  -2    8.15    1.02
   5   4   2    5.64    1.17
   5   4   2   10.01    1.21
  -6  -4  -2   11.13    1.38
  -6  -4  -2   14.37    2.25
   6   4   2   13.00    1.63
   6   4   2   14.50    1.91
  -7  -4  -2    0.34    1.26
  -7  -4  -2    1.65    1.04
   7   4   2    0.68    2.07
   7   4   2    3.34    1.41
   9  -5  -2    0.88    2.05
   9  -5  -2    1.11    2.24
   9  -5  -2   -0.45    1.51
   8  -5  -2    9.01    1.83
   8  -5  -2    6.54    1.27
   8  -5  -2    9.33    1.63
  -8   5   2    3.31    1.39
  -8   5   2    7.06    1.19
   7  -5  -2    4.37    1.46
   7  -5  -2    4.70    1.53
   7  -5  -2    3.44    1.40
   7  -5  -2    4.98    0.99
  -7   5   2    4.16    0.73
  -7   5   2    2.85    0.89
  -7   5   2    4.36    0.66
  -7   5   2    4.32    0.86
  -7   5   2    3.41    0.80
   6  -5  -2   22.94    1.84
   6  -5  -2   26.17    2.05
   6  -5  -2   29.04    2.08
   6  -5  -2   27.30    1.50
  -6   5   2   22.81    1.01
  -6   5   2   25.64    1.10
  -6   5   2   24.60    1.35
  -6   5   2   26.70    1.37
   5  -5  -2   21.57    1.69
   5  -5  -2   21.33    1.58
   5  -5  -2   22.16    1.59
   5  -5  -2   22.75    1.31
  -5   5   2   21.58    0.96
  -5   5   2   19.92    0.85
  -5   5   2   20.20    0.72
  -5   5   2   21.27    1.17
   4  -5  -2   10.29    0.66
   4  -5  -2   10.17    1.16
   4  -5  -2   11.96    1.20
   4  -5  -2    9.42    1.17
  -4   5   2   11.17    0.67
  -4   5   2   10.75    0.83
   3  -5  -2   -0.15    0.17
   3  -5  -2    0.41    0.70
   3  -5  -2    0.53    0.79
   3  -5  -2    0.40    0.44
  -3   5   2    0.34    0.21
  -3   5   2   -0.07    0.29
  -3   5   2    0.50    0.43
   2  -5  -2   20.46    1.04
   2  -5  -2   21.61    0.64
   2  -5  -2   20.25    1.22
   2  -5  -2   20.08    0.93
   2  -5  -2   19.60    0.75
  -2   5   2   20.26    0.84
  -2   5   2   21.11    0.70
  -2   5   2   21.20    0.98
  -2   5   2   21.36    0.87
   1  -5  -2   59.70    2.21
   1  -5  -2   62.87    2.29
   1  -5  -2   60.26    2.04
   1  -5  -2   67.95    1.82
   1  -5  -2   65.14    1.86
  -1   5   2   62.38    2.02
  -1   5   2   62.39    1.95
  -1   5   2   63.67    1.97
   0  -5  -2   27.91    0.98
   0  -5  -2   28.79    0.86
   0  -5  -2   29.24    1.24
   0   5   2   27.24    1.04
   0   5   2   27.92    1.09
   0   5   2   27.29    1.03
  -1  -5  -2   50.40    1.75
  -1  -5  -2   50.64    1.68
  -1  -5  -2   48.74    1.81
  -1  -5  -2   52.17    1.93
   1   5   2   49.60    1.59
   1   5   2   50.07    1.78
   1   5   2   52.23    1.62
   1   5   2   50.19    1.64
  -2  -5  -2   54.36    1.90
  -2  -5  -2   54.04    2.01
  -2  -5  -2   53.30    1.77
  -2  -5  -2   55.90    1.94
   2   5   2   52.63    1.77
   2   5   2   50.42    1.61
   2   5   2   53.44    1.96
   2   5   2   55.16    1.88
  -3  -5  -2   22.54    1.40
  -3  -5  -2   22.46    1.14
  -3  -5  -2   20.61    0.87
  -3  -5  -2   20.24    1.13
   3   5   2   22.76    1.28
   3   5   2   20.14    0.99
   3   5   2   23.01    1.24
   3   5   2   20.54    0.67
  -4  -5  -2    6.24    0.87
  -4  -5  -2    8.40    0.91
  -4  -5  -2    6.25    1.08
   4   5   2    6.55    0.76
   4   5   2    6.20    0.92
   4   5   2    6.90    1.05
  -5  -5  -2    1.05    0.85
  -5  -5  -2    2.43    0.87
  -5  -5  -2    2.26    0.76
   5   5   2   -0.04    1.11
   5   5   2    3.14    0.92
   5   5   2    1.42    0.78
  -6  -5  -2    0.77    0.83
  -6  -5  -2    0.36    1.00
   6   5   2   -3.07    1.62
   6   5   2   -0.87    1.26
  -7  -5  -2   -0.29    1.34
  -7  -5  -2    0.16    1.18
   7   5   2    0.95    1.46
   7   5   2    0.41    2.49
   8  -6  -2    2.83    1.25
   8  -6  -2    1.12    1.58
   8  -6  -2    3.84    1.79
  -8   6   2    5.07    1.56
  -8   6   2    3.41    1.17
   7  -6  -2    2.10    1.45
   7  -6  -2   -0.29    1.39
   7  -6  -2    1.59    1.33
   7  -6  -2    2.13    0.86
  -7   6   2    1.00    0.65
  -7   6   2    2.10    0.90
  -7   6   2   -0.08    0.79
   6  -6  -2   -0.48    0.88
   6  -6  -2    0.91    1.10
   6  -6  -2    1.49    1.06
   6  -6  -2   -0.94    0.62
  -6   6   2    0.01    0.38
  -6   6   2   -0.31    0.55
  -6   6   2    1.03    0.62
   5  -6  -2   21.86    1.68
   5  -6  -2   17.87    1.73
   5  -6  -2   20.40    1.62
  -5   6   2   18.16    1.14
  -5   6   2   18.79    0.93
  -5   6   2   18.05    0.78
   4  -6  -2    8.80    1.15
   4  -6  -2   10.03    1.31
   4  -6  -2    9.73    1.23
  -4   6   2    9.52    0.53
  -4   6   2    9.74    0.69
  -4   6   2   11.74    0.87
   3  -6  -2   81.43    3.12
   3  -6  -2   85.09    3.24
   3  -6  -2   81.12    2.47
  -3   6   2   89.24    2.64
  -3   6   2   87.47    2.79
  -3   6   2   88.84    2.55
   2  -6  -2   72.28    2.31
   2  -6  -2   70.57    2.66
   2  -6  -2   79.36    2.85
   2  -6  -2   74.51    2.69
  -2   6   2   78.62    2.52
  -2   6   2   81.10    2.41
  -2   6   2   84.27    2.37
   1  -6  -2   34.24    1.13
   1  -6  -2   32.87    1.58
   1  -6  -2   35.25    1.04
   1  -6  -2   31.19    1.59
   1  -6  -2   30.60    1.80
  -1   6   2   33.20    1.40
  -1   6   2   35.79    1.26
  -1   6   2   33.71    1.24
   0  -6  -2   72.54    2.25
   0  -6  -2   76.25    2.51
   0  -6  -2   76.29    2.10
   0  -6  -2   72.38    2.55
   0   6   2   76.01    2.54
   0   6   2   74.44    2.31
   0   6   2   71.33    2.33
  -1  -6  -2    3.84    0.57
  -1  -6  -2    3.16    0.46
  -1  -6  -2    2.41    0.58
   1   6   2    2.91    0.54
   1   6   2    2.47    0.43
   1   6   2    3.01    0.41
  -2  -6  -2    0.20    0.46
  -2  -6  -2    0.18    0.44
  -2  -6  -2   -0.18    0.33
   2   6   2   -0.03    0.37
   2   6   2    0.45    0.49
   2   6   2   -0.12    0.33
   2   6   2    0.37    0.20
  -3  -6  -2   10.36    1.10
  -3  -6  -2   10.96    0.91
  -3  -6  -2    9.06    1.07
   3   6   2    9.99    1.00
   3   6   2   11.58    0.86
   3   6   2    9.64    0.54
   3   6   2   10.77    1.05
  -4  -6  -2    9.95    1.15
  -4  -6  -2    9.23    1.17
  -4  -6  -2   11.67    1.08
   4   6   2    7.29    0.88
   4   6   2    8.16    1.29
   4   6   2   10.91    1.19
  -5  -6  -2    7.76    1.22
  -5  -6  -2    6.21    1.05
   5   6   2    6.66    1.19
  -6  -6  -2    5.36    1.33
  -6  -6  -2    5.45    1.09
   6   6   2    4.24    2.11
   6   6   2    5.33    1.43
  -7  -6  -2    3.53    1.45
  -7  -6  -2    0.68    1.55
   7   6   2   -3.66    3.01
   7   6   2    2.71    1.68
   8  -7  -2    4.65    2.08
   8  -7  -2    2.97    1.97
  -8   7   2    0.13    1.08
  -8   7   2    1.47    1.20
   7  -7  -2    4.60    1.52
   7  -7  -2    5.44    2.06
   7  -7  -2    4.75    1.50
  -7   7   2    4.81    1.25
  -7   7   2    3.38    1.19
   6  -7  -2    6.21    1.49
   6  -7  -2    5.71    1.51
   6  -7  -2    4.08    1.28
   6  -7  -2    3.98    0.79
  -6   7   2    4.94    0.62
  -6   7   2    3.83    0.84
   5  -7  -2   26.79    1.86
   5  -7  -2   28.07    1.99
   5  -7  -2   25.10    1.27
   5  -7  -2   23.93    1.88
  -5   7   2   25.27    0.99
  -5   7   2   28.42    1.44
  -5   7   2   27.09    1.16
   4  -7  -2   13.66    0.68
   4  -7  -2   13.30    1.31
   4  -7  -2   16.01    1.43
   4  -7  -2   13.14    1.42
  -4   7   2   13.90    1.00
  -4   7   2   13.97    0.83
  -4   7   2   15.05    0.72
   3  -7  -2    1.69    0.80
   3  -7  -2    1.80    0.71
   3  -7  -2    2.27    0.76
  -3   7   2    1.26    0.48
  -3   7   2    1.78    0.42
  -3   7   2    1.38    0.34
   2  -7  -2   -0.33    0.24
   2  -7  -2   -0.35    0.64
   2  -7  -2    0.92    0.70
   2  -7  -2    1.21    0.74
   2  -7  -2    0.43    0.45
  -2   7   2   -0.16    0.36
  -2   7   2    0.10    0.30
  -2   7   2    0.54    0.35
   1  -7  -2    6.34    0.36
   1  -7  -2    4.74    0.82
   1  -7  -2    5.12    0.88
   1  -7  -2    5.42    0.70
   1  -7  -2    5.80    0.45
  -1   7   2    5.52    0.65
  -1   7   2    5.11    0.61
  -1   7   2    5.57    0.63
   0  -7  -2    4.98    0.85
   0  -7  -2    4.57    0.51
   0  -7  -2    4.24    0.25
   0  -7  -2    5.21    0.79
   0  -7  -2    5.84    0.72
   0   7   2    4.80    0.60
   0   7   2    4.98    0.57
   0   7   2    4.98    0.60
  -1  -7  -2   19.32    1.02
  -1  -7  -2   18.55    1.14
  -1  -7  -2   18.41    1.04
   1   7   2   18.52    1.10
   1   7   2   16.93    0.89
   1   7   2   20.02    0.96
  -2  -7  -2   12.64    0.78
  -2  -7  -2   14.87    1.11
  -2  -7  -2   12.99    0.92
   2   7   2   12.42    1.06
   2   7   2   12.19    0.67
   2   7   2   12.70    0.89
  -3  -7  -2    6.80    0.95
  -3  -7  -2    6.28    0.78
   3   7   2    7.27    0.94
   3   7   2    6.81    0.81
  -4  -7  -2    4.80    0.91
  -4  -7  -2    2.93    0.84
   4   7   2    3.27    1.42
   4   7   2    4.21    0.87
   4   7   2    1.98    0.73
  -5  -7  -2    0.87    1.07
  -5  -7  -2    1.21    0.86
   5   7   2    2.33    1.07
  -6  -7  -2   -0.52    1.33
  -6  -7  -2   -0.59    1.03
   6   7   2    1.08    2.26
   8  -8  -2    4.19    2.48
   8  -8  -2    3.11    2.27
  -8   8   2    3.16    1.25
  -8   8   2   -0.54    1.35
   7  -8  -2    3.96    1.59
   7  -8  -2    5.96    2.04
   7  -8  -2    4.07    1.75
  -7   8   2    1.55    1.19
  -7   8   2    1.92    1.09
   6  -8  -2    2.41    1.29
   6  -8  -2    1.01    1.59
   6  -8  -2    0.78    1.34
  -6   8   2    1.97    0.58
  -6   8   2    1.05    0.85
   5  -8  -2   -1.07    1.14
   5  -8  -2    0.51    1.25
   5  -8  -2   -0.91    0.96
  -5   8   2   -0.10    0.64
  -5   8   2   -0.38    0.46
   4  -8  -2    1.21    0.88
   4  -8  -2    0.87    1.29
   4  -8  -2    1.37    0.80
  -4   8   2    0.78    0.43
  -4   8   2    0.91    0.93
  -4   8   2    0.38    0.33
   3  -8  -2    5.11    1.15
   3  -8  -2    3.71    0.92
   3  -8  -2    6.35    1.14
  -3   8   2    5.79    0.63
  -3   8   2    4.36    0.68
  -3   8   2    5.34    0.71
   2  -8  -2   26.00    1.68
   2  -8  -2   22.02    1.07
   2  -8  -2   28.90    1.41
   2  -8  -2   21.90    1.51
   2  -8  -2   29.30    1.80
  -2   8   2   29.41    1.24
  -2   8   2   30.09    1.32
  -2   8   2   27.88    1.20
   1  -8  -2   35.56    1.36
   1  -8  -2   36.93    1.98
   1  -8  -2   39.00    1.68
   1  -8  -2   37.18    1.88
   1  -8  -2   36.46    1.16
  -1   8   2   37.52    1.47
  -1   8   2   37.87    1.54
  -1   8   2   39.48    1.57
   0  -8  -2   11.64    1.03
   0  -8  -2    8.12    1.09
   0  -8  -2   12.80    1.22
   0  -8  -2   11.45    0.87
   0   8   2   11.05    0.89
   0   8   2   11.22    0.87
   0   8   2    9.96    0.79
  -1  -8  -2    6.58    0.75
  -1  -8  -2    8.30    1.00
  -1  -8  -2    8.51    0.89
   1   8   2    8.44    0.75
   1   8   2    7.43    0.91
   1   8   2    7.65    0.80
  -2  -8  -2    4.15    0.83
  -2  -8  -2    6.61    0.87
   2   8   2    6.63    0.75
   2   8   2    5.96    0.66
   2   8   2    7.71    1.03
  -3  -8  -2    0.42    0.64
  -3  -8  -2    0.86    0.76
   3   8   2   -1.28    0.52
   3   8   2   -0.06    0.71
  -4  -8  -2    0.88    1.22
  -4  -8  -2    1.01    0.80
   4   8   2   -0.56    0.75
   4   8   2   -1.13    1.43
  -5  -8  -2    1.82    1.01
  -5  -8  -2    1.18    1.17
   5   8   2    4.23    2.10
  -6  -8  -2    1.22    1.60
  -6  -8  -2    2.30    1.30
   6   8   2    7.01    2.94
   7  -9  -2    1.50    1.72
   7  -9  -2    6.98    2.27
   7  -9  -2    2.02    1.62
  -7   9   2    1.22    1.17
  -7   9   2    1.37    1.22
   6  -9  -2    3.58    1.58
   6  -9  -2    2.05    1.53
  -6   9   2    2.24    1.15
  -6   9   2    1.40    0.98
   5  -9  -2    2.89    1.13
   5  -9  -2    5.43    1.81
   5  -9  -2    4.12    1.57
  -5   9   2    4.02    0.98
  -5   9   2    3.42    0.69
   4  -9  -2    3.71    1.11
   4  -9  -2    4.83    1.27
   4  -9  -2    5.30    1.43
  -4   9   2    3.89    0.64
  -4   9   2    4.31    0.85
  -4   9   2    4.02    0.79
   3  -9  -2    5.58    1.00
   3  -9  -2   10.62    1.53
   3  -9  -2    7.28    1.39
  -3   9   2    9.07    0.96
  -3   9   2    7.94    0.77
  -3   9   2    7.95    0.84
   2  -9  -2    0.91    0.89
   2  -9  -2    0.44    0.46
   2  -9  -2    0.16    0.85
   2  -9  -2    1.28    0.63
   2  -9  -2    0.56    0.76
  -2   9   2    0.36    0.56
  -2   9   2    0.60    0.43
  -2   9   2    0.62    0.48
   1  -9  -2   -0.67    0.88
   1  -9  -2   -0.72    0.52
   1  -9  -2    0.26    0.53
   1  -9  -2    1.00    0.86
  -1   9   2   -0.14    0.45
  -1   9   2    0.00    0.46
  -1   9   2   -0.69    0.50
   0  -9  -2   -0.63    0.81
   0  -9  -2    0.67    0.96
   0  -9  -2   -1.14    0.43
   0  -9  -2   -0.39    0.58
   0   9   2   -1.10    0.46
   0   9   2   -0.29    0.40
   0   9   2    0.70    0.47
  -1  -9  -2    6.67    0.82
  -1  -9  -2    5.39    0.91
  -1  -9  -2    5.48    0.78
  -1  -9  -2    7.19    1.29
   1   9   2    5.30    0.73
   1   9   2    4.97    0.81
   1   9   2    5.80    0.70
  -2  -9  -2    1.26    0.82
  -2  -9  -2    1.19    0.59
   2   9   2    1.64    0.58
   2   9   2    1.95    0.67
   2   9   2    2.44    0.74
  -3  -9  -2    1.61    0.81
   3   9   2    0.98    0.74
  -4  -9  -2    2.62    1.15
  -4  -9  -2   -0.18    0.86
   4   9   2    1.50    0.98
   4   9   2    1.98    1.68
  -5  -9  -2    1.18    1.11
  -5  -9  -2    2.52    1.37
   5   9   2   -3.78    2.24
   7 -10  -2    6.71    2.74
   7 -10  -2    1.76    2.38
   7 -10  -2    5.68    2.43
  -7  10   2    2.01    1.41
  -7  10   2   -0.16    1.42
   6 -10  -2    0.21    1.76
   6 -10  -2    2.38    1.83
   6 -10  -2    5.19    2.22
  -6  10   2    0.01    1.12
  -6  10   2    0.76    1.07
   5 -10  -2    1.86    1.47
   5 -10  -2    3.91    1.69
   5 -10  -2    4.67    1.69
  -5  10   2    1.26    0.88
  -5  10   2    0.75    0.91
   4 -10  -2    0.36    1.35
   4 -10  -2    2.59    1.23
   4 -10  -2    0.00    1.64
  -4  10   2   -0.28    0.58
   3 -10  -2   -0.44    1.16
   3 -10  -2    0.09    1.18
   3 -10  -2   -2.26    0.92
  -3  10   2    0.11    0.78
  -3  10   2    0.11    0.55
  -3  10   2    1.28    0.61
   2 -10  -2    0.44    0.99
   2 -10  -2    0.69    0.97
   2 -10  -2    1.35    0.76
   2 -10  -2   -0.22    1.04
   2 -10  -2    0.16    0.75
  -2  10   2    0.29    0.64
  -2  10   2   -0.24    0.50
  -2  10   2   -0.12    0.55
   1 -10  -2    6.93    1.43
   1 -10  -2    4.96    0.75
   1 -10  -2    6.94    1.21
   1 -10  -2    4.92    0.93
  -1  10   2    7.57    1.00
  -1  10   2    5.47    0.78
  -1  10   2    5.68    0.78
   0 -10  -2    3.33    0.83
   0 -10  -2    5.41    1.19
   0 -10  -2    4.05    0.66
   0 -10  -2    5.82    1.35
   0  10   2    5.37    0.83
   0  10   2    4.58    0.75
   0  10   2    5.32    0.78
  -1 -10  -2    5.14    0.70
  -1 -10  -2    4.09    1.23
  -1 -10  -2    5.08    1.48
   1  10   2    4.05    0.70
   1  10   2    3.79    0.88
   1  10   2    2.93    0.77
  -2 -10  -2    0.00    0.67
  -2 -10  -2    2.33    1.02
   2  10   2    0.64    0.75
  -3 -10  -2   -0.01    0.95
  -3 -10  -2    1.51    1.03
   3  10   2    0.71    0.93
  -4 -10  -2   -0.98    1.19
  -4 -10  -2    0.21    0.95
   4  10   2   -0.70    2.03
   4  10   2   -3.29    1.19
  -5 -10  -2    0.55    2.59
  -5 -10  -2   -0.37    1.33
   5  10   2    0.16    3.32
   6 -11  -2    3.80    2.72
   6 -11  -2    3.74    2.20
   6 -11  -2    2.12    2.41
  -6  11   2   -0.33    0.88
  -6  11   2    1.91    1.35
   5 -11  -2    2.40    1.93
   5 -11  -2    3.23    1.50
   5 -11  -2   -2.98    1.92
  -5  11   2   -0.96    0.97
  -5  11   2    1.15    0.87
   4 -11  -2    1.70    1.72
   4 -11  -2   -1.08    1.53
   4 -11  -2    3.21    1.73
  -4  11   2    0.86    0.71
  -4  11   2   -0.24    0.89
   3 -11  -2    2.23    1.27
   3 -11  -2    3.31    1.73
   3 -11  -2    2.46    1.71
  -3  11   2    2.23    0.78
  -3  11   2    0.71    0.87
   2 -11  -2    4.85    2.64
   2 -11  -2    1.43    1.00
   2 -11  -2    0.62    1.34
  -2  11   2    2.43    0.93
  -2  11   2    2.31    0.75
   1 -11  -2   -0.70    1.23
   1 -11  -2    0.52    0.86
   1 -11  -2    1.83    1.62
  -1  11   2   -0.46    0.85
  -1  11   2    0.88    0.78
   0 -11  -2    0.16    1.02
   0 -11  -2   -1.72    1.55
   0 -11  -2    0.31    0.64
   0  11   2    0.09    0.88
   0  11   2   -0.61    0.79
   0  11   2   -0.23    0.68
  -1 -11  -2    0.26    2.13
  -1 -11  -2   -1.19    0.68
  -1 -11  -2   -0.27    0.95
   1  11   2    0.32    0.70
   1  11   2   -1.02    0.99
   1  11   2    0.37    0.73
  -2 -11  -2   -0.08    2.11
  -2 -11  -2   -1.03    1.02
   2  11   2    1.09    0.87
  -3 -11  -2   -2.00    1.18
  -3 -11  -2    0.53    0.99
   3  11   2   -2.08    1.02
   3  11   2    1.15    2.03
  -4 -11  -2   -1.52    1.20
  -4 -11  -2   -1.48    1.48
   4  11   2   -2.50    1.41
   4  11   2    3.14    2.98
   5 -12  -2    1.84    2.40
   5 -12  -2   -0.72    1.65
   5 -12  -2    9.96    2.72
  -5  12   2    0.27    0.91
   4 -12  -2   -0.24    1.99
   4 -12  -2   -3.63    1.52
   4 -12  -2   -0.36    2.05
  -4  12   2    0.65    1.14
  -4  12   2    0.61    0.86
   3 -12  -2   -1.04    1.99
   3 -12  -2    3.56    2.10
   3 -12  -2    2.25    1.44
  -3  12   2    0.80    1.05
  -3  12   2   -0.68    0.75
   2 -12  -2   -2.54    1.95
   2 -12  -2    1.94    1.98
   2 -12  -2    1.40    1.23
  -2  12   2   -0.36    0.69
  -2  12   2    1.66    0.93
  -2  12   2   -0.20    1.06
   1 -12  -2    2.52    1.06
   1 -12  -2   -2.17    2.01
  -1  12   2    0.86    0.75
  -1  12   2    0.20    0.96
  -1  12   2   -0.11    0.99
   0 -12  -2   -0.23    1.02
   0 -12  -2   -1.65    2.01
   0  12   2    1.05    0.80
   0  12   2   -0.10    1.01
  -1 -12  -2    2.32    2.36
  -1 -12  -2    1.05    1.12
  -1 -12  -2    0.47    1.37
   1  12   2    0.52    1.15
   1  12   2   -0.19    0.79
  -2 -12  -2    6.76    2.76
  -2 -12  -2   -0.51    1.31
  -2 -12  -2   -1.25    1.04
   2  12   2   -0.69    0.98
  -3 -12  -2    1.55    3.08
  -3 -12  -2   -1.51    1.56
  -3 -12  -2   -1.36    1.19
   3  12   2   -3.45    2.63
   3  12   2    0.30    1.28
   4 -13  -2    2.53    1.92
   4 -13  -2   -1.44    2.54
   4 -13  -2    7.57    3.24
  -4  13   2    1.57    1.10
  -4  13   2   -2.88    1.38
   3 -13  -2    0.21    1.74
   3 -13  -2   -4.61    2.52
   3 -13  -2    1.59    2.97
  -3  13   2   -0.77    1.30
  -3  13   2   -1.54    0.97
   2 -13  -2    1.34    2.68
   2 -13  -2   -2.25    1.33
  -2  13   2   -1.66    1.16
  -2  13   2   -0.17    0.90
   1 -13  -2    1.17    2.86
   1 -13  -2   -1.23    1.21
   1 -13  -2    2.15    1.36
  -1  13   2    0.76    0.93
  -1  13   2   -0.53    1.72
  -1  13   2   -1.08    1.13
   0 -13  -2   -1.16    2.71
   0 -13  -2    0.73    1.33
   0  13   2   -0.54    0.94
   0  13   2   -0.74    1.16
  -1 -13  -2   -2.43    1.42
  -1 -13  -2   -3.87    3.08
   1  13   2    0.24    1.12
   2 -14  -2    0.19    1.84
   2 -14  -2   -0.75    3.85
  -2  14   2   -0.80    1.49
  -2  14   2   -1.38    1.53
   1 -14  -2    2.49    2.00
   1 -14  -2    5.19    3.92
  -1  14   2   -1.55    1.49
  -1  14   2    1.29    1.34
   0  15  -3    2.28    1.35
   0  15  -3   -2.69    1.45
   0 -15   3   -2.22    1.97
  -1  15  -3    3.67    1.56
  -1  15  -3   -0.75    1.22
  -1  15  -3   -0.48    1.34
   1 -15   3    2.64    2.09
   1 -15   3    0.84    3.47
  -2  15  -3    0.17    1.55
  -2  15  -3    2.36    1.70
  -2  15  -3    0.67    1.25
   2 -15   3    0.17    3.58
   2  14  -3    0.72    1.19
   2  14  -3   -0.83    1.68
  -2 -14   3    0.76    1.38
  -2 -14   3    2.88    1.17
   1  14  -3    0.05    0.98
   1  14  -3   -0.97    1.33
   1  14  -3   -2.40    1.34
  -1 -14   3    0.83    1.06
  -1 -14   3   -2.37    1.26
   0  14  -3    1.16    1.19
   0  14  -3   -0.25    1.06
   0 -14   3    0.70    1.35
   0 -14   3    1.92    1.02
   0 -14   3    2.36    2.71
  -1  14  -3   -0.22    0.94
  -1  14  -3    0.16    1.10
   1 -14   3    1.47    1.34
   1 -14   3    2.77    1.23
   1 -14   3   -0.06    2.54
  -2  14  -3    0.87    1.17
  -2  14  -3   -0.45    1.05
  -2  14  -3    1.25    0.92
   2 -14   3    0.17    1.36
   2 -14   3   -2.31    2.64
  -3  14  -3    1.42    1.24
  -3  14  -3    1.33    1.02
  -3  14  -3   -1.32    1.32
   3 -14   3    4.72    2.74
   3 -14   3    5.21    1.88
  -4  14  -3   -0.99    1.32
  -4  14  -3   -2.23    1.67
  -4  14  -3   -0.21    1.15
   4 -14   3    0.74    3.22
   4 -14   3   -0.65    2.08
   3  13  -3   -1.34    1.06
   3  13  -3    0.07    1.75
  -3 -13   3   -2.54    0.94
  -3 -13   3    0.58    1.30
   2  13  -3   -1.09    0.87
   2  13  -3    0.70    1.27
  -2 -13   3   -1.17    1.08
  -2 -13   3    0.02    0.88
   1  13  -3   -0.70    0.74
  -1 -13   3    1.69    0.88
  -1 -13   3    4.61    2.17
  -1 -13   3    1.70    1.04
   0  13  -3   -0.06    0.72
   0  13  -3    1.89    0.95
   0 -13   3    0.28    1.00
   0 -13   3   -0.47    1.98
   0 -13   3    0.16    1.03
  -1  13  -3   -1.44    0.73
  -1  13  -3   -0.19    0.97
   1 -13   3   -0.50    1.10
   1 -13   3    0.74    0.91
  -2  13  -3   -0.24    0.77
  -2  13  -3    0.77    0.95
   2 -13   3    1.19    1.07
   2 -13   3   -0.02    1.10
   2 -13   3    1.63    2.32
  -3  13  -3    1.79    1.01
  -3  13  -3    0.14    0.84
  -3  13  -3    1.93    1.14
   3 -13   3    2.08    2.24
   3 -13   3    3.03    1.65
   3 -13   3    0.22    1.34
  -4  13  -3    1.74    1.35
  -4  13  -3    2.54    1.34
  -4  13  -3   -0.13    1.02
   4 -13   3   -1.92    2.36
   4 -13   3   -0.02    1.54
  -5  13  -3    0.68    1.28
  -5  13  -3    1.94    1.69
   5 -13   3    2.39    2.13
   5 -13   3   -0.85    2.52
   4  12  -3    1.35    1.99
   4  12  -3   -0.53    1.03
  -4 -12   3    1.36    1.27
  -4 -12   3   -2.14    0.98
  -4 -12   3    1.05    1.02
   3  12  -3    3.29    1.34
   3  12  -3    2.39    0.89
  -3 -12   3   -3.00    1.66
  -3 -12   3   -0.53    0.81
  -3 -12   3    0.98    1.06
   2  12  -3    0.46    0.75
   2  12  -3    0.32    0.76
   2  12  -3    0.70    1.12
  -2 -12   3   -0.72    0.65
  -2 -12   3   -0.27    1.53
  -2 -12   3   -1.17    0.86
  -2 -12   3    0.03    0.80
   1  12  -3   -0.42    0.68
   1  12  -3    0.17    0.69
  -1 -12   3   -0.45    0.80
  -1 -12   3   -0.33    1.39
  -1 -12   3   -0.67    0.69
   0  12  -3    0.81    1.26
   0  12  -3    0.10    0.77
   0 -12   3    0.53    0.69
   0 -12   3    1.21    1.35
  -1  12  -3    1.28    0.75
  -1  12  -3    2.34    0.90
   1 -12   3    0.68    1.17
   1 -12   3    2.38    0.75
   1 -12   3    1.69    1.66
  -2  12  -3    1.73    0.65
   2 -12   3    2.71    0.83
   2 -12   3    3.24    1.88
  -3  12  -3    3.39    0.82
  -3  12  -3    4.85    1.03
  -3  12  -3    2.43    1.08
   3 -12   3    3.39    1.14
   3 -12   3    2.19    2.68
   3 -12   3    3.41    1.26
  -4  12  -3    1.24    1.09
  -4  12  -3    2.47    1.07
  -4  12  -3    2.21    1.08
   4 -12   3    4.02    1.42
   4 -12   3    1.17    2.12
  -5  12  -3    0.52    1.01
  -5  12  -3    0.29    1.31
   5 -12   3    1.54    2.07
   5 -12   3    0.60    1.56
  -6  12  -3    1.15    1.43
  -6  12  -3    0.30    1.70
   6 -12   3   -4.88    3.35
   6 -12   3   -0.39    2.76
   5  11  -3    0.10    1.23
   5  11  -3    2.51    2.08
  -5 -11   3   -0.85    1.02
  -5 -11   3    0.71    1.26
  -5 -11   3    2.16    1.10
   4  11  -3    0.75    1.45
   4  11  -3   -0.14    0.90
  -4 -11   3    0.08    1.56
  -4 -11   3    1.35    0.84
  -4 -11   3   -1.06    0.84
   3  11  -3    1.41    0.74
   3  11  -3    0.59    1.07
  -3 -11   3    0.20    0.69
  -3 -11   3   -1.16    0.96
  -3 -11   3   -0.19    0.73
  -3 -11   3    0.41    1.22
   2  11  -3    3.73    1.06
   2  11  -3    3.97    0.71
   2  11  -3    1.54    0.71
  -2 -11   3    2.08    1.22
  -2 -11   3    4.35    0.96
  -2 -11   3    2.26    0.65
  -2 -11   3    3.02    0.78
   1  11  -3    1.79    0.63
   1  11  -3    1.46    0.65
  -1 -11   3    3.10    0.69
  -1 -11   3    2.72    1.16
  -1 -11   3    0.96    0.72
  -1 -11   3    1.81    0.50
   0  11  -3    5.88    0.82
   0  11  -3    3.76    0.69
   0 -11   3    4.40    0.87
   0 -11   3    6.16    0.79
   0 -11   3    5.04    1.28
  -1  11  -3   -0.87    0.60
  -1  11  -3   -0.38    0.51
   1 -11   3   -0.02    0.71
   1 -11   3   -0.48    0.54
   1 -11   3    1.82    1.16
  -2  11  -3    0.56    0.66
  -2  11  -3   -0.32    0.47
   2 -11   3    0.55    0.63
   2 -11   3    0.18    0.81
   2 -11   3   -1.12    1.17
  -3  11  -3   -0.98    0.53
  -3  11  -3    0.43    0.86
  -3  11  -3   -0.89    0.70
   3 -11   3    1.38    0.84
   3 -11   3   -0.14    1.07
   3 -11   3    0.08    1.46
  -4  11  -3    0.77    0.92
  -4  11  -3    1.46    1.01
  -4  11  -3    2.06    0.77
   4 -11   3    1.16    1.22
   4 -11   3    1.82    2.43
  -5  11  -3    0.33    0.71
  -5  11  -3    1.14    0.97
  -5  11  -3    0.08    1.14
   5 -11   3    0.03    1.77
   5 -11   3   -1.01    1.28
  -6  11  -3    0.29    1.29
  -6  11  -3    0.46    1.13
   6 -11   3    2.00    2.09
   6 -11   3   -1.01    2.64
   6  10  -3   -2.18    2.62
  -6 -10   3    0.85    1.31
  -6 -10   3    0.30    1.14
  -6 -10   3    0.62    1.34
   5  10  -3    4.20    1.65
   5  10  -3    2.01    1.09
  -5 -10   3    0.46    0.88
  -5 -10   3    0.87    0.98
  -5 -10   3    1.50    1.07
   4  10  -3    4.99    1.40
   4  10  -3    4.10    1.01
  -4 -10   3    3.52    0.95
  -4 -10   3    5.15    1.27
  -4 -10   3    4.94    1.04
  -4 -10   3    4.33    0.83
   3  10  -3    3.11    0.77
   3  10  -3    3.05    1.02
  -3 -10   3    3.01    0.75
  -3 -10   3    3.59    0.81
  -3 -10   3    3.39    0.74
  -3 -10   3    3.58    1.04
   2  10  -3    1.79    0.53
   2  10  -3    1.88    0.78
   2  10  -3    1.94    0.59
  -2 -10   3    1.44    0.95
  -2 -10   3    0.55    0.50
  -2 -10   3    2.05    0.70
  -2 -10   3    1.89    0.63
   1  10  -3    1.72    0.64
   1  10  -3    2.75    0.59
  -1 -10   3    2.71    0.54
  -1 -10   3    1.50    1.81
  -1 -10   3    1.79    0.48
  -1 -10   3    1.34    0.63
   0  10  -3    6.80    0.83
   0  10  -3    6.66    0.75
   0 -10   3    6.29    0.81
   0 -10   3    5.46    0.53
   0 -10   3    8.22    1.18
   0 -10   3    5.90    0.81
  -1  10  -3    5.76    0.66
  -1  10  -3    5.17    0.72
   1 -10   3    5.55    0.90
   1 -10   3    6.30    1.11
   1 -10   3    5.51    0.68
  -2  10  -3   10.16    0.85
  -2  10  -3   10.97    1.03
   2 -10   3   10.27    1.53
   2 -10   3   12.64    1.02
   2 -10   3   10.65    1.17
  -3  10  -3   10.76    1.08
  -3  10  -3   11.15    1.16
  -3  10  -3   11.84    0.87
   3 -10   3   13.56    1.30
   3 -10   3    8.45    1.07
   3 -10   3   10.94    1.34
   3 -10   3   15.49    1.86
  -4  10  -3   13.74    0.97
  -4  10  -3   14.05    1.48
  -4  10  -3   12.30    1.29
   4 -10   3   11.29    1.55
   4 -10   3   14.99    2.06
   4 -10   3   14.67    1.27
  -5  10  -3    0.73    0.57
  -5  10  -3    1.90    0.96
  -5  10  -3    0.47    0.91
   5 -10   3    0.88    1.22
   5 -10   3    0.14    1.43
   5 -10   3    1.39    0.82
  -6  10  -3    2.27    1.05
  -6  10  -3   -0.22    1.11
   6 -10   3    6.91    2.18
   6 -10   3    5.07    1.79
  -7  10  -3   -0.78    1.37
  -7  10  -3    0.24    1.26
   7 -10   3    0.28    2.58
   7 -10   3   -1.43    2.99
   6   9  -3    2.03    2.02
  -6  -9   3    1.01    1.14
  -6  -9   3   -1.57    1.00
  -6  -9   3    0.68    0.98
   5   9  -3   -1.60    1.30
   5   9  -3    1.28    0.89
  -5  -9   3    0.07    0.87
  -5  -9   3    0.51    0.97
  -5  -9   3    1.69    0.79
   4   9  -3   -0.56    0.65
   4   9  -3   -0.36    0.97
  -4  -9   3   -0.16    0.74
  -4  -9   3    0.68    0.69
  -4  -9   3   -0.11    0.65
   3   9  -3    2.22    0.80
   3   9  -3    2.76    0.65
  -3  -9   3    4.43    0.93
  -3  -9   3    2.78    0.64
  -3  -9   3    2.82    0.62
  -3  -9   3    3.27    0.70
   2   9  -3    0.71    0.49
   2   9  -3    0.65    0.44
   2   9  -3    0.67    0.65
  -2  -9   3    1.00    0.46
  -2  -9   3    0.42    0.69
  -2  -9   3    1.26    0.60
  -2  -9   3    0.31    0.43
   1   9  -3   48.54    1.77
   1   9  -3   44.73    1.75
  -1  -9   3   49.51    1.71
  -1  -9   3   47.51    1.76
  -1  -9   3   47.20    1.90
  -1  -9   3   46.92    2.07
   0   9  -3    9.27    0.78
   0   9  -3   10.17    0.83
   0  -9   3   11.37    1.19
   0  -9   3    8.68    0.93
   0  -9   3   10.31    0.77
   0  -9   3    9.47    0.56
  -1   9  -3    6.96    0.67
  -1   9  -3    7.83    0.81
   1  -9   3    5.93    0.42
   1  -9   3    7.54    0.72
   1  -9   3    7.40    1.08
   1  -9   3    7.60    0.92
  -2   9  -3    5.01    0.73
  -2   9  -3    5.51    0.61
   2  -9   3    5.79    0.88
   2  -9   3    7.01    0.85
   2  -9   3    8.03    1.20
   2  -9   3    5.10    0.85
  -3   9  -3    0.31    0.40
  -3   9  -3    0.70    0.52
  -3   9  -3   -0.03    0.53
   3  -9   3   -0.20    0.66
   3  -9   3   -0.59    0.61
   3  -9   3    0.23    0.66
   3  -9   3    1.02    0.92
  -4   9  -3    3.79    0.55
  -4   9  -3    4.54    0.87
  -4   9  -3    3.29    0.74
   4  -9   3    4.54    1.20
   4  -9   3    6.72    0.98
   4  -9   3    2.90    0.95
  -5   9  -3    8.45    1.18
  -5   9  -3    7.48    0.84
  -5   9  -3    6.81    1.00
   5  -9   3    7.71    1.66
   5  -9   3    6.04    0.92
   5  -9   3    5.68    1.26
  -6   9  -3    2.29    1.02
  -6   9  -3    2.89    1.10
   6  -9   3    2.86    1.81
   6  -9   3    3.07    1.07
   6  -9   3    4.04    1.90
  -7   9  -3    1.89    1.14
  -7   9  -3    2.52    1.20
   7  -9   3    2.43    1.46
   7  -9   3    7.05    2.34
   7  -9   3    4.18    2.31
   7   8  -3   -1.01    2.53
  -7  -8   3   -1.10    1.15
  -7  -8   3   -0.82    1.32
  -7  -8   3   -0.14    1.28
   6   8  -3    3.26    1.71
  -6  -8   3    0.30    1.07
  -6  -8   3   -0.22    0.86
  -6  -8   3    1.72    0.96
   5   8  -3    5.93    0.94
   5   8  -3    7.81    1.67
  -5  -8   3    6.46    1.03
  -5  -8   3    6.40    0.97
  -5  -8   3    4.42    0.86
   4   8  -3    3.08    0.68
   4   8  -3    2.35    0.84
  -4  -8   3    2.75    0.61
  -4  -8   3    2.83    0.68
  -4  -8   3    3.88    0.76
   3   8  -3   19.26    1.07
   3   8  -3   17.00    0.92
   3   8  -3   19.32    1.35
  -3  -8   3   17.77    1.05
  -3  -8   3   17.46    1.15
  -3  -8   3   18.46    1.15
   2   8  -3   17.13    1.15
   2   8  -3   15.35    0.85
   2   8  -3   15.32    0.91
  -2  -8   3   15.31    0.95
  -2  -8   3   14.57    1.04
  -2  -8   3   17.35    0.94
  -2  -8   3   15.80    1.07
   1   8  -3    4.66    0.57
   1   8  -3    3.84    0.54
  -1  -8   3    4.31    0.50
  -1  -8   3    4.12    0.56
  -1  -8   3    4.10    0.70
  -1  -8   3    3.82    0.60
   0   8  -3    5.99    0.71
   0   8  -3    6.56    0.65
   0  -8   3    6.78    0.44
   0  -8   3    6.35    0.64
   0  -8   3    7.26    0.93
   0  -8   3    5.58    0.68
  -1   8  -3    0.34    0.41
  -1   8  -3    0.56    0.39
   1  -8   3    0.51    0.74
   1  -8   3    0.17    0.52
   1  -8   3    0.69    0.43
   1  -8   3   -0.09    0.18
  -2   8  -3   12.12    0.88
  -2   8  -3   11.92    0.75
   2  -8   3   12.82    1.05
   2  -8   3   11.96    1.27
   2  -8   3   13.31    0.48
   2  -8   3   11.33    0.91
   2  -8   3   12.58    0.95
  -3   8  -3   25.56    1.30
  -3   8  -3   25.59    1.24
  -3   8  -3   24.67    1.09
   3  -8   3   23.83    1.46
   3  -8   3   25.33    1.59
   3  -8   3   29.14    1.53
   3  -8   3   26.13    1.70
  -4   8  -3   18.15    1.21
  -4   8  -3   17.99    0.92
  -4   8  -3   18.22    1.16
   4  -8   3   21.11    1.28
   4  -8   3   20.54    1.57
   4  -8   3   18.33    1.53
  -5   8  -3   13.63    1.15
  -5   8  -3   15.50    0.90
  -5   8  -3   13.39    1.24
   5  -8   3   13.05    1.62
   5  -8   3   16.75    1.34
   5  -8   3   15.20    1.84
  -6   8  -3    5.16    1.02
  -6   8  -3    4.87    1.23
   6  -8   3    3.08    1.67
   6  -8   3    5.54    1.77
   6  -8   3    4.81    1.10
  -7   8  -3    4.01    1.15
  -7   8  -3    3.68    1.14
   7  -8   3    2.93    1.34
   7  -8   3    3.64    1.98
   7  -8   3    2.34    2.00
  -8   8  -3    1.42    1.71
  -8   8  -3    0.97    1.43
   8  -8   3    1.70    1.89
   8  -8   3    0.98    2.67
   8  -8   3   -2.30    2.82
   7   7  -3    4.13    2.23
  -7  -7   3    1.56    1.04
  -7  -7   3    1.70    1.21
  -7  -7   3    1.74    1.10
   6   7  -3    0.19    1.41
  -6  -7   3    0.12    0.80
  -6  -7   3    0.62    0.80
  -6  -7   3    1.45    0.92
   5   7  -3    8.16    1.38
   5   7  -3    5.40    0.81
  -5  -7   3    4.81    0.82
  -5  -7   3    4.87    0.81
  -5  -7   3    7.20    0.99
   4   7  -3    6.00    0.73
   4   7  -3    3.30    0.89
  -4  -7   3    3.92    0.68
  -4  -7   3    5.24    0.77
  -4  -7   3    3.82    0.64
   3   7  -3    0.69    0.59
   3   7  -3   -0.18    0.37
   3   7  -3   -0.11    0.30
  -3  -7   3    0.46    0.47
  -3  -7   3    0.45    0.45
  -3  -7   3   -0.13    0.40
   2   7  -3    6.78    0.65
   2   7  -3    7.17    0.54
   2   7  -3    6.28    0.91
  -2  -7   3    7.19    0.67
  -2  -7   3    5.87    0.77
  -2  -7   3    6.65    0.72
   1   7  -3   36.81    1.42
   1   7  -3   37.29    1.37
  -1  -7   3   39.20    1.52
  -1  -7   3   40.22    1.36
  -1  -7   3   38.79    1.54
  -1  -7   3   38.25    1.42
   0   7  -3   92.08    2.85
   0   7  -3   91.93    2.80
   0  -7   3   91.39    2.66
   0  -7   3   92.56    2.93
   0  -7   3   94.53    3.01
   0  -7   3   87.45    2.87
  -1   7  -3   16.35    1.09
  -1   7  -3   17.73    0.95
   1  -7   3   17.70    1.07
   1  -7   3   17.28    1.14
   1  -7   3   16.26    0.64
   1  -7   3   17.06    0.87
  -2   7  -3   44.76    1.63
  -2   7  -3   42.55    1.30
  -2   7  -3   43.35    1.48
   2  -7   3   42.06    1.32
   2  -7   3   44.68    2.03
   2  -7   3   44.57    1.73
   2  -7   3   43.81    1.86
   2  -7   3   41.19    1.28
  -3   7  -3   23.97    1.20
  -3   7  -3   24.31    1.14
  -3   7  -3   24.05    0.97
   3  -7   3   21.97    1.49
   3  -7   3   24.60    1.48
  -4   7  -3    7.53    0.81
  -4   7  -3    6.08    0.75
  -4   7  -3    7.86    0.56
   4  -7   3    8.73    1.25
   4  -7   3    8.78    1.15
   4  -7   3    7.57    0.98
  -5   7  -3    0.70    0.34
  -5   7  -3    0.86    0.54
  -5   7  -3    1.54    0.64
   5  -7   3    1.36    1.05
   5  -7   3    1.28    0.99
   5  -7   3    1.77    0.74
  -6   7  -3    7.19    0.93
  -6   7  -3    6.16    1.00
   6  -7   3    4.56    1.45
   6  -7   3    7.27    1.20
   6  -7   3    7.03    1.73
  -7   7  -3    2.22    1.02
  -7   7  -3    1.78    1.11
  -7   7  -3    2.31    1.13
   7  -7   3    0.85    1.59
   7  -7   3    1.88    1.75
   7  -7   3    5.98    1.31
  -8   7  -3    1.26    1.54
  -8   7  -3    1.19    1.28
   8  -7   3    5.39    1.79
   8  -7   3    0.63    2.60
   8   6  -3   -3.10    3.01
  -8  -6   3    2.62    1.46
  -8  -6   3   -1.67    1.28
   7   6  -3    5.67    1.99
  -7  -6   3    1.40    1.17
  -7  -6   3    3.41    1.07
  -7  -6   3    2.91    1.06
   6   6  -3   -0.51    1.37
  -6  -6   3    0.63    0.75
  -6  -6   3    0.75    0.81
  -6  -6   3   -0.90    0.94
   5   6  -3    1.00    0.85
  -5  -6   3   -0.30    0.52
  -5  -6   3    0.54    0.61
  -5  -6   3    0.11    0.54
   4   6  -3   15.08    1.29
   4   6  -3   16.19    0.69
   4   6  -3   13.71    0.96
  -4  -6   3   16.89    1.02
  -4  -6   3   14.05    0.94
  -4  -6   3   13.74    1.01
   3   6  -3    1.87    0.46
   3   6  -3    2.51    0.68
   3   6  -3    3.25    0.41
   3   6  -3    3.36    0.40
  -3  -6   3    3.18    0.55
  -3  -6   3    2.60    0.52
  -3  -6   3    2.24    0.47
   2   6  -3   74.64    2.43
   2   6  -3   78.10    2.66
   2   6  -3   77.29    2.42
  -2  -6   3   76.10    2.46
  -2  -6   3   76.06    2.44
  -2  -6   3   78.74    2.45
   1   6  -3   73.55    2.33
   1   6  -3   75.57    2.33
   1   6  -3   72.58    2.29
  -1  -6   3   77.78    2.39
  -1  -6   3   78.27    2.30
  -1  -6   3   79.24    2.40
  -1  -6   3   71.71    2.32
   0   6  -3   48.73    1.62
   0   6  -3   48.45    1.59
   0  -6   3   49.61    1.70
   0  -6   3   49.55    1.75
   0  -6   3   48.75    1.50
  -1   6  -3    7.51    0.60
  -1   6  -3    8.27    0.52
   1  -6   3    7.07    0.55
   1  -6   3    7.66    0.78
   1  -6   3    8.33    0.41
   1  -6   3    9.37    0.72
   1  -6   3    8.62    0.39
  -2   6  -3    6.19    0.96
  -2   6  -3    6.83    0.47
  -2   6  -3    6.09    0.90
  -2   6  -3    7.08    0.39
   2  -6   3    7.09    0.67
   2  -6   3    7.17    0.38
   2  -6   3    6.80    0.84
   2  -6   3    6.24    0.86
   2  -6   3    6.12    0.69
  -3   6  -3    6.85    0.71
  -3   6  -3    8.15    0.48
  -3   6  -3    6.43    0.72
   3  -6   3    8.38    1.07
   3  -6   3    7.48    0.87
   3  -6   3    7.41    0.96
  -4   6  -3   19.19    1.10
  -4   6  -3   18.94    0.74
  -4   6  -3   19.12    1.03
   4  -6   3   20.38    1.29
   4  -6   3   17.85    1.33
   4  -6   3   21.08    1.53
  -5   6  -3   20.77    1.25
  -5   6  -3   21.00    1.12
   5  -6   3   19.40    1.68
   5  -6   3   21.93    1.90
   5  -6   3   20.79    1.43
  -6   6  -3   23.14    1.34
  -6   6  -3   21.20    1.48
   6  -6   3   22.42    2.22
   6  -6   3   26.39    2.21
   6  -6   3   26.19    1.89
  -7   6  -3    8.04    1.37
  -7   6  -3    9.26    1.25
   7  -6   3   10.24    1.93
   7  -6   3    9.23    1.46
   7  -6   3   10.33    1.83
  -8   6  -3    2.94    1.26
  -8   6  -3    2.93    1.47
   8  -6   3    5.31    1.63
   8  -6   3    1.97    2.09
   8   5  -3    3.65    2.42
  -8  -5   3    0.22    1.22
  -8  -5   3    0.15    1.27
   7   5  -3    5.24    1.85
  -7  -5   3    1.92    0.90
  -7  -5   3    2.87    0.93
  -7  -5   3    2.67    0.94
   6   5  -3   12.58    1.70
  -6  -5   3   10.72    1.16
  -6  -5   3    9.64    1.26
  -6  -5   3   10.84    1.13
   5   5  -3    5.59    1.01
  -5  -5   3    4.35    0.68
  -5  -5   3    3.92    0.63
   4   5  -3   50.88    2.22
   4   5  -3   51.42    1.89
  -4  -5   3   51.22    1.88
  -4  -5   3   50.09    1.95
   3   5  -3   15.12    0.73
   3   5  -3   16.96    1.15
  -3  -5   3   16.09    0.84
  -3  -5   3   16.13    0.89
  -3  -5   3   16.17    0.95
   2   5  -3    3.08    0.34
   2   5  -3    3.84    0.46
   2   5  -3    4.38    0.59
   2   5  -3    4.90    0.31
  -2  -5   3    3.70    0.43
  -2  -5   3    3.39    0.41
  -2  -5   3    4.01    0.47
   1   5  -3    1.49    0.30
   1   5  -3    1.52    0.28
   1   5  -3    2.01    0.28
  -1  -5   3    2.02    0.28
  -1  -5   3    2.47    0.33
  -1  -5   3    2.23    0.33
  -1  -5   3    2.11    0.31
   0   5  -3  101.70    2.88
   0   5  -3   99.49    2.90
   0  -5   3   97.08    2.87
   0  -5   3   99.24    2.99
   0  -5   3   97.98    2.80
   0  -5   3   97.69    2.94
  -1   5  -3   56.63    1.71
  -1   5  -3   57.01    1.83
  -1   5  -3   58.89    1.74
   1  -5   3   58.55    1.70
   1  -5   3   57.22    1.64
   1  -5   3   56.26    1.98
   1  -5   3   56.66    1.81
   1  -5   3   57.48    1.91
  -2   5  -3  109.08    3.37
  -2   5  -3  124.38    3.34
  -2   5  -3  113.63    3.40
  -2   5  -3  115.78    3.24
   2  -5   3  113.99    3.45
   2  -5   3  116.59    3.57
   2  -5   3  117.21    3.26
   2  -5   3  113.35    3.65
   2  -5   3  107.11    3.55
  -3   5  -3   55.48    1.94
  -3   5  -3   53.97    1.86
  -3   5  -3   56.30    1.66
   3  -5   3   55.47    2.27
   3  -5   3   56.38    2.24
   3  -5   3   56.85    2.12
  -4   5  -3   38.66    1.21
  -4   5  -3   41.17    1.52
  -4   5  -3   39.64    1.58
   4  -5   3   41.00    1.84
   4  -5   3   38.39    1.95
  -5   5  -3   10.17    1.02
  -5   5  -3   10.92    0.86
  -5   5  -3   10.18    0.55
   5  -5   3   10.26    1.33
   5  -5   3   10.89    1.11
   5  -5   3    9.70    1.26
  -6   5  -3    1.30    0.62
  -6   5  -3    1.39    0.54
  -6   5  -3   -0.04    0.70
   6  -5   3    0.74    0.93
   6  -5   3    0.09    0.99
   6  -5   3    1.50    1.07
  -7   5  -3    0.75    0.98
  -7   5  -3   -0.17    0.89
   7  -5   3    1.95    1.25
   7  -5   3   -0.84    1.45
  -8   5  -3    1.15    1.47
  -8   5  -3    3.77    1.72
   8  -5   3    2.69    1.76
   8  -5   3    3.41    1.62
   8   4  -3    4.28    2.20
  -8  -4   3    3.45    1.17
  -8  -4   3    2.95    1.17
   7   4  -3    7.73    1.33
   7   4  -3    7.01    1.94
  -7  -4   3    6.75    1.09
  -7  -4   3    7.73    1.01
   6   4  -3   10.00    1.51
   6   4  -3    8.59    1.16
  -6  -4   3    8.58    1.00
  -6  -4   3    9.49    1.05
  -6  -4   3    9.41    1.11
   5   4  -3    0.02    0.54
   5   4  -3    0.22    0.75
  -5  -4   3   -0.01    0.44
  -5  -4   3   -0.13    0.45
   4   4  -3   -0.48    0.61
   4   4  -3    0.56    0.49
  -4  -4   3    0.70    0.35
  -4  -4   3    0.00    0.16
  -4  -4   3    0.05    0.39
   3   4  -3   14.34    1.04
   3   4  -3   13.12    0.73
   3   4  -3   12.71    0.66
  -3  -4   3   14.21    0.60
  -3  -4   3   13.36    0.70
  -3  -4   3   12.55    0.75
  -3  -4   3   13.37    0.76
   2   4  -3   19.71    0.76
   2   4  -3   20.01    0.97
   2   4  -3   20.32    0.81
   2   4  -3   20.86    0.64
  -2  -4   3   19.63    0.80
  -2  -4   3   18.74    0.81
  -2  -4   3   19.58    0.78
   1   4  -3  193.11    5.37
   1   4  -3  184.65    5.25
   1   4  -3  185.07    5.27
   1   4  -3  198.23    5.27
  -1  -4   3  189.74    5.28
  -1  -4   3  185.46    5.24
  -1  -4   3  190.58    5.27
  -1  -4   3  188.95    5.27
   0   4  -3  304.19    8.27
   0   4  -3  304.88    8.30
   0   4  -3  301.93    8.32
   0   4  -3  302.05    8.27
   0  -4   3  301.86    8.42
   0  -4   3  305.25    8.33
   0  -4   3  316.13    8.26
   0  -4   3  297.73    8.22
   0  -4   3  292.92    8.27
  -1   4  -3   99.95    2.84
  -1   4  -3  101.07    2.86
  -1   4  -3  100.83    2.94
  -1   4  -3   97.03    2.94
   1  -4   3  100.48    2.78
   1  -4   3  104.16    2.89
   1  -4   3   98.62    3.07
   1  -4   3  103.62    3.05
   1  -4   3  106.74    2.97
  -2   4  -3   13.83    0.50
  -2   4  -3   12.89    0.59
  -2   4  -3   12.18    0.65
  -2   4  -3   12.72    0.63
   2  -4   3   13.43    0.78
   2  -4   3   13.36    0.56
   2  -4   3   13.86    0.83
   2  -4   3   13.02    0.81
  -3   4  -3    0.18    0.13
  -3   4  -3    0.54    0.26
  -3   4  -3    0.07    0.32
  -3   4  -3   -0.07    0.27
   3  -4   3   -0.23    0.61
   3  -4   3    0.12    0.14
   3  -4   3    0.13    0.42
   3  -4   3   -0.11    0.58
  -4   4  -3    7.16    0.35
  -4   4  -3    7.27    0.72
  -4   4  -3    6.71    0.60
   4  -4   3    7.19    1.03
   4  -4   3    7.06    0.99
   4  -4   3    8.11    0.93
  -5   4  -3   11.10    0.82
  -5   4  -3    8.80    0.85
   5  -4   3   11.92    1.26
   5  -4   3   12.80    1.28
   5  -4   3    9.41    1.21
  -6   4  -3   21.58    1.28
  -6   4  -3   19.29    1.52
  -6   4  -3   19.82    1.50
   6  -4   3   21.52    1.92
   6  -4   3   22.25    1.72
   6  -4   3   23.69    1.89
  -7   4  -3   10.95    1.36
   7  -4   3   11.34    1.72
   7  -4   3   14.64    1.94
  -8   4  -3    6.31    1.53
  -8   4  -3    6.67    1.47
   8  -4   3    6.57    1.75
   8  -4   3    5.15    1.62
   8   3  -3   -0.67    1.15
   8   3  -3    2.75    2.05
  -8  -3   3    0.81    1.02
  -8  -3   3   -0.27    1.03
   7   3  -3    2.79    1.54
   7   3  -3    2.33    1.16
  -7  -3   3    0.84    0.79
  -7  -3   3    0.86    0.85
  -7  -3   3    0.80    0.74
   6   3  -3    8.28    1.38
   6   3  -3    5.42    0.96
  -6  -3   3    6.03    0.76
  -6  -3   3    5.68    0.80
  -6  -3   3    5.73    0.78
   5   3  -3   45.91    1.99
   5   3  -3   45.86    2.16
   4   3  -3   48.57    1.52
   4   3  -3   47.82    1.89
   4   3  -3   46.07    2.03
  -4  -3   3   46.26    1.61
  -4  -3   3   46.73    1.70
  -4  -3   3   45.97    1.37
   3   3  -3   85.38    2.48
   3   3  -3   85.10    2.82
   3   3  -3   85.39    2.54
  -3  -3   3   87.12    2.53
  -3  -3   3   79.81    2.60
  -3  -3   3   85.86    2.42
  -3  -3   3   88.29    2.61
   2   3  -3   74.86    2.19
   2   3  -3   64.75    2.38
   2   3  -3   71.25    2.18
   2   3  -3   74.09    2.11
  -2  -3   3   73.23    2.12
  -2  -3   3   72.86    2.17
  -2  -3   3   70.06    2.27
  -2  -3   3   77.53    2.15
   1   3  -3  148.23    4.23
   1   3  -3  152.59    4.26
   1   3  -3  148.80    4.16
   1   3  -3  151.82    4.26
   1   3  -3  151.44    4.34
  -1  -3   3  156.69    4.18
  -1  -3   3  150.72    4.25
  -1  -3   3  154.86    4.35
  -1  -3   3  158.93    4.26
   0   3  -3   20.78    0.74
   0   3  -3   21.43    0.72
   0   3  -3   21.85    0.75
   0   3  -3   20.54    0.75
   0   3  -3   19.23    0.69
   0   3  -3   21.24    0.71
   0   3  -3   21.46    0.72
   0  -3   3   21.04    0.73
   0  -3   3   20.16    0.68
   0  -3   3   21.08    0.76
  -1   3  -3   23.64    0.81
  -1   3  -3   23.92    0.86
  -1   3  -3   24.52    0.77
  -1   3  -3   24.51    0.86
   1  -3   3   24.68    0.90
   1  -3   3   24.18    0.98
   1  -3   3   24.64    0.76
   1  -3   3   23.69    0.85
   1  -3   3   24.24    0.94
   1  -3   3   25.80    0.72
  -2   3  -3  168.63    4.69
  -2   3  -3  163.38    4.73
  -2   3  -3  166.32    4.59
  -2   3  -3  171.55    4.56
   2  -3   3  170.81    4.70
   2  -3   3  160.13    4.89
   2  -3   3  167.12    5.12
   2  -3   3  172.25    4.56
  -3   3  -3   69.83    2.05
  -3   3  -3   69.33    2.21
  -3   3  -3   71.85    1.94
  -3   3  -3   69.78    2.14
  -3   3  -3   70.91    1.94
   3  -3   3   69.25    2.49
   3  -3   3   72.64    2.47
   3  -3   3   68.76    2.50
  -4   3  -3   36.43    1.27
  -4   3  -3   37.78    1.45
  -4   3  -3   36.71    1.12
   4  -3   3   38.10    1.75
   4  -3   3   38.02    1.81
   4  -3   3   36.69    1.79
   4  -3   3   36.65    1.37
  -5   3  -3   34.80    1.67
  -5   3  -3   36.43    1.50
  -5   3  -3   34.83    1.29
   5  -3   3   37.32    1.86
   5  -3   3   35.65    1.88
   5  -3   3   37.58    1.91
   5  -3   3   36.90    1.60
  -6   3  -3   10.23    0.84
  -6   3  -3   11.11    1.04
  -6   3  -3    9.45    1.26
   6  -3   3    9.59    1.14
   6  -3   3   12.42    1.51
   6  -3   3   10.62    1.46
  -7   3  -3    2.88    1.32
  -7   3  -3    4.06    1.81
   7  -3   3    2.20    1.21
   7  -3   3    1.80    1.25
  -8   3  -3    2.12    1.42
  -8   3  -3    1.15    1.40
   8  -3   3   -2.21    1.41
   8  -3   3    3.11    1.59
   9   2  -3    3.71    2.86
  -9  -2   3    0.81    1.32
  -9  -2   3    2.07    1.49
   8   2  -3    4.96    1.96
   8   2  -3    3.46    1.17
  -8  -2   3    4.58    1.09
  -8  -2   3    1.16    1.11
   7   2  -3   13.73    1.63
   7   2  -3   16.01    1.94
  -7  -2   3   14.22    1.26
  -7  -2   3   14.87    1.34
  -7  -2   3   11.67    1.27
   6   2  -3   29.68    1.96
   6   2  -3   29.93    1.70
  -6  -2   3   30.60    1.53
  -6  -2   3   33.86    2.01
  -6  -2   3   31.10    1.48
   5   2  -3   34.70    1.68
   5   2  -3   39.37    1.93
   5   2  -3   34.76    1.56
  -5  -2   3   37.13    1.43
  -5  -2   3   37.98    1.11
  -5  -2   3   36.54    1.50
   4   2  -3    9.98    0.64
   4   2  -3    9.84    0.86
  -4  -2   3    9.81    0.67
  -4  -2   3    8.93    0.64
   3   2  -3    0.71    0.41
   3   2  -3   -0.34    0.31
   3   2  -3    0.02    0.29
  -3  -2   3    0.10    0.18
  -3  -2   3    0.49    0.20
  -3  -2   3   -0.07    0.30
  -3  -2   3    0.38    0.16
  -3  -2   3    0.00    0.21
  -3  -2   3    0.03    0.25
   2   2  -3   20.91    0.84
   2   2  -3   20.60    0.90
   2   2  -3   22.52    0.73
   2   2  -3   21.75    0.81
  -2  -2   3   21.67    0.75
  -2  -2   3   21.57    0.77
  -2  -2   3   21.77    0.72
  -2  -2   3   20.33    0.78
  -2  -2   3   22.18    0.71
   1   2  -3   49.79    1.41
   1   2  -3   50.52    1.40
   1   2  -3   48.33    1.51
   1   2  -3   48.09    1.54
   1   2  -3   51.46    1.53
   1   2  -3   47.83    1.45
  -1  -2   3   48.08    1.44
  -1  -2   3   49.32    1.41
  -1  -2   3   49.37    1.38
  -1  -2   3   48.01    1.52
  -1  -2   3   50.16    1.49
  -1  -2   3   48.10    1.46
  -1  -2   3   49.24    1.47
   0   2  -3  322.91    8.46
   0   2  -3  310.79    8.43
   0   2  -3  308.93    8.44
   0   2  -3  318.28    8.41
   0   2  -3  309.89    8.40
   0   2  -3  308.51    8.40
   0  -2   3  302.03    8.56
   0  -2   3  314.67    8.44
   0  -2   3  296.23    8.40
   0  -2   3  317.93    8.43
   0  -2   3  320.34    8.40
   0  -2   3  292.70    8.41
  -1   2  -3  438.07   11.20
  -1   2  -3  418.48   11.02
  -1   2  -3  394.35   10.89
  -1   2  -3  397.47   10.91
  -1   2  -3  403.67   10.81
   1  -2   3  410.10   10.97
   1  -2   3  349.76   10.90
   1  -2   3  403.58   11.01
   1  -2   3  401.90   10.99
  -2   2  -3  341.76    9.51
  -2   2  -3  354.55    9.69
  -2   2  -3  354.69    9.63
  -2   2  -3  336.43    9.49
   2  -2   3  368.92    9.87
   2  -2   3  361.16    9.90
   2  -2   3  356.06    9.68
   2  -2   3  351.05    9.48
   2  -2   3  366.60    9.57
   2  -2   3  348.58    9.54
  -3   2  -3   34.21    1.00
  -3   2  -3   32.03    1.21
  -3   2  -3   32.83    1.09
   3  -2   3   33.28    1.43
   3  -2   3   30.40    1.40
   3  -2   3   33.58    1.15
   3  -2   3   34.46    1.46
  -4   2  -3    4.53    0.39
  -4   2  -3    4.91    0.70
  -4   2  -3    4.13    0.63
   4  -2   3    5.32    0.82
   4  -2   3    4.94    0.82
   4  -2   3    4.44    0.51
  -5   2  -3    1.84    0.62
  -5   2  -3    2.70    0.57
   5  -2   3    3.88    0.79
   5  -2   3    1.63    0.71
   5  -2   3    2.13    0.50
  -6   2  -3    5.55    0.79
  -6   2  -3    3.73    0.87
   6  -2   3    5.57    1.02
   6  -2   3    4.99    1.10
   6  -2   3    4.57    0.99
  -7   2  -3    3.51    0.93
  -7   2  -3    2.33    1.25
   7  -2   3    1.92    1.24
   7  -2   3    4.28    1.25
  -8   2  -3    7.38    1.60
  -8   2  -3    6.79    1.59
   8  -2   3    9.94    1.82
   8  -2   3   10.10    1.84
   9   1  -3   -0.64    1.46
   9   1  -3    4.76    2.63
  -9  -1   3    2.55    1.28
  -9  -1   3    3.23    1.39
   8   1  -3    5.46    1.93
   8   1  -3    3.81    1.21
  -8  -1   3    6.28    1.13
  -8  -1   3    5.33    1.08
   7   1  -3    1.03    0.87
   7   1  -3    0.66    1.13
  -7  -1   3   -0.03    0.62
  -7  -1   3    1.09    0.65
  -7  -1   3    1.47    0.64
   6   1  -3    2.86    0.94
   6   1  -3    0.88    0.65
  -6  -1   3    1.44    0.29
  -6  -1   3    0.82    0.51
  -6  -1   3    2.01    0.32
  -6  -1   3    1.75    0.58
  -6  -1   3    2.00    0.58
   5   1  -3   13.62    1.07
   5   1  -3   13.71    0.95
   5   1  -3   13.46    1.20
  -5  -1   3   13.25    0.79
  -5  -1   3   14.05    0.91
  -5  -1   3   13.80    0.58
   4   1  -3   74.70    2.55
   4   1  -3   74.59    2.50
   4   1  -3   76.10    2.73
  -4  -1   3   76.92    2.15
  -4  -1   3   74.65    2.39
  -4  -1   3   75.74    2.35
  -4  -1   3   77.47    2.30
   3   1  -3  204.37    5.73
   3   1  -3  196.51    5.61
   3   1  -3  198.93    5.82
   3   1  -3  197.37    5.70
  -3  -1   3  195.12    5.41
  -3  -1   3  210.16    5.68
  -3  -1   3  194.28    5.58
  -3  -1   3  197.09    5.40
  -3  -1   3  196.39    5.54
  -3  -1   3  200.39    5.48
   2   1  -3  144.79    4.25
   2   1  -3  148.71    4.06
   2   1  -3  144.67    4.19
   2   1  -3  144.16    4.05
   2   1  -3  150.12    3.98
  -2  -1   3  147.22    4.13
  -2  -1   3  145.44    4.08
  -2  -1   3  145.22    3.97
  -2  -1   3  149.54    4.05
  -2  -1   3  140.61    4.03
  -2  -1   3  147.23    4.16
  -2  -1   3  145.55    3.97
  -2  -1   3  141.63    4.11
   1   1  -3  176.91    4.86
   1   1  -3  180.29    5.00
   1   1  -3  180.71    5.01
   1   1  -3  180.15    4.90
   1   1  -3  175.04    4.93
   1   1  -3  177.45    4.82
   1   1  -3  175.69    4.79
  -1  -1   3  179.44    4.96
  -1  -1   3  187.38    4.99
  -1  -1   3  170.61    4.85
  -1  -1   3  173.88    4.88
  -1  -1   3  182.67    4.87
   0   1  -3  352.19    9.34
   0   1  -3  342.36    9.28
   0   1  -3  346.81    9.31
   0   1  -3  343.87    9.36
   0   1  -3  344.02    9.30
   0   1  -3  349.38    9.28
   0   1  -3  351.76    9.31
   0  -1   3  337.48    9.28
   0  -1   3  330.33    9.30
   0  -1   3  342.13    9.34
   0  -1   3  334.68    9.31
   0  -1   3  350.73    9.30
  -1   1  -3   10.20    0.38
  -1   1  -3   10.12    0.64
  -1   1  -3    9.74    0.48
  -1   1  -3    9.78    0.44
   1  -1   3   10.62    0.43
   1  -1   3   10.07    0.40
   1  -1   3    9.64    0.48
   1  -1   3   10.03    0.57
   1  -1   3   10.40    0.33
   1  -1   3    9.28    0.51
  -2   1  -3   35.51    1.21
  -2   1  -3   36.53    1.28
  -2   1  -3   35.07    1.11
  -2   1  -3   35.06    1.06
   2  -1   3   35.66    1.10
   2  -1   3   35.50    1.10
   2  -1   3   34.67    1.35
   2  -1   3   35.04    1.20
   2  -1   3   35.17    1.10
   2  -1   3   35.92    1.33
  -3   1  -3  119.12    3.37
  -3   1  -3  118.77    3.63
  -3   1  -3  120.03    3.52
   3  -1   3  119.20    3.49
   3  -1   3  121.12    3.76
   3  -1   3  120.45    3.42
   3  -1   3  117.94    3.72
  -4   1  -3   33.94    1.51
  -4   1  -3   31.88    1.04
  -4   1  -3   29.65    1.31
   4  -1   3   29.99    1.57
   4  -1   3   31.39    1.26
   4  -1   3   30.92    1.60
  -5   1  -3   21.32    1.32
  -5   1  -3   20.43    0.77
  -5   1  -3   20.89    1.13
   5  -1   3   22.67    1.47
   5  -1   3   20.12    1.17
   5  -1   3   21.38    1.42
  -6   1  -3   30.57    1.53
  -6   1  -3   31.09    1.80
   6  -1   3   28.77    1.90
   6  -1   3   28.48    1.88
   6  -1   3   28.16    1.89
  -7   1  -3    1.21    1.16
  -7   1  -3    0.96    1.07
   7  -1   3    1.55    1.23
   7  -1   3    2.44    1.25
  -8   1  -3    1.77    1.39
   8  -1   3    4.27    1.59
   9   0  -3    3.90    2.50
   9   0  -3    1.27    1.47
  -9   0   3   -0.46    1.30
  -9   0   3    0.64    1.18
   8   0  -3    1.80    1.03
  -8   0   3    2.20    0.99
  -8   0   3    3.41    1.13
   7   0  -3   17.39    1.98
   7   0  -3   17.02    1.52
  -7   0   3   11.53    1.11
  -7   0   3   13.41    1.18
  -7   0   3   15.39    1.19
   6   0  -3   48.03    2.05
   6   0  -3   45.34    2.16
   6   0  -3   45.59    2.07
   6   0  -3   45.75    2.32
  -6   0   3   47.21    1.80
  -6   0   3   47.12    1.54
  -6   0   3   43.62    1.51
  -6   0   3   46.01    1.81
  -6   0   3   46.78    1.84
   5   0  -3  114.97    3.71
   5   0  -3  112.13    3.90
   5   0  -3  108.55    3.69
   5   0  -3  112.10    3.76
   5   0  -3  115.02    3.65
  -5   0   3  111.92    3.24
  -5   0   3  113.20    3.41
  -5   0   3  117.70    3.48
   4   0  -3  111.18    3.48
   4   0  -3  106.91    3.64
   4   0  -3  109.24    3.40
   4   0  -3  112.61    3.57
   4   0  -3  108.87    3.46
  -4   0   3  109.41    3.28
  -4   0   3  112.47    3.15
  -4   0   3  114.36    3.25
  -4   0   3  114.73    3.26
   3   0  -3    2.06    0.41
   3   0  -3    1.92    0.35
   3   0  -3    2.57    0.45
   3   0  -3    1.80    0.31
   3   0  -3    1.52    0.42
  -3   0   3    1.94    0.26
  -3   0   3    1.98    0.24
  -3   0   3    2.30    0.26
  -3   0   3    2.04    0.25
   2   0  -3  123.23    3.45
   2   0  -3  119.89    3.45
   2   0  -3  121.14    3.34
   2   0  -3  119.58    3.60
   2   0  -3  120.07    3.38
   2   0  -3  117.71    3.59
  -2   0   3  120.18    3.29
  -2   0   3  121.76    3.33
  -2   0   3  123.34    3.37
  -2   0   3  119.88    3.37
  -2   0   3  120.38    3.42
  -2   0   3  119.59    3.41
   1   0  -3   33.12    0.95
   1   0  -3   32.45    1.04
   1   0  -3   31.38    1.15
   1   0  -3   32.20    1.19
   1   0  -3   34.15    1.07
   1   0  -3   33.24    0.93
   1   0  -3   33.74    1.01
  -1   0   3   33.63    1.04
  -1   0   3   32.65    1.16
  -1   0   3   34.17    0.94
  -1   0   3   32.73    1.03
  -1   0   3   33.86    1.02
  -1   0   3   34.02    0.93
  -1   0   3   33.15    1.12
  -1   0   3   33.93    0.95
   0   0  -3   13.83    0.63
   0   0  -3   14.86    0.49
   0   0  -3   15.05    0.54
   0   0  -3   14.67    0.51
   0   0  -3   14.03    0.63
   0   0  -3   14.28    0.55
   0   0   3   14.26    0.52
   0   0   3   14.65    0.60
   0   0   3   14.76    0.65
   0   0   3   15.50    0.61
   0   0   3   13.61    0.54
   0   0   3   15.05    0.49
   0   0   3   14.67    0.55
  -1   0  -3  506.32   13.74
  -1   0  -3  505.40   13.78
  -1   0  -3  524.53   13.78
  -1   0  -3  478.40   13.65
  -1   0  -3  510.59   13.79
   1   0   3  517.38   13.70
   1   0   3  517.36   13.78
   1   0   3  507.48   13.75
   1   0   3  499.35   13.81
  -2   0  -3  387.56   10.82
  -2   0  -3  393.95   10.70
  -2   0  -3  400.85   11.03
   2   0   3  388.92   11.00
   2   0   3  397.55   10.74
   2   0   3  383.22   10.94
   2   0   3  416.90   10.67
   2   0   3  386.09   10.73
  -3   0  -3  173.17    4.76
  -3   0  -3  172.13    4.94
  -3   0  -3  173.50    5.06
   3   0   3  163.88    4.97
   3   0   3  173.48    5.16
   3   0   3  165.82    4.70
   3   0   3  177.40    5.14
   3   0   3  174.11    4.94
  -4   0  -3   52.78    1.90
  -4   0  -3   52.38    2.04
  -4   0  -3   52.74    1.57
   4   0   3   52.52    2.16
   4   0   3   52.54    1.90
   4   0   3   51.41    2.10
  -5   0  -3    9.96    0.99
  -5   0  -3    9.70    1.05
   5   0   3   10.70    1.11
   5   0   3   11.41    1.18
   5   0   3   11.23    1.14
  -6   0  -3    1.68    0.72
  -6   0  -3    1.77    0.79
  -6   0  -3    0.74    0.66
   6   0   3    1.42    0.91
   6   0   3    2.40    0.94
   6   0   3    0.32    0.85
  -7   0  -3    0.79    1.01
  -7   0  -3    2.97    0.97
  -7   0  -3    0.67    1.04
   7   0   3    1.22    1.27
  -8   0  -3    0.37    1.44
  -8   0  -3    1.27    1.42
   8   0   3    1.40    1.73
   9  -1  -3    6.78    2.57
   9  -1  -3    2.59    1.44
  -9   1   3    6.02    1.61
   8  -1  -3    3.93    2.07
   8  -1  -3    4.99    1.21
  -8   1   3    4.55    0.81
  -8   1   3    3.08    0.97
  -8   1   3    4.96    1.03
   7  -1  -3   12.78    1.69
   7  -1  -3   10.78    1.51
   7  -1  -3   11.34    1.43
   7  -1  -3   11.96    1.39
  -7   1   3   11.01    1.19
  -7   1   3   10.41    1.11
  -7   1   3   12.96    1.21
  -7   1   3   10.66    1.08
  -7   1   3   10.94    0.84
   6  -1  -3    5.67    1.05
   6  -1  -3    5.84    0.98
   6  -1  -3    4.68    0.84
   6  -1  -3    4.13    1.01
   6  -1  -3    4.42    0.78
  -6   1   3    3.70    0.68
  -6   1   3    3.46    0.46
  -6   1   3    4.80    0.52
  -6   1   3    4.94    0.67
  -6   1   3    3.27    0.61
   5  -1  -3    0.80    0.53
   5  -1  -3    0.74    0.58
   5  -1  -3   -0.20    0.68
   5  -1  -3   -0.06    0.66
   5  -1  -3    1.14    0.78
  -5   1   3    0.76    0.29
  -5   1   3    0.05    0.32
  -5   1   3    0.55    0.37
  -5   1   3    1.38    0.38
   4  -1  -3    1.91    0.49
   4  -1  -3    2.34    0.54
   4  -1  -3    1.68    0.43
   4  -1  -3    2.04    0.63
   4  -1  -3    1.55    0.43
  -4   1   3    1.96    0.31
  -4   1   3    1.49    0.29
  -4   1   3    1.99    0.31
   3  -1  -3  322.91    9.14
   3  -1  -3  320.10    8.89
   3  -1  -3  324.80    9.01
   3  -1  -3  326.58    8.91
  -3   1   3  325.21    8.73
  -3   1   3  318.44    8.76
  -3   1   3  311.23    8.79
   2  -1  -3  271.48    7.35
   2  -1  -3  273.73    7.51
   2  -1  -3  263.70    7.59
   2  -1  -3  265.65    7.30
   2  -1  -3  269.19    7.61
   2  -1  -3  263.03    7.46
  -2   1   3  260.59    7.33
  -2   1   3  267.35    7.22
  -2   1   3  244.08    7.41
  -2   1   3  268.43    7.25
  -2   1   3  272.60    7.33
  -2   1   3  267.96    7.37
  -2   1   3  269.91    7.30
  -2   1   3  296.07    7.53
   1  -1  -3   96.25    2.96
   1  -1  -3   93.30    2.68
   1  -1  -3   95.04    2.97
   1  -1  -3  100.99    2.71
   1  -1  -3   95.33    2.61
   1  -1  -3   94.90    2.81
  -1   1   3   99.02    2.69
  -1   1   3   97.98    2.77
  -1   1   3   98.02    2.71
  -1   1   3   98.49    2.82
   0  -1  -3  165.99    4.47
   0  -1  -3  162.63    4.51
   0  -1  -3  168.41    4.64
   0  -1  -3  166.66    4.55
   0   1   3  156.80    4.53
   0   1   3  160.44    4.48
   0   1   3  161.09    4.57
   0   1   3  163.15    4.52
   0   1   3  165.16    4.52
   0   1   3  160.91    4.53
  -1  -1  -3   39.89    1.40
  -1  -1  -3   42.22    1.18
  -1  -1  -3   36.83    1.34
  -1  -1  -3   41.42    1.40
   1   1   3   42.78    1.31
   1   1   3   40.87    1.35
   1   1   3   42.60    1.29
   1   1   3   39.40    1.31
   1   1   3   41.52    1.19
  -2  -1  -3  170.38    4.63
  -2  -1  -3  166.21    4.92
  -2  -1  -3  167.67    4.94
   2   1   3  172.05    4.84
   2   1   3  174.85    4.66
   2   1   3  173.99    4.70
  -3  -1  -3   13.62    0.85
  -3  -1  -3   14.46    0.45
  -3  -1  -3   13.39    0.96
   3   1   3   13.50    0.97
   3   1   3   13.29    0.95
   3   1   3   13.20    0.44
   3   1   3   13.48    0.73
   3   1   3   13.52    0.77
   3   1   3   14.18    0.49
  -4  -1  -3   58.13    1.57
  -4  -1  -3   54.75    2.05
  -4  -1  -3   55.48    2.16
   4   1   3   56.23    2.22
   4   1   3   56.51    2.10
   4   1   3   54.23    2.27
  -5  -1  -3   12.92    1.12
  -5  -1  -3   14.34    1.16
  -5  -1  -3   12.94    1.10
   5   1   3   14.36    1.38
   5   1   3   13.63    1.30
  -6  -1  -3    7.38    1.05
  -6  -1  -3    7.20    1.01
  -6  -1  -3    6.69    1.10
   6   1   3   11.42    1.49
   6   1   3    7.20    1.27
  -7  -1  -3    5.56    1.25
  -7  -1  -3    7.86    1.33
   7   1   3    8.34    1.64
  -8  -1  -3    1.53    1.56
  -8  -1  -3   -1.03    1.39
   8   1   3   -1.67    1.68
   9  -2  -3    3.30    1.34
   9  -2  -3    2.35    2.38
   8  -2  -3    1.30    1.19
   8  -2  -3   -0.40    1.03
   8  -2  -3    0.30    1.69
  -8   2   3   -0.23    0.84
  -8   2   3    1.22    0.83
   7  -2  -3    4.99    1.23
   7  -2  -3    3.81    1.51
   7  -2  -3    4.58    1.17
   7  -2  -3    5.18    1.07
   7  -2  -3    4.34    1.05
  -7   2   3    3.19    0.70
  -7   2   3    4.60    0.75
  -7   2   3    3.88    0.69
  -7   2   3    3.94    0.62
  -7   2   3    3.97    0.70
  -7   2   3    4.34    0.71
  -7   2   3    3.70    0.81
   6  -2  -3   29.93    1.60
   6  -2  -3   29.90    1.83
   6  -2  -3   31.06    1.60
   6  -2  -3   30.34    1.91
   6  -2  -3   28.62    1.71
  -6   2   3   28.76    1.32
  -6   2   3   26.91    1.48
  -6   2   3   28.31    1.18
  -6   2   3   31.06    1.33
  -6   2   3   29.96    1.28
  -6   2   3   29.85    1.26
  -6   2   3   29.51    1.33
   5  -2  -3   83.76    3.06
   5  -2  -3   85.85    2.91
   5  -2  -3   85.08    3.21
   5  -2  -3   86.36    2.94
   5  -2  -3   83.31    3.21
  -5   2   3   85.66    2.57
  -5   2   3   81.69    2.58
  -5   2   3   82.39    2.68
  -5   2   3   84.72    2.59
  -5   2   3   86.54    2.60
   4  -2  -3  144.08    4.37
   4  -2  -3  142.16    4.31
   4  -2  -3  140.16    4.51
   4  -2  -3  138.26    4.63
   4  -2  -3  147.95    4.68
  -4   2   3  150.95    4.11
  -4   2   3  148.99    4.11
  -4   2   3  144.88    4.14
  -4   2   3  147.64    4.14
   3  -2  -3  187.18    5.37
   3  -2  -3  189.56    5.67
   3  -2  -3  187.94    5.31
   3  -2  -3  186.30    5.67
   3  -2  -3  183.01    5.51
  -3   2   3  186.35    5.24
  -3   2   3  189.38    5.24
  -3   2   3  191.27    5.17
  -3   2   3  189.49    5.14
   2  -2  -3   79.21    2.19
   2  -2  -3   75.84    2.44
   2  -2  -3   77.04    2.31
   2  -2  -3   78.38    2.60
   2  -2  -3   76.81    2.61
  -2   2   3   79.54    2.22
  -2   2   3   76.36    2.17
  -2   2   3   76.46    2.22
  -2   2   3   78.34    2.27
  -2   2   3   77.82    2.28
  -2   2   3   78.12    2.25
   1  -2  -3  202.18    5.68
   1  -2  -3  204.47    5.55
   1  -2  -3  211.45    5.53
   1  -2  -3  206.45    5.84
  -1   2   3  200.10    5.46
  -1   2   3  193.77    5.58
  -1   2   3  204.43    5.54
  -1   2   3  195.60    5.51
  -1   2   3  198.59    5.55
   0  -2  -3    4.50    0.31
   0  -2  -3    4.43    0.47
   0  -2  -3    4.23    0.26
   0  -2  -3    3.79    0.35
   0  -2  -3    3.64    0.41
   0   2   3    4.39    0.31
   0   2   3    4.04    0.26
   0   2   3    4.14    0.27
   0   2   3    4.31    0.34
  -1  -2  -3   47.14    1.64
  -1  -2  -3   49.00    1.60
   1   2   3   48.47    1.41
   1   2   3   46.75    1.53
   1   2   3   47.34    1.53
   1   2   3   46.86    1.49
  -2  -2  -3  206.98    6.15
  -2  -2  -3  211.91    6.16
   2   2   3  219.58    5.89
   2   2   3  219.83    5.95
   2   2   3  214.17    6.07
   2   2   3  217.51    6.20
  -3  -2  -3   78.64    2.65
  -3  -2  -3   80.12    2.74
   3   2   3   81.18    2.61
   3   2   3   82.23    2.70
   3   2   3   82.48    2.35
   3   2   3   80.64    2.78
  -4  -2  -3   61.95    2.29
  -4  -2  -3   59.89    2.23
  -4  -2  -3   60.26    2.34
   4   2   3   63.19    2.45
   4   2   3   62.43    2.23
   4   2   3   61.00    2.60
  -5  -2  -3   45.66    2.07
  -5  -2  -3   44.33    1.95
  -5  -2  -3   45.99    1.95
   5   2   3   43.99    2.16
   5   2   3   44.81    2.18
  -6  -2  -3   10.22    1.18
  -6  -2  -3    6.77    1.03
  -6  -2  -3   10.66    1.23
   6   2   3   11.16    1.57
   6   2   3    8.72    1.41
  -7  -2  -3    0.33    1.00
  -7  -2  -3    1.63    1.23
   7   2   3    0.39    1.18
  -8  -2  -3    1.39    1.84
  -8  -2  -3    1.18    1.53
   8   2   3   -0.20    1.85
   9  -3  -3    4.35    1.37
   8  -3  -3    6.76    1.41
   8  -3  -3    6.90    1.96
   8  -3  -3    7.79    1.57
   8  -3  -3   10.82    2.07
   7  -3  -3    5.58    1.30
   7  -3  -3    6.84    1.37
   7  -3  -3    4.62    1.38
   7  -3  -3    5.18    1.11
   7  -3  -3    4.68    1.01
  -7   3   3    2.77    0.71
  -7   3   3    4.68    0.60
  -7   3   3    2.76    0.82
  -7   3   3    4.43    0.75
  -7   3   3    6.15    0.78
  -7   3   3    4.59    0.66
  -7   3   3    4.74    0.74
   6  -3  -3   35.10    1.87
   6  -3  -3   36.11    2.01
   6  -3  -3   34.68    2.17
   6  -3  -3   38.00    1.78
   6  -3  -3   38.03    2.17
  -6   3   3   37.96    1.55
  -6   3   3   34.54    1.66
  -6   3   3   38.03    1.54
  -6   3   3   38.91    1.58
  -6   3   3   38.42    1.39
  -6   3   3   38.53    1.47
   5  -3  -3    9.46    1.27
   5  -3  -3    9.53    1.01
   5  -3  -3   10.80    1.16
   5  -3  -3   10.69    1.07
   5  -3  -3   10.13    1.11
  -5   3   3   10.37    0.86
  -5   3   3    9.43    0.68
  -5   3   3   10.07    0.57
  -5   3   3   11.64    0.71
  -5   3   3    9.61    0.60
   4  -3  -3   -0.88    0.95
   4  -3  -3   -0.04    0.73
   4  -3  -3   -0.45    0.26
   4  -3  -3   -0.17    0.38
  -4   3   3    0.08    0.16
  -4   3   3   -0.08    0.26
  -4   3   3    0.07    0.23
   3  -3  -3    0.64    0.49
   3  -3  -3    0.52    0.21
   3  -3  -3    0.53    0.29
   3  -3  -3   -0.05    0.44
   3  -3  -3   -0.54    0.49
  -3   3   3    0.81    0.14
  -3   3   3    0.48    0.23
  -3   3   3    0.50    0.12
  -3   3   3    1.11    0.27
   2  -3  -3  422.15   11.93
   2  -3  -3  432.57   12.10
   2  -3  -3  438.16   11.73
   2  -3  -3  451.33   12.28
   2  -3  -3  450.01   11.88
  -2   3   3  432.08   11.77
  -2   3   3  444.48   11.86
  -2   3   3  427.77   11.74
  -2   3   3  426.83   11.86
   1  -3  -3   20.51    0.78
   1  -3  -3   19.91    0.69
   1  -3  -3   20.46    0.99
   1  -3  -3   20.77    0.62
   1  -3  -3   20.30    1.03
  -1   3   3   21.17    0.69
  -1   3   3   19.81    0.80
  -1   3   3   20.71    0.76
   0  -3  -3  188.29    5.29
   0  -3  -3  178.71    4.97
   0  -3  -3  180.21    5.25
   0  -3  -3  186.30    5.34
   0   3   3  176.46    5.00
   0   3   3  175.14    4.93
   0   3   3  175.38    5.03
  -1  -3  -3   37.74    1.39
  -1  -3  -3   38.60    1.42
  -1  -3  -3   36.69    1.40
  -1  -3  -3   36.32    1.25
   1   3   3   35.64    1.25
   1   3   3   37.84    1.18
   1   3   3   36.37    1.31
  -2  -3  -3   43.63    1.56
  -2  -3  -3   43.51    1.65
  -2  -3  -3   41.50    1.68
   2   3   3   45.40    1.40
   2   3   3   44.75    1.62
   2   3   3   46.23    1.40
   2   3   3   44.10    1.60
  -3  -3  -3   75.49    2.70
  -3  -3  -3   78.87    2.65
  -3  -3  -3   76.54    2.60
   3   3   3   79.33    2.35
   3   3   3   80.91    2.64
  -4  -3  -3    3.21    0.74
  -4  -3  -3    1.96    0.58
  -4  -3  -3    3.29    0.78
   4   3   3    3.95    0.41
   4   3   3    2.61    0.58
   4   3   3    2.94    0.75
   4   3   3    2.25    0.68
  -5  -3  -3    6.10    0.86
  -5  -3  -3    7.84    1.02
  -5  -3  -3    6.05    0.90
   5   3   3    7.74    1.15
   5   3   3    9.80    1.27
  -6  -3  -3    4.90    1.04
  -6  -3  -3    3.21    1.08
   6   3   3    3.56    1.22
   6   3   3    4.08    1.20
  -7  -3  -3    0.47    1.04
  -7  -3  -3    0.55    1.21
   7   3   3    1.68    1.29
  -8  -3  -3    0.93    1.76
  -8  -3  -3    1.64    1.92
   8   3   3    1.89    2.10
   9  -4  -3    2.18    1.41
   9  -4  -3    5.55    1.75
   8  -4  -3    3.89    1.18
   8  -4  -3    5.56    1.56
   8  -4  -3    3.51    1.29
   8  -4  -3    5.71    1.60
   7  -4  -3    0.94    1.35
   7  -4  -3    1.38    1.06
   7  -4  -3    0.01    1.25
   7  -4  -3    0.47    1.20
   7  -4  -3    0.98    0.79
  -7   4   3    0.07    0.45
  -7   4   3    0.67    0.61
  -7   4   3    0.98    0.60
  -7   4   3    1.91    0.67
  -7   4   3    0.73    1.42
   6  -4  -3    7.22    1.34
   6  -4  -3    6.87    0.87
   6  -4  -3    8.80    1.34
   6  -4  -3    6.68    1.05
   6  -4  -3    6.80    1.16
  -6   4   3    6.89    0.80
  -6   4   3    5.72    0.60
  -6   4   3    7.64    0.68
  -6   4   3    7.00    0.86
  -6   4   3    7.64    0.88
  -6   4   3    5.58    1.01
   5  -4  -3   10.08    1.27
   5  -4  -3   11.26    1.16
   5  -4  -3   13.11    1.40
   5  -4  -3   10.99    1.22
   5  -4  -3   10.04    1.10
  -5   4   3   10.38    0.83
  -5   4   3   10.63    0.68
  -5   4   3    9.74    0.51
  -5   4   3    9.87    0.67
   4  -4  -3   66.67    2.78
   4  -4  -3   65.62    2.41
   4  -4  -3   66.41    2.15
   4  -4  -3   68.52    2.65
  -4   4   3   65.42    2.08
  -4   4   3   68.63    2.16
  -4   4   3   66.44    1.90
   3  -4  -3   72.98    2.46
   3  -4  -3   74.24    2.20
   3  -4  -3   71.15    2.67
  -3   4   3   73.27    2.24
  -3   4   3   74.75    2.07
  -3   4   3   71.11    2.26
  -3   4   3   82.73    2.39
  -3   4   3   72.97    2.06
   2  -4  -3  428.79   12.09
   2  -4  -3  451.21   12.44
   2  -4  -3  438.97   11.78
   2  -4  -3  429.50   12.26
  -2   4   3  440.62   11.95
  -2   4   3  431.53   12.05
  -2   4   3  443.09   11.76
  -2   4   3  444.35   11.79
   1  -4  -3   29.42    0.88
   1  -4  -3   29.56    1.13
   1  -4  -3   27.52    1.32
   1  -4  -3   28.23    1.27
   1  -4  -3   28.59    0.93
  -1   4   3   28.76    1.02
  -1   4   3   28.12    1.04
   0  -4  -3   47.20    1.45
   0  -4  -3   45.09    1.73
   0  -4  -3   46.30    1.62
   0  -4  -3   45.66    1.68
   0   4   3   47.34    1.49
   0   4   3   47.02    1.36
   0   4   3   47.06    1.57
  -1  -4  -3    0.93    0.27
  -1  -4  -3    0.98    0.37
  -1  -4  -3    1.06    0.41
  -1  -4  -3    1.11    0.42
   1   4   3    1.10    0.26
   1   4   3    1.04    0.38
   1   4   3    1.69    0.29
  -2  -4  -3   31.33    1.38
  -2  -4  -3   30.21    1.28
  -2  -4  -3   31.50    1.27
  -2  -4  -3   29.14    1.44
   2   4   3   30.50    1.00
   2   4   3   31.05    1.11
   2   4   3   32.10    1.36
   2   4   3   29.61    1.26
  -3  -4  -3    3.72    0.58
  -3  -4  -3    3.91    0.71
  -3  -4  -3    3.84    0.68
   3   4   3    2.65    0.68
   3   4   3    3.81    0.61
   3   4   3    3.06    0.40
  -4  -4  -3   34.31    1.66
  -4  -4  -3   36.02    1.61
  -4  -4  -3   35.51    1.73
   4   4   3   32.03    1.82
   4   4   3   35.87    1.76
   4   4   3   35.38    1.66
   4   4   3   28.22    1.26
  -5  -4  -3   16.45    1.35
  -5  -4  -3   15.89    1.48
  -5  -4  -3   20.28    1.40
   5   4   3   15.15    1.52
   5   4   3   17.50    1.82
  -6  -4  -3   10.55    1.43
  -6  -4  -3   11.29    1.49
   6   4   3   10.71    2.55
   6   4   3   16.60    2.12
  -7  -4  -3    1.16    1.45
  -7  -4  -3    1.02    1.23
   7   4   3    3.06    1.56
   9  -5  -3   -1.61    1.98
   9  -5  -3    1.19    1.81
   8  -5  -3    2.40    1.16
   8  -5  -3    2.17    1.55
   8  -5  -3    1.56    1.57
   8  -5  -3    3.60    1.43
  -8   5   3    3.15    1.01
   7  -5  -3    5.47    1.65
   7  -5  -3    6.45    1.37
   7  -5  -3    5.52    0.97
   7  -5  -3    7.33    1.62
  -7   5   3    4.93    0.66
  -7   5   3    5.77    1.07
  -7   5   3    4.72    0.87
  -7   5   3    5.35    0.91
   6  -5  -3   18.22    1.96
   6  -5  -3   18.76    1.39
   6  -5  -3   18.25    1.90
   6  -5  -3   21.88    1.78
  -6   5   3   19.00    1.00
  -6   5   3   16.43    0.94
  -6   5   3   19.46    1.20
   5  -5  -3   32.71    2.00
   5  -5  -3   31.95    2.10
   5  -5  -3   31.08    1.40
   5  -5  -3   34.79    1.85
  -5   5   3   31.50    1.22
  -5   5   3   34.10    1.47
  -5   5   3   31.20    1.26
  -5   5   3   31.19    1.01
   4  -5  -3    9.28    1.29
   4  -5  -3    9.31    0.58
   4  -5  -3   10.82    1.12
  -4   5   3   10.12    0.66
  -4   5   3   10.15    0.82
  -4   5   3    9.45    0.59
   3  -5  -3    7.52    1.09
   3  -5  -3    7.03    0.75
   3  -5  -3    6.69    1.00
   3  -5  -3    6.33    0.36
  -3   5   3    7.08    0.52
  -3   5   3    7.13    0.62
  -3   5   3    6.56    0.31
   2  -5  -3    0.14    0.08
   2  -5  -3    0.06    0.62
   2  -5  -3   -0.22    0.32
   2  -5  -3    0.34    0.16
   2  -5  -3    0.00    0.29
  -2   5   3    0.20    0.51
  -2   5   3    0.15    0.12
  -2   5   3    0.47    0.27
   1  -5  -3   36.75    1.42
   1  -5  -3   35.64    1.65
   1  -5  -3   39.79    1.19
   1  -5  -3   44.94    1.48
   1  -5  -3   37.93    1.68
  -1   5   3   36.83    1.31
  -1   5   3   39.44    1.38
  -1   5   3   35.27    1.21
   0  -5  -3   65.81    2.19
   0  -5  -3   66.42    1.97
   0  -5  -3   61.57    2.28
   0   5   3   63.18    2.01
   0   5   3   64.10    2.11
  -1  -5  -3   62.64    2.19
  -1  -5  -3   60.21    2.03
  -1  -5  -3   62.24    2.27
  -1  -5  -3   63.64    2.28
   1   5   3   66.64    2.22
   1   5   3   63.07    2.01
   1   5   3   64.31    1.98
  -2  -5  -3   34.44    1.40
  -2  -5  -3   35.19    1.47
  -2  -5  -3   35.95    1.64
   2   5   3   35.03    1.41
   2   5   3   34.37    1.16
   2   5   3   36.33    1.55
   2   5   3   37.71    1.35
  -3  -5  -3    6.22    0.65
  -3  -5  -3    6.34    0.91
  -3  -5  -3    4.36    0.69
  -3  -5  -3    6.32    0.77
   3   5   3    4.81    0.29
   3   5   3    5.09    0.70
   3   5   3    6.77    0.98
  -4  -5  -3    6.37    0.97
  -4  -5  -3    6.58    1.00
  -4  -5  -3    8.09    1.01
   4   5   3    6.97    1.31
   4   5   3    4.72    0.73
   4   5   3    6.35    0.91
  -5  -5  -3    0.22    0.81
  -5  -5  -3    0.62    0.89
  -5  -5  -3    1.27    0.92
   5   5   3    0.86    0.85
  -6  -5  -3   -1.25    0.95
  -6  -5  -3    1.74    1.12
   6   5   3    0.22    1.26
   6   5   3   -3.18    1.85
  -7  -5  -3    0.74    1.34
  -7  -5  -3   -0.59    1.50
   7   5   3    0.35    1.56
   8  -6  -3    6.42    1.83
   8  -6  -3    5.46    1.83
   8  -6  -3    2.48    1.53
  -8   6   3    3.05    1.41
  -8   6   3    5.80    1.17
   7  -6  -3    1.68    0.83
   7  -6  -3   -1.09    1.38
   7  -6  -3    2.06    1.35
   7  -6  -3    1.23    1.44
  -7   6   3    1.87    0.60
  -7   6   3    0.85    0.86
  -7   6   3    0.48    0.84
   6  -6  -3    1.45    1.01
   6  -6  -3    1.08    1.08
   6  -6  -3    0.99    0.63
   6  -6  -3   -0.02    1.13
  -6   6   3   -0.02    0.58
  -6   6   3    0.76    0.46
   5  -6  -3    1.61    0.98
   5  -6  -3    0.42    0.44
   5  -6  -3    1.12    0.76
   5  -6  -3    1.82    0.94
  -5   6   3    0.16    0.36
  -5   6   3    1.40    0.44
  -5   6   3    0.80    0.56
   4  -6  -3    1.03    0.75
   4  -6  -3    1.41    0.79
   4  -6  -3    0.93    0.27
   4  -6  -3    1.18    0.86
  -4   6   3    0.84    0.37
  -4   6   3    1.64    0.54
  -4   6   3    1.26    0.33
   3  -6  -3   15.78    1.47
   3  -6  -3   15.17    1.21
   3  -6  -3   16.33    1.21
  -3   6   3   17.12    1.02
  -3   6   3   16.23    0.58
  -3   6   3   17.60    0.81
  -3   6   3   17.95    0.85
   2  -6  -3   89.14    2.84
   2  -6  -3   96.18    3.32
   2  -6  -3   99.32    3.45
   2  -6  -3   86.86    3.20
   2  -6  -3  106.08    3.64
  -2   6   3  104.64    3.01
  -2   6   3   99.32    2.78
  -2   6   3  105.47    3.02
  -2   6   3  102.34    3.14
   1  -6  -3   97.74    3.47
   1  -6  -3  100.52    3.49
   1  -6  -3  101.78    2.91
   1  -6  -3  105.69    3.23
  -1   6   3   99.38    3.13
  -1   6   3   99.44    3.05
   0  -6  -3    5.92    0.71
   0  -6  -3    5.34    0.44
   0  -6  -3    5.67    0.82
   0   6   3    5.69    0.58
   0   6   3    6.05    0.72
   0   6   3    5.78    0.61
  -1  -6  -3   20.43    0.99
  -1  -6  -3   20.60    1.26
  -1  -6  -3   22.66    1.26
  -1  -6  -3   21.09    1.22
   1   6   3   18.92    0.88
   1   6   3   20.82    1.00
   1   6   3   20.37    1.13
  -2  -6  -3    1.48    0.62
  -2  -6  -3    1.84    0.47
  -2  -6  -3    1.53    0.61
  -2  -6  -3    2.27    0.51
   2   6   3    1.11    0.44
   2   6   3    1.47    0.28
   2   6   3    1.06    0.46
   2   6   3    1.20    0.55
  -3  -6  -3   -0.83    0.68
  -3  -6  -3   -0.16    0.60
  -3  -6  -3   -0.27    0.46
   3   6   3    0.27    0.52
   3   6   3   -0.18    0.45
   3   6   3   -0.35    0.57
  -4  -6  -3    1.78    0.82
  -4  -6  -3    0.96    0.69
  -4  -6  -3    1.15    0.78
   4   6   3   -0.33    0.55
   4   6   3    1.16    0.75
   4   6   3   -0.08    1.03
   4   6   3    0.90    0.77
  -5  -6  -3    7.55    1.22
  -5  -6  -3    7.67    1.20
   5   6   3    7.67    1.35
   5   6   3   12.18    2.21
  -6  -6  -3    3.03    1.12
  -6  -6  -3    2.04    1.31
   6   6   3    1.86    1.43
   6   6   3    2.80    2.29
  -7  -6  -3   -0.72    1.79
  -7  -6  -3    1.34    1.74
   7   6   3   -1.56    1.87
   8  -7  -3   -0.86    1.86
   8  -7  -3   -1.05    1.87
   8  -7  -3   -0.46    1.98
  -8   7   3   -0.15    1.33
  -8   7   3    0.51    1.10
   7  -7  -3    2.82    1.65
   7  -7  -3    3.89    1.59
   7  -7  -3    4.49    2.35
  -7   7   3    4.43    0.75
  -7   7   3    3.50    1.18
  -7   7   3    3.98    0.98
   6  -7  -3    2.99    1.48
   6  -7  -3    8.32    1.31
   6  -7  -3    7.04    1.62
  -6   7   3    5.25    0.89
  -6   7   3    5.03    0.66
   5  -7  -3   11.81    1.61
   5  -7  -3   13.75    1.67
   5  -7  -3   12.47    1.72
  -5   7   3   12.44    0.84
  -5   7   3   11.28    0.90
  -5   7   3   13.31    1.12
   4  -7  -3   17.13    1.37
   4  -7  -3   15.95    1.53
   4  -7  -3   15.01    1.63
  -4   7   3   15.40    0.90
  -4   7   3   15.45    1.06
  -4   7   3   16.55    0.98
   3  -7  -3    2.66    0.90
   3  -7  -3    1.83    0.79
   3  -7  -3    2.07    0.79
  -3   7   3    2.20    0.45
  -3   7   3    2.12    0.56
   2  -7  -3    0.38    0.71
   2  -7  -3    1.02    0.51
   2  -7  -3    1.15    0.64
   2  -7  -3   -0.21    0.23
   2  -7  -3    0.39    0.71
  -2   7   3    0.45    0.40
  -2   7   3    0.24    0.37
  -2   7   3    0.83    0.40
   1  -7  -3    4.13    0.49
   1  -7  -3    3.99    0.64
   1  -7  -3    4.01    0.96
   1  -7  -3    4.01    0.81
  -1   7   3    5.49    0.66
  -1   7   3    4.13    0.51
  -1   7   3    3.65    0.54
   0  -7  -3    9.30    0.65
   0  -7  -3    9.20    0.91
   0  -7  -3    8.55    1.04
   0   7   3    9.16    0.73
   0   7   3    9.16    0.78
   0   7   3   10.09    0.87
  -1  -7  -3   23.10    1.27
  -1  -7  -3   23.73    1.19
  -1  -7  -3   22.87    1.34
   1   7   3   24.52    1.28
   1   7   3   23.89    1.11
  -2  -7  -3   14.64    0.97
  -2  -7  -3   12.97    0.92
  -2  -7  -3   12.86    1.20
   2   7   3   15.77    0.95
   2   7   3   13.83    0.74
  -3  -7  -3    6.31    0.96
  -3  -7  -3    8.97    1.07
   3   7   3    6.50    0.76
   3   7   3    6.87    0.90
   3   7   3    6.47    0.97
  -4  -7  -3   -1.41    0.91
  -4  -7  -3    0.68    0.83
   4   7   3   -1.23    1.33
   4   7   3    0.80    0.67
   4   7   3    0.60    0.80
  -5  -7  -3    1.12    1.00
  -5  -7  -3    2.82    1.22
   5   7   3    1.04    1.85
   5   7   3    1.71    1.14
  -6  -7  -3    3.40    1.27
  -6  -7  -3   -0.34    1.55
   6   7   3    4.63    2.75
   6   7   3    0.95    1.47
   8  -8  -3    2.73    2.14
   8  -8  -3   -0.55    2.35
   8  -8  -3   -0.87    2.08
  -8   8   3    1.29    1.33
  -8   8   3    2.21    1.49
   7  -8  -3    3.16    1.89
   7  -8  -3    6.52    1.79
   7  -8  -3    1.16    1.76
  -7   8   3    1.92    1.19
  -7   8   3    3.01    0.98
  -7   8   3    4.14    1.11
   6  -8  -3    1.49    1.48
   6  -8  -3    3.63    1.47
   6  -8  -3    1.38    1.40
  -6   8   3    2.86    0.68
   5  -8  -3    4.86    1.41
   5  -8  -3    4.21    1.42
   5  -8  -3    4.80    1.03
  -5   8   3    7.09    0.80
  -5   8   3    3.77    0.83
   4  -8  -3   -0.37    0.92
   4  -8  -3   -0.03    0.89
   4  -8  -3    0.92    0.76
  -4   8   3    0.25    0.47
  -4   8   3   -0.14    0.44
  -4   8   3    0.38    0.59
   3  -8  -3    0.09    0.91
   3  -8  -3    0.65    0.71
   3  -8  -3    0.90    0.95
  -3   8   3   -0.43    0.39
  -3   8   3   -0.06    0.41
  -3   8   3    0.59    0.49
   2  -8  -3    2.10    0.81
   2  -8  -3    3.43    0.68
   2  -8  -3    4.84    1.00
   2  -8  -3    2.52    0.41
   2  -8  -3    4.21    1.05
  -2   8   3    2.89    0.56
  -2   8   3    3.38    0.53
  -2   8   3    3.39    0.64
   1  -8  -3   21.76    1.47
   1  -8  -3   22.13    1.62
   1  -8  -3   22.14    1.31
   1  -8  -3   20.70    0.94
  -1   8   3   19.78    1.12
  -1   8   3   23.27    1.20
  -1   8   3   20.31    1.05
   0  -8  -3    9.88    1.36
   0  -8  -3    8.37    1.03
   0  -8  -3    9.05    0.88
   0  -8  -3    7.15    1.16
   0   8   3    8.77    0.80
   0   8   3    7.50    0.90
   0   8   3    7.24    0.81
  -1  -8  -3    5.90    0.77
  -1  -8  -3    8.11    1.00
  -1  -8  -3    5.58    0.86
   1   8   3    6.62    0.79
   1   8   3    6.35    0.78
   1   8   3    7.33    0.97
  -2  -8  -3    2.51    0.71
  -2  -8  -3    3.93    0.69
   2   8   3    3.73    0.82
   2   8   3    2.93    0.66
   2   8   3    4.11    0.75
  -3  -8  -3    1.04    0.80
  -3  -8  -3    1.60    0.75
   3   8   3   -0.20    0.62
   3   8   3    0.97    0.90
  -4  -8  -3    1.43    0.89
  -4  -8  -3   -0.71    0.97
   4   8   3   -1.35    1.66
   4   8   3    0.83    0.87
  -5  -8  -3    0.46    1.00
  -5  -8  -3    0.09    1.28
   5   8   3   -0.28    2.23
  -6  -8  -3    1.59    1.61
  -6  -8  -3    2.47    1.80
   6   8   3    5.64    3.24
   7  -9  -3    2.44    1.78
   7  -9  -3   -1.96    1.85
   7  -9  -3    2.33    2.30
  -7   9   3   -1.84    1.18
  -7   9   3    1.76    1.16
  -7   9   3   -1.32    0.82
   6  -9  -3    2.79    1.60
   6  -9  -3    2.84    1.82
   6  -9  -3    5.78    1.95
  -6   9   3    2.48    1.00
  -6   9   3    2.38    1.36
   5  -9  -3    2.50    1.08
   5  -9  -3    1.68    2.40
  -5   9   3    0.84    0.62
   4  -9  -3    4.63    1.07
   4  -9  -3    5.14    1.46
   4  -9  -3    5.17    1.47
  -4   9   3    4.28    0.91
  -4   9   3    3.91    0.66
  -4   9   3    3.28    0.61
   3  -9  -3    9.66    1.52
   3  -9  -3    8.79    1.41
   3  -9  -3    6.79    1.13
  -3   9   3    7.97    1.02
  -3   9   3    7.77    0.84
  -3   9   3    8.79    0.90
   2  -9  -3    1.49    0.98
   2  -9  -3    2.62    0.90
   2  -9  -3    2.09    0.75
   2  -9  -3    2.07    0.96
   2  -9  -3    2.65    0.47
  -2   9   3    1.72    0.65
  -2   9   3    2.25    0.58
  -2   9   3    0.89    0.50
   1  -9  -3    0.08    0.97
   1  -9  -3    0.13    0.57
   1  -9  -3   -0.61    0.86
   1  -9  -3    0.12    0.61
  -1   9   3    1.12    0.58
  -1   9   3    1.17    0.50
  -1   9   3    0.69    0.51
   0  -9  -3    1.15    0.71
   0  -9  -3   -0.71    0.49
   0  -9  -3   -0.01    0.94
   0  -9  -3   -0.67    0.94
   0   9   3    0.66    0.56
   0   9   3    0.62    0.60
   0   9   3   -0.16    0.44
  -1  -9  -3    1.51    0.58
  -1  -9  -3    0.26    0.70
   1   9   3    0.15    0.62
   1   9   3   -0.05    0.64
   1   9   3    1.27    0.52
  -2  -9  -3    2.78    0.68
  -2  -9  -3    1.55    0.90
   2   9   3    1.00    0.72
   2   9   3    3.14    0.97
  -3  -9  -3    3.05    1.10
   3   9   3    4.54    0.90
   3   9   3    3.19    1.11
  -4  -9  -3   -1.42    1.09
  -4  -9  -3   -0.39    0.90
   4   9   3   -0.36    1.06
   4   9   3    0.04    1.85
  -5  -9  -3    1.13    1.24
  -5  -9  -3   -0.54    1.40
   5   9   3   -0.36    2.68
   7 -10  -3   -0.90    2.21
   7 -10  -3    1.42    2.70
   7 -10  -3    2.38    2.49
  -7  10   3   -0.15    1.60
  -7  10   3    0.50    1.45
   6 -10  -3    6.05    2.03
   6 -10  -3    4.96    1.95
   6 -10  -3    4.58    2.17
  -6  10   3    3.43    0.91
  -6  10   3    1.81    1.12
   5 -10  -3    3.93    1.33
   5 -10  -3    4.87    1.85
   5 -10  -3    4.10    2.76
  -5  10   3    2.83    0.78
  -5  10   3    1.87    1.03
   4 -10  -3    1.05    1.52
   4 -10  -3    2.83    1.68
   4 -10  -3    2.67    1.18
  -4  10   3    0.11    0.68
  -4  10   3    0.70    0.84
   3 -10  -3   -0.09    1.27
   3 -10  -3   -0.96    1.31
   3 -10  -3   -0.89    1.04
  -3  10   3    0.69    0.83
  -3  10   3    1.59    0.83
  -3  10   3    0.82    0.66
   2 -10  -3    1.53    1.02
   2 -10  -3    0.75    1.27
   2 -10  -3   -0.50    1.29
   2 -10  -3    0.69    0.80
  -2  10   3    0.25    0.58
  -2  10   3   -0.17    0.69
  -2  10   3    0.48    0.58
   1 -10  -3   -0.33    0.78
   1 -10  -3    0.66    1.11
   1 -10  -3    0.49    0.66
   1 -10  -3    0.07    1.16
  -1  10   3   -0.56    0.54
  -1  10   3   -0.28    0.64
  -1  10   3    0.59    0.70
   0 -10  -3    1.13    1.10
   0 -10  -3    2.00    1.39
   0 -10  -3    2.56    0.89
   0 -10  -3    1.77    0.61
   0  10   3    1.94    0.70
   0  10   3    1.59    0.74
   0  10   3    0.70    0.75
  -1 -10  -3    2.83    1.60
  -1 -10  -3    2.22    1.44
  -1 -10  -3    3.47    0.70
   1  10   3    0.43    1.21
   1  10   3    3.63    0.99
   1  10   3    3.44    0.84
  -2 -10  -3    1.00    0.97
  -2 -10  -3   -0.61    0.71
   2  10   3    0.72    1.26
   2  10   3    1.93    1.01
  -3 -10  -3    2.23    0.94
  -3 -10  -3   -0.81    1.16
   3  10   3    1.94    0.95
  -4 -10  -3   -1.63    1.33
  -4 -10  -3    1.06    1.07
   4  10   3    0.50    2.39
   6 -11  -3    2.80    2.71
   6 -11  -3   -0.27    2.22
   6 -11  -3   -4.93    2.59
  -6  11   3   -0.50    0.92
  -6  11   3   -1.85    1.34
   5 -11  -3    3.59    1.54
   5 -11  -3   -1.07    2.17
   5 -11  -3   -1.17    1.96
  -5  11   3   -0.04    0.97
  -5  11   3    0.73    0.85
   4 -11  -3    4.16    1.49
   4 -11  -3    2.99    1.91
   4 -11  -3    0.44    1.87
  -4  11   3    0.90    1.02
  -4  11   3    1.66    0.82
   3 -11  -3    1.45    1.76
   3 -11  -3   -1.09    1.77
   3 -11  -3    0.33    1.17
  -3  11   3    3.20    1.53
  -3  11   3    1.53    0.93
  -3  11   3    1.43    0.72
   2 -11  -3    3.00    1.80
   2 -11  -3    5.50    1.23
   2 -11  -3    1.73    1.76
  -2  11   3    2.11    0.84
  -2  11   3    1.38    0.67
  -2  11   3   -0.47    1.10
   1 -11  -3    0.26    1.51
   1 -11  -3    2.72    1.79
   1 -11  -3    2.26    1.01
  -1  11   3    2.18    0.99
  -1  11   3    1.80    0.76
  -1  11   3    1.08    0.89
   0 -11  -3    3.01    1.91
   0 -11  -3   -0.36    0.95
   0  11   3    0.19    0.70
   0  11   3   -0.10    0.84
   0  11   3    0.95    1.40
  -1 -11  -3    3.33    2.02
  -1 -11  -3    0.41    1.05
  -1 -11  -3    0.24    0.76
   1  11   3   -0.05    0.98
   1  11   3    0.96    1.08
   1  11   3    0.27    0.85
  -2 -11  -3    0.88    0.93
  -2 -11  -3   -0.27    1.10
  -2 -11  -3   -3.20    2.23
   2  11   3    1.22    1.20
   2  11   3    1.35    0.91
  -3 -11  -3    2.06    1.46
  -3 -11  -3   -1.77    1.03
   3  11   3    0.79    1.29
   5 -12  -3   -3.63    3.30
   5 -12  -3    5.34    1.93
   5 -12  -3   -1.12    2.69
  -5  12   3   -0.70    1.38
  -5  12   3    2.56    1.03
   4 -12  -3    4.26    3.74
   4 -12  -3    0.75    2.21
   4 -12  -3    0.85    1.66
  -4  12   3    0.76    1.28
  -4  12   3    1.31    0.93
   3 -12  -3   -4.31    2.95
   3 -12  -3    1.37    2.27
   3 -12  -3   -2.54    1.34
  -3  12   3   -0.31    0.79
  -3  12   3    0.37    1.19
   2 -12  -3   -1.90    2.08
   2 -12  -3   -1.44    1.23
   2 -12  -3   -0.06    1.13
   2 -12  -3    0.88    2.08
  -2  12   3   -1.28    1.14
  -2  12   3   -0.90    0.77
  -2  12   3   -1.04    1.09
   1 -12  -3    0.13    1.15
   1 -12  -3    1.62    2.28
   1 -12  -3   -1.97    1.18
  -1  12   3    0.36    1.07
  -1  12   3   -0.25    0.78
  -1  12   3    1.80    1.09
   0 -12  -3   -0.10    1.10
   0 -12  -3    0.67    2.51
   0  12   3    0.86    1.10
   0  12   3    1.48    0.84
   0  12   3    0.64    1.14
  -1 -12  -3   -0.17    1.21
  -1 -12  -3    0.42    2.73
   1  12   3    1.97    1.29
   1  12   3   -0.39    0.93
  -2 -12  -3    1.31    3.02
  -2 -12  -3   -0.39    1.42
   2  12   3    0.90    1.18
   4 -13  -3    2.13    3.35
   4 -13  -3    1.88    2.83
  -4  13   3    0.61    1.14
  -4  13   3    1.47    1.70
   3 -13  -3   -0.14    3.05
   3 -13  -3    3.55    3.19
   3 -13  -3   -1.49    2.65
  -3  13   3    1.73    1.06
  -3  13   3    3.36    1.56
   2 -13  -3    1.28    1.51
   2 -13  -3    1.66    3.15
  -2  13   3   -2.39    1.19
  -2  13   3   -2.17    0.92
   1 -13  -3   -0.06    1.45
   1 -13  -3    1.71    3.18
   1 -13  -3    0.25    1.42
  -1  13   3    0.35    0.96
  -1  13   3    1.90    1.31
  -1  13   3    0.69    1.43
   0 -13  -3    0.29    1.46
   0 -13  -3    0.93    3.21
   0  13   3    2.06    1.11
   0  13   3    0.60    1.43
  -1 -13  -3   -0.73    1.71
  -1 -13  -3    0.91    3.81
   1  13   3   -1.40    1.33
   0  15  -4   -0.99    1.44
   0  15  -4    0.91    1.25
   0  15  -4   -2.47    1.29
   0 -15   4   -1.60    2.08
   0 -15   4   -2.97    1.27
  -1  15  -4    2.09    1.42
  -1  15  -4   -0.91    1.36
  -1  15  -4   -0.69    1.24
   1 -15   4    0.09    1.96
   1 -15   4    4.27    4.79
   1 -15   4    1.44    1.57
  -2  15  -4   -0.02    1.45
  -2  15  -4    1.11    1.64
  -2  15  -4   -0.21    1.20
   2 -15   4   -5.22    3.23
   2 -15   4    7.51    2.38
   2  14  -4   -0.85    1.01
   2  14  -4   -2.70    1.52
  -2 -14   4   -0.57    1.10
  -2 -14   4   -0.64    1.43
   1  14  -4   -0.96    1.31
   1  14  -4   -1.28    1.12
   1  14  -4   -1.24    0.98
  -1 -14   4    0.12    1.22
  -1 -14   4    1.26    1.01
   0  14  -4    0.14    0.93
   0  14  -4   -1.60    1.06
   0  14  -4    1.80    1.07
   0 -14   4   -1.51    0.92
   0 -14   4    2.54    2.39
   0 -14   4   -0.37    1.30
  -1  14  -4    0.60    0.92
  -1  14  -4    0.36    1.02
  -1  14  -4    0.89    1.08
   1 -14   4    2.42    1.42
   1 -14   4   -0.82    3.06
   1 -14   4    0.74    1.12
  -2  14  -4    0.77    1.08
  -2  14  -4   -0.22    0.87
  -2  14  -4    0.93    1.24
   2 -14   4    0.89    1.43
   2 -14   4    0.04    1.29
   2 -14   4    1.72    2.76
  -3  14  -4    2.10    1.24
  -3  14  -4    1.62    1.38
  -3  14  -4    1.05    1.04
   3 -14   4    2.71    1.83
   3 -14   4    2.58    2.66
  -4  14  -4   -0.23    1.71
  -4  14  -4    0.66    1.47
  -4  14  -4   -0.56    1.15
   4 -14   4   -0.35    2.09
   4 -14   4   -1.71    3.14
   4  13  -4    1.26    2.37
   4  13  -4   -0.50    1.39
  -4 -13   4   -1.39    1.23
  -4 -13   4    1.03    1.54
  -4 -13   4   -1.81    1.20
   3  13  -4    1.17    1.73
   3  13  -4    1.63    1.07
  -3 -13   4    0.65    0.92
  -3 -13   4   -0.97    1.19
   2  13  -4   -0.80    0.79
   2  13  -4    1.61    1.28
  -2 -13   4    2.24    1.16
  -2 -13   4    1.74    0.87
   1  13  -4   -0.24    0.81
   1  13  -4   -0.15    1.84
  -1 -13   4   -0.46    0.81
  -1 -13   4   -0.18    1.76
  -1 -13   4   -0.49    0.89
   0  13  -4   -1.42    0.87
   0  13  -4   -0.55    0.73
   0 -13   4   -0.08    0.80
   0 -13   4    1.19    2.00
  -1  13  -4    1.08    1.10
  -1  13  -4    0.47    0.76
  -1  13  -4    0.61    0.88
   1 -13   4    0.18    1.16
   1 -13   4    0.41    1.94
  -2  13  -4    1.86    0.95
  -2  13  -4    0.89    1.00
  -2  13  -4    0.68    0.80
   2 -13   4   -0.72    1.07
   2 -13   4   -0.32    2.20
   2 -13   4    0.82    1.53
  -3  13  -4    0.87    0.94
  -3  13  -4    1.41    1.11
  -3  13  -4   -0.29    1.17
   3 -13   4    2.99    1.38
   3 -13   4   -0.29    1.37
   3 -13   4    3.26    2.36
  -4  13  -4    0.79    1.11
  -4  13  -4    0.63    0.97
  -4  13  -4    1.36    1.24
   4 -13   4   -4.30    2.42
   4 -13   4    2.29    1.46
  -5  13  -4    1.49    1.68
  -5  13  -4    1.07    1.35
   5 -13   4    2.50    2.64
   5 -13   4    0.27    2.06
   5  12  -4    1.96    2.74
   5  12  -4    0.05    1.54
  -5 -12   4    1.05    1.27
  -5 -12   4   -0.47    1.40
  -5 -12   4   -2.73    1.29
   4  12  -4    3.30    1.77
   4  12  -4    0.96    1.03
  -4 -12   4   -0.06    0.96
  -4 -12   4    0.70    1.18
  -4 -12   4    0.91    0.95
   3  12  -4    0.47    0.84
   3  12  -4    0.82    1.17
  -3 -12   4    1.42    1.11
  -3 -12   4   -0.02    0.77
   2  12  -4   -1.49    0.88
   2  12  -4    0.11    0.77
   2  12  -4    0.04    0.74
  -2 -12   4   -0.34    0.61
  -2 -12   4    0.55    0.78
  -2 -12   4   -1.68    1.36
  -2 -12   4   -1.63    0.81
   1  12  -4   -0.57    0.72
   1  12  -4    1.07    0.73
  -1 -12   4    0.82    0.78
  -1 -12   4    1.01    1.29
   0  12  -4    0.01    0.72
   0  12  -4    0.47    0.71
   0 -12   4    0.11    0.68
   0 -12   4    2.70    1.31
  -1  12  -4    1.73    0.86
  -1  12  -4    0.34    0.69
   1 -12   4    1.48    1.20
   1 -12   4    1.44    1.49
   1 -12   4    0.17    0.70
  -2  12  -4    5.44    1.09
  -2  12  -4    4.54    0.85
  -2  12  -4    3.90    1.28
   2 -12   4    8.11    2.03
   2 -12   4    5.48    1.00
   2 -12   4    4.36    1.30
  -3  12  -4    1.25    0.78
  -3  12  -4    3.26    0.96
  -3  12  -4    2.47    1.08
   3 -12   4    1.29    1.17
   3 -12   4    0.24    1.00
  -4  12  -4    0.80    0.91
  -4  12  -4    1.23    1.08
  -4  12  -4   -0.09    0.82
   4 -12   4    0.97    1.19
   4 -12   4    1.97    2.02
  -5  12  -4   -0.44    1.12
  -5  12  -4    2.40    1.31
   5 -12   4    0.21    1.59
   5 -12   4    2.85    2.18
  -6  12  -4   -3.69    2.40
  -6  12  -4   -0.07    1.29
   6 -12   4    1.51    2.96
   6 -12   4    3.14    3.32
   5  11  -4   -2.23    1.84
   5  11  -4    2.29    1.20
  -5 -11   4   -2.34    0.94
  -5 -11   4   -0.60    1.20
  -5 -11   4    1.29    0.98
   4  11  -4    0.05    0.82
   4  11  -4    0.52    1.23
  -4 -11   4    0.94    0.83
  -4 -11   4    2.26    1.04
  -4 -11   4    0.86    0.88
   3  11  -4   -0.30    1.03
   3  11  -4    0.18    0.74
  -3 -11   4    0.35    0.73
  -3 -11   4    1.43    0.80
  -3 -11   4   -1.09    0.69
   2  11  -4    3.99    0.81
   2  11  -4    5.68    1.15
   2  11  -4    4.73    0.77
  -2 -11   4    5.62    0.72
  -2 -11   4    4.43    0.84
  -2 -11   4    5.64    1.01
  -2 -11   4    5.79    1.23
   1  11  -4    7.03    0.93
   1  11  -4    4.21    0.76
  -1 -11   4    4.02    0.87
  -1 -11   4    4.27    0.57
  -1 -11   4    5.66    1.16
  -1 -11   4    5.32    0.78
   0  11  -4    2.70    0.62
   0  11  -4    1.21    0.64
   0 -11   4    1.95    0.63
   0 -11   4    2.79    0.75
   0 -11   4    2.50    1.06
  -1  11  -4    1.02    0.60
  -1  11  -4    1.07    0.66
   1 -11   4    1.97    0.78
   1 -11   4    1.07    0.62
   1 -11   4    2.60    1.10
  -2  11  -4    0.26    0.64
  -2  11  -4    0.13    0.76
  -2  11  -4    0.25    0.59
   2 -11   4    1.64    1.22
   2 -11   4    0.05    0.86
   2 -11   4    0.09    0.64
   2 -11   4    0.97    0.72
  -3  11  -4    0.31    0.81
  -3  11  -4    0.05    0.58
  -3  11  -4    0.56    0.80
   3 -11   4    0.81    0.73
   3 -11   4   -1.56    1.27
   3 -11   4   -1.03    0.80
   3 -11   4   -0.33    1.00
  -4  11  -4    1.44    0.83
  -4  11  -4    0.33    0.61
  -4  11  -4    0.53    1.01
   4 -11   4   -0.03    0.93
  -5  11  -4    3.29    1.26
  -5  11  -4    2.85    1.08
   5 -11   4    1.70    1.40
   5 -11   4    6.87    2.03
  -6  11  -4    2.09    1.32
  -6  11  -4    2.10    1.41
   6 -11   4    7.57    2.64
   6 -11   4   -0.78    2.43
   6  10  -4    3.17    2.26
  -6 -10   4   -0.53    1.14
  -6 -10   4    0.42    1.27
  -6 -10   4    0.44    1.04
   5  10  -4   -0.29    1.55
   5  10  -4    0.52    1.02
  -5 -10   4    0.25    0.93
  -5 -10   4    1.01    0.78
  -5 -10   4    0.28    0.90
   4  10  -4    2.06    1.26
   4  10  -4    3.18    0.93
  -4 -10   4    1.55    0.90
  -4 -10   4    2.06    0.83
  -4 -10   4    0.79    0.76
   3  10  -4    1.57    0.94
   3  10  -4    1.56    0.68
   3  10  -4    0.25    0.61
  -3 -10   4    0.87    0.70
  -3 -10   4    0.78    0.59
  -3 -10   4    0.22    0.59
  -3 -10   4    1.08    0.97
   2  10  -4    3.05    0.86
   2  10  -4    2.76    0.61
   2  10  -4    3.81    0.62
  -2 -10   4    2.23    0.59
  -2 -10   4    3.89    0.79
  -2 -10   4    3.24    0.58
  -2 -10   4    3.62    0.98
   1  10  -4    2.50    0.59
   1  10  -4    3.22    0.64
  -1 -10   4    2.45    0.92
  -1 -10   4    2.90    0.83
  -1 -10   4    2.31    0.63
  -1 -10   4    3.08    0.62
   0  10  -4   -0.86    0.42
   0  10  -4   -0.07    0.52
   0 -10   4   -0.04    0.46
   0 -10   4    1.33    0.90
   0 -10   4   -0.16    0.31
   0 -10   4   -0.63    0.53
  -1  10  -4    4.17    0.72
  -1  10  -4    3.53    0.65
   1 -10   4    3.39    0.63
   1 -10   4    4.09    0.77
   1 -10   4    2.99    0.98
  -2  10  -4    6.77    0.73
  -2  10  -4    7.66    0.96
  -2  10  -4    6.99    0.91
   2 -10   4    5.59    0.89
   2 -10   4    7.85    1.29
   2 -10   4    9.71    1.02
   2 -10   4    7.38    1.00
  -3  10  -4   11.19    1.11
  -3  10  -4    9.66    1.11
  -3  10  -4   11.91    0.89
   3 -10   4   10.41    1.16
   3 -10   4    9.76    1.38
   3 -10   4   11.40    1.67
  -4  10  -4    1.45    0.79
  -4  10  -4    1.47    0.54
  -4  10  -4    0.99    0.86
   4 -10   4    2.20    0.97
   4 -10   4    3.43    0.74
   4 -10   4    2.20    1.45
  -5  10  -4    5.45    1.13
  -5  10  -4    2.25    0.95
   5 -10   4    5.88    1.08
   5 -10   4    4.40    1.68
   5 -10   4    4.77    1.34
  -6  10  -4    5.61    1.28
  -6  10  -4    2.72    1.07
   6 -10   4   -2.96    1.99
   6 -10   4    5.00    1.94
   6 -10   4    2.06    1.51
  -7  10  -4   -0.22    1.46
  -7  10  -4   -0.35    1.34
   7 -10   4   -1.10    3.06
   7 -10   4   -2.16    2.66
   7   9  -4    1.57    3.24
  -7  -9   4   -0.13    1.61
  -7  -9   4   -0.67    1.45
   6   9  -4   -1.70    1.83
  -6  -9   4    1.52    1.02
  -6  -9   4    2.05    1.00
  -6  -9   4    0.10    1.11
   5   9  -4    2.15    0.92
   5   9  -4    3.32    1.41
  -5  -9   4    1.32    0.80
  -5  -9   4    1.46    0.88
  -5  -9   4    2.42    0.92
   4   9  -4    1.10    1.00
   4   9  -4    0.82    0.71
  -4  -9   4    0.36    0.69
  -4  -9   4    0.30    0.64
  -4  -9   4    0.91    0.66
   3   9  -4    1.67    0.60
   3   9  -4    1.62    0.71
   3   9  -4    1.28    0.72
  -3  -9   4    2.56    0.82
  -3  -9   4    2.65    0.61
  -3  -9   4    3.33    0.70
  -3  -9   4    1.73    0.61
   2   9  -4    1.53    0.52
   2   9  -4    0.65    0.44
   2   9  -4    2.19    0.70
  -2  -9   4    2.14    0.55
  -2  -9   4    1.61    0.58
  -2  -9   4    1.05    0.47
   1   9  -4   21.36    1.06
   1   9  -4   19.90    1.07
  -1  -9   4   21.00    1.04
  -1  -9   4   19.42    1.06
  -1  -9   4   22.50    1.25
   0   9  -4    5.04    0.67
   0   9  -4    4.35    0.58
   0  -9   4    3.29    0.53
   0  -9   4    3.52    0.68
   0  -9   4    4.80    0.96
   0  -9   4    3.81    0.41
  -1   9  -4   18.44    1.07
  -1   9  -4   17.54    0.98
   1  -9   4   19.07    1.46
   1  -9   4   18.65    1.20
   1  -9   4   17.95    1.04
   1  -9   4   19.08    0.76
  -2   9  -4    6.42    0.71
  -2   9  -4    7.20    0.83
  -2   9  -4    7.26    0.84
   2  -9   4    6.08    0.97
   2  -9   4    7.26    0.88
   2  -9   4    8.04    1.00
   2  -9   4    8.31    1.24
  -3   9  -4    5.25    0.75
  -3   9  -4    6.26    0.69
  -3   9  -4    4.93    0.74
   3  -9   4    7.14    1.08
   3  -9   4    5.71    0.91
   3  -9   4    5.80    1.22
  -4   9  -4    0.94    0.65
  -4   9  -4   -0.07    0.41
  -4   9  -4   -0.15    0.53
   4  -9   4    0.38    1.02
   4  -9   4    0.03    0.76
   4  -9   4    1.02    0.66
  -5   9  -4    0.14    0.82
  -5   9  -4    0.95    0.99
   5  -9   4    1.80    1.41
   5  -9   4    0.71    0.79
   5  -9   4    1.56    1.30
  -6   9  -4    2.68    1.01
  -6   9  -4    2.10    0.92
   6  -9   4    3.81    1.20
   6  -9   4    2.59    1.80
   6  -9   4    1.08    1.72
  -7   9  -4    1.03    1.28
  -7   9  -4    4.00    1.37
   7  -9   4   -1.86    2.14
   7  -9   4    5.13    2.42
   7  -9   4    6.65    1.65
   7   8  -4    0.41    2.56
  -7  -8   4    1.29    1.28
  -7  -8   4    1.06    1.17
   6   8  -4    3.00    1.63
  -6  -8   4    1.03    0.91
  -6  -8   4   -1.29    0.88
  -6  -8   4    2.30    0.88
   5   8  -4   -1.05    0.77
   5   8  -4    1.96    1.23
  -5  -8   4   -0.05    0.76
  -5  -8   4    0.19    0.71
  -5  -8   4    0.27    0.91
   4   8  -4    1.38    0.64
   4   8  -4    1.93    0.90
  -4  -8   4    1.53    0.66
  -4  -8   4    1.35    0.57
  -4  -8   4    1.85    0.63
   3   8  -4    9.13    0.44
   3   8  -4    9.61    1.07
   3   8  -4    7.68    0.80
   3   8  -4    7.81    0.80
  -3  -8   4    8.59    0.84
  -3  -8   4    7.24    0.90
  -3  -8   4    9.69    0.84
  -3  -8   4    8.31    0.87
   2   8  -4    0.91    0.54
   2   8  -4    1.06    0.46
   2   8  -4    0.78    0.57
  -2  -8   4    1.70    0.52
  -2  -8   4    1.23    0.42
  -2  -8   4    0.33    0.41
  -2  -8   4    1.59    0.51
   1   8  -4   74.94    2.50
   1   8  -4   77.20    2.50
  -1  -8   4   77.89    2.62
  -1  -8   4   81.24    2.44
  -1  -8   4   76.32    2.61
  -1  -8   4   76.14    2.49
   0   8  -4    0.07    0.38
   0   8  -4    0.34    0.38
   0  -8   4    0.38    0.35
   0  -8   4   -0.38    0.41
   0  -8   4    0.55    0.23
   0  -8   4   -0.12    0.52
  -1   8  -4    1.52    0.46
  -1   8  -4    1.28    0.40
   1  -8   4    1.36    0.80
   1  -8   4    1.99    0.47
   1  -8   4    1.77    0.53
   1  -8   4    1.56    0.26
  -2   8  -4    6.99    0.77
  -2   8  -4    8.01    0.77
  -2   8  -4    7.87    0.68
   2  -8   4    8.70    1.11
   2  -8   4    7.88    0.83
   2  -8   4    9.61    0.98
   2  -8   4    6.59    1.14
  -3   8  -4   19.61    1.11
  -3   8  -4   20.84    0.96
  -3   8  -4   20.37    1.18
   3  -8   4   20.45    1.54
   3  -8   4   21.79    1.45
   3  -8   4   19.60    1.33
   3  -8   4   22.60    1.43
  -4   8  -4    1.81    0.66
  -4   8  -4    1.43    0.59
  -4   8  -4    1.98    0.46
   4  -8   4    4.32    1.11
   4  -8   4    1.76    0.78
   4  -8   4    4.03    0.77
  -5   8  -4   15.24    1.15
  -5   8  -4   15.28    1.34
   5  -8   4   16.41    1.49
   5  -8   4   15.76    1.76
   5  -8   4   15.43    1.86
  -6   8  -4    9.80    1.17
  -6   8  -4    9.42    1.21
   6  -8   4    9.29    1.41
   6  -8   4   10.54    2.01
   6  -8   4    7.65    1.86
  -7   8  -4    4.63    1.25
  -7   8  -4    1.05    1.78
  -7   8  -4    3.74    1.19
   7  -8   4    5.37    2.13
   7  -8   4    4.62    2.08
   7  -8   4    6.04    1.50
   7   7  -4    0.13    1.94
  -7  -7   4    1.17    1.02
  -7  -7   4   -1.81    1.06
  -7  -7   4   -0.44    1.03
   6   7  -4    6.67    1.62
  -6  -7   4    4.56    0.92
  -6  -7   4    3.80    0.86
  -6  -7   4    4.14    0.98
   5   7  -4   10.41    1.46
  -5  -7   4    5.78    0.92
  -5  -7   4    8.20    1.04
  -5  -7   4    7.06    0.92
   4   7  -4    6.65    1.03
   4   7  -4    6.07    0.71
   4   7  -4    6.86    0.80
  -4  -7   4    4.34    0.69
  -4  -7   4    6.18    0.82
  -4  -7   4    6.97    0.77
   3   7  -4    6.60    0.93
   3   7  -4    8.78    0.78
   3   7  -4    7.78    0.49
   3   7  -4    7.55    0.65
  -3  -7   4    9.41    0.84
  -3  -7   4   10.68    0.82
  -3  -7   4    7.89    0.73
   2   7  -4   18.69    0.68
   2   7  -4   18.35    1.14
   2   7  -4   18.16    0.88
  -2  -7   4   18.21    0.98
  -2  -7   4   20.38    1.06
  -2  -7   4   19.31    1.02
  -2  -7   4   18.43    0.99
   1   7  -4    6.86    0.65
   1   7  -4    6.48    0.59
  -1  -7   4    6.08    0.52
  -1  -7   4    6.34    0.63
  -1  -7   4    6.48    0.89
   0   7  -4   15.63    1.01
   0   7  -4   17.43    0.86
   0  -7   4   15.44    0.67
   0  -7   4   17.88    0.99
   0  -7   4   16.02    1.00
   0  -7   4   16.50    0.85
  -1   7  -4   32.76    1.56
  -1   7  -4   41.47    1.42
  -1   7  -4   41.06    1.52
   1  -7   4   38.37    1.62
   1  -7   4   38.33    1.68
   1  -7   4   41.00    1.28
   1  -7   4   40.63    1.49
  -2   7  -4   30.40    1.24
  -2   7  -4   27.03    1.24
  -2   7  -4   29.85    1.10
   2  -7   4   26.37    1.02
   2  -7   4   30.35    1.36
   2  -7   4   29.37    1.43
   2  -7   4   26.32    1.47
   2  -7   4   31.16    1.62
  -3   7  -4   54.95    1.77
  -3   7  -4   55.95    1.98
  -3   7  -4   55.44    2.03
   3  -7   4   55.90    2.40
   3  -7   4   60.07    2.33
   3  -7   4   53.56    1.71
   3  -7   4   56.86    2.32
  -4   7  -4    2.26    0.59
  -4   7  -4    2.34    0.33
  -4   7  -4    2.46    0.57
   4  -7   4    3.20    0.72
   4  -7   4    1.36    0.70
   4  -7   4    2.14    0.85
  -5   7  -4    0.41    0.63
  -5   7  -4    0.34    0.54
   5  -7   4    1.29    0.79
   5  -7   4   -0.98    0.93
   5  -7   4   -1.71    1.04
  -6   7  -4    0.37    0.68
  -6   7  -4    0.61    0.78
   6  -7   4    0.64    1.60
   6  -7   4   -0.54    1.56
   6  -7   4    2.19    1.07
  -7   7  -4   -0.14    1.13
  -7   7  -4    1.59    1.06
   7  -7   4    0.26    1.76
   7  -7   4    0.58    1.34
   7  -7   4   -0.07    1.66
  -8   7  -4    0.52    1.47
  -8   7  -4    0.27    1.61
   8  -7   4   -2.45    2.49
   8  -7   4    4.50    2.02
   8   6  -4    3.79    2.77
  -8  -6   4    3.76    1.39
  -8  -6   4    1.75    1.29
   7   6  -4    5.82    1.91
  -7  -6   4    2.85    0.98
  -7  -6   4    3.39    1.06
  -7  -6   4    1.06    0.93
   6   6  -4    1.05    1.34
  -6  -6   4    1.30    0.73
  -6  -6   4    1.33    0.84
  -6  -6   4    1.07    0.67
   5   6  -4    0.79    0.86
  -5  -6   4   -0.04    0.49
  -5  -6   4    0.03    0.51
  -5  -6   4    0.58    0.51
   4   6  -4    1.03    0.39
   4   6  -4    0.02    0.46
   4   6  -4    1.45    0.67
  -4  -6   4    1.51    0.50
  -4  -6   4    1.12    0.46
  -4  -6   4    0.97    0.51
   3   6  -4   10.72    0.76
   3   6  -4    9.92    0.78
   3   6  -4    8.53    0.99
  -3  -6   4    9.93    0.78
  -3  -6   4    9.07    0.80
  -3  -6   4    9.28    0.76
   2   6  -4   48.48    1.63
   2   6  -4   48.07    1.71
   2   6  -4   51.09    1.57
   2   6  -4   48.76    1.46
   2   6  -4   48.85    1.92
   2   6  -4   48.69    1.48
  -2  -6   4   48.29    1.69
  -2  -6   4   47.84    1.59
  -2  -6   4   47.33    1.70
  -2  -6   4   48.87    1.70
   1   6  -4   59.23    2.01
   1   6  -4   57.01    1.89
   1   6  -4   58.77    1.88
  -1  -6   4   60.39    1.91
  -1  -6   4   57.72    1.89
  -1  -6   4   57.55    1.93
  -1  -6   4   60.08    1.86
   0   6  -4  107.38    3.24
   0   6  -4  111.37    3.24
   0   6  -4  110.08    3.29
   0  -6   4  109.00    3.26
   0  -6   4  113.38    3.35
   0  -6   4  113.23    3.39
   0  -6   4  111.92    3.16
  -1   6  -4   11.62    0.70
  -1   6  -4   11.11    0.59
  -1   6  -4   10.30    0.65
   1  -6   4   11.24    0.53
   1  -6   4   11.42    0.84
   1  -6   4   10.61    0.84
   1  -6   4   10.40    0.69
   1  -6   4   11.37    0.45
  -2   6  -4   28.21    1.21
  -2   6  -4   29.70    1.20
  -2   6  -4   28.13    0.99
   2  -6   4   25.84    1.01
   2  -6   4   28.96    1.45
   2  -6   4   29.78    1.60
   2  -6   4   30.01    1.44
   2  -6   4   22.36    1.35
  -3   6  -4    3.17    0.35
  -3   6  -4    3.79    0.61
  -3   6  -4    3.51    0.53
   3  -6   4    4.28    0.38
   3  -6   4    3.43    0.73
   3  -6   4    3.41    0.81
   3  -6   4    3.65    0.73
  -4   6  -4   11.67    0.55
  -4   6  -4   11.82    0.85
  -4   6  -4   12.84    0.98
   4  -6   4   12.54    1.31
   4  -6   4   14.33    1.19
   4  -6   4   13.96    1.26
  -5   6  -4   10.00    1.01
  -5   6  -4    8.73    0.87
   5  -6   4    7.52    1.15
   5  -6   4   10.44    1.45
   5  -6   4   10.39    1.33
  -6   6  -4   16.40    1.17
  -6   6  -4   17.70    1.39
   6  -6   4   14.52    2.01
   6  -6   4   16.20    1.86
   6  -6   4   17.07    2.03
  -7   6  -4    5.29    1.79
  -7   6  -4    5.92    1.18
   7  -6   4    3.65    1.61
   7  -6   4    6.93    2.02
  -8   6  -4    4.48    1.53
  -8   6  -4    2.84    1.42
   8  -6   4   -0.54    2.23
   8  -6   4    2.92    1.84
   8   5  -4    5.51    2.34
  -8  -5   4    1.19    1.16
  -8  -5   4   -1.28    1.09
   7   5  -4    0.39    1.65
  -7  -5   4   -1.57    0.78
  -7  -5   4   -0.57    0.78
  -7  -5   4    1.05    0.89
   6   5  -4    9.58    1.65
  -6  -5   4    7.78    0.94
  -6  -5   4    9.78    1.17
  -6  -5   4    7.67    0.99
   5   5  -4   34.37    1.93
  -5  -5   4   32.63    1.46
  -5  -5   4   34.36    1.50
  -5  -5   4   33.55    1.56
   4   5  -4   32.12    1.83
   4   5  -4   34.31    1.22
  -4  -5   4   32.56    1.43
  -4  -5   4   33.24    1.39
  -4  -5   4   33.43    1.34
   3   5  -4   26.12    1.43
   3   5  -4   23.94    1.06
   3   5  -4   26.66    1.15
  -3  -5   4   25.92    1.11
  -3  -5   4   24.53    1.02
   2   5  -4   26.36    0.85
   2   5  -4   24.13    1.04
   2   5  -4   26.13    0.99
   2   5  -4   26.22    1.19
   2   5  -4   25.62    0.80
   2   5  -4   26.92    0.88
  -2  -5   4   25.56    1.02
  -2  -5   4   25.94    0.99
  -2  -5   4   24.70    1.02
   1   5  -4    3.27    0.37
   1   5  -4    2.95    0.36
   1   5  -4    4.05    0.48
   1   5  -4    3.14    0.47
   1   5  -4    2.83    0.27
  -1  -5   4    2.90    0.35
  -1  -5   4    3.94    0.39
  -1  -5   4    2.88    0.35
   0   5  -4  127.16    3.67
   0   5  -4  129.35    3.63
   0   5  -4  128.93    3.63
   0  -5   4  125.65    3.65
   0  -5   4  127.88    3.72
   0  -5   4  123.59    3.56
  -1   5  -4   89.04    2.71
  -1   5  -4   90.26    2.70
  -1   5  -4   88.26    2.60
   1  -5   4   86.58    2.85
   1  -5   4   92.34    2.72
   1  -5   4   91.67    2.63
   1  -5   4   89.13    2.51
   1  -5   4   91.38    2.82
  -2   5  -4   54.73    1.89
  -2   5  -4   59.75    1.90
  -2   5  -4   61.49    1.75
  -2   5  -4   57.13    1.82
   2  -5   4   60.49    2.02
   2  -5   4   58.62    2.12
   2  -5   4   56.66    1.83
   2  -5   4   54.30    2.14
   2  -5   4   58.85    2.15
  -3   5  -4   49.44    1.49
  -3   5  -4   49.48    1.79
  -3   5  -4   48.56    1.55
   3  -5   4   49.09    2.08
   3  -5   4   46.66    2.09
   3  -5   4   53.69    2.14
   3  -5   4   51.09    1.72
  -4   5  -4   48.05    1.83
  -4   5  -4   49.10    1.74
  -4   5  -4   48.44    1.43
   4  -5   4   51.97    2.18
   4  -5   4   48.92    2.20
   4  -5   4   48.41    2.22
  -5   5  -4    6.16    0.75
  -5   5  -4    5.10    0.70
   5  -5   4    6.68    1.06
   5  -5   4    7.35    1.13
   5  -5   4    5.91    1.02
  -6   5  -4    3.95    0.84
  -6   5  -4    4.49    0.72
  -6   5  -4    4.56    0.98
   6  -5   4    5.14    1.41
   6  -5   4    3.62    1.11
   6  -5   4    4.35    1.31
  -7   5  -4   -0.37    0.93
  -7   5  -4   -0.70    1.07
   7  -5   4    0.93    1.29
   7  -5   4   -0.95    1.69
  -8   5  -4   -2.95    1.34
  -8   5  -4   -1.07    1.33
   8  -5   4    2.31    1.83
   8  -5   4    4.24    1.91
   8   4  -4    4.14    2.14
  -8  -4   4    3.36    1.22
  -8  -4   4    3.88    1.16
   7   4  -4    9.19    2.11
  -7  -4   4    4.60    1.23
  -7  -4   4    4.73    1.02
  -7  -4   4    4.31    1.39
   6   4  -4   14.54    1.68
  -6  -4   4   12.56    1.06
  -6  -4   4   13.63    1.13
  -6  -4   4   13.57    1.12
   5   4  -4    9.27    1.17
  -5  -4   4    9.90    0.85
  -5  -4   4    8.49    0.89
  -5  -4   4    8.74    0.88
   4   4  -4   17.32    0.66
   4   4  -4   17.87    1.23
  -4  -4   4   17.57    0.85
  -4  -4   4   18.40    0.96
   3   4  -4   18.80    0.90
   3   4  -4   17.05    0.85
   3   4  -4   18.95    0.70
   3   4  -4   18.35    1.09
  -3  -4   4   17.09    0.89
  -3  -4   4   16.75    0.84
  -3  -4   4   17.43    0.75
  -3  -4   4   17.78    0.76
   2   4  -4   44.50    1.50
   2   4  -4   46.04    1.28
   2   4  -4   43.55    1.65
  -2  -4   4   44.79    1.48
  -2  -4   4   44.57    1.43
  -2  -4   4   46.52    1.51
   1   4  -4  264.36    7.33
   1   4  -4  267.68    7.38
   1   4  -4  259.66    7.15
   1   4  -4  258.32    7.26
  -1  -4   4  267.86    7.23
  -1  -4   4  262.76    7.16
  -1  -4   4  253.57    7.33
  -1  -4   4  267.53    7.24
   0   4  -4  110.13    3.17
   0   4  -4  112.50    3.17
   0   4  -4  112.96    3.19
   0   4  -4  110.85    3.22
   0   4  -4  108.80    3.21
   0  -4   4  117.57    3.45
   0  -4   4  110.48    3.21
   0  -4   4  107.96    3.13
  -1   4  -4  102.67    3.12
  -1   4  -4  105.30    3.13
  -1   4  -4  108.04    3.04
   1  -4   4  108.95    3.11
   1  -4   4  110.25    3.17
   1  -4   4  108.50    2.95
   1  -4   4  109.56    3.26
  -2   4  -4  197.71    5.57
  -2   4  -4  195.32    5.61
  -2   4  -4  196.59    5.43
  -2   4  -4  201.68    5.41
   2  -4   4  200.98    5.83
   2  -4   4  188.90    5.85
   2  -4   4  202.99    5.43
   2  -4   4  199.18    5.59
   2  -4   4  202.19    5.80
  -3   4  -4   70.57    2.04
  -3   4  -4   71.79    2.25
  -3   4  -4   72.64    2.06
  -3   4  -4   73.43    2.35
   3  -4   4   74.07    2.67
   3  -4   4   72.80    2.66
   3  -4   4   74.31    3.48
   3  -4   4   74.00    2.27
   3  -4   4   70.44    2.05
  -4   4  -4    0.20    0.36
  -4   4  -4    0.03    0.38
   4  -4   4    0.11    0.58
   4  -4   4    0.00    0.61
   4  -4   4    1.20    0.56
  -5   4  -4    9.16    0.90
  -5   4  -4    9.64    1.04
  -5   4  -4   11.29    0.83
   5  -4   4   10.87    1.29
   5  -4   4   11.04    1.25
   5  -4   4    9.36    1.20
  -6   4  -4    7.28    0.79
  -6   4  -4    7.02    0.92
  -6   4  -4    6.40    0.95
   6  -4   4    6.48    1.30
   6  -4   4    4.07    1.20
  -7   4  -4    5.96    1.29
  -7   4  -4    7.97    1.24
   7  -4   4    7.45    2.22
   7  -4   4    7.34    1.58
  -8   4  -4    3.67    1.55
  -8   4  -4    3.23    1.40
   8  -4   4    8.02    1.98
   8  -4   4    7.22    1.85
   9   3  -4    0.08    3.17
  -9  -3   4    3.10    1.49
  -9  -3   4   -0.89    1.41
   8   3  -4    5.36    2.06
  -8  -3   4    1.56    1.05
  -8  -3   4    1.04    1.11
   7   3  -4   -0.12    1.52
  -7  -3   4   -0.35    0.77
  -7  -3   4    0.22    0.73
  -7  -3   4    0.81    0.71
   6   3  -4    2.63    1.00
   6   3  -4    1.09    1.10
  -6  -3   4    0.91    0.54
  -6  -3   4    0.65    0.57
  -6  -3   4    0.88    0.54
   5   3  -4   30.70    1.22
   5   3  -4   31.09    1.75
   5   3  -4   30.83    1.54
  -5  -3   4   32.02    1.39
  -5  -3   4   32.08    1.42
  -5  -3   4   32.28    1.27
   4   3  -4   70.35    2.20
   4   3  -4   69.42    2.66
  -4  -3   4   67.37    2.30
  -4  -3   4   71.20    2.33
   3   3  -4  149.49    4.15
   3   3  -4  141.90    4.40
   3   3  -4  143.42    4.20
  -3  -3   4  142.35    4.10
  -3  -3   4  139.25    4.12
  -3  -3   4  149.29    4.08
  -3  -3   4  138.54    4.16
   2   3  -4  129.14    3.50
   2   3  -4  127.65    3.65
   2   3  -4  126.43    3.60
   2   3  -4  123.90    3.59
  -2  -3   4  117.48    3.57
  -2  -3   4  119.96    3.56
  -2  -3   4  124.57    3.39
  -2  -3   4  122.54    3.54
   1   3  -4   34.62    1.16
   1   3  -4   34.07    1.04
   1   3  -4   34.03    1.19
   1   3  -4   33.81    1.06
   1   3  -4   33.54    1.13
  -1  -3   4   34.81    0.98
  -1  -3   4   35.28    1.08
  -1  -3   4   33.82    1.10
  -1  -3   4   34.22    1.11
   0   3  -4   41.78    1.30
   0   3  -4   41.69    1.32
   0   3  -4   42.69    1.29
   0   3  -4   41.64    1.34
   0  -3   4   39.53    1.48
   0  -3   4   42.07    1.28
   0  -3   4   42.96    1.31
  -1   3  -4   32.66    1.11
  -1   3  -4   34.22    1.13
  -1   3  -4   32.41    1.02
  -1   3  -4   32.91    0.95
   1  -3   4   33.00    1.20
   1  -3   4   32.26    1.22
   1  -3   4   36.20    1.00
   1  -3   4   34.54    1.02
   1  -3   4   32.14    1.13
   1  -3   4   32.08    1.16
  -2   3  -4   33.98    0.96
  -2   3  -4   33.30    0.98
  -2   3  -4   30.87    1.17
   2  -3   4   32.39    1.38
   2  -3   4   34.25    1.19
   2  -3   4   32.05    1.33
   2  -3   4   33.45    0.96
   2  -3   4   33.78    0.96
   2  -3   4   30.91    1.34
  -3   3  -4   44.16    1.47
  -3   3  -4   43.74    1.58
  -3   3  -4   45.23    1.31
   3  -3   4   45.46    1.55
   3  -3   4   43.72    2.02
  -4   3  -4   47.30    1.37
  -4   3  -4   44.81    1.82
  -4   3  -4   45.00    1.69
  -4   3  -4   44.97    1.52
   4  -3   4   46.77    2.03
   4  -3   4   45.50    1.51
   4  -3   4   44.91    2.03
   4  -3   4   43.53    1.95
  -5   3  -4   34.92    1.54
  -5   3  -4   35.22    1.32
  -5   3  -4   35.64    1.71
   5  -3   4   37.73    1.95
   5  -3   4   38.44    1.98
   5  -3   4   34.23    1.36
  -6   3  -4   20.33    1.36
  -6   3  -4   18.38    1.53
   6  -3   4   17.88    1.84
   6  -3   4   19.15    1.81
  -7   3  -4    0.09    1.03
  -7   3  -4    1.29    1.08
   7  -3   4    2.41    1.31
   7  -3   4    1.38    1.22
  -8   3  -4    1.13    1.40
  -8   3  -4    0.26    1.32
   8  -3   4    0.66    1.86
   8  -3   4   -2.54    1.61
   9   2  -4   -0.25    2.51
  -9  -2   4    0.91    1.45
  -9  -2   4   -1.77    1.21
   8   2  -4    4.12    1.89
   8   2  -4    4.17    1.18
  -8  -2   4    3.33    1.09
  -8  -2   4    5.64    1.15
   7   2  -4   10.61    1.47
   7   2  -4   15.14    2.02
  -7  -2   4   10.30    1.18
  -7  -2   4   10.66    1.31
  -7  -2   4   11.16    1.24
   6   2  -4   28.55    1.65
   6   2  -4   27.24    1.43
   6   2  -4   29.79    1.97
  -6  -2   4   29.42    1.46
  -6  -2   4   30.09    2.00
  -6  -2   4   29.41    1.37
   5   2  -4   73.29    2.80
   5   2  -4   67.88    2.36
   5   2  -4   66.81    2.51
  -5  -2   4   69.46    2.36
  -5  -2   4   67.88    2.18
  -5  -2   4   69.17    2.31
   4   2  -4   47.35    1.72
   4   2  -4   47.17    1.83
   4   2  -4   49.52    2.07
  -4  -2   4   48.60    1.64
  -4  -2   4   43.02    1.81
  -4  -2   4   49.11    1.51
   3   2  -4   56.45    1.86
   3   2  -4   54.47    1.65
   3   2  -4   53.77    1.99
  -3  -2   4   52.58    1.75
  -3  -2   4   56.53    1.74
  -3  -2   4   53.51    1.69
  -3  -2   4   56.90    1.62
   2   2  -4    6.80    0.30
   2   2  -4    5.91    0.47
   2   2  -4    6.62    0.28
   2   2  -4    5.70    0.51
   2   2  -4    6.02    0.49
  -2  -2   4    6.09    0.39
  -2  -2   4    6.50    0.25
  -2  -2   4    6.45    0.36
  -2  -2   4    6.86    0.26
  -2  -2   4    6.49    0.28
   1   2  -4  101.91    2.83
   1   2  -4  103.15    2.95
   1   2  -4   98.22    2.92
   1   2  -4  103.80    2.85
  -1  -2   4  101.41    2.78
  -1  -2   4   98.13    2.82
  -1  -2   4   95.87    2.80
  -1  -2   4   94.58    2.96
   0   2  -4  486.38   12.99
   0   2  -4  454.95   13.00
   0   2  -4  494.80   12.98
   0   2  -4  462.10   12.97
   0  -2   4  527.30   13.05
   0  -2   4  488.70   12.94
   0  -2   4  477.65   12.96
   0  -2   4  462.97   12.96
   0  -2   4  476.86   12.93
   0  -2   4  461.56   12.95
  -1   2  -4  193.09    5.26
  -1   2  -4  189.99    5.16
  -1   2  -4  191.66    5.28
   1  -2   4  177.62    5.16
   1  -2   4  180.89    5.29
   1  -2   4  189.70    5.34
   1  -2   4  199.00    5.14
  -2   2  -4  184.27    4.80
  -2   2  -4  173.35    4.86
  -2   2  -4  170.72    4.94
   2  -2   4  170.41    5.07
   2  -2   4  170.37    4.78
  -3   2  -4  190.24    5.22
  -3   2  -4  180.44    5.60
  -3   2  -4  188.38    5.36
   3  -2   4  189.36    5.18
   3  -2   4  173.31    5.78
   3  -2   4  192.38    5.18
   3  -2   4  190.29    5.59
  -4   2  -4   97.16    3.18
  -4   2  -4   97.64    3.05
   4  -2   4   96.48    3.41
   4  -2   4   94.97    3.30
   4  -2   4   92.18    2.89
  -5   2  -4    2.58    0.71
  -5   2  -4    3.07    0.38
  -5   2  -4    1.80    0.63
   5  -2   4    2.05    0.81
   5  -2   4    1.90    0.56
   5  -2   4    0.72    0.72
  -6   2  -4    0.89    0.69
  -6   2  -4    0.86    0.78
   6  -2   4   -0.16    0.80
   6  -2   4    1.41    0.95
  -7   2  -4    2.77    1.07
  -7   2  -4    4.11    1.21
   7  -2   4    1.76    1.20
   7  -2   4    2.47    1.29
  -8   2  -4    2.97    1.43
  -8   2  -4    2.01    1.33
   8  -2   4    3.46    1.70
   8  -2   4    4.10    1.83
   9   1  -4    5.69    2.53
  -9  -1   4    3.80    1.47
  -9  -1   4    2.52    1.26
   8   1  -4    5.58    1.79
   8   1  -4    4.81    1.19
  -8  -1   4    4.40    1.04
  -8  -1   4    4.38    1.22
   7   1  -4    3.39    0.91
   7   1  -4    6.16    1.49
   7   1  -4    4.95    0.99
  -7  -1   4    4.70    0.82
  -7  -1   4    5.08    0.80
  -7  -1   4    4.29    0.82
   6   1  -4    2.19    0.90
   6   1  -4    2.57    0.76
   6   1  -4    3.34    0.93
  -6  -1   4    0.84    0.50
  -6  -1   4    2.21    0.54
  -6  -1   4    1.69    0.53
   5   1  -4    2.63    0.63
   5   1  -4    2.11    0.58
   5   1  -4    2.66    0.74
  -5  -1   4    2.49    0.51
  -5  -1   4    2.71    0.34
  -5  -1   4    2.05    0.28
  -5  -1   4    2.50    0.38
  -5  -1   4    2.16    0.51
   4   1  -4   28.80    1.39
   4   1  -4   25.31    1.10
   4   1  -4   25.42    1.26
  -4  -1   4   26.68    0.87
  -4  -1   4   27.23    0.83
  -4  -1   4   24.20    1.06
  -4  -1   4   26.54    0.93
  -4  -1   4   26.41    1.01
   3   1  -4  188.34    5.35
   3   1  -4  181.01    5.60
   3   1  -4  196.07    5.56
  -3  -1   4  188.93    5.33
  -3  -1   4  194.97    5.19
  -3  -1   4  190.90    5.28
  -3  -1   4  187.83    5.33
  -3  -1   4  192.27    5.20
   2   1  -4  422.80   11.82
   2   1  -4  432.82   11.87
   2   1  -4  431.64   11.88
   2   1  -4  419.22   11.63
   2   1  -4  430.77   11.63
   2   1  -4  440.58   11.64
  -2  -1   4  419.28   11.67
  -2  -1   4  424.25   11.61
  -2  -1   4  436.28   11.62
  -2  -1   4  437.74   11.68
  -2  -1   4  433.69   11.60
   1   1  -4  200.92    5.52
   1   1  -4  204.53    5.59
   1   1  -4  192.87    5.61
   1   1  -4  200.29    5.42
  -1  -1   4  195.42    5.40
  -1  -1   4  201.75    5.47
  -1  -1   4  190.87    5.44
  -1  -1   4  204.26    5.58
  -1  -1   4  194.99    5.45
   0   1  -4   52.81    1.68
   0   1  -4   55.77    1.72
   0   1  -4   53.83    1.61
   0   1  -4   53.20    1.58
   0   1  -4   55.54    1.64
   0   1  -4   49.15    1.58
   0   1  -4   55.74    1.57
   0  -1   4   54.18    1.64
   0  -1   4   54.94    1.60
   0  -1   4   52.56    1.60
   0  -1   4   54.44    1.62
   0  -1   4   54.39    1.58
  -1   1  -4   12.62    0.61
  -1   1  -4   12.11    0.57
  -1   1  -4   13.10    0.50
  -1   1  -4   12.64    0.58
   1  -1   4   12.75    0.52
   1  -1   4   12.81    0.70
   1  -1   4   12.58    0.61
   1  -1   4   11.92    0.60
   1  -1   4   13.59    0.47
  -2   1  -4   33.31    1.23
  -2   1  -4   31.27    1.08
  -2   1  -4   31.07    1.18
   2  -1   4   33.59    1.01
   2  -1   4   32.29    1.19
   2  -1   4   31.67    1.05
   2  -1   4   31.77    1.31
  -3   1  -4   13.10    0.60
  -3   1  -4   12.40    0.78
  -3   1  -4   14.00    1.24
   3  -1   4   13.71    0.63
   3  -1   4   12.75    1.16
   3  -1   4   12.81    0.96
   3  -1   4   13.91    0.63
  -4   1  -4   34.92    1.48
  -4   1  -4   35.50    1.63
  -4   1  -4   33.86    1.17
   4  -1   4   35.53    1.77
   4  -1   4   33.92    1.33
   4  -1   4   34.03    1.66
  -5   1  -4   28.81    1.40
  -5   1  -4   27.77    1.53
  -5   1  -4   27.28    1.02
   5  -1   4   29.17    1.77
   5  -1   4   27.73    1.29
   5  -1   4   29.43    1.67
  -6   1  -4   16.82    1.38
  -6   1  -4   15.87    1.55
   6  -1   4   19.72    1.83
   6  -1   4   18.08    1.71
  -7   1  -4    8.18    1.35
  -7   1  -4    7.96    1.28
  -7   1  -4    8.32    1.32
   7  -1   4   10.91    2.58
   7  -1   4    5.93    1.44
  -8   1  -4    2.32    1.42
  -8   1  -4    0.12    1.48
   8  -1   4    1.92    1.80
   9   0  -4    3.88    2.58
   9   0  -4   -0.59    1.33
  -9   0   4   -0.24    1.18
  -9   0   4    0.14    1.43
   8   0  -4    1.85    1.06
   8   0  -4    1.74    1.70
  -8   0   4    1.96    0.99
  -8   0   4    0.99    0.92
  -8   0   4    1.83    0.78
   7   0  -4    7.61    1.48
   7   0  -4    8.82    1.19
   7   0  -4    8.44    1.19
  -7   0   4    8.14    0.94
  -7   0   4    7.73    1.03
  -7   0   4    9.38    1.27
   6   0  -4   25.21    1.49
   6   0  -4   24.24    1.54
   6   0  -4   22.65    1.70
   6   0  -4   23.09    1.73
  -6   0   4   24.98    1.02
  -6   0   4   23.73    1.25
  -6   0   4   24.77    1.17
  -6   0   4   23.88    1.20
  -6   0   4   24.14    1.23
   5   0  -4   93.92    3.18
   5   0  -4   94.56    3.17
   5   0  -4   94.61    3.45
   5   0  -4   95.82    3.12
   5   0  -4   90.02    3.30
  -5   0   4   96.67    2.91
  -5   0   4   94.42    2.75
  -5   0   4   98.37    2.98
   4   0  -4   91.81    3.39
   4   0  -4   90.53    3.12
   4   0  -4   91.76    3.10
   4   0  -4   89.96    2.94
   4   0  -4   93.27    2.86
  -4   0   4   90.08    2.78
  -4   0   4   93.65    2.68
  -4   0   4   98.33    3.08
   3   0  -4  185.76    5.09
   3   0  -4  180.01    5.40
   3   0  -4  172.85    5.38
   3   0  -4  177.92    5.18
  -3   0   4  182.83    4.95
  -3   0   4  178.82    5.06
  -3   0   4  185.82    5.01
  -3   0   4  184.59    5.06
   2   0  -4  142.95    4.28
   2   0  -4  146.22    4.06
   2   0  -4  143.95    4.31
   2   0  -4  142.90    4.09
   2   0  -4  146.35    3.96
  -2   0   4  141.04    3.94
  -2   0   4  146.82    4.01
  -2   0   4  144.16    4.01
  -2   0   4  138.31    4.04
  -2   0   4  148.84    4.04
   1   0  -4   25.32    1.05
   1   0  -4   27.79    0.81
   1   0  -4   28.23    0.82
   1   0  -4   27.65    0.99
  -1   0   4   23.85    0.88
  -1   0   4   26.97    0.87
  -1   0   4   29.82    1.09
  -1   0   4   27.95    0.84
  -1   0   4   27.11    0.80
   0   0  -4   55.87    1.71
   0   0  -4   55.98    1.84
   0   0  -4   59.28    1.65
   0   0  -4   57.61    1.69
   0   0  -4   55.79    1.83
   0   0   4   58.40    1.81
   0   0   4   57.72    1.65
   0   0   4   55.54    1.74
   0   0   4   58.61    1.70
   0   0   4   57.87    1.72
  -1   0  -4  558.86   15.34
  -1   0  -4  557.79   15.39
  -1   0  -4  571.52   15.34
   1   0   4  569.31   15.32
   1   0   4  609.94   15.38
   1   0   4  563.34   15.27
   1   0   4  540.23   15.38
   1   0   4  542.61   15.32
  -2   0  -4   58.80    1.84
  -2   0  -4   57.38    1.95
  -2   0  -4   59.12    1.96
   2   0   4   57.48    1.92
   2   0   4   59.20    1.80
   2   0   4   61.76    1.64
   2   0   4   60.01    2.14
   2   0   4   59.02    1.84
   2   0   4   59.15    2.05
  -3   0  -4  112.86    3.56
  -3   0  -4  118.00    3.34
  -3   0  -4  115.76    3.64
   3   0   4  113.39    3.42
   3   0   4  114.69    3.66
   3   0   4  119.05    3.46
  -4   0  -4   86.23    2.88
  -4   0  -4   88.08    2.58
  -4   0  -4   84.61    2.97
   4   0   4   86.62    2.81
   4   0   4   86.52    2.78
   4   0   4   87.75    3.17
   4   0   4   86.93    3.05
  -5   0  -4   57.12    2.34
  -5   0  -4   56.14    2.21
   5   0   4   54.49    2.22
   5   0   4   57.92    2.44
   5   0   4   58.62    2.55
  -6   0  -4    8.17    1.12
  -6   0  -4    9.33    1.10
   6   0   4    7.36    1.19
   6   0   4    6.71    1.37
   6   0   4    7.22    1.23
  -7   0  -4    0.52    1.09
  -7   0  -4    0.39    1.07
  -7   0  -4    0.97    1.05
   7   0   4    1.48    1.32
  -8   0  -4    2.76    1.63
  -8   0  -4    0.73    1.53
   8   0   4    3.06    1.84
   9  -1  -4    5.98    3.26
   9  -1  -4    3.37    1.36
   8  -1  -4    3.35    1.34
   8  -1  -4    4.41    1.13
   8  -1  -4    5.36    3.19
  -8   1   4    5.98    1.20
  -8   1   4    5.04    1.17
  -8   1   4    3.81    0.83
   7  -1  -4   13.97    1.39
   7  -1  -4   14.01    1.52
   7  -1  -4   14.93    1.58
   7  -1  -4   11.71    1.50
   7  -1  -4   14.93    1.95
  -7   1   4   15.38    1.07
  -7   1   4   14.05    0.91
  -7   1   4   13.98    1.11
  -7   1   4   13.49    1.23
  -7   1   4   14.40    1.14
  -7   1   4   14.31    1.16
   6  -1  -4   10.13    1.15
   6  -1  -4   11.45    1.38
   6  -1  -4   10.59    1.16
   6  -1  -4   11.39    1.36
   6  -1  -4   10.56    1.06
  -6   1   4   10.10    0.65
  -6   1   4   11.46    0.91
  -6   1   4   10.89    0.86
  -6   1   4   11.00    0.91
  -6   1   4   10.90    0.89
   5  -1  -4    0.42    0.53
   5  -1  -4    0.29    0.78
   5  -1  -4   -0.05    0.62
   5  -1  -4    0.42    0.52
  -5   1   4    0.38    0.28
  -5   1   4    0.15    0.33
  -5   1   4   -0.05    0.38
  -5   1   4    0.22    0.36
   4  -1  -4   17.20    1.24
   4  -1  -4   19.81    0.94
   4  -1  -4   20.44    0.98
   4  -1  -4   18.36    1.05
  -4   1   4   19.14    0.80
  -4   1   4   20.38    0.84
  -4   1   4   18.95    0.76
  -4   1   4   20.01    0.75
   3  -1  -4   15.10    0.66
   3  -1  -4   14.59    0.96
   3  -1  -4   14.42    0.79
   3  -1  -4   13.94    0.97
  -3   1   4   15.09    0.66
  -3   1   4   13.88    0.59
  -3   1   4   14.70    0.52
  -3   1   4   14.55    0.52
   2  -1  -4  243.05    7.02
   2  -1  -4  244.00    6.63
   2  -1  -4  235.02    6.80
   2  -1  -4  243.33    7.01
  -2   1   4  239.28    6.62
  -2   1   4  229.16    6.54
  -2   1   4  244.24    6.61
  -2   1   4  266.12    6.83
  -2   1   4  250.10    6.57
  -2   1   4  236.51    6.69
   1  -1  -4  553.80   14.75
   1  -1  -4  550.91   14.57
   1  -1  -4  548.07   14.93
   1  -1  -4  588.85   14.70
  -1   1   4  506.64   14.59
  -1   1   4  532.57   14.55
  -1   1   4  505.81   14.64
   0  -1  -4   63.23    2.07
   0  -1  -4   64.26    1.96
   0  -1  -4   68.55    1.87
   0   1   4   66.24    1.89
   0   1   4   65.15    1.95
   0   1   4   63.94    1.95
   0   1   4   62.54    1.95
  -1  -1  -4  280.47    7.93
  -1  -1  -4  284.40    8.04
   1   1   4  283.33    7.94
   1   1   4  284.47    7.74
   1   1   4  292.41    7.91
   1   1   4  286.40    8.01
  -2  -1  -4    0.55    0.35
  -2  -1  -4    0.62    0.40
   2   1   4    1.05    0.15
   2   1   4    0.76    0.34
   2   1   4    0.68    0.27
   2   1   4    0.68    0.34
   2   1   4    1.28    0.23
  -3  -1  -4   12.27    0.92
  -3  -1  -4   11.02    0.99
   3   1   4   12.44    0.49
   3   1   4   12.63    0.45
   3   1   4   12.38    0.75
   3   1   4   11.08    1.16
  -4  -1  -4    8.43    0.99
  -4  -1  -4    8.95    1.01
   4   1   4    8.71    0.80
   4   1   4    9.98    0.94
   4   1   4   10.32    1.07
   4   1   4    8.69    1.00
  -5  -1  -4   19.04    1.32
  -5  -1  -4   18.46    1.38
   5   1   4   16.69    1.46
   5   1   4   17.17    1.52
  -6  -1  -4    4.34    0.93
  -6  -1  -4    2.28    0.90
  -6  -1  -4    2.90    0.96
   6   1   4    5.80    1.14
   6   1   4    2.26    1.13
  -7  -1  -4    7.48    1.41
  -7  -1  -4    9.51    1.39
   7   1   4   10.50    1.80
  -8  -1  -4    4.18    1.74
  -8  -1  -4    5.90    1.81
   8   1   4    3.52    2.10
   9  -2  -4    6.30    2.46
   8  -2  -4   -0.02    1.26
   8  -2  -4    0.70    1.38
   8  -2  -4   -1.59    2.57
   8  -2  -4    1.98    1.04
  -8   2   4    1.10    1.30
  -8   2   4    0.01    0.76
   7  -2  -4    1.42    1.09
   7  -2  -4    2.83    0.92
   7  -2  -4    1.88    0.81
   7  -2  -4    2.20    1.03
   7  -2  -4    0.56    1.30
  -7   2   4    1.86    0.77
  -7   2   4    2.63    0.62
  -7   2   4    1.88    0.62
  -7   2   4    2.59    0.66
  -7   2   4    2.60    0.68
  -7   2   4    2.79    0.54
  -7   2   4    3.39    0.60
   6  -2  -4   11.61    1.11
   6  -2  -4   10.69    1.33
   6  -2  -4    9.97    1.25
   6  -2  -4    9.80    1.04
   6  -2  -4   11.29    1.49
  -6   2   4    9.06    1.17
  -6   2   4    9.91    0.89
  -6   2   4    9.67    0.93
  -6   2   4   10.80    0.96
  -6   2   4   10.36    0.86
  -6   2   4   10.17    0.84
  -6   2   4    9.32    0.75
   5  -2  -4   17.29    1.36
   5  -2  -4   17.49    1.44
   5  -2  -4   17.22    1.38
   5  -2  -4   20.82    1.23
   5  -2  -4   19.21    1.18
  -5   2   4   17.98    0.78
  -5   2   4   17.59    0.92
  -5   2   4   17.72    0.83
  -5   2   4   16.26    0.85
   4  -2  -4   83.29    2.68
   4  -2  -4   85.36    3.14
   4  -2  -4   83.12    2.92
   4  -2  -4   85.94    2.71
  -4   2   4   84.22    2.58
  -4   2   4   88.62    2.47
  -4   2   4   84.92    2.60
  -4   2   4   87.71    2.53
   3  -2  -4  216.91    6.46
   3  -2  -4  214.24    6.26
   3  -2  -4  209.42    6.44
   3  -2  -4  217.28    6.05
  -3   2   4  212.82    5.90
  -3   2   4  217.01    5.91
  -3   2   4  218.95    5.82
  -3   2   4  213.92    6.01
  -3   2   4  214.74    6.00
   2  -2  -4  148.84    4.69
   2  -2  -4  152.37    4.51
   2  -2  -4  154.74    4.30
   2  -2  -4  153.73    4.73
   2  -2  -4  164.04    4.47
   2  -2  -4  149.75    4.27
  -2   2   4  158.39    4.26
  -2   2   4  153.09    4.29
  -2   2   4  151.37    4.34
  -2   2   4  154.64    4.36
  -2   2   4  150.29    4.24
   1  -2  -4  172.66    4.74
   1  -2  -4  170.19    4.60
   1  -2  -4  176.16    4.92
   1  -2  -4  179.06    5.10
   1  -2  -4  166.33    4.60
  -1   2   4  168.67    4.78
  -1   2   4  158.31    4.76
  -1   2   4  169.88    4.72
  -1   2   4  171.43    4.75
   0  -2  -4    2.06    0.24
   0  -2  -4    2.56    0.43
   0  -2  -4    3.01    0.51
   0  -2  -4    2.22    0.31
   0   2   4    2.60    0.28
   0   2   4    2.67    0.32
   0   2   4    2.32    0.25
   0   2   4    2.31    0.34
  -1  -2  -4    7.59    0.58
  -1  -2  -4    7.08    0.64
   1   2   4    7.38    0.51
   1   2   4    7.81    0.53
   1   2   4    7.37    0.54
   1   2   4    7.36    0.37
  -2  -2  -4   85.21    2.86
  -2  -2  -4   84.82    2.85
   2   2   4   93.00    2.79
   2   2   4   86.71    2.83
   2   2   4   91.60    2.78
   2   2   4   89.04    2.53
  -3  -2  -4   24.61    1.29
   3   2   4   23.25    0.82
   3   2   4   21.79    1.19
   3   2   4   24.30    1.20
   3   2   4   24.90    1.38
   3   2   4   23.51    0.77
  -4  -2  -4   46.09    1.94
  -4  -2  -4   44.53    1.89
  -4  -2  -4   44.31    1.97
   4   2   4   47.53    1.85
   4   2   4   44.14    2.25
   4   2   4   45.88    2.07
  -5  -2  -4   33.22    1.81
  -5  -2  -4   31.99    1.75
  -5  -2  -4   33.38    1.72
   5   2   4   31.24    1.85
   5   2   4   32.16    1.95
  -6  -2  -4   13.46    1.73
  -6  -2  -4   11.91    1.55
   6   2   4   13.94    1.74
   6   2   4   13.96    1.69
  -7  -2  -4    2.96    1.32
  -7  -2  -4    2.25    1.14
   7   2   4    1.02    1.54
   9  -3  -4    0.73    1.27
   9  -3  -4   -2.06    2.51
   8  -3  -4    4.57    1.31
   8  -3  -4    3.52    1.85
   8  -3  -4    6.78    1.95
   8  -3  -4    3.29    1.74
   8  -3  -4    4.71    1.14
   7  -3  -4   15.12    2.02
   7  -3  -4   11.62    1.54
   7  -3  -4   11.72    1.42
   7  -3  -4   12.49    1.28
   7  -3  -4   13.06    1.74
  -7   3   4   11.09    1.02
  -7   3   4   11.50    1.41
  -7   3   4   10.43    0.98
  -7   3   4   12.02    1.29
  -7   3   4    9.70    0.99
  -7   3   4    9.18    1.00
  -7   3   4   11.25    1.03
   6  -3  -4   32.39    2.09
   6  -3  -4   32.69    1.67
   6  -3  -4   32.96    2.16
   6  -3  -4   32.34    1.59
   6  -3  -4   32.32    1.92
  -6   3   4   32.72    1.31
  -6   3   4   33.59    1.33
  -6   3   4   33.49    1.58
  -6   3   4   34.46    1.49
  -6   3   4   33.52    1.39
   5  -3  -4   33.29    1.93
   5  -3  -4   31.68    1.76
   5  -3  -4   33.19    1.85
   5  -3  -4   32.17    1.61
   5  -3  -4   34.64    1.53
  -5   3   4   34.18    1.17
  -5   3   4   33.88    1.15
  -5   3   4   32.90    1.30
   4  -3  -4    8.41    0.73
   4  -3  -4    6.02    0.53
   4  -3  -4    5.50    1.46
   4  -3  -4    6.53    1.05
  -4   3   4    6.80    0.39
  -4   3   4    6.59    0.34
  -4   3   4    6.37    0.54
  -4   3   4    5.80    0.62
  -4   3   4    6.26    0.36
   3  -3  -4   10.32    1.04
   3  -3  -4   11.51    0.66
   3  -3  -4   12.28    0.90
  -3   3   4   11.42    0.64
  -3   3   4   10.59    0.63
  -3   3   4   12.02    0.46
   2  -3  -4    3.68    0.35
   2  -3  -4    3.97    0.26
   2  -3  -4    3.76    0.57
   2  -3  -4    4.10    0.67
   2  -3  -4    3.97    0.39
  -2   3   4    3.59    0.40
  -2   3   4    3.68    0.29
  -2   3   4    3.42    0.40
   1  -3  -4  154.79    4.53
   1  -3  -4  151.04    4.69
   1  -3  -4  154.72    4.36
   1  -3  -4  156.45    4.18
  -1   3   4  153.15    4.28
  -1   3   4  152.76    4.37
  -1   3   4  150.91    4.33
   0  -3  -4  198.40    5.54
   0  -3  -4  199.28    5.92
   0  -3  -4  202.74    5.70
   0  -3  -4  207.93    6.15
   0   3   4  195.14    5.52
   0   3   4  203.38    5.69
   0   3   4  197.88    5.60
   0   3   4  199.22    5.57
  -1  -3  -4  148.31    4.48
  -1  -3  -4  151.53    4.34
  -1  -3  -4  149.06    4.54
  -1  -3  -4  152.82    4.59
   1   3   4  151.13    4.42
   1   3   4  153.79    4.37
  -2  -3  -4  105.78    3.29
  -2  -3  -4  102.58    3.41
  -2  -3  -4  108.40    3.43
   2   3   4  110.09    3.10
   2   3   4  106.28    3.36
   2   3   4  107.14    3.34
  -3  -3  -4    4.30    0.82
  -3  -3  -4    4.17    0.65
  -3  -3  -4    4.55    0.73
   3   3   4    2.62    0.30
   3   3   4    3.69    0.39
   3   3   4    4.07    0.62
   3   3   4    5.06    0.77
  -4  -3  -4    7.18    1.01
  -4  -3  -4    7.79    1.00
  -4  -3  -4    6.87    0.89
   4   3   4    6.87    0.93
   4   3   4    7.07    1.06
   4   3   4    7.61    1.05
   4   3   4    7.94    0.50
  -5  -3  -4    0.53    0.80
  -5  -3  -4    0.76    0.71
  -5  -3  -4    1.06    0.68
   5   3   4    1.81    0.85
   5   3   4    1.93    0.89
  -6  -3  -4    2.68    0.99
  -6  -3  -4    1.42    1.07
  -6  -3  -4    3.01    1.07
   6   3   4    3.21    1.55
   6   3   4    5.10    1.41
  -7  -3  -4    1.40    1.19
  -7  -3  -4   -0.10    1.31
   7   3   4    2.30    1.50
   9  -4  -4    0.78    2.07
   9  -4  -4   -0.78    1.30
   9  -4  -4    1.46    1.58
   8  -4  -4    4.34    1.80
   8  -4  -4    7.90    1.95
   8  -4  -4    3.88    1.57
   8  -4  -4    4.85    1.29
   7  -4  -4   -0.92    1.36
   7  -4  -4    0.64    0.71
   7  -4  -4   -0.64    0.86
   7  -4  -4    1.88    1.24
   7  -4  -4    2.01    1.22
  -7   4   4    0.45    0.79
  -7   4   4    1.31    0.70
  -7   4   4    0.74    0.65
  -7   4   4    1.03    0.51
  -7   4   4   -0.26    0.52
   6  -4  -4    1.23    0.73
   6  -4  -4   -0.20    1.05
   6  -4  -4    0.53    0.91
   6  -4  -4    0.69    0.55
   6  -4  -4    0.58    1.00
  -6   4   4    0.28    0.52
  -6   4   4    0.61    0.45
  -6   4   4    0.22    0.38
  -6   4   4    0.32    0.30
  -6   4   4    0.07    0.34
   5  -4  -4    1.95    0.83
   5  -4  -4    1.91    0.49
   5  -4  -4    2.21    0.74
   5  -4  -4    2.61    0.89
  -5   4   4    1.50    0.43
  -5   4   4    1.58    0.27
  -5   4   4    1.21    0.25
   4  -4  -4    8.34    0.79
   4  -4  -4    6.90    1.04
   4  -4  -4    5.49    0.98
  -4   4   4    7.46    0.63
  -4   4   4    7.24    0.33
  -4   4   4    6.89    0.30
  -4   4   4    6.36    0.60
  -4   4   4    7.55    0.36
   3  -4  -4   95.64    3.50
  -3   4   4   97.66    2.81
  -3   4   4   96.66    2.91
  -3   4   4   97.42    2.72
  -3   4   4   97.25    2.92
   2  -4  -4  131.04    3.83
   2  -4  -4  125.12    4.24
   2  -4  -4  136.32    3.63
   2  -4  -4  126.02    3.85
   2  -4  -4  131.20    4.14
  -2   4   4  127.76    3.79
  -2   4   4  135.23    3.65
  -2   4   4  131.54    3.79
   1  -4  -4   22.07    0.96
   1  -4  -4   23.95    0.74
   1  -4  -4   22.17    1.25
   1  -4  -4   23.00    1.12
  -1   4   4   22.29    0.95
  -1   4   4   22.88    0.82
  -1   4   4   22.31    0.91
   0  -4  -4   66.15    2.24
   0  -4  -4   66.28    2.36
   0  -4  -4   68.24    2.05
   0  -4  -4   69.95    2.46
   0   4   4   69.18    2.22
   0   4   4   69.44    2.11
   0   4   4   69.35    1.98
  -1  -4  -4    3.53    0.67
  -1  -4  -4    3.83    0.68
  -1  -4  -4    3.57    0.44
   1   4   4    2.90    0.41
   1   4   4    3.18    0.56
   1   4   4    2.16    0.32
  -2  -4  -4   12.87    1.07
  -2  -4  -4   14.08    1.12
  -2  -4  -4   14.06    0.94
   2   4   4   13.59    0.98
   2   4   4   13.62    0.69
   2   4   4   13.78    0.86
  -3  -4  -4   17.90    1.24
  -3  -4  -4   20.12    1.15
  -3  -4  -4   19.24    1.27
   3   4   4   21.37    1.31
   3   4   4   18.83    0.65
   3   4   4   20.18    1.18
   3   4   4   18.22    0.88
  -4  -4  -4   11.64    1.24
  -4  -4  -4   11.12    1.09
  -4  -4  -4   13.12    1.53
   4   4   4   13.12    1.19
   4   4   4   12.23    1.20
  -5  -4  -4    8.61    1.21
  -5  -4  -4    7.33    1.21
  -5  -4  -4    8.41    1.15
   5   4   4    9.82    1.35
   5   4   4    4.69    1.32
  -6  -4  -4    4.71    1.32
  -6  -4  -4    6.34    1.23
   6   4   4    6.33    1.43
   6   4   4    6.94    1.76
  -7  -4  -4    3.76    1.37
  -7  -4  -4   -0.96    1.48
   7   4   4   -0.93    1.60
   9  -5  -4   -0.22    1.64
   9  -5  -4   -0.30    2.03
   8  -5  -4    1.40    1.30
   8  -5  -4   -0.08    1.59
   8  -5  -4   -1.14    1.72
  -8   5   4    0.68    1.13
  -8   5   4    0.42    1.17
   7  -5  -4   14.18    1.37
   7  -5  -4   13.86    1.80
   7  -5  -4   13.05    2.65
   7  -5  -4   14.81    2.30
  -7   5   4   11.65    1.25
  -7   5   4   11.91    1.35
  -7   5   4   12.49    0.99
  -7   5   4   13.37    1.44
   6  -5  -4   14.90    1.47
   6  -5  -4   11.84    1.62
   6  -5  -4   11.56    1.57
   6  -5  -4   11.09    1.03
  -6   5   4   11.96    1.03
  -6   5   4   12.81    1.10
  -6   5   4   10.96    0.84
   5  -5  -4   28.60    1.29
   5  -5  -4   32.16    1.72
   5  -5  -4   29.30    1.92
   5  -5  -4   32.04    2.07
  -5   5   4   31.87    1.30
  -5   5   4   30.19    1.46
  -5   5   4   30.90    1.27
  -5   5   4   31.84    1.03
   4  -5  -4   30.15    1.74
   4  -5  -4   32.11    1.55
   4  -5  -4   32.65    1.86
  -4   5   4   30.28    1.23
  -4   5   4   32.40    1.26
   3  -5  -4    7.03    1.08
   3  -5  -4    8.82    1.04
   3  -5  -4    8.44    0.78
  -3   5   4    7.86    0.65
  -3   5   4    7.49    0.31
  -3   5   4    7.70    0.63
   2  -5  -4   24.62    1.54
   2  -5  -4   25.42    1.12
   2  -5  -4   25.68    0.83
   2  -5  -4   24.79    1.16
   2  -5  -4   25.22    1.49
   2  -5  -4   28.21    0.78
  -2   5   4   26.38    1.09
  -2   5   4   24.83    1.08
   1  -5  -4    4.32    0.80
   1  -5  -4    3.56    0.79
   1  -5  -4    2.87    0.28
   1  -5  -4    3.16    0.49
  -1   5   4    3.41    0.46
  -1   5   4    3.51    0.49
   0  -5  -4   27.06    1.38
   0  -5  -4   25.04    1.34
   0  -5  -4   22.77    1.37
   0  -5  -4   25.38    0.92
   0   5   4   23.85    1.07
   0   5   4   23.68    1.16
  -1  -5  -4   71.41    2.50
  -1  -5  -4   67.97    2.22
  -1  -5  -4   69.41    2.54
  -1  -5  -4   67.95    2.46
   1   5   4   68.36    2.39
   1   5   4   69.61    2.15
   1   5   4   66.57    2.37
  -2  -5  -4   48.12    2.02
  -2  -5  -4   48.28    1.83
  -2  -5  -4   46.94    1.88
  -2  -5  -4   49.50    2.00
   2   5   4   51.63    1.75
   2   5   4   48.54    1.94
   2   5   4   47.38    1.95
   2   5   4   47.54    1.72
  -3  -5  -4    7.48    0.94
  -3  -5  -4    7.21    1.18
  -3  -5  -4    5.38    0.90
  -3  -5  -4    6.98    0.84
   3   5   4    5.96    0.78
   3   5   4    5.62    0.70
   3   5   4    6.56    0.91
  -4  -5  -4    0.58    0.77
  -4  -5  -4    1.72    0.85
  -4  -5  -4    0.99    0.65
   4   5   4    1.19    0.70
   4   5   4    3.76    1.14
   4   5   4    1.33    0.75
   4   5   4    2.18    0.68
  -5  -5  -4    3.07    1.09
   5   5   4    3.61    1.43
   5   5   4    2.01    1.02
  -6  -5  -4    0.58    1.22
  -6  -5  -4    0.93    0.94
   6   5   4    0.80    1.38
   6   5   4    2.67    2.12
  -7  -5  -4    0.88    1.73
  -7  -5  -4    2.54    1.66
   7   5   4   -0.13    1.82
   8  -6  -4    2.67    1.81
   8  -6  -4    3.09    1.88
   8  -6  -4    2.42    1.58
  -8   6   4    1.81    1.12
  -8   6   4    0.02    1.19
   7  -6  -4    6.03    1.67
   7  -6  -4    7.44    1.39
   7  -6  -4    5.40    1.77
  -7   6   4    7.39    1.10
  -7   6   4    6.06    1.05
  -7   6   4    9.14    1.17
   6  -6  -4    6.50    1.42
   6  -6  -4    5.38    0.79
   6  -6  -4    7.98    1.16
   6  -6  -4    6.07    1.37
  -6   6   4    6.43    0.73
  -6   6   4    6.25    0.85
  -6   6   4    6.67    0.92
   5  -6  -4    0.42    0.35
   5  -6  -4    0.23    1.59
   5  -6  -4    3.11    1.04
   5  -6  -4    1.28    0.75
  -5   6   4    0.80    0.47
  -5   6   4    0.81    0.58
  -5   6   4    1.11    0.46
   4  -6  -4    0.91    0.75
   4  -6  -4    0.59    0.87
   4  -6  -4    0.43    0.85
  -4   6   4    0.45    0.40
  -4   6   4    0.63    0.53
  -4   6   4    0.61    0.44
   3  -6  -4   22.02    1.52
   3  -6  -4   26.73    1.75
   3  -6  -4   24.54    1.35
  -3   6   4   22.04    1.07
  -3   6   4   24.00    1.08
   2  -6  -4    9.98    1.26
   2  -6  -4    8.68    0.40
   2  -6  -4    9.34    1.04
   2  -6  -4    7.90    0.84
   2  -6  -4   10.51    0.43
   2  -6  -4    9.93    0.93
  -2   6   4    9.75    0.82
  -2   6   4    9.29    0.67
   1  -6  -4   28.98    1.67
   1  -6  -4   29.27    1.01
   1  -6  -4   28.97    1.73
   1  -6  -4   31.31    1.41
  -1   6   4   30.25    1.30
  -1   6   4   28.10    1.19
   0  -6  -4   11.99    0.95
   0  -6  -4   11.05    1.12
   0  -6  -4   11.66    0.63
   0   6   4   10.98    0.89
   0   6   4   11.34    0.74
  -1  -6  -4   12.05    0.93
  -1  -6  -4   10.70    1.09
  -1  -6  -4   11.85    1.06
  -1  -6  -4   11.40    1.02
   1   6   4   12.36    0.75
   1   6   4   12.71    0.80
   1   6   4   12.84    1.01
   1   6   4   11.88    0.64
  -2  -6  -4   17.60    1.07
  -2  -6  -4   18.28    1.30
  -2  -6  -4   18.95    1.31
  -2  -6  -4   17.97    1.13
   2   6   4   17.73    1.21
   2   6   4   17.35    0.80
   2   6   4   18.86    1.01
   2   6   4   18.23    1.03
  -3  -6  -4    0.21    0.59
  -3  -6  -4    0.51    0.71
  -3  -6  -4    0.22    0.64
   3   6   4    0.00    0.63
   3   6   4   -0.10    0.49
   3   6   4   -0.78    0.64
  -4  -6  -4    2.71    1.06
  -4  -6  -4    2.76    0.93
  -4  -6  -4    2.78    0.79
   4   6   4    2.17    1.01
   4   6   4    2.04    0.86
   4   6   4    1.06    0.65
   4   6   4    4.12    1.31
  -5  -6  -4    1.12    0.94
  -5  -6  -4    2.33    1.03
   5   6   4    0.73    1.20
   5   6   4    4.46    2.46
  -6  -6  -4    1.44    1.53
  -6  -6  -4   -0.69    1.16
   6   6   4    0.90    1.48
   6   6   4   -3.01    2.33
   8  -7  -4   -1.11    1.80
   8  -7  -4   -2.27    1.54
   8  -7  -4   -1.76    1.75
  -8   7   4    0.74    1.31
  -8   7   4   -0.16    1.23
   7  -7  -4    1.94    1.70
   7  -7  -4    2.91    1.47
   7  -7  -4    1.79    1.51
  -7   7   4    1.52    1.06
  -7   7   4    1.80    0.75
   6  -7  -4    6.18    1.54
   6  -7  -4    8.68    1.33
  -6   7   4    6.41    0.79
  -6   7   4    7.62    1.09
   5  -7  -4    4.57    1.39
   5  -7  -4    6.68    1.16
   5  -7  -4    9.64    1.59
  -5   7   4    4.38    0.77
  -5   7   4    7.20    0.82
  -5   7   4    6.10    0.69
   4  -7  -4   11.95    1.59
   4  -7  -4   14.59    1.46
   4  -7  -4   12.63    1.27
  -4   7   4   12.05    0.87
  -4   7   4   10.69    0.98
  -4   7   4   12.22    0.87
   3  -7  -4   32.47    1.90
   3  -7  -4   30.77    2.02
   3  -7  -4   33.62    1.84
  -3   7   4   33.36    1.52
  -3   7   4   30.86    1.34
  -3   7   4   34.58    1.39
   2  -7  -4    3.28    0.86
   2  -7  -4    3.06    0.30
   2  -7  -4    2.35    0.93
   2  -7  -4    4.34    0.67
   2  -7  -4    2.22    0.82
  -2   7   4    2.22    0.46
  -2   7   4    2.55    0.56
  -2   7   4    2.76    0.55
   1  -7  -4    3.81    0.51
   1  -7  -4    4.12    0.97
   1  -7  -4    4.66    0.71
   1  -7  -4    3.47    0.89
  -1   7   4    3.70    0.50
  -1   7   4    4.24    0.65
  -1   7   4    4.33    0.66
   0  -7  -4    1.36    0.87
   0  -7  -4    0.41    0.53
   0  -7  -4    0.42    0.33
   0   7   4    1.00    0.42
   0   7   4    0.24    0.48
   0   7   4    0.20    0.42
  -1  -7  -4    4.79    0.63
  -1  -7  -4    4.61    0.75
  -1  -7  -4    4.88    0.86
   1   7   4    5.42    0.66
   1   7   4    4.72    0.64
   1   7   4    5.05    0.78
  -2  -7  -4    5.11    0.71
  -2  -7  -4    5.14    0.79
  -2  -7  -4    5.94    0.92
  -2  -7  -4    4.90    0.90
   2   7   4    4.71    0.64
   2   7   4    5.17    0.83
   2   7   4    5.30    0.68
  -3  -7  -4    5.86    0.90
  -3  -7  -4    3.99    0.93
  -3  -7  -4    3.77    0.96
   3   7   4    4.87    0.87
   3   7   4    3.78    0.76
   3   7   4    5.97    1.06
  -4  -7  -4    1.47    1.10
  -4  -7  -4    4.79    1.06
  -4  -7  -4    4.06    1.82
   4   7   4    0.91    0.80
   4   7   4    3.50    1.31
   4   7   4    0.94    1.53
   4   7   4    0.90    0.97
  -5  -7  -4   -0.94    0.97
  -5  -7  -4    0.71    1.26
   5   7   4    3.69    2.07
   5   7   4   -0.36    2.42
  -6  -7  -4    0.49    1.52
  -6  -7  -4   -3.89    1.70
   6   7   4   -0.65    1.64
   8  -8  -4   -4.44    2.28
   8  -8  -4    1.49    2.59
  -8   8   4   -0.14    1.47
  -8   8   4   -2.24    1.25
   7  -8  -4    2.21    1.71
   7  -8  -4    4.36    1.75
   7  -8  -4    2.43    2.85
  -7   8   4    1.84    0.85
  -7   8   4    1.35    1.16
   6  -8  -4    8.41    1.87
   6  -8  -4    9.90    1.59
   6  -8  -4    8.75    1.84
  -6   8   4    5.91    0.94
  -6   8   4    5.54    1.08
   5  -8  -4    8.01    1.09
   5  -8  -4    2.96    1.57
   5  -8  -4    6.14    1.62
  -5   8   4    4.48    0.72
  -5   8   4    5.57    0.97
  -5   8   4    6.37    0.84
   4  -8  -4    0.16    0.94
   4  -8  -4    0.55    0.79
   4  -8  -4    1.07    1.01
  -4   8   4    0.58    0.49
  -4   8   4    0.97    0.63
  -4   8   4   -0.13    0.48
   3  -8  -4    1.17    1.00
   3  -8  -4   -0.29    0.88
   3  -8  -4    0.53    0.74
  -3   8   4   -0.14    0.52
  -3   8   4    0.61    0.97
  -3   8   4    0.16    0.48
   2  -8  -4    0.69    0.95
   2  -8  -4    1.40    0.64
   2  -8  -4    0.21    0.69
   2  -8  -4    1.83    0.79
  -2   8   4    1.33    0.54
  -2   8   4    1.36    0.47
  -2   8   4    1.67    0.51
   1  -8  -4    0.14    0.32
   1  -8  -4    1.01    0.80
   1  -8  -4   -0.06    0.89
   1  -8  -4    0.53    0.61
  -1   8   4    0.73    0.47
  -1   8   4    0.51    0.49
  -1   8   4    0.44    0.49
   0  -8  -4   10.86    1.18
   0  -8  -4    9.88    1.46
   0  -8  -4   11.57    1.45
   0  -8  -4   10.88    0.95
   0   8   4   11.61    0.89
   0   8   4   10.45    0.85
   0   8   4   11.88    1.10
  -1  -8  -4    4.37    0.62
  -1  -8  -4    3.75    0.76
   1   8   4    4.05    0.67
   1   8   4    4.85    0.65
   1   8   4    2.19    0.71
  -2  -8  -4    3.51    0.71
  -2  -8  -4    3.67    0.98
   2   8   4    4.18    0.71
   2   8   4    5.28    0.81
   2   8   4    3.95    0.96
  -3  -8  -4    1.19    0.76
  -3  -8  -4    2.80    1.24
   3   8   4    2.23    0.73
   3   8   4    2.84    1.33
  -4  -8  -4   -0.41    1.10
  -4  -8  -4    0.73    0.90
   4   8   4    2.00    1.85
  -5  -8  -4   -0.26    1.41
  -5  -8  -4   -1.41    1.06
   5   8   4   -2.24    2.41
   7  -9  -4    2.76    2.10
   7  -9  -4   -0.81    1.81
  -7   9   4   -0.17    0.91
  -7   9   4    0.23    1.24
   6  -9  -4   -1.08    1.71
   6  -9  -4    1.56    1.71
   6  -9  -4    1.46    1.75
  -6   9   4    1.11    0.80
  -6   9   4   -1.32    0.94
   5  -9  -4    2.68    1.65
   5  -9  -4    0.74    1.55
   5  -9  -4    1.60    1.04
  -5   9   4    0.06    0.85
  -5   9   4    1.03    0.75
   4  -9  -4    3.60    1.44
   4  -9  -4    4.60    1.51
   4  -9  -4    4.10    0.99
  -4   9   4    1.79    0.67
  -4   9   4    3.05    0.68
  -4   9   4    3.16    0.90
   3  -9  -4    8.72    1.59
   3  -9  -4    9.10    1.58
   3  -9  -4    7.21    1.08
  -3   9   4    7.51    0.95
  -3   9   4    6.29    0.78
  -3   9   4    7.44    0.85
   2  -9  -4   16.18    1.43
   2  -9  -4   17.35    1.84
   2  -9  -4   14.95    1.75
  -2   9   4   14.64    1.18
  -2   9   4   12.88    1.11
  -2   9   4   14.46    1.14
   1  -9  -4   -1.44    0.97
   1  -9  -4    1.01    0.75
   1  -9  -4    1.10    1.02
   1  -9  -4   -0.02    0.47
  -1   9   4    1.21    0.63
  -1   9   4    1.67    0.68
  -1   9   4    0.90    0.51
   0  -9  -4    2.13    1.05
   0  -9  -4   -0.05    0.53
   0  -9  -4    0.95    1.16
   0  -9  -4    1.35    0.78
   0   9   4    0.76    0.55
   0   9   4    1.50    0.60
   0   9   4    0.04    0.69
  -1  -9  -4   -1.12    0.55
  -1  -9  -4   -0.36    0.82
   1   9   4    0.43    0.55
   1   9   4    0.48    0.62
   1   9   4    0.99    0.78
  -2  -9  -4    1.33    1.00
  -2  -9  -4    0.66    0.71
   2   9   4    0.73    1.10
   2   9   4    1.66    0.75
  -3  -9  -4   -0.87    1.05
  -3  -9  -4   -2.99    1.48
   3   9   4    0.04    0.89
   3   9   4   -0.72    1.17
  -4  -9  -4   -0.22    1.25
  -4  -9  -4    0.99    1.00
   4   9   4    1.13    2.08
  -5  -9  -4   -0.24    1.79
  -5  -9  -4   -0.56    1.33
   5   9   4   -0.73    3.20
   7 -10  -4    3.86    2.84
   7 -10  -4    0.26    2.88
  -7  10   4   -0.32    1.38
  -7  10   4    1.60    1.11
   6 -10  -4   -0.79    2.21
   6 -10  -4   -3.16    1.81
  -6  10   4    2.62    1.22
  -6  10   4    3.29    0.96
   5 -10  -4    0.42    1.85
   5 -10  -4    2.41    1.35
   5 -10  -4    3.76    1.80
  -5  10   4    2.35    0.97
  -5  10   4    0.80    0.78
   4 -10  -4    1.02    1.12
   4 -10  -4    1.79    1.79
   4 -10  -4    2.72    1.53
  -4  10   4    2.10    0.93
  -4  10   4    3.05    0.82
   3 -10  -4   -2.42    1.41
   3 -10  -4    0.65    0.97
   3 -10  -4   -1.64    2.59
  -3  10   4    1.09    0.69
  -3  10   4   -0.74    1.57
   2 -10  -4   -0.57    1.42
   2 -10  -4   -0.21    0.87
   2 -10  -4   -0.66    1.36
   2 -10  -4    0.18    0.92
  -2  10   4    0.36    0.72
  -2  10   4   -0.08    0.85
  -2  10   4    0.94    0.71
   1 -10  -4    1.63    1.53
   1 -10  -4   -0.34    0.89
   1 -10  -4   -0.65    1.25
  -1  10   4    0.43    0.70
  -1  10   4    0.31    0.76
  -1  10   4   -1.05    0.61
   0 -10  -4    2.56    1.75
   0 -10  -4   -0.21    1.19
   0 -10  -4    1.21    0.94
   0  10   4    1.06    0.71
   0  10   4    2.28    0.75
   0  10   4    2.20    1.30
  -1 -10  -4    1.16    0.75
  -1 -10  -4   -0.04    0.93
  -1 -10  -4   -0.66    1.78
   1  10   4    0.76    1.00
   1  10   4   -0.37    0.72
  -2 -10  -4    2.63    1.15
  -2 -10  -4   -1.48    0.84
   2  10   4    1.27    0.84
   2  10   4   -0.45    1.09
  -3 -10  -4    1.84    1.03
  -3 -10  -4    1.47    1.31
   3  10   4    0.99    1.10
   3  10   4    0.85    1.45
  -4 -10  -4   -0.74    1.20
  -4 -10  -4    3.65    1.72
   4  10   4    2.08    2.95
   6 -11  -4    4.41    2.47
   6 -11  -4    0.88    2.86
  -6  11   4   -0.41    1.42
  -6  11   4    1.24    1.08
   5 -11  -4    0.25    2.29
   5 -11  -4    1.07    2.04
  -5  11   4    0.32    1.19
  -5  11   4   -0.20    0.87
   4 -11  -4    3.05    3.43
   4 -11  -4   -0.14    1.90
   4 -11  -4    2.79    1.56
  -4  11   4   -1.55    0.80
  -4  11   4   -0.63    0.95
   3 -11  -4    2.30    1.86
   3 -11  -4    1.84    1.25
   3 -11  -4    0.98    1.93
  -3  11   4   -0.45    1.02
  -3  11   4   -1.03    0.86
  -3  11   4    0.34    0.79
   2 -11  -4    2.06    1.19
   2 -11  -4    1.14    1.88
   2 -11  -4    4.70    2.02
   2 -11  -4    0.13    1.09
  -2  11   4    2.35    1.03
  -2  11   4   -0.07    1.03
  -2  11   4    2.63    0.83
   1 -11  -4   -0.05    1.04
   1 -11  -4   -0.69    1.54
   1 -11  -4   -0.49    1.05
   1 -11  -4    2.78    2.95
  -1  11   4    2.72    1.83
  -1  11   4    1.13    0.75
   0 -11  -4    3.65    2.12
   0 -11  -4    0.81    1.06
   0  11   4    0.47    0.94
   0  11   4    0.13    1.03
   0  11   4    1.25    0.78
  -1 -11  -4    5.60    2.39
  -1 -11  -4    2.18    1.16
   1  11   4    1.26    0.87
   1  11   4    0.82    1.18
  -2 -11  -4   -4.46    2.55
  -2 -11  -4    1.21    1.23
   2  11   4   -1.31    1.29
   2  11   4   -1.40    0.99
  -3 -11  -4   -2.67    1.18
  -3 -11  -4    0.05    1.63
   3  11   4    2.37    1.34
   5 -12  -4    1.86    3.16
   5 -12  -4   -1.16    3.01
  -5  12   4    1.52    1.46
  -5  12   4    0.26    1.10
   4 -12  -4   -0.41    2.74
   4 -12  -4    1.99    2.57
  -4  12   4    0.82    1.00
  -4  12   4    1.19    1.32
   3 -12  -4    0.78    1.61
   3 -12  -4   -0.28    2.31
   3 -12  -4    2.25    2.46
  -3  12   4    0.15    0.83
  -3  12   4    1.34    1.24
   2 -12  -4    0.70    1.32
   2 -12  -4   -0.05    2.58
   2 -12  -4   -3.61    2.67
   2 -12  -4    0.70    1.25
  -2  12   4   -0.35    0.87
  -2  12   4   -1.19    1.15
  -2  12   4    1.36    1.12
   1 -12  -4    1.09    2.46
   1 -12  -4   -1.23    1.21
   1 -12  -4   -1.63    1.29
  -1  12   4    1.24    1.28
  -1  12   4   -0.54    0.83
  -1  12   4    1.52    1.23
   0 -12  -4   -2.04    1.20
   0 -12  -4    2.49    2.65
   0  12   4    1.67    1.30
   0  12   4   -0.43    0.85
   0  12   4   -1.62    1.25
  -1 -12  -4    1.51    2.98
  -1 -12  -4   -0.85    1.40
   1  12   4   -0.09    1.36
   1  12   4    0.10    1.00
  -2 -12  -4    1.30    1.98
  -2 -12  -4    5.13    3.69
   2  12   4    1.56    1.98
   2  12   4    1.78    1.41
   3 -13  -4    2.60    2.98
   3 -13  -4    2.80    3.67
  -3  13   4    1.86    1.22
  -3  13   4    1.78    1.77
   2 -13  -4   -0.88    3.58
  -2  13   4    0.47    1.13
  -2  13   4    0.43    1.61
   1 -13  -4   -0.49    1.71
   1 -13  -4   -5.79    3.52
  -1  13   4   -2.24    1.45
  -1  13   4   -0.84    1.15
  -1  13   4    3.32    1.62
   0 -13  -4    0.10    3.90
   0 -13  -4    2.93    1.90
   0  13   4   -0.86    1.26
   0  13   4    0.03    1.69
   0  15  -5   -0.43    1.37
   0  15  -5    0.66    1.39
   0  15  -5    0.40    1.18
   0 -15   5    2.22    1.33
   0 -15   5   -2.43    2.14
  -1  15  -5    1.45    1.41
  -1  15  -5    2.17    1.21
  -1  15  -5    6.70    1.53
  -1  15  -5   -1.22    1.38
   1 -15   5    1.79    2.10
   1 -15   5    0.19    1.37
  -2  15  -5   -1.14    1.48
  -2  15  -5    3.32    1.27
  -2  15  -5   -2.33    1.48
   2 -15   5   -3.77    3.07
   2 -15   5    0.17    2.36
   3  14  -5   -0.71    1.92
   2  14  -5    0.50    1.41
   2  14  -5   -0.93    1.08
  -2 -14   5   -0.37    1.27
  -2 -14   5   -0.40    1.03
   1  14  -5   -0.04    0.96
   1  14  -5   -0.41    1.13
   1  14  -5   -0.80    1.12
  -1 -14   5    0.50    0.98
   0  14  -5    0.46    1.13
   0  14  -5   -0.93    1.21
   0  14  -5    0.33    1.01
   0  14  -5    1.23    0.91
   0 -14   5   -1.17    0.91
   0 -14   5    0.46    1.33
  -1  14  -5   -2.04    1.01
  -1  14  -5    1.39    0.98
  -1  14  -5    0.05    1.08
   1 -14   5   -2.63    2.58
   1 -14   5   -0.25    1.57
   1 -14   5    0.45    1.04
  -2  14  -5    0.62    1.01
  -2  14  -5    4.28    1.29
  -2  14  -5    1.81    1.13
   2 -14   5    0.91    1.24
   2 -14   5    2.47    1.57
   2 -14   5   -1.69    2.46
  -3  14  -5   -0.71    1.09
  -3  14  -5   -1.30    1.24
  -3  14  -5    1.21    1.07
   3 -14   5   -0.15    2.57
   3 -14   5   -1.78    1.75
   3 -14   5   -1.18    1.60
  -4  14  -5    0.86    1.71
  -4  14  -5   -0.62    1.41
   4 -14   5   -1.56    2.21
   4 -14   5    0.73    2.75
   4  13  -5    0.96    1.30
   4  13  -5    2.33    2.20
  -4 -13   5   -0.62    1.06
  -4 -13   5    0.58    1.51
  -4 -13   5   -0.69    1.18
   3  13  -5    0.18    0.93
   3  13  -5    0.59    1.45
  -3 -13   5    0.62    1.26
  -3 -13   5    0.70    0.93
   2  13  -5    1.12    0.83
   2  13  -5    1.17    1.18
   2  13  -5    0.50    1.19
  -2 -13   5    0.07    0.82
  -2 -13   5    2.24    1.09
   1  13  -5    0.31    1.03
   1  13  -5    1.10    0.80
   1  13  -5    0.63    1.03
  -1 -13   5    0.48    0.87
   0  13  -5    0.37    0.91
   0  13  -5    0.16    0.75
   0  13  -5    0.25    0.84
   0 -13   5    1.97    1.69
   0 -13   5    1.23    1.14
   0 -13   5    0.71    0.86
  -1  13  -5    1.01    0.90
  -1  13  -5    1.55    1.66
  -1  13  -5   -1.38    0.73
   1 -13   5   -0.10    0.88
   1 -13   5   -0.80    1.08
   1 -13   5   -0.98    1.84
  -2  13  -5    0.00    1.05
  -2  13  -5   -1.13    0.88
  -2  13  -5    0.07    0.82
   2 -13   5    0.45    1.02
   2 -13   5    0.80    1.14
   2 -13   5   -1.71    2.32
  -3  13  -5   -0.16    1.05
  -3  13  -5   -0.82    0.89
  -3  13  -5    0.66    0.90
   3 -13   5    0.87    3.21
   3 -13   5    0.75    1.37
   3 -13   5   -0.14    1.32
  -4  13  -5   -1.05    0.90
  -4  13  -5   -0.48    1.11
  -4  13  -5    0.82    1.21
   4 -13   5   -2.61    2.15
   4 -13   5    0.88    1.54
  -5  13  -5   -1.71    1.66
  -5  13  -5   -0.15    1.34
   5 -13   5    1.24    2.18
   5 -13   5   -4.83    2.63
   5  12  -5    4.34    2.48
   5  12  -5    0.64    1.47
  -5 -12   5    2.80    1.28
  -5 -12   5    1.73    1.21
   4  12  -5   -1.23    1.52
   4  12  -5    0.01    0.98
  -4 -12   5    0.41    0.91
  -4 -12   5   -1.60    0.85
  -4 -12   5    0.90    1.13
   3  12  -5    1.13    1.10
   3  12  -5    0.68    0.81
  -3 -12   5    0.14    0.96
  -3 -12   5   -0.06    0.80
   2  12  -5    0.99    0.97
   2  12  -5    0.88    0.76
   2  12  -5    1.72    0.75
  -2 -12   5    0.34    0.62
  -2 -12   5   -0.05    0.89
  -2 -12   5    1.95    0.77
   1  12  -5   -0.68    0.71
   1  12  -5    0.87    0.63
   1  12  -5   -0.79    0.84
   1  12  -5    0.42    0.70
  -1 -12   5    0.72    0.92
  -1 -12   5    1.13    1.18
  -1 -12   5   -0.35    0.67
  -1 -12   5   -0.43    0.61
   0  12  -5   -0.83    0.68
   0  12  -5    0.76    0.82
   0  12  -5    1.11    0.67
   0 -12   5   -0.35    0.73
   0 -12   5   -0.66    1.18
  -1  12  -5    0.47    0.76
  -1  12  -5    1.68    0.69
  -1  12  -5    0.83    0.84
   1 -12   5    1.62    0.79
   1 -12   5    1.42    1.40
  -2  12  -5    1.53    0.70
  -2  12  -5    1.69    1.04
  -2  12  -5    1.94    0.92
   2 -12   5    2.98    1.18
   2 -12   5    1.28    1.51
   2 -12   5    2.72    0.94
  -3  12  -5    0.66    0.76
  -3  12  -5    2.25    1.00
  -3  12  -5    0.66    0.89
   3 -12   5    1.25    1.22
   3 -12   5    0.73    3.07
   3 -12   5    0.16    1.19
  -4  12  -5    3.53    1.04
  -4  12  -5   -0.85    1.04
  -4  12  -5    2.01    0.97
   4 -12   5   -0.62    2.12
   4 -12   5    1.61    1.30
  -5  12  -5    1.28    1.18
  -5  12  -5    3.08    1.36
   5 -12   5    0.17    2.14
   5 -12   5   -0.12    1.56
   6 -12   5    2.52    3.07
   5  11  -5    1.34    1.11
   5  11  -5    0.40    1.79
  -5 -11   5   -0.05    0.95
  -5 -11   5    1.11    1.11
  -5 -11   5    0.43    0.90
   4  11  -5    0.99    0.90
   4  11  -5   -0.31    1.23
  -4 -11   5    0.44    0.74
  -4 -11   5   -0.51    0.81
  -4 -11   5   -1.10    0.91
   3  11  -5    1.46    0.83
   3  11  -5    1.05    1.22
  -3 -11   5    0.61    0.73
  -3 -11   5    2.59    0.95
  -3 -11   5    1.27    0.69
   2  11  -5   -0.70    0.79
   2  11  -5    0.84    0.61
   2  11  -5    0.91    0.93
  -2 -11   5    0.31    0.69
  -2 -11   5    0.25    0.94
  -2 -11   5    0.34    0.62
  -2 -11   5    0.01    0.56
   1  11  -5    3.01    0.70
   1  11  -5    2.07    0.82
   1  11  -5    1.11    0.62
   1  11  -5    2.37    0.57
  -1 -11   5    2.12    0.72
  -1 -11   5    1.83    0.49
  -1 -11   5    1.88    0.73
  -1 -11   5    2.18    1.25
   0  11  -5    2.04    0.64
   0  11  -5    1.27    0.59
   0  11  -5    2.79    0.75
   0 -11   5    3.54    1.05
   0 -11   5    1.49    0.49
   0 -11   5    2.63    0.65
  -1  11  -5   -0.33    0.64
  -1  11  -5    1.13    0.70
  -1  11  -5    0.30    0.64
   1 -11   5    0.65    1.09
   1 -11   5   -0.13    0.75
   1 -11   5    0.68    0.64
  -2  11  -5    5.94    0.98
  -2  11  -5    7.30    0.88
  -2  11  -5    6.18    0.95
   2 -11   5    7.94    1.49
   2 -11   5    8.13    1.03
   2 -11   5    5.88    1.03
   2 -11   5    5.39    0.99
  -3  11  -5    0.05    0.75
  -3  11  -5    0.62    0.58
  -3  11  -5   -0.89    0.78
   3 -11   5    1.53    0.83
   3 -11   5    2.19    1.10
   3 -11   5    0.54    0.95
   3 -11   5    0.35    1.25
  -4  11  -5   -1.21    0.66
  -4  11  -5    1.18    0.92
  -4  11  -5   -0.23    0.79
   4 -11   5    0.75    0.98
   4 -11   5    2.04    0.90
   4 -11   5   -0.11    1.78
  -5  11  -5    1.73    1.18
  -5  11  -5    2.17    1.03
   5 -11   5   -0.64    1.89
   5 -11   5   -0.13    1.39
   5 -11   5    0.44    1.41
  -6  11  -5    0.96    1.41
  -6  11  -5    0.09    1.15
   6 -11   5    2.09    2.32
   6 -11   5    0.59    2.48
   6  10  -5    1.04    2.14
  -6 -10   5    0.10    1.22
  -6 -10   5   -1.24    1.10
  -6 -10   5   -0.80    1.04
   5  10  -5   -0.21    0.94
   5  10  -5    0.81    1.46
  -5 -10   5    0.03    1.16
  -5 -10   5    0.69    0.91
  -5 -10   5    0.79    0.85
   4  10  -5   -0.37    0.88
   4  10  -5    1.64    1.22
  -4 -10   5    0.00    0.77
  -4 -10   5   -0.77    0.77
  -4 -10   5    1.10    0.69
   3  10  -5    4.38    0.79
   3  10  -5    5.36    0.82
   3  10  -5    4.35    1.01
  -3 -10   5    5.04    0.80
  -3 -10   5    5.22    0.84
  -3 -10   5    3.44    0.73
   2  10  -5    5.20    0.94
   2  10  -5    4.92    0.69
   2  10  -5    3.79    0.66
  -2 -10   5    4.66    0.68
  -2 -10   5    3.90    0.62
  -2 -10   5    4.81    1.04
  -2 -10   5    5.46    0.82
   1  10  -5    2.99    1.04
   1  10  -5    1.90    0.57
   1  10  -5    2.89    0.60
   1  10  -5    2.92    0.80
  -1 -10   5    2.07    0.49
  -1 -10   5    2.23    0.67
  -1 -10   5    1.14    0.87
  -1 -10   5    2.09    0.59
   0  10  -5    3.80    0.61
   0  10  -5    3.19    0.66
   0  10  -5    3.79    0.63
   0 -10   5    4.05    0.64
   0 -10   5    3.84    1.00
  -1  10  -5    3.18    0.64
  -1  10  -5    2.36    0.62
  -1  10  -5    2.20    0.55
   1 -10   5    2.05    0.96
   1 -10   5    1.79    0.74
   1 -10   5    1.53    0.38
   1 -10   5    2.66    0.59
  -2  10  -5    1.30    0.59
  -2  10  -5   -0.09    0.59
  -2  10  -5    1.28    0.49
   2 -10   5    0.40    0.61
   2 -10   5   -1.39    0.67
   2 -10   5   -0.79    0.88
   2 -10   5    0.48    0.74
  -3  10  -5    5.10    0.64
  -3  10  -5    4.35    0.86
  -3  10  -5    4.70    0.83
   3 -10   5    5.31    1.00
   3 -10   5    4.74    1.30
   3 -10   5    3.32    0.99
   3 -10   5    5.37    0.88
  -4  10  -5    4.31    0.85
  -4  10  -5    4.96    0.94
  -4  10  -5    1.89    0.96
   4 -10   5    4.36    0.95
   4 -10   5    6.89    1.57
   4 -10   5    2.78    1.07
  -5  10  -5    4.21    0.98
  -5  10  -5    5.91    1.16
   5 -10   5    1.60    1.28
   5 -10   5    7.50    1.86
   5 -10   5    6.65    1.20
  -6  10  -5    0.96    1.19
  -6  10  -5    3.26    1.13
   6 -10   5    3.11    2.00
   6 -10   5    4.60    1.48
   6 -10   5    4.47    2.12
  -7  10  -5   -1.34    1.61
  -7  10  -5   -1.65    1.42
   7 -10   5    2.38    2.77
   7 -10   5   -0.61    3.15
   7   9  -5    1.45    3.04
  -7  -9   5    0.51    1.44
  -7  -9   5    1.12    1.25
   6   9  -5    1.35    1.76
  -6  -9   5   -0.32    0.95
  -6  -9   5    1.78    0.91
  -6  -9   5    1.65    1.11
   5   9  -5    1.97    0.91
   5   9  -5    2.02    1.38
  -5  -9   5    1.55    0.94
  -5  -9   5    2.24    0.82
  -5  -9   5    3.09    0.85
   4   9  -5    1.59    1.03
   4   9  -5    0.90    0.69
  -4  -9   5    1.75    0.65
  -4  -9   5    1.95    0.74
  -4  -9   5    1.30    0.69
   3   9  -5   -0.44    0.64
   3   9  -5    0.19    0.50
   3   9  -5    0.75    0.62
  -3  -9   5    0.81    0.53
  -3  -9   5    0.02    0.48
  -3  -9   5    1.09    0.62
  -3  -9   5   -0.49    0.49
   2   9  -5    1.12    0.62
   2   9  -5    1.37    0.48
   2   9  -5    1.60    0.52
   2   9  -5    0.98    0.33
  -2  -9   5    1.33    0.58
  -2  -9   5    0.31    0.45
  -2  -9   5    1.50    0.49
  -2  -9   5    0.22    0.47
   1   9  -5    0.19    0.56
   1   9  -5   -0.11    0.43
   1   9  -5   -0.05    0.48
   1   9  -5    0.36    0.44
  -1  -9   5    0.07    0.48
  -1  -9   5    0.54    0.39
  -1  -9   5    0.06    0.42
  -1  -9   5    0.09    0.58
   0   9  -5   10.07    0.82
   0   9  -5    8.08    0.79
   0   9  -5   10.22    0.77
   0  -9   5    8.86    0.61
   0  -9   5    9.08    0.76
   0  -9   5    9.60    1.35
  -1   9  -5    7.49    0.70
  -1   9  -5    6.18    0.76
  -1   9  -5    7.42    1.17
   1  -9   5    6.46    0.75
   1  -9   5    6.67    0.52
   1  -9   5    7.91    1.11
   1  -9   5    6.75    0.92
  -2   9  -5    7.39    0.71
  -2   9  -5    6.87    0.84
  -2   9  -5    7.10    0.84
   2  -9   5    7.53    1.16
   2  -9   5    5.33    0.80
   2  -9   5    6.81    0.82
   2  -9   5    4.77    0.49
  -3   9  -5   19.17    1.20
  -3   9  -5   18.21    0.98
  -3   9  -5   18.37    1.21
   3  -9   5   18.66    1.53
   3  -9   5   20.14    1.69
   3  -9   5   20.44    1.44
   3  -9   5   21.10    1.41
  -4   9  -5    1.17    0.61
  -4   9  -5    0.64    0.47
  -4   9  -5    0.80    0.73
   4  -9   5    2.35    1.16
   4  -9   5    3.45    0.86
   4  -9   5    0.18    0.82
  -5   9  -5   -0.79    1.00
  -5   9  -5   -0.29    0.97
   5  -9   5    1.16    0.92
   5  -9   5    0.63    1.17
  -6   9  -5   -0.59    1.02
  -6   9  -5   -0.08    0.93
   6  -9   5    1.43    1.81
   6  -9   5    1.65    1.73
   6  -9   5    0.34    1.22
  -7   9  -5    0.71    1.43
  -7   9  -5    1.36    1.39
   7  -9   5   -1.47    2.32
   7  -9   5    0.25    2.15
   7  -9   5    5.55    1.76
   7   8  -5   -1.09    2.22
  -7  -8   5   -1.19    1.06
  -7  -8   5   -1.32    1.14
   6   8  -5    1.96    1.63
  -6  -8   5   -1.94    0.73
  -6  -8   5    0.27    0.85
  -6  -8   5    0.31    0.92
   5   8  -5    1.00    1.14
  -5  -8   5   -0.04    0.65
  -5  -8   5    0.46    0.65
  -5  -8   5    0.10    0.78
   4   8  -5    0.39    0.77
   4   8  -5    1.33    0.77
  -4  -8   5    0.53    0.48
  -4  -8   5    1.70    0.55
  -4  -8   5    0.84    0.64
   3   8  -5    8.65    1.03
   3   8  -5    7.11    0.81
  -3  -8   5    8.78    0.70
  -3  -8   5    7.38    0.78
  -3  -8   5    8.28    0.84
  -3  -8   5    8.44    0.84
   2   8  -5   60.64    2.10
   2   8  -5   59.98    2.11
   2   8  -5   60.28    2.33
  -2  -8   5   58.90    2.06
  -2  -8   5   59.77    2.12
  -2  -8   5   58.72    2.03
  -2  -8   5   57.40    2.02
   1   8  -5   11.37    0.83
   1   8  -5   10.65    0.93
   1   8  -5   11.20    0.66
   1   8  -5   11.01    0.80
  -1  -8   5    9.87    0.79
  -1  -8   5   10.50    0.88
  -1  -8   5   12.03    0.90
  -1  -8   5   11.69    0.78
   0   8  -5   10.94    0.78
   0   8  -5   10.28    0.80
   0   8  -5    9.84    0.75
   0  -8   5   10.40    0.73
   0  -8   5   10.02    0.58
   0  -8   5    9.21    0.85
  -1   8  -5   23.41    1.13
  -1   8  -5   24.63    1.04
  -1   8  -5   25.29    1.16
   1  -8   5   21.75    1.11
   1  -8   5   23.22    0.92
   1  -8   5   23.64    1.30
  -2   8  -5    0.20    0.44
  -2   8  -5   -0.17    0.36
  -2   8  -5   -0.29    0.43
   2  -8   5   -0.24    0.47
   2  -8   5   -0.18    0.70
   2  -8   5   -0.24    0.46
  -3   8  -5    5.10    0.55
  -3   8  -5    4.69    0.69
  -3   8  -5    4.15    0.63
   3  -8   5    4.96    1.16
   3  -8   5    3.88    0.83
   3  -8   5    4.76    0.97
  -4   8  -5   16.88    1.12
  -4   8  -5   15.75    1.20
   4  -8   5   15.15    1.45
   4  -8   5   20.32    1.57
   4  -8   5   18.32    1.76
  -5   8  -5    7.74    1.08
  -5   8  -5    9.08    1.35
   5  -8   5    7.78    1.73
   5  -8   5    7.45    1.16
   5  -8   5    8.76    1.65
  -6   8  -5    6.19    1.25
  -6   8  -5    8.01    1.22
   6  -8   5    1.16    2.49
   6  -8   5    7.25    1.93
   6  -8   5   10.63    1.90
  -7   8  -5    6.00    1.37
  -7   8  -5    3.72    1.38
   7  -8   5    6.92    2.32
   7  -8   5    8.29    1.70
   7  -8   5    5.43    2.20
   8   7  -5    1.87    3.14
  -8  -7   5    2.26    1.44
  -8  -7   5   -1.24    1.59
   7   7  -5    3.08    1.94
  -7  -7   5    0.16    0.99
  -7  -7   5   -0.48    0.94
   6   7  -5    8.77    1.75
  -6  -7   5    9.08    1.17
  -6  -7   5    8.54    1.02
  -6  -7   5    8.48    1.07
   5   7  -5    7.92    1.33
  -5  -7   5    6.98    0.81
  -5  -7   5    6.65    0.94
  -5  -7   5    7.56    0.92
   4   7  -5    9.25    0.92
   4   7  -5    9.25    0.91
   4   7  -5    9.37    1.13
  -4  -7   5    9.07    0.90
  -4  -7   5    9.51    0.85
  -4  -7   5   11.63    0.93
   3   7  -5    4.25    0.56
   3   7  -5    5.01    0.86
   3   7  -5    4.10    0.27
   3   7  -5    3.98    0.59
  -3  -7   5    4.75    0.61
  -3  -7   5    4.60    0.62
  -3  -7   5    4.15    0.56
  -3  -7   5    4.81    0.51
   2   7  -5    0.47    0.36
   2   7  -5    1.30    0.60
   2   7  -5    1.12    0.22
   2   7  -5    0.30    0.40
   2   7  -5    1.21    0.44
  -2  -7   5    1.62    0.51
  -2  -7   5    0.45    0.42
  -2  -7   5    0.84    0.35
  -2  -7   5    1.24    0.42
   1   7  -5   11.48    0.88
   1   7  -5   10.92    0.72
   1   7  -5   11.30    0.59
  -1  -7   5   12.17    0.69
  -1  -7   5   11.58    0.75
  -1  -7   5   10.51    0.70
   0   7  -5   31.56    1.18
   0   7  -5   32.20    1.24
   0   7  -5   31.03    1.29
   0  -7   5   31.34    1.31
   0  -7   5   30.85    1.09
   0  -7   5   30.78    1.25
  -1   7  -5   17.74    0.84
  -1   7  -5   16.39    0.90
  -1   7  -5   15.77    0.93
   1  -7   5   17.73    1.08
   1  -7   5   18.36    0.96
   1  -7   5   14.88    1.03
   1  -7   5   17.44    0.75
  -2   7  -5   39.20    1.54
  -2   7  -5   39.42    1.54
  -2   7  -5   39.80    1.36
   2  -7   5   39.51    1.87
   2  -7   5   39.94    1.62
   2  -7   5   38.57    1.72
  -3   7  -5    5.46    0.70
  -3   7  -5    6.39    0.68
  -3   7  -5    5.08    0.46
   3  -7   5    6.06    0.93
   3  -7   5    7.37    0.53
   3  -7   5    5.20    0.83
   3  -7   5    6.99    1.04
  -4   7  -5   23.45    1.27
  -4   7  -5   20.99    0.84
  -4   7  -5   23.35    1.28
   4  -7   5   22.29    1.69
   4  -7   5   25.09    1.63
   4  -7   5   21.77    1.54
  -5   7  -5    3.33    0.68
  -5   7  -5    2.92    0.79
   5  -7   5    4.44    1.06
   5  -7   5    3.30    1.21
   5  -7   5    3.72    1.05
  -6   7  -5    0.01    0.71
  -6   7  -5    0.95    0.90
   6  -7   5    2.21    1.18
   6  -7   5    2.60    1.31
   6  -7   5    1.65    1.35
  -7   7  -5    0.39    1.21
  -7   7  -5   -0.69    1.06
   7  -7   5    0.50    1.55
   7  -7   5   -1.54    1.76
   8   6  -5    3.49    2.61
  -8  -6   5    0.28    1.23
  -8  -6   5   -0.63    1.24
   7   6  -5    0.20    1.66
  -7  -6   5    1.16    0.90
  -7  -6   5   -0.28    0.90
   6   6  -5    9.23    1.68
  -6  -6   5    6.68    0.95
  -6  -6   5    6.78    1.06
  -6  -6   5    6.62    0.87
   5   6  -5    4.34    1.05
  -5  -6   5    3.29    0.65
  -5  -6   5    3.07    0.60
  -5  -6   5    3.58    0.74
   4   6  -5    1.93    0.47
   4   6  -5    0.74    0.49
   4   6  -5    1.37    0.68
  -4  -6   5    0.92    0.42
  -4  -6   5    0.32    0.47
  -4  -6   5    1.31    0.49
   3   6  -5    0.07    0.36
   3   6  -5   -0.75    0.58
   3   6  -5   -0.45    0.33
  -3  -6   5    0.10    0.37
  -3  -6   5    1.04    0.40
  -3  -6   5    0.59    0.34
   2   6  -5  150.34    5.03
   2   6  -5  160.63    4.40
   2   6  -5  159.25    4.66
   2   6  -5  158.05    4.64
   2   6  -5  163.02    4.54
  -2  -6   5  161.26    4.61
  -2  -6   5  158.73    4.48
  -2  -6   5  162.01    4.63
   1   6  -5   62.36    2.04
   1   6  -5   62.68    2.12
   1   6  -5   63.46    1.89
   1   6  -5   62.34    2.03
  -1  -6   5   64.15    2.04
  -1  -6   5   60.64    1.95
  -1  -6   5   61.04    1.96
   0   6  -5   73.23    2.32
   0   6  -5   71.14    2.23
   0   6  -5   73.11    2.39
   0   6  -5   72.50    2.25
   0  -6   5   74.54    2.35
   0  -6   5   71.94    2.17
   0  -6   5   73.20    2.28
  -1   6  -5   54.07    1.67
  -1   6  -5   47.03    1.90
  -1   6  -5   50.80    1.74
   1  -6   5   53.93    1.54
   1  -6   5   52.79    1.91
   1  -6   5   54.19    1.94
   1  -6   5   49.85    2.28
  -2   6  -5   56.66    1.89
  -2   6  -5   59.95    2.02
  -2   6  -5   59.71    1.82
  -2   6  -5   60.69    2.01
   2  -6   5   61.17    2.24
   2  -6   5   53.35    1.92
   2  -6   5   61.95    2.12
   2  -6   5   59.29    2.30
  -3   6  -5   28.33    1.26
  -3   6  -5   28.90    1.06
  -3   6  -5   29.52    1.32
   3  -6   5   32.52    1.66
   3  -6   5   29.94    1.59
   3  -6   5   30.38    1.18
   3  -6   5   31.45    1.67
  -4   6  -5    1.39    0.54
  -4   6  -5    0.65    0.47
  -4   6  -5    0.93    0.20
   4  -6   5    0.80    0.66
   4  -6   5    1.60    0.80
   4  -6   5    0.33    0.64
  -5   6  -5    9.20    0.90
  -5   6  -5    8.46    1.02
   5  -6   5    9.20    1.42
   5  -6   5    9.82    1.38
   5  -6   5   10.36    1.42
  -6   6  -5    6.58    1.08
  -6   6  -5    6.27    0.86
  -6   6  -5    6.20    1.83
   6  -6   5    5.71    2.76
   6  -6   5    8.12    1.40
  -7   6  -5    5.06    1.25
  -7   6  -5    5.53    1.25
   7  -6   5    6.71    1.60
   7  -6   5    6.86    1.84
  -8   6  -5    6.32    1.75
  -8   6  -5    1.14    1.63
   8  -6   5   -0.35    2.15
   8  -6   5    3.53    2.42
   8   5  -5    2.79    2.18
  -8  -5   5    0.52    1.19
  -8  -5   5    2.12    1.15
   7   5  -5    8.08    1.89
  -7  -5   5    3.11    0.92
  -7  -5   5    6.21    1.09
   6   5  -5    3.51    1.25
  -6  -5   5    2.61    0.74
  -6  -5   5    2.96    0.71
  -6  -5   5    3.59    0.83
   5   5  -5   21.25    1.61
  -5  -5   5   21.91    1.21
  -5  -5   5   20.54    1.11
  -5  -5   5   19.73    1.23
  -4  -5   5   40.59    1.52
  -4  -5   5   39.10    1.69
  -4  -5   5   37.90    1.58
   3   5  -5   18.31    0.71
   3   5  -5   16.93    0.93
   3   5  -5   16.96    0.95
   3   5  -5   16.99    1.14
  -3  -5   5   17.00    0.89
  -3  -5   5   16.05    0.90
  -3  -5   5   17.20    0.77
  -3  -5   5   17.40    0.69
   2   5  -5   92.20    2.56
   2   5  -5   93.93    2.99
   2   5  -5   90.42    2.81
   2   5  -5   93.69    2.82
  -2  -5   5   91.71    2.80
  -2  -5   5   89.92    2.76
  -2  -5   5   91.55    2.58
  -2  -5   5   87.30    2.76
   1   5  -5   23.93    0.97
   1   5  -5   22.84    0.94
   1   5  -5   23.59    0.82
   1   5  -5   22.82    1.00
  -1  -5   5   23.90    0.89
  -1  -5   5   23.37    0.84
  -1  -5   5   22.92    0.92
  -1  -5   5   24.10    0.94
   0   5  -5    0.34    0.22
   0   5  -5    0.18    0.26
   0   5  -5   -0.15    0.20
   0  -5   5    0.23    0.25
   0  -5   5   -0.02    0.22
  -1   5  -5   48.23    1.67
  -1   5  -5   50.88    1.51
  -1   5  -5   49.41    1.65
  -1   5  -5   49.50    1.58
   1  -5   5   50.06    1.69
   1  -5   5   48.33    1.74
   1  -5   5   50.38    1.44
   1  -5   5   50.08    1.62
  -2   5  -5   82.33    2.19
  -2   5  -5   76.75    2.60
  -2   5  -5   80.54    2.31
  -2   5  -5   79.20    2.43
   2  -5   5   71.57    2.39
   2  -5   5   72.79    2.78
   2  -5   5   66.71    2.72
   2  -5   5   80.14    2.66
  -3   5  -5   20.48    0.72
  -3   5  -5   20.62    1.07
  -3   5  -5   20.97    1.01
   3  -5   5   21.76    1.36
   3  -5   5   20.86    1.36
   3  -5   5   21.32    1.40
   3  -5   5   22.34    1.00
  -4   5  -5   14.75    0.96
  -4   5  -5   15.05    0.92
   4  -5   5   15.82    1.33
   4  -5   5   14.79    1.33
   4  -5   5   18.39    1.37
  -5   5  -5   43.35    1.72
  -5   5  -5   44.85    1.90
   5  -5   5   50.19    2.44
   5  -5   5   46.21    2.30
   5  -5   5   44.69    2.27
  -6   5  -5    9.25    1.12
  -6   5  -5   10.08    1.24
  -6   5  -5    8.95    1.06
   6  -5   5   10.69    2.27
   6  -5   5    8.76    1.61
  -7   5  -5    1.08    1.13
  -7   5  -5   -1.30    1.10
   7  -5   5   -0.68    1.35
   7  -5   5   -1.37    1.43
  -8   5  -5   -0.14    1.56
  -8   5  -5    0.14    1.49
   8  -5   5    1.33    1.88
   8  -5   5    3.49    2.17
   8   4  -5   -3.03    1.91
  -8  -4   5   -1.34    1.04
  -8  -4   5    0.27    1.10
  -7  -4   5    8.36    1.11
   6   4  -5   14.47    1.67
  -6  -4   5   15.82    1.23
  -6  -4   5   14.04    1.06
  -6  -4   5   15.91    1.16
   5   4  -5   29.78    1.12
   5   4  -5   30.48    1.80
  -5  -4   5   31.65    1.36
  -5  -4   5   31.05    1.45
  -5  -4   5   29.14    1.20
   4   4  -5    6.60    0.93
   4   4  -5    6.46    0.54
  -4  -4   5    6.75    0.49
  -4  -4   5    6.88    0.68
  -4  -4   5    7.85    0.71
   3   4  -5    8.16    0.54
   3   4  -5    6.62    0.75
  -3  -4   5    7.54    0.46
  -3  -4   5    6.90    0.75
  -3  -4   5    7.58    0.59
  -3  -4   5    7.68    0.45
   2   4  -5    1.20    0.32
   2   4  -5    1.38    0.19
   2   4  -5    1.39    0.41
  -2  -4   5    1.04    0.27
  -2  -4   5    1.31    0.23
  -2  -4   5    1.18    0.28
   1   4  -5  193.49    5.32
   1   4  -5  191.43    5.42
   1   4  -5  194.42    5.49
   1   4  -5  194.32    5.47
  -1  -4   5  199.29    5.27
  -1  -4   5  187.67    5.37
  -1  -4   5  189.52    5.38
   0   4  -5  101.30    3.00
   0   4  -5  105.28    2.97
   0   4  -5  104.42    3.03
   0   4  -5  100.56    2.95
   0   4  -5  103.08    2.96
   0  -4   5  102.71    2.98
   0  -4   5   98.86    2.92
   0  -4   5  102.78    3.01
   0  -4   5  100.97    2.99
  -1   4  -5  335.37    9.08
  -1   4  -5  328.96    9.01
  -1   4  -5  331.98    9.20
  -1   4  -5  329.82    9.19
   1  -4   5  342.05    9.32
   1  -4   5  329.88    9.01
   1  -4   5  339.81    9.20
   1  -4   5  333.37    9.23
   1  -4   5  330.83    9.27
  -2   4  -5   65.29    2.07
  -2   4  -5   62.27    2.00
  -2   4  -5   64.53    1.83
   2  -4   5   56.56    2.33
   2  -4   5   62.61    2.20
   2  -4   5   63.38    2.23
   2  -4   5   65.78    1.84
   2  -4   5   66.76    1.75
   2  -4   5   57.71    2.03
  -3   4  -5  105.01    3.20
  -3   4  -5  108.36    3.32
   3  -4   5  106.03    3.71
   3  -4   5  103.93    3.55
   3  -4   5  112.28    3.32
   3  -4   5  106.75    3.59
   3  -4   5  106.98    2.95
  -4   4  -5   22.14    1.22
  -4   4  -5   22.96    1.11
   4  -4   5   24.52    1.53
   4  -4   5   21.66    1.48
   4  -4   5   23.07    1.46
  -5   4  -5   -0.14    0.56
  -5   4  -5    0.01    0.61
  -5   4  -5    0.24    0.49
   5  -4   5    0.02    0.73
   5  -4   5    1.06    0.67
  -6   4  -5    1.54    0.87
  -6   4  -5    0.93    0.73
   6  -4   5    0.36    1.14
   6  -4   5   -0.75    0.96
  -7   4  -5    2.83    1.20
  -7   4  -5    2.45    1.17
   7  -4   5    4.03    1.48
   7  -4   5    3.24    1.39
  -8   4  -5    4.51    1.65
  -8   4  -5    3.10    1.62
   8  -4   5    6.65    2.22
   8  -4   5    0.92    1.84
   9   3  -5    4.20    3.20
  -9  -3   5    2.95    1.51
  -9  -3   5    0.31    1.45
   8   3  -5    0.84    1.86
  -8  -3   5    2.80    1.02
  -8  -3   5    4.36    1.17
   7   3  -5    0.54    1.36
  -7  -3   5    0.41    0.78
  -7  -3   5    1.15    0.71
   6   3  -5   10.53    0.93
   6   3  -5   10.58    1.38
  -6  -3   5   12.44    1.07
  -6  -3   5   10.06    0.96
   5   3  -5    3.72    0.91
   5   3  -5    2.30    0.86
  -5  -3   5    3.78    0.59
  -5  -3   5    3.33    0.60
  -5  -3   5    3.78    0.41
   4   3  -5   47.15    1.71
   4   3  -5   48.01    2.08
  -4  -3   5   46.08    1.69
  -4  -3   5   47.51    1.49
   3   3  -5  150.81    4.58
   3   3  -5  150.52    4.71
   3   3  -5  155.42    4.34
   3   3  -5  155.70    4.51
  -3  -3   5  155.21    4.27
  -3  -3   5  158.45    4.25
  -3  -3   5  149.26    4.38
  -3  -3   5  155.57    4.45
   2   3  -5   80.82    2.39
   2   3  -5   86.24    2.57
   2   3  -5   84.81    2.66
   2   3  -5   79.79    2.66
  -2  -3   5   84.97    2.37
  -2  -3   5   84.99    2.33
  -2  -3   5   84.18    2.50
   1   3  -5  443.41   12.06
   1   3  -5  451.15   12.21
   1   3  -5  444.08   11.93
   1   3  -5  446.98   12.20
   1   3  -5  446.38   12.04
  -1  -3   5  438.17   12.08
  -1  -3   5  468.46   12.09
  -1  -3   5  422.21   12.07
   0   3  -5    4.70    0.40
   0   3  -5    4.89    0.36
   0   3  -5    4.11    0.39
   0   3  -5    4.74    0.33
   0   3  -5    5.12    0.34
   0  -3   5    4.92    0.38
   0  -3   5    5.74    0.38
   0  -3   5    4.86    0.29
   0  -3   5    4.85    0.35
  -1   3  -5    4.97    0.42
  -1   3  -5    5.07    0.44
   1  -3   5    4.95    0.48
   1  -3   5    5.10    0.44
   1  -3   5    4.80    0.30
   1  -3   5    5.03    0.30
   1  -3   5    4.21    0.45
   1  -3   5    5.12    0.48
  -2   3  -5   29.74    1.11
  -2   3  -5   31.98    0.94
  -2   3  -5   30.19    1.18
   2  -3   5   28.06    1.19
   2  -3   5   29.98    1.30
   2  -3   5   30.85    1.33
   2  -3   5   28.02    1.41
   2  -3   5   31.55    0.96
   2  -3   5   31.71    0.90
  -3   3  -5   88.32    2.46
  -3   3  -5   85.83    2.78
  -3   3  -5   85.32    2.64
   3  -3   5   87.74    2.49
   3  -3   5   88.59    2.80
   3  -3   5   90.02    3.14
   3  -3   5   84.47    3.01
  -4   3  -5   21.53    1.15
  -4   3  -5   21.26    1.26
  -4   3  -5   22.06    1.05
   4  -3   5   23.22    1.42
   4  -3   5   21.11    1.50
  -5   3  -5   29.76    1.64
  -5   3  -5   30.77    1.28
  -5   3  -5   31.89    1.55
   5  -3   5   33.09    1.83
   5  -3   5   31.06    1.92
  -6   3  -5   22.16    1.77
  -6   3  -5   23.89    1.56
   6  -3   5   23.87    2.15
   6  -3   5   23.75    2.11
  -7   3  -5    5.52    1.34
   7  -3   5    7.25    1.55
   7  -3   5    6.35    1.51
  -8   3  -5   -1.02    1.59
   8  -3   5   -0.27    1.79
   8  -3   5    2.56    2.14
   9   2  -5    0.21    2.61
  -9  -2   5    0.34    1.25
  -9  -2   5   -0.24    1.36
   8   2  -5    1.73    1.80
  -8  -2   5    0.21    1.15
  -8  -2   5    1.03    0.93
   7   2  -5    3.86    1.36
  -7  -2   5    3.99    0.80
  -7  -2   5    3.58    0.79
   6   2  -5   29.35    1.62
   6   2  -5   31.10    1.97
  -6  -2   5   31.51    1.50
  -6  -2   5   32.20    1.44
  -6  -2   5   29.32    1.24
   5   2  -5   74.79    2.93
   5   2  -5   70.70    2.58
  -5  -2   5   75.93    2.43
  -5  -2   5   74.26    2.27
  -5  -2   5   75.80    2.50
   4   2  -5   32.89    1.68
   4   2  -5   32.23    1.54
  -4  -2   5   33.64    1.32
  -4  -2   5   33.25    1.07
  -4  -2   5   33.26    1.22
   3   2  -5   25.69    1.14
   3   2  -5   24.11    1.23
  -3  -2   5   26.27    0.77
  -3  -2   5   25.95    0.99
  -3  -2   5   25.49    0.79
  -3  -2   5   25.52    0.86
  -3  -2   5   26.99    1.04
   2   2  -5   34.24    1.05
   2   2  -5   29.57    1.26
   2   2  -5   32.35    1.32
   2   2  -5   31.09    1.28
   2   2  -5   32.85    0.94
  -2  -2   5   32.37    1.04
  -2  -2   5   32.07    0.99
  -2  -2   5   30.98    1.09
   1   2  -5   27.11    1.07
   1   2  -5   30.60    0.89
   1   2  -5   29.67    0.89
   1   2  -5   27.83    1.12
   1   2  -5   29.82    1.03
  -1  -2   5   28.61    0.97
  -1  -2   5   29.55    0.94
  -1  -2   5   29.22    0.97
  -1  -2   5   28.87    0.96
   0   2  -5   64.51    1.95
   0   2  -5   62.46    1.94
   0   2  -5   61.24    1.98
   0   2  -5   62.43    1.89
   0  -2   5   64.80    1.85
   0  -2   5   63.57    1.88
   0  -2   5   63.52    1.86
   0  -2   5   62.71    1.90
  -1   2  -5  381.77   10.25
  -1   2  -5  387.08   10.27
  -1   2  -5  354.80   10.19
   1  -2   5  387.82   10.30
   1  -2   5  335.44   10.53
   1  -2   5  362.54   10.13
   1  -2   5  403.31   10.10
  -2   2  -5  204.95    5.85
  -2   2  -5  205.01    5.92
  -2   2  -5  205.19    5.93
   2  -2   5  214.51    6.04
   2  -2   5  213.58    5.77
   2  -2   5  210.17    5.96
   2  -2   5  213.95    5.61
   2  -2   5  198.88    6.14
  -3   2  -5   53.88    1.74
  -3   2  -5   54.72    2.00
  -3   2  -5   54.89    1.93
   3  -2   5   54.64    1.69
   3  -2   5   47.44    2.25
   3  -2   5   57.09    2.28
   3  -2   5   53.89    1.57
   3  -2   5   55.08    2.43
  -4   2  -5   61.34    2.01
  -4   2  -5   63.93    2.37
  -4   2  -5   64.08    2.27
   4  -2   5   67.60    2.68
   4  -2   5   62.93    1.97
   4  -2   5   64.34    2.45
  -5   2  -5   16.44    1.20
  -5   2  -5   16.75    0.84
  -5   2  -5   15.96    1.30
   5  -2   5   17.44    1.43
   5  -2   5   17.91    1.52
  -6   2  -5    1.84    0.92
  -6   2  -5    0.74    0.79
   6  -2   5    1.71    0.96
   6  -2   5    1.14    1.02
  -7   2  -5   -1.00    1.09
  -7   2  -5    0.13    1.20
   7  -2   5    0.55    1.27
   7  -2   5    1.07    1.38
  -8   2  -5   -3.27    1.53
  -8   2  -5    2.44    1.61
   8  -2   5   -2.97    2.04
   9   1  -5    8.00    2.58
  -9  -1   5    1.32    1.72
  -9  -1   5    1.33    1.17
  -9  -1   5    1.57    1.22
   8   1  -5    7.43    1.86
  -8  -1   5    4.64    1.05
  -8  -1   5    6.39    1.12
   7   1  -5    9.80    1.41
   7   1  -5   11.84    1.75
  -7  -1   5   11.37    1.17
  -7  -1   5    9.97    1.12
   6   1  -5    0.21    0.90
   6   1  -5    0.36    0.55
   6   1  -5    0.96    0.93
  -6  -1   5    0.51    0.38
  -6  -1   5    0.73    0.49
  -6  -1   5    1.46    0.53
   5   1  -5    6.15    0.66
   5   1  -5    4.53    0.81
   5   1  -5    5.50    0.97
  -5  -1   5    4.95    0.32
  -5  -1   5    4.47    0.57
  -5  -1   5    4.31    0.40
  -5  -1   5    4.22    0.64
   4   1  -5   12.22    0.73
   4   1  -5   14.23    0.95
   4   1  -5   13.69    1.21
  -4  -1   5   12.95    0.76
  -4  -1   5   14.26    0.66
  -4  -1   5   13.11    0.52
  -4  -1   5   14.06    0.56
   3   1  -5  124.90    3.85
   3   1  -5  121.53    3.86
   3   1  -5  125.00    3.55
  -3  -1   5  123.24    3.54
  -3  -1   5  127.04    3.45
  -3  -1   5  125.51    3.47
  -3  -1   5  109.02    3.35
  -3  -1   5  124.86    3.49
   2   1  -5  256.05    6.75
   2   1  -5  243.21    6.97
   2   1  -5  220.66    6.75
   2   1  -5  251.23    6.70
   2   1  -5  250.90    7.04
   2   1  -5  238.49    6.97
  -2  -1   5  249.16    6.71
  -2  -1   5  240.13    6.68
  -2  -1   5  242.44    6.72
  -2  -1   5  248.76    6.65
   1   1  -5  234.96    6.29
   1   1  -5  240.05    6.35
   1   1  -5  231.83    6.50
   1   1  -5  237.91    6.55
   1   1  -5  229.72    6.59
  -1  -1   5  224.96    6.26
  -1  -1   5  228.95    6.39
  -1  -1   5  228.11    6.37
  -1  -1   5  232.20    6.33
   0   1  -5  290.28    8.06
   0   1  -5  296.98    8.24
   0   1  -5  290.63    8.11
   0   1  -5  295.71    8.27
   0  -1   5  307.16    8.17
   0  -1   5  301.49    8.12
   0  -1   5  299.64    8.14
   0  -1   5  295.82    8.08
   0  -1   5  291.50    8.16
  -1   1  -5   40.88    1.37
  -1   1  -5   40.47    1.44
  -1   1  -5   41.27    1.40
   1  -1   5   37.28    1.63
   1  -1   5   42.81    1.39
   1  -1   5   40.42    1.31
   1  -1   5   41.33    1.29
   1  -1   5   38.67    1.40
  -2   1  -5   19.23    0.95
  -2   1  -5   19.68    0.84
  -2   1  -5   18.69    0.95
   2  -1   5   19.51    0.79
   2  -1   5   19.28    0.96
   2  -1   5   20.02    0.69
   2  -1   5   19.96    1.10
   2  -1   5   20.66    0.58
   2  -1   5   19.79    0.96
  -3   1  -5   18.84    1.07
  -3   1  -5   16.85    1.10
  -3   1  -5   17.27    0.78
   3  -1   5   17.73    0.73
   3  -1   5   17.77    1.29
   3  -1   5   18.26    0.80
  -4   1  -5   38.50    1.73
  -4   1  -5   36.99    1.63
  -4   1  -5   37.67    1.34
   4  -1   5   38.62    1.78
   4  -1   5   37.90    1.42
   4  -1   5   38.36    1.94
   4  -1   5   35.96    1.37
  -5   1  -5   22.63    1.45
  -5   1  -5   20.76    1.34
   5  -1   5   21.63    1.53
   5  -1   5   22.59    1.70
   5  -1   5   22.09    1.08
  -6   1  -5    6.20    1.15
  -6   1  -5    7.64    1.49
   6  -1   5    7.01    1.48
   6  -1   5    7.12    1.33
  -7   1  -5   14.79    1.87
  -7   1  -5   11.77    1.64
  -7   1  -5   11.97    1.59
   7  -1   5   12.52    1.67
   7  -1   5   11.51    1.87
  -8   1  -5   -1.25    1.67
  -8   1  -5    3.95    1.77
   8  -1   5    4.15    2.20
   9   0  -5   -2.09    2.17
  -9   0   5    1.84    1.25
   8   0  -5    1.54    1.75
  -8   0   5   -0.32    0.77
  -8   0   5    0.51    0.91
  -8   0   5    1.87    0.94
   7   0  -5    2.76    1.06
   7   0  -5    1.31    1.31
   7   0  -5    1.59    0.87
  -7   0   5    2.09    0.65
  -7   0   5    2.03    0.68
  -7   0   5    1.40    0.61
   6   0  -5    9.04    1.05
   6   0  -5    8.87    1.30
   6   0  -5    9.39    1.14
   6   0  -5    6.76    1.18
  -6   0   5    9.24    0.82
  -6   0   5    7.82    0.63
  -6   0   5    6.95    0.50
  -6   0   5    7.84    0.82
   5   0  -5   34.65    1.88
   5   0  -5   39.37    2.01
   5   0  -5   38.28    1.64
   5   0  -5   36.26    1.63
  -5   0   5   39.40    1.27
  -5   0   5   39.72    1.38
  -5   0   5   39.12    1.48
   4   0  -5  126.17    4.14
   4   0  -5  133.40    4.33
   4   0  -5  127.59    4.22
  -4   0   5  130.40    3.85
  -4   0   5  133.42    3.64
  -4   0   5  128.22    3.79
  -4   0   5  137.05    3.73
   3   0  -5   49.80    2.04
   3   0  -5   55.95    1.85
   3   0  -5   56.18    2.10
  -3   0   5   57.46    1.74
  -3   0   5   58.70    1.64
  -3   0   5   56.16    1.78
   2   0  -5   40.24    1.61
   2   0  -5   38.69    1.33
   2   0  -5   41.33    1.36
   2   0  -5   40.64    1.19
  -2   0   5   39.45    1.39
  -2   0   5   40.73    1.17
  -2   0   5   39.22    1.26
  -2   0   5   41.24    1.19
   1   0  -5   37.47    1.11
   1   0  -5   38.54    1.21
   1   0  -5   35.60    1.31
   1   0  -5   36.47    1.37
  -1   0   5   35.97    1.17
  -1   0   5   33.86    1.09
  -1   0   5   36.68    1.20
   0   0  -5   24.18    0.76
   0   0  -5   22.27    0.98
   0   0  -5   22.68    1.00
   0   0  -5   21.73    0.84
   0   0   5   22.66    0.88
   0   0   5   24.55    0.87
   0   0   5   25.82    1.22
   0   0   5   22.78    0.76
  -1   0  -5    1.94    0.37
  -1   0  -5    2.62    0.38
   1   0   5    1.21    0.34
   1   0   5    2.42    0.33
   1   0   5    1.94    0.30
   1   0   5    1.93    0.20
   1   0   5    1.73    0.34
  -2   0  -5  167.58    5.03
  -2   0  -5  171.04    5.01
  -2   0  -5  174.91    4.91
   2   0   5  171.76    5.00
   2   0   5  173.42    4.65
   2   0   5  163.04    5.10
   2   0   5  171.60    5.00
   2   0   5  175.09    4.91
  -3   0  -5   96.99    3.46
  -3   0  -5   90.08    3.09
  -3   0  -5   98.61    2.87
   3   0   5   98.09    3.32
   3   0   5   93.70    2.93
   3   0   5   96.28    2.91
   3   0   5   92.22    3.15
  -4   0  -5   28.27    1.49
  -4   0  -5   27.43    1.43
  -4   0  -5   27.39    1.04
   4   0   5   28.41    1.53
   4   0   5   28.07    1.65
   4   0   5   27.30    1.52
   4   0   5   28.30    1.25
  -5   0  -5   39.46    2.11
  -5   0  -5   38.98    1.81
   5   0   5   38.56    2.14
   5   0   5   39.57    1.99
   5   0   5   37.38    1.72
  -6   0  -5    3.15    1.07
  -6   0  -5    1.69    0.90
   6   0   5    1.16    1.16
  -7   0  -5   -1.84    1.19
  -7   0  -5    1.86    1.15
  -7   0  -5    1.58    1.37
   7   0   5   -0.81    1.43
  -8   0  -5    2.95    1.88
  -8   0  -5   -1.40    1.62
   8   0   5   -0.28    2.21
   9  -1  -5    0.71    2.43
   8  -1  -5    6.32    1.51
   8  -1  -5    7.27    1.30
   8  -1  -5    7.89    1.94
  -8   1   5    7.37    1.04
  -8   1   5    8.63    1.31
  -8   1   5    6.64    0.96
   7  -1  -5   13.43    1.97
   7  -1  -5   13.35    1.40
   7  -1  -5   13.13    1.61
   7  -1  -5   12.04    1.46
  -7   1   5   12.65    1.07
  -7   1   5   13.34    1.06
  -7   1   5   11.60    0.91
  -7   1   5   13.52    1.11
  -7   1   5   11.24    1.04
   6  -1  -5   36.80    2.04
   6  -1  -5   36.24    1.85
   6  -1  -5   37.31    1.75
   6  -1  -5   36.91    1.66
   6  -1  -5   35.94    2.17
  -6   1   5   38.55    1.51
  -6   1   5   36.45    1.37
  -6   1   5   34.92    1.32
  -6   1   5   36.60    1.50
  -6   1   5   36.27    1.47
   5  -1  -5   12.78    0.89
   5  -1  -5   12.44    1.28
   5  -1  -5   12.69    1.22
   5  -1  -5    9.98    1.16
   5  -1  -5   12.01    0.94
  -5   1   5   11.49    0.61
  -5   1   5   12.09    0.79
  -5   1   5   11.87    0.62
   4  -1  -5    7.29    1.02
   4  -1  -5    6.41    1.00
   4  -1  -5    6.07    0.70
   4  -1  -5    6.12    0.59
  -4   1   5    5.95    0.36
  -4   1   5    5.62    0.47
  -4   1   5    6.56    0.39
  -4   1   5    5.72    0.58
  -4   1   5    6.19    0.36
   3  -1  -5    4.07    0.51
   3  -1  -5    4.68    0.73
   3  -1  -5    6.31    0.86
   3  -1  -5    4.40    0.36
  -3   1   5    4.70    0.37
  -3   1   5    4.35    0.23
  -3   1   5    3.99    0.42
  -3   1   5    4.33    0.24
  -3   1   5    4.45    0.45
   2  -1  -5  103.14    2.77
   2  -1  -5   97.54    3.04
   2  -1  -5  100.80    3.26
   2  -1  -5  101.68    3.03
   2  -1  -5  101.01    2.79
   2  -1  -5  100.71    3.33
   2  -1  -5  102.82    2.73
  -2   1   5  102.36    2.77
  -2   1   5   98.87    2.85
  -2   1   5   98.16    2.93
  -2   1   5   97.02    2.77
   1  -1  -5  158.87    4.40
   1  -1  -5  164.45    4.48
   1  -1  -5  159.30    4.68
  -1   1   5  160.67    4.51
  -1   1   5  160.54    4.44
   0  -1  -5  242.94    6.36
   0  -1  -5  231.60    6.48
   0  -1  -5  227.78    6.63
   0   1   5  226.36    6.38
   0   1   5  231.98    6.48
   0   1   5  232.45    6.48
  -1  -1  -5  178.78    5.15
  -1  -1  -5  170.37    5.24
   1   1   5  180.17    5.15
   1   1   5  185.84    5.12
   1   1   5  180.04    5.17
   1   1   5  177.96    4.93
  -2  -1  -5   46.88    1.81
  -2  -1  -5   49.64    1.87
   2   1   5   46.40    1.77
   2   1   5   51.43    1.46
   2   1   5   51.06    1.73
   2   1   5   48.03    1.85
   2   1   5   48.99    1.74
  -3  -1  -5   16.16    1.14
  -3  -1  -5   15.07    1.16
   3   1   5   16.52    0.57
   3   1   5   16.19    0.87
   3   1   5   18.08    1.22
   3   1   5   17.66    1.15
  -4  -1  -5    1.85    0.65
  -4  -1  -5    1.78    0.66
   4   1   5    1.40    0.53
   4   1   5    2.25    0.58
   4   1   5    1.63    0.71
  -5  -1  -5    4.07    0.86
  -5  -1  -5    5.21    0.94
   5   1   5    6.27    1.08
   5   1   5    3.47    0.95
  -6  -1  -5    6.82    1.19
  -6  -1  -5    6.13    1.68
  -6  -1  -5    7.90    1.30
  -7  -1  -5    0.84    1.31
  -7  -1  -5    1.36    1.15
   7   1   5    1.55    1.54
   9  -2  -5   -0.73    2.40
   8  -2  -5    2.62    1.72
   8  -2  -5    3.84    1.46
   8  -2  -5    2.59    1.50
   8  -2  -5    2.45    1.03
  -8   2   5    3.20    0.81
  -8   2   5    3.63    1.24
   7  -2  -5    1.32    0.72
   7  -2  -5   -0.48    1.08
   7  -2  -5    1.71    1.00
   7  -2  -5   -1.50    1.32
   7  -2  -5    0.55    0.69
  -7   2   5    0.87    0.53
  -7   2   5    0.00    0.51
  -7   2   5    0.14    0.52
  -7   2   5   -0.38    0.56
  -7   2   5    1.19    0.63
  -7   2   5   -0.01    0.49
   6  -2  -5    1.92    0.63
   6  -2  -5    3.00    0.85
   6  -2  -5    3.35    1.05
   6  -2  -5    3.10    0.69
   6  -2  -5    3.00    1.07
  -6   2   5    2.82    0.50
  -6   2   5    2.54    0.51
  -6   2   5    2.64    0.46
  -6   2   5    1.96    0.49
  -6   2   5    3.07    0.55
   5  -2  -5    0.11    0.65
   5  -2  -5    1.03    0.76
   5  -2  -5    2.00    0.84
   5  -2  -5   -0.17    0.49
   5  -2  -5   -0.24    0.43
  -5   2   5   -0.11    0.27
  -5   2   5    0.64    0.40
  -5   2   5    0.43    0.40
  -5   2   5    0.82    0.31
   4  -2  -5   87.54    2.70
   4  -2  -5   85.33    2.99
   4  -2  -5   89.23    3.29
   4  -2  -5   84.29    3.23
  -4   2   5   86.56    2.53
  -4   2   5   86.10    2.66
  -4   2   5   85.09    2.43
   3  -2  -5  105.84    3.76
   3  -2  -5  115.58    3.51
   3  -2  -5  111.73    3.54
   3  -2  -5  111.14    3.79
  -3   2   5  115.80    3.14
  -3   2   5  110.37    3.30
  -3   2   5  111.38    3.30
  -3   2   5  112.39    3.16
   2  -2  -5   75.08    2.17
   2  -2  -5   73.73    2.39
   2  -2  -5   73.60    2.58
   2  -2  -5   75.20    2.13
   2  -2  -5   73.25    2.68
  -2   2   5   71.27    2.24
  -2   2   5   74.78    2.14
  -2   2   5   72.79    2.18
  -2   2   5   75.64    2.17
  -2   2   5   74.95    2.28
   1  -2  -5   22.89    0.69
   1  -2  -5   21.44    1.01
   1  -2  -5   21.50    0.83
   1  -2  -5   21.30    1.17
  -1   2   5   21.23    0.88
  -1   2   5   22.55    0.83
  -1   2   5   21.81    0.83
   0  -2  -5    2.70    0.36
   0  -2  -5    2.02    0.47
   0  -2  -5    2.72    0.29
   0  -2  -5    1.65    0.47
   0   2   5    2.37    0.33
   0   2   5    4.19    0.49
   0   2   5    2.60    0.38
   0   2   5    1.86    0.26
  -1  -2  -5   74.91    2.60
  -1  -2  -5   77.21    2.50
   1   2   5   78.47    2.26
   1   2   5   75.36    2.53
   1   2   5   78.29    2.44
   1   2   5   76.98    2.44
  -2  -2  -5    1.29    0.50
  -2  -2  -5    0.94    0.66
   2   2   5    1.87    0.48
   2   2   5    1.33    0.67
   2   2   5    1.66    0.24
  -3  -2  -5   34.70    1.59
  -3  -2  -5   32.18    1.61
   3   2   5   27.71    1.05
   3   2   5   34.41    1.47
   3   2   5   34.16    1.65
  -4  -2  -5   32.25    1.62
  -4  -2  -5   33.44    1.68
  -4  -2  -5   34.16    1.72
   4   2   5   33.78    1.81
   4   2   5   34.47    1.81
   4   2   5   32.58    1.60
  -5  -2  -5   10.04    1.33
  -5  -2  -5   10.31    1.20
  -5  -2  -5    9.71    1.28
   5   2   5    9.84    1.44
   5   2   5   10.29    1.25
  -6  -2  -5    6.49    1.27
  -6  -2  -5    7.58    1.22
  -6  -2  -5    5.44    1.23
   6   2   5    8.54    1.67
  -7  -2  -5    0.85    1.46
  -7  -2  -5   -0.10    1.21
   7   2   5    2.45    1.67
   9  -3  -5   -1.06    2.47
   9  -3  -5   -0.87    1.98
   8  -3  -5    3.61    1.63
   8  -3  -5    7.77    2.06
   8  -3  -5    3.13    1.83
   7  -3  -5   15.07    1.34
   7  -3  -5   13.34    1.30
   7  -3  -5   13.16    1.77
   7  -3  -5   13.10    1.69
   7  -3  -5   13.79    2.00
  -7   3   5   12.15    1.09
  -7   3   5   13.47    0.99
  -7   3   5   13.77    1.15
  -7   3   5   12.40    0.95
  -7   3   5   13.04    1.12
   6  -3  -5   29.60    1.54
   6  -3  -5   30.69    1.99
   6  -3  -5   29.24    2.15
   6  -3  -5   27.95    1.88
   6  -3  -5   30.30    1.49
  -6   3   5   30.94    1.31
  -6   3   5   31.84    1.38
  -6   3   5   28.46    1.32
  -6   3   5   28.29    1.51
  -6   3   5   29.62    1.12
   5  -3  -5   32.12    1.95
   5  -3  -5   32.57    1.96
   5  -3  -5   31.84    1.75
  -5   3   5   31.50    1.30
  -5   3   5   32.33    1.04
  -5   3   5   33.25    1.34
  -5   3   5   31.30    1.12
   4  -3  -5   44.80    1.61
   4  -3  -5   43.28    2.02
   4  -3  -5   47.13    2.25
   4  -3  -5   44.12    2.22
  -4   3   5   46.86    1.61
  -4   3   5   44.25    1.39
  -4   3   5   42.66    1.71
   3  -3  -5    1.89    0.76
   3  -3  -5    2.35    0.64
   3  -3  -5    1.97    0.32
  -3   3   5    1.38    0.37
  -3   3   5    2.12    0.25
  -3   3   5    1.67    0.44
   2  -3  -5    0.46    0.20
   2  -3  -5    0.08    0.19
   2  -3  -5    0.40    0.40
   2  -3  -5    0.18    0.59
  -2   3   5    0.35    0.29
  -2   3   5    0.20    0.16
  -2   3   5    0.74    0.32
   1  -3  -5    8.23    0.86
   1  -3  -5    9.52    0.78
   1  -3  -5    9.45    0.36
   1  -3  -5    9.81    0.57
  -1   3   5    7.95    0.53
  -1   3   5    9.19    0.39
  -1   3   5    9.01    0.63
  -1   3   5    8.01    0.50
   0  -3  -5  177.29    5.08
   0  -3  -5  171.70    4.88
   0  -3  -5  170.30    5.22
   0  -3  -5  174.48    5.37
   0   3   5  174.32    5.06
   0   3   5  176.49    4.99
   0   3   5  178.05    4.93
   0   3   5  175.17    4.89
  -1  -3  -5   32.48    1.44
  -1  -3  -5   33.45    1.25
  -1  -3  -5   34.51    1.59
   1   3   5   34.58    1.28
   1   3   5   34.10    1.17
  -2  -3  -5   58.18    2.07
  -2  -3  -5   53.00    2.22
  -2  -3  -5   55.39    2.14
   2   3   5   58.15    2.10
   2   3   5   57.61    2.07
   2   3   5   57.64    1.79
  -3  -3  -5   18.49    1.28
  -3  -3  -5   20.76    1.18
  -3  -3  -5   19.18    1.35
   3   3   5   22.04    1.36
   3   3   5   20.02    1.05
   3   3   5   22.28    1.24
  -4  -3  -5    8.76    1.00
  -4  -3  -5    6.62    0.91
  -4  -3  -5   10.10    1.21
   4   3   5    6.99    1.06
   4   3   5    8.33    1.12
   4   3   5    9.98    1.22
  -5  -3  -5    0.59    0.90
  -5  -3  -5    1.44    0.91
  -5  -3  -5    1.26    0.87
   5   3   5    1.55    1.00
   5   3   5    0.32    0.87
  -6  -3  -5   -0.75    1.07
  -6  -3  -5    1.71    1.16
  -6  -3  -5    0.07    0.96
   6   3   5   -0.52    1.16
  -7  -3  -5    0.54    1.57
  -7  -3  -5    1.04    1.29
   7   3   5   -1.57    1.62
   9  -4  -5   -1.50    2.04
   9  -4  -5    0.71    2.11
   8  -4  -5    0.54    1.56
   8  -4  -5    3.96    1.46
   8  -4  -5    5.55    1.62
  -8   4   5    3.31    1.41
   7  -4  -5    8.12    1.07
   7  -4  -5    5.68    1.67
   7  -4  -5    6.11    1.40
   7  -4  -5    8.28    1.01
  -7   4   5    5.98    0.84
  -7   4   5    7.14    0.81
  -7   4   5    7.51    0.90
  -7   4   5    9.30    1.23
   6  -4  -5    4.36    2.39
   6  -4  -5    4.91    0.72
   6  -4  -5    5.09    0.85
   6  -4  -5    4.25    1.09
  -6   4   5    5.37    0.64
  -6   4   5    4.22    0.52
  -6   4   5    4.86    0.76
  -6   4   5    5.34    0.66
   5  -4  -5    1.33    0.68
   5  -4  -5    1.06    0.85
   5  -4  -5    2.07    0.91
  -5   4   5    1.25    0.43
  -5   4   5    1.26    0.25
  -5   4   5    0.65    0.45
   4  -4  -5    1.81    0.45
   4  -4  -5    0.86    0.72
   4  -4  -5    1.44    0.83
  -4   4   5    2.41    0.29
  -4   4   5    2.29    0.45
  -4   4   5    1.12    0.45
   3  -4  -5   57.31    2.52
   3  -4  -5   62.07    1.97
   3  -4  -5   57.96    2.38
  -3   4   5   59.76    1.96
  -3   4   5   59.54    1.79
  -3   4   5   57.29    1.74
  -3   4   5   56.64    1.95
   2  -4  -5   42.97    2.32
   2  -4  -5   48.12    1.60
   2  -4  -5   48.07    1.57
  -2   4   5   45.38    1.44
  -2   4   5   46.18    1.63
  -2   4   5   45.51    1.58
   1  -4  -5   34.15    1.80
   1  -4  -5   36.19    1.11
   1  -4  -5   36.36    1.74
   1  -4  -5   37.36    1.39
  -1   4   5   38.11    1.26
  -1   4   5   35.79    1.33
  -1   4   5   36.87    1.41
   0  -4  -5   29.29    1.32
   0  -4  -5   27.66    1.50
   0  -4  -5   27.82    1.47
   0  -4  -5   29.46    1.03
   0   4   5   28.93    0.98
   0   4   5   28.08    1.11
   0   4   5   31.01    1.32
  -1  -4  -5   14.96    1.06
  -1  -4  -5   16.37    0.83
  -1  -4  -5   16.07    1.15
  -1  -4  -5   16.69    1.19
   1   4   5   16.59    0.79
   1   4   5   16.71    0.80
   1   4   5   17.10    1.05
  -2  -4  -5   18.74    1.26
  -2  -4  -5   21.65    1.29
  -2  -4  -5   19.37    1.32
  -2  -4  -5   20.49    1.12
   2   4   5   21.63    1.22
   2   4   5   21.34    1.13
   2   4   5   20.27    0.91
  -3  -4  -5    3.31    0.71
  -3  -4  -5    3.65    0.71
  -3  -4  -5    3.51    0.82
   3   4   5    3.88    0.73
   3   4   5    3.76    0.33
   3   4   5    2.59    0.77
   3   4   5    3.55    0.48
  -4  -4  -5    3.79    0.75
  -4  -4  -5    4.04    0.94
  -4  -4  -5    5.10    0.99
   4   4   5    2.50    0.83
   4   4   5    5.98    1.05
   4   4   5    3.75    0.93
  -5  -4  -5    6.50    1.15
  -5  -4  -5    5.88    1.87
  -5  -4  -5    2.63    1.06
   5   4   5    3.85    1.17
   5   4   5    0.07    1.23
  -6  -4  -5   -0.95    0.92
  -6  -4  -5    1.61    1.23
   6   4   5    2.38    1.42
  -7  -4  -5    0.52    1.60
  -7  -4  -5    2.11    1.88
   7   4   5    2.27    2.03
   8  -5  -5    1.00    1.20
   8  -5  -5    1.03    1.72
   8  -5  -5    0.45    1.63
  -8   5   5    1.71    1.16
   7  -5  -5    6.21    1.90
   7  -5  -5    6.37    1.11
   7  -5  -5    5.42    1.61
  -7   5   5    7.24    0.90
  -7   5   5    6.56    1.09
   6  -5  -5   11.75    1.25
   6  -5  -5    9.34    1.53
   6  -5  -5   13.38    1.94
  -6   5   5   10.39    1.05
  -6   5   5   10.35    0.98
  -6   5   5    9.59    0.86
   5  -5  -5   16.90    1.73
   5  -5  -5   17.42    1.66
   5  -5  -5   18.60    1.39
  -5   5   5   19.89    1.06
  -5   5   5   19.25    1.05
   4  -5  -5   26.47    1.87
   4  -5  -5   29.14    1.73
   4  -5  -5   30.35    1.41
  -4   5   5   28.30    0.90
  -4   5   5   28.94    1.22
  -4   5   5   28.25    1.25
   3  -5  -5   97.21    3.50
   3  -5  -5   96.15    3.68
   3  -5  -5  101.40    3.10
  -3   5   5   95.90    2.74
  -3   5   5   97.06    3.02
  -3   5   5   95.64    2.99
   2  -5  -5    2.02    0.75
   2  -5  -5    2.39    0.91
   2  -5  -5    1.78    0.45
  -2   5   5    2.31    0.48
  -2   5   5    1.53    0.44
  -2   5   5    2.16    0.27
   1  -5  -5    2.53    0.26
   1  -5  -5    3.07    0.59
   1  -5  -5    2.41    0.96
  -1   5   5    3.08    0.56
  -1   5   5    2.36    0.42
   0  -5  -5    5.02    0.46
   0  -5  -5    6.96    0.93
   0  -5  -5    5.63    0.71
   0  -5  -5    4.98    0.88
   0   5   5    4.18    0.60
   0   5   5    5.72    0.33
   0   5   5    6.38    0.61
  -1  -5  -5   37.71    1.47
  -1  -5  -5   37.11    1.79
  -1  -5  -5   39.16    1.82
  -1  -5  -5   38.13    1.69
   1   5   5   38.17    1.66
   1   5   5   38.94    1.45
   1   5   5   36.87    1.36
  -2  -5  -5    0.12    0.44
  -2  -5  -5    0.72    0.59
  -2  -5  -5    1.43    0.64
  -2  -5  -5    0.52    0.66
   2   5   5    1.06    0.56
   2   5   5    0.46    0.49
   2   5   5    0.67    0.47
  -3  -5  -5   24.37    1.62
  -3  -5  -5   26.12    1.56
  -3  -5  -5   26.17    1.62
  -3  -5  -5   27.00    1.47
   3   5   5   25.46    1.30
   3   5   5   26.38    1.71
   3   5   5   26.58    1.56
  -4  -5  -5    6.49    1.09
  -4  -5  -5    6.13    1.02
  -4  -5  -5    5.71    1.03
   4   5   5    6.46    1.16
   4   5   5    8.75    1.42
   4   5   5    6.26    1.09
  -5  -5  -5    3.50    1.04
  -5  -5  -5    2.91    1.26
  -5  -5  -5    1.47    1.05
   5   5   5    5.55    1.71
   5   5   5    2.90    1.24
  -6  -5  -5   -0.14    1.18
  -6  -5  -5   -0.36    1.30
   6   5   5    2.58    1.57
   8  -6  -5    0.71    1.87
   8  -6  -5    0.90    1.76
  -8   6   5   -0.04    1.20
  -8   6   5    1.99    1.09
   7  -6  -5    7.91    1.84
   7  -6  -5    8.86    1.37
   7  -6  -5    9.74    2.13
  -7   6   5    8.91    1.07
   6  -6  -5    8.57    1.15
   6  -6  -5    8.51    1.69
   6  -6  -5    7.24    1.51
  -6   6   5    7.24    0.83
  -6   6   5    8.60    1.04
  -6   6   5    7.42    1.13
   5  -6  -5    4.81    1.32
   5  -6  -5    3.86    0.86
   5  -6  -5    6.40    1.33
  -5   6   5    6.20    0.73
  -5   6   5    5.18    0.77
  -5   6   5    4.20    0.63
   4  -6  -5    5.36    1.10
   4  -6  -5    4.02    0.81
   4  -6  -5    2.48    0.93
  -4   6   5    3.17    0.58
  -4   6   5    3.81    0.61
   3  -6  -5    1.32    0.78
   3  -6  -5   -0.43    0.54
   3  -6  -5   -0.25    0.49
   3  -6  -5    1.07    0.73
  -3   6   5    0.46    0.44
  -3   6   5    0.48    0.40
   2  -6  -5    5.11    0.67
   2  -6  -5    6.46    1.03
   2  -6  -5    5.97    0.75
   2  -6  -5    7.52    1.05
  -2   6   5    6.73    0.76
  -2   6   5    5.81    0.62
   1  -6  -5   29.91    1.42
   1  -6  -5   28.58    1.71
   1  -6  -5   29.43    1.00
   1  -6  -5   28.69    1.78
  -1   6   5   27.90    1.20
  -1   6   5   30.35    1.36
   0  -6  -5   14.91    0.77
   0  -6  -5   15.14    1.48
   0  -6  -5   16.40    1.14
   0  -6  -5   16.24    1.22
   0   6   5   14.92    1.06
   0   6   5   16.39    0.89
  -1  -6  -5   41.59    1.86
  -1  -6  -5   39.28    1.64
  -1  -6  -5   40.76    1.94
  -1  -6  -5   38.90    2.03
   1   6   5   41.62    1.58
   1   6   5   40.33    1.41
   1   6   5   42.80    1.83
  -2  -6  -5    1.42    0.75
  -2  -6  -5    0.54    0.63
  -2  -6  -5    1.00    1.35
  -2  -6  -5    1.20    0.53
   2   6   5    0.17    0.51
   2   6   5    1.50    0.53
   2   6   5    0.96    0.58
   2   6   5    0.98    0.38
  -3  -6  -5    1.60    0.86
  -3  -6  -5    3.19    0.74
  -3  -6  -5    0.59    0.76
   3   6   5    1.99    0.62
   3   6   5    1.58    0.77
   3   6   5    0.84    0.80
  -4  -6  -5    0.46    0.80
  -4  -6  -5   -1.13    1.00
  -4  -6  -5   -1.54    1.06
   4   6   5    0.68    1.18
   4   6   5    2.08    1.36
   4   6   5   -0.93    0.85
  -5  -6  -5   -0.64    0.94
  -5  -6  -5    2.15    1.22
   5   6   5    4.48    2.01
  -6  -6  -5    0.98    1.40
  -6  -6  -5   -3.66    1.54
   6   6   5   -1.75    1.66
   8  -7  -5   -3.18    2.00
   8  -7  -5   -0.32    1.96
  -8   7   5   -1.43    1.26
  -8   7   5   -0.29    1.20
   7  -7  -5   -0.97    1.59
   7  -7  -5   -1.06    1.33
   7  -7  -5    0.73    1.65
  -7   7   5    0.42    1.01
  -7   7   5    1.19    0.81
   6  -7  -5    2.36    1.09
   6  -7  -5    3.50    1.67
   6  -7  -5    1.50    1.42
  -6   7   5    0.99    0.92
  -6   7   5    1.10    0.68
   5  -7  -5    5.01    1.47
   5  -7  -5    6.15    1.38
  -5   7   5    4.08    0.81
  -5   7   5    4.97    0.73
  -5   7   5    4.13    0.64
   4  -7  -5   10.02    1.50
   4  -7  -5    8.94    1.22
   4  -7  -5    9.93    1.51
  -4   7   5    7.42    0.98
  -4   7   5    8.23    0.88
  -4   7   5    9.92    0.86
   3  -7  -5   42.93    1.85
   3  -7  -5   45.75    2.03
   3  -7  -5   38.87    2.24
   3  -7  -5   37.33    2.23
  -3   7   5   42.88    1.70
  -3   7   5   39.50    1.61
  -3   7   5   39.92    1.77
   2  -7  -5   15.77    1.15
   2  -7  -5   15.37    1.59
   2  -7  -5   14.57    1.55
   2  -7  -5   16.90    1.46
  -2   7   5   15.07    0.92
  -2   7   5   15.79    1.06
   1  -7  -5    3.07    0.36
   1  -7  -5    2.76    0.96
   1  -7  -5    3.04    1.00
   1  -7  -5    2.76    0.66
  -1   7   5    2.10    0.51
  -1   7   5    3.28    0.63
   0  -7  -5    0.94    0.64
   0  -7  -5    0.11    0.89
   0  -7  -5    1.26    0.43
   0   7   5    0.30    0.46
   0   7   5    0.49    0.55
   0   7   5    1.12    0.48
  -1  -7  -5   -0.14    0.46
  -1  -7  -5   -0.11    0.61
  -1  -7  -5   -0.96    0.97
   1   7   5    0.08    0.55
   1   7   5    0.17    0.48
   1   7   5    0.35    0.49
  -2  -7  -5    1.93    1.01
  -2  -7  -5    1.02    0.81
  -2  -7  -5    2.61    0.89
  -2  -7  -5    1.32    0.62
   2   7   5    1.43    0.55
   2   7   5    0.39    0.59
   2   7   5    1.70    0.60
  -3  -7  -5    1.55    1.03
  -3  -7  -5   -0.22    0.98
  -3  -7  -5    1.53    0.78
   3   7   5   -0.50    0.91
   3   7   5    1.12    0.67
   3   7   5    1.00    0.78
  -4  -7  -5    3.61    1.32
  -4  -7  -5    4.02    1.39
  -4  -7  -5    5.10    1.08
   4   7   5    5.68    3.03
   4   7   5    3.53    1.12
   4   7   5    6.75    1.36
  -5  -7  -5   -0.47    1.36
  -5  -7  -5    1.80    1.08
   5   7   5    1.84    2.16
   8  -8  -5   -1.20    2.65
   8  -8  -5    2.20    2.81
  -8   8   5    2.28    1.51
  -8   8   5    1.46    1.48
   7  -8  -5    1.86    2.05
   7  -8  -5    4.53    1.85
  -7   8   5    1.91    0.90
  -7   8   5    2.65    1.29
   6  -8  -5    5.84    1.43
   6  -8  -5    6.47    1.82
   6  -8  -5    4.73    1.89
  -6   8   5    3.46    1.02
  -6   8   5    5.42    0.88
   5  -8  -5    2.13    1.95
   5  -8  -5    3.74    1.13
   5  -8  -5    3.77    1.55
  -5   8   5    2.36    0.93
  -5   8   5    4.03    0.73
  -5   8   5    4.97    0.75
   4  -8  -5   -0.97    1.22
   4  -8  -5   -0.21    1.15
   4  -8  -5    1.63    0.78
  -4   8   5   -0.17    0.51
  -4   8   5    0.74    0.67
  -4   8   5    0.17    1.03
   3  -8  -5    1.59    1.15
   3  -8  -5    1.73    1.00
   3  -8  -5    3.27    0.83
   3  -8  -5    1.36    0.70
  -3   8   5    1.72    0.56
  -3   8   5    1.73    0.65
  -3   8   5    1.32    0.55
   2  -8  -5   -0.45    0.92
   2  -8  -5    1.02    0.65
   2  -8  -5   -1.14    0.71
   2  -8  -5    0.59    1.00
  -2   8   5   -0.09    0.48
  -2   8   5   -0.03    0.54
  -2   8   5    0.02    0.51
   1  -8  -5    2.93    1.07
   1  -8  -5    3.11    0.81
   1  -8  -5    1.78    0.94
   1  -8  -5    1.60    0.38
  -1   8   5    2.81    0.59
  -1   8   5    3.42    0.64
  -1   8   5    2.35    0.67
   0  -8  -5    7.47    1.33
   0  -8  -5    5.98    0.94
   0  -8  -5    8.53    0.95
   0   8   5    8.01    0.91
   0   8   5    8.11    0.86
   0   8   5    6.97    0.90
  -1  -8  -5    8.83    0.87
  -1  -8  -5    8.54    1.36
  -1  -8  -5    6.81    1.09
   1   8   5    6.21    0.89
   1   8   5    7.95    0.87
   1   8   5    8.33    0.90
  -2  -8  -5    3.36    1.06
  -2  -8  -5    5.25    0.79
   2   8   5    3.07    1.07
   2   8   5    4.60    0.80
  -3  -8  -5    3.23    0.94
  -3  -8  -5    1.27    0.97
   3   8   5    0.77    0.84
   3   8   5   -1.54    0.98
  -4  -8  -5   -1.35    1.31
   4   8   5    3.59    1.36
   4   8   5   -1.86    1.93
  -5  -8  -5   -0.06    1.58
  -5  -8  -5   -0.78    1.35
   5   8   5   -1.27    2.70
   7  -9  -5   -2.68    2.13
   7  -9  -5   -0.37    2.29
  -7   9   5    0.03    0.96
  -7   9   5   -2.18    1.22
   6  -9  -5   -1.23    1.85
   6  -9  -5    1.26    1.85
  -6   9   5    0.59    0.98
  -6   9   5   -0.03    0.78
   5  -9  -5    1.43    1.05
   5  -9  -5    0.05    1.66
   5  -9  -5    3.39    1.68
  -5   9   5    0.15    0.65
  -5   9   5   -0.32    0.94
   4  -9  -5    3.90    1.58
   4  -9  -5    5.81    1.07
  -4   9   5    4.19    0.85
  -4   9   5    5.31    0.79
   3  -9  -5    4.20    0.95
   3  -9  -5    5.60    1.50
  -3   9   5    2.31    0.81
  -3   9   5    2.85    0.76
  -3   9   5    4.56    0.78
   2  -9  -5    5.21    1.39
   2  -9  -5    6.68    1.04
   2  -9  -5    5.11    0.97
   2  -9  -5    6.98    1.46
  -2   9   5    6.55    0.80
  -2   9   5    5.52    0.86
  -2   9   5    6.51    0.95
   1  -9  -5    1.76    0.91
   1  -9  -5    1.12    1.18
   1  -9  -5    2.50    1.18
  -1   9   5    1.72    0.64
  -1   9   5    1.57    0.65
  -1   9   5    2.65    0.82
   0  -9  -5    1.18    0.61
   0  -9  -5    1.13    1.22
   0  -9  -5   -0.04    0.80
   0  -9  -5    4.60    1.58
   0   9   5    1.47    0.65
   0   9   5    2.58    0.87
   0   9   5    3.03    0.75
  -1  -9  -5    0.50    0.66
  -1  -9  -5    2.09    1.03
   1   9   5   -0.39    0.67
   1   9   5    1.54    0.72
   1   9   5    0.84    0.91
  -2  -9  -5    0.68    0.74
  -2  -9  -5    0.48    0.97
   2   9   5   -0.66    0.88
   2   9   5    1.22    1.17
  -3  -9  -5    2.25    1.12
  -3  -9  -5   -0.37    1.00
   3   9   5    0.78    1.29
   3   9   5   -0.33    1.26
  -4  -9  -5   -0.68    1.19
  -4  -9  -5    0.94    1.46
   4   9   5    2.00    2.39
   6 -10  -5    4.15    2.22
   6 -10  -5   -0.96    2.57
  -6  10   5    0.84    0.95
  -6  10   5    0.40    1.29
   5 -10  -5   -2.07    2.12
   5 -10  -5    2.64    1.75
  -5  10   5    0.64    1.05
  -5  10   5    1.34    0.87
   4 -10  -5    2.00    1.89
   4 -10  -5    1.50    1.82
   4 -10  -5    2.20    1.12
  -4  10   5    1.62    1.01
  -4  10   5    3.41    0.82
  -4  10   5    1.28    0.70
   3 -10  -5   -0.71    1.81
   3 -10  -5    0.80    1.03
   3 -10  -5   -0.70    1.53
  -3  10   5    0.67    0.66
  -3  10   5    0.53    1.17
  -3  10   5    1.62    0.94
   2 -10  -5    2.46    1.68
   2 -10  -5    0.19    1.02
   2 -10  -5   -0.62    0.97
  -2  10   5    1.23    1.17
  -2  10   5    1.14    0.86
  -2  10   5    0.60    0.68
   1 -10  -5   -0.89    1.62
   1 -10  -5    0.52    1.40
   1 -10  -5   -1.40    0.99
  -1  10   5   -0.41    0.89
  -1  10   5    0.08    0.83
  -1  10   5   -0.91    0.62
   0 -10  -5    0.11    0.96
   0 -10  -5    0.64    1.52
   0  10   5    0.84    0.93
   0  10   5   -0.50    0.71
   0  10   5   -2.09    0.79
  -1 -10  -5    1.71    2.04
  -1 -10  -5   -0.73    0.99
   1  10   5   -0.08    1.09
   1  10   5    2.78    0.91
  -2 -10  -5   -0.56    1.05
   2  10   5    4.18    1.41
   2  10   5    0.69    0.93
  -3 -10  -5    0.90    1.46
  -3 -10  -5   -1.43    1.03
   3  10   5    0.37    1.18
   3  10   5    1.03    1.67
   6 -11  -5   -1.84    3.19
   6 -11  -5   -0.76    3.27
  -6  11   5    1.06    1.67
  -6  11   5   -0.27    1.18
   5 -11  -5    4.07    2.76
   5 -11  -5    5.07    2.39
  -5  11   5    0.64    1.34
  -5  11   5    1.84    1.01
   4 -11  -5    0.24    2.32
   4 -11  -5    1.43    2.12
  -4  11   5   -0.11    0.80
  -4  11   5   -0.26    1.09
   3 -11  -5   -0.45    2.02
   3 -11  -5   -2.11    2.14
  -3  11   5   -0.65    1.05
  -3  11   5    0.66    0.81
  -3  11   5    1.90    1.27
   2 -11  -5   -0.91    1.13
   2 -11  -5   -0.60    3.70
   2 -11  -5    0.54    1.18
   2 -11  -5    1.31    1.99
  -2  11   5    0.72    0.82
  -2  11   5    1.24    1.07
  -2  11   5   -0.54    1.59
   1 -11  -5    0.17    2.02
   1 -11  -5    0.49    1.11
  -1  11   5    0.82    1.08
  -1  11   5    1.13    0.77
  -1  11   5    1.86    1.09
   0 -11  -5    2.65    2.17
   0 -11  -5    1.60    1.15
   0  11   5   -0.49    1.14
   0  11   5   -0.05    0.81
   0  11   5    0.10    1.10
  -1 -11  -5   -1.17    1.21
  -1 -11  -5    2.25    2.65
   1  11   5    3.56    1.42
   1  11   5    1.44    0.98
  -2 -11  -5    1.60    1.52
   2  11   5    1.13    1.15
   2  11   5    0.78    1.62
   4 -12  -5    3.43    2.97
   4 -12  -5    0.47    3.12
  -4  12   5    1.64    1.60
  -4  12   5    0.43    1.17
   3 -12  -5    2.80    2.69
   3 -12  -5   -0.23    2.71
  -3  12   5    0.47    1.32
  -3  12   5   -0.94    0.94
   2 -12  -5    6.16    2.97
   2 -12  -5   -1.34    1.43
  -2  12   5    2.53    1.36
  -2  12   5    0.40    0.90
  -2  12   5   -1.49    1.23
   1 -12  -5   -0.89    1.28
   1 -12  -5    0.75    2.95
  -1  12   5    0.64    1.28
  -1  12   5    0.96    0.97
  -1  12   5    1.35    1.26
   0 -12  -5    1.27    3.30
   0 -12  -5    1.37    1.51
   0  12   5    1.45    1.06
   0  12   5    0.51    1.46
  -1 -12  -5   -4.80    3.39
  -1 -12  -5    1.58    1.77
   1  12   5    0.14    1.21
   1  12   5    0.41    1.71
   1  15  -6   -1.82    1.50
   0  15  -6    1.64    1.46
   0  15  -6    0.31    1.39
   0  15  -6   -1.30    1.28
   0 -15   6   -0.64    1.24
   0 -15   6    0.51    2.15
  -1  15  -6    1.32    1.43
  -1  15  -6   -0.88    1.31
  -1  15  -6   -0.38    1.19
   1 -15   6    0.15    1.37
   1 -15   6    1.10    2.24
  -2  15  -6    2.10    1.56
  -2  15  -6    2.85    1.66
  -2  15  -6    0.55    1.31
   2 -15   6    3.06    2.68
   2 -15   6   -0.63    1.52
   3  14  -6    0.53    1.45
   3  14  -6    1.26    1.89
  -3 -14   6    2.40    1.28
  -3 -14   6    0.24    1.50
   2  14  -6   -0.01    1.33
   2  14  -6   -0.28    1.04
  -2 -14   6   -0.37    1.05
   1  14  -6    0.30    1.11
   1  14  -6   -0.49    0.96
   1  14  -6    0.68    1.27
  -1 -14   6   -2.19    0.89
   0  14  -6    0.81    0.95
   0  14  -6   -0.59    1.07
   0  14  -6   -2.04    1.01
   0  14  -6   -0.81    1.11
   0 -14   6    0.06    0.95
   0 -14   6    1.72    1.54
  -1  14  -6    0.18    1.03
  -1  14  -6    0.14    1.06
  -1  14  -6   -0.15    1.06
  -1  14  -6    0.30    1.14
   1 -14   6    1.90    1.05
   1 -14   6   -0.73    1.47
  -2  14  -6   -0.11    1.12
  -2  14  -6    1.21    1.02
  -2  14  -6    0.57    1.05
   2 -14   6    1.03    2.45
   2 -14   6   -1.41    1.56
   2 -14   6    2.02    1.32
  -3  14  -6   -0.69    1.22
  -3  14  -6    0.61    1.35
  -3  14  -6   -1.44    1.00
   3 -14   6   -3.07    1.96
   3 -14   6   -0.41    2.41
  -4  14  -6    3.31    1.85
   4 -14   6    6.25    2.94
   4  13  -6   -1.96    1.25
   4  13  -6    2.37    2.05
  -4 -13   6    1.06    1.16
  -4 -13   6    1.88    1.41
  -4 -13   6    1.77    1.12
   3  13  -6   -0.77    0.97
   3  13  -6   -0.13    1.32
  -3 -13   6    2.37    1.20
  -3 -13   6   -1.18    0.87
  -3 -13   6   -1.07    0.91
   2  13  -6    1.19    0.93
   2  13  -6    1.54    1.18
  -2 -13   6    0.85    0.82
  -2 -13   6   -0.26    1.03
   1  13  -6    0.58    0.79
   1  13  -6   -0.87    0.93
   1  13  -6    1.00    0.97
  -1 -13   6    2.09    0.84
   0  13  -6    0.15    0.79
   0  13  -6    0.14    0.88
   0  13  -6   -0.40    0.99
   0  13  -6    0.35    0.92
   0 -13   6   -1.42    1.11
   0 -13   6   -0.28    2.26
   0 -13   6   -2.11    0.77
  -1  13  -6    0.65    0.93
  -1  13  -6    0.97    0.80
  -1  13  -6    1.27    1.00
  -1  13  -6   -0.57    1.19
   1 -13   6    0.03    1.28
   1 -13   6    1.28    0.90
   1 -13   6    0.07    1.67
  -2  13  -6   -0.83    0.92
  -2  13  -6   -0.10    0.83
  -2  13  -6   -0.13    0.91
   2 -13   6   -0.15    1.25
   2 -13   6   -1.47    0.94
  -3  13  -6    0.72    1.03
  -3  13  -6    0.90    1.10
  -3  13  -6   -0.01    1.17
   3 -13   6    2.13    1.35
   3 -13   6   -0.63    1.49
   3 -13   6    0.44    2.00
  -4  13  -6   -1.15    1.13
  -4  13  -6   -0.11    1.31
   4 -13   6    0.64    1.54
   4 -13   6    0.36    2.24
  -5  13  -6    0.98    1.54
  -5  13  -6    2.39    1.88
   5 -13   6    3.13    2.92
   5 -13   6    1.68    2.68
   5  12  -6    3.09    2.20
   5  12  -6    2.93    1.48
  -5 -12   6   -0.69    1.16
  -5 -12   6    0.26    1.12
  -5 -12   6    0.81    1.40
   4  12  -6   -0.83    0.95
   4  12  -6   -2.37    1.41
  -4 -12   6    1.52    1.14
  -4 -12   6   -1.73    0.88
  -4 -12   6    0.13    0.80
   3  12  -6    0.16    0.78
   3  12  -6    0.60    1.15
  -3 -12   6    1.18    0.96
  -3 -12   6    1.49    0.84
   2  12  -6    0.72    1.18
   2  12  -6   -0.39    0.80
   2  12  -6   -0.37    0.68
  -2 -12   6    0.46    0.78
  -2 -12   6    0.74    0.61
   1  12  -6    0.76    0.60
   1  12  -6    0.83    0.73
   1  12  -6    2.24    0.82
   1  12  -6    0.17    0.88
  -1 -12   6   -0.56    1.17
  -1 -12   6    0.85    0.53
   0  12  -6    0.85    0.67
   0  12  -6    0.57    0.75
   0  12  -6    0.37    0.84
   0  12  -6    0.12    0.68
   0 -12   6    0.65    0.68
   0 -12   6   -1.19    1.21
  -1  12  -6    1.78    0.81
  -1  12  -6    1.21    0.72
  -1  12  -6    0.45    0.90
   1 -12   6    0.96    1.29
   1 -12   6    0.09    0.80
   1 -12   6    2.47    1.59
  -2  12  -6    0.11    0.71
  -2  12  -6    0.36    0.93
  -2  12  -6   -0.91    0.76
   2 -12   6    0.79    1.02
   2 -12   6   -0.78    0.93
   2 -12   6    0.42    0.88
   2 -12   6   -1.02    1.42
  -3  12  -6    2.13    0.97
  -3  12  -6    1.49    0.98
  -3  12  -6    2.84    0.87
   3 -12   6    3.41    1.15
   3 -12   6    0.94    1.59
   3 -12   6    1.55    1.31
  -4  12  -6    1.16    0.98
  -4  12  -6    2.16    1.15
   4 -12   6    2.58    2.00
   4 -12   6    0.28    1.40
  -5  12  -6    0.46    1.18
  -5  12  -6    0.11    1.25
   5 -12   6   -2.14    2.25
   5 -12   6    2.05    1.80
   6  11  -6    0.86    3.15
  -6 -11   6   -0.49    1.38
  -6 -11   6   -0.08    1.40
   5  11  -6    3.30    1.67
  -5 -11   6   -0.19    0.91
  -5 -11   6   -0.60    0.91
  -5 -11   6   -1.05    1.18
   4  11  -6   -0.88    0.87
   4  11  -6   -1.07    1.17
  -4 -11   6   -0.10    0.72
  -4 -11   6   -1.58    0.74
   3  11  -6   -1.05    0.73
   3  11  -6   -0.54    0.70
  -3 -11   6    0.69    0.67
  -3 -11   6    1.50    0.99
  -3 -11   6    0.55    0.67
   2  11  -6   -0.51    0.63
   2  11  -6    0.30    0.80
   2  11  -6    1.04    0.68
  -2 -11   6   -0.08    0.51
  -2 -11   6    0.61    0.71
  -2 -11   6    0.10    0.70
   1  11  -6    2.85    0.74
   1  11  -6    2.08    0.80
   1  11  -6    2.97    0.74
  -1 -11   6    4.26    0.55
  -1 -11   6    3.65    1.07
  -1 -11   6    2.06    0.67
   0  11  -6    3.11    0.76
   0  11  -6    2.83    0.66
   0  11  -6    2.36    0.75
   0  11  -6    1.66    0.58
   0 -11   6    2.61    1.06
   0 -11   6    1.65    0.67
   0 -11   6    1.73    0.49
  -1  11  -6    2.16    0.73
  -1  11  -6    2.30    0.73
  -1  11  -6    3.20    0.66
   1 -11   6    1.73    0.84
   1 -11   6    2.03    0.74
   1 -11   6    1.37    1.05
  -2  11  -6    1.52    0.75
  -2  11  -6    0.68    0.60
  -2  11  -6    0.98    0.71
   2 -11   6    1.09    0.80
   2 -11   6   -0.37    0.83
   2 -11   6    0.61    0.81
   2 -11   6    1.35    1.34
  -3  11  -6    1.38    0.86
  -3  11  -6    0.54    0.55
   3 -11   6    0.25    0.98
   3 -11   6    1.98    1.43
   3 -11   6    2.31    0.94
  -4  11  -6   -0.63    0.76
  -4  11  -6   -0.59    0.99
  -4  11  -6    0.90    0.73
   4 -11   6    1.65    1.06
   4 -11   6    1.03    1.38
   4 -11   6   -0.69    1.47
  -5  11  -6   -0.23    1.16
  -5  11  -6    1.32    1.07
   5 -11   6    2.57    1.31
   5 -11   6   -0.29    1.94
   5 -11   6    0.03    1.49
  -6  11  -6   -0.33    1.23
  -6  11  -6   -0.14    1.57
   6 -11   6   -1.78    2.45
   6 -11   6    4.24    2.34
   6  10  -6   -0.73    2.03
  -6 -10   6   -1.06    1.03
  -6 -10   6   -0.62    1.20
   5  10  -6    0.64    1.27
  -5 -10   6   -0.30    0.77
  -5 -10   6    0.12    0.97
  -5 -10   6   -0.36    0.87
   4  10  -6    0.67    1.24
  -4 -10   6    0.59    0.80
  -4 -10   6    0.50    0.77
  -4 -10   6   -0.55    0.68
   3  10  -6   10.18    1.11
   3  10  -6    7.83    0.93
   3  10  -6    7.27    1.15
  -3 -10   6    7.48    0.96
  -3 -10   6    7.31    0.91
  -3 -10   6    8.69    0.93
   2  10  -6    5.05    0.63
   2  10  -6    6.04    0.98
   2  10  -6    4.59    0.69
   2  10  -6    5.90    0.78
  -2 -10   6    5.36    0.89
  -2 -10   6    5.39    0.75
  -2 -10   6    7.18    0.84
  -2 -10   6    5.79    0.81
   1  10  -6    6.00    0.83
   1  10  -6    7.29    0.79
   1  10  -6    7.29    0.83
   1  10  -6    6.55    0.78
  -1 -10   6    6.06    0.71
  -1 -10   6    6.70    0.79
  -1 -10   6    7.98    0.99
   0  10  -6    5.23    0.82
   0  10  -6    6.47    0.87
   0  10  -6    4.59    0.67
   0  10  -6    6.71    0.79
   0 -10   6    5.80    1.04
   0 -10   6    5.13    0.59
   0 -10   6    4.20    0.67
  -1  10  -6    4.33    0.77
  -1  10  -6    2.90    0.57
  -1  10  -6    3.49    0.67
   1 -10   6    3.30    1.42
   1 -10   6    2.93    0.62
   1 -10   6    5.16    0.67
   1 -10   6    4.33    1.10
  -2  10  -6   -0.30    0.66
  -2  10  -6   -0.25    0.57
  -2  10  -6    0.12    0.46
   2 -10   6    0.99    0.75
   2 -10   6   -0.54    0.61
   2 -10   6   -0.04    0.67
   2 -10   6    1.22    0.92
  -3  10  -6    1.76    0.75
  -3  10  -6    0.35    0.64
  -3  10  -6    0.54    0.50
   3 -10   6   -1.42    0.79
   3 -10   6    1.11    0.92
   3 -10   6    0.54    1.06
   3 -10   6    1.41    0.85
  -4  10  -6    0.70    0.50
  -4  10  -6    1.70    0.77
   4 -10   6    3.02    0.97
   4 -10   6    0.71    1.43
  -5  10  -6    5.81    1.06
  -5  10  -6    6.64    1.23
   5 -10   6    4.67    1.40
   5 -10   6    4.39    1.42
   5 -10   6    6.05    2.14
  -6  10  -6    2.36    1.16
  -6  10  -6    2.26    1.32
   6 -10   6   -0.70    1.83
   6 -10   6    3.91    2.19
   6 -10   6    2.62    1.46
   7   9  -6   -0.35    2.65
  -7  -9   6    0.83    1.40
  -7  -9   6    1.47    1.31
   6   9  -6    1.22    1.61
  -6  -9   6    0.91    0.94
  -6  -9   6    0.56    0.89
   5   9  -6    4.94    1.27
  -5  -9   6    4.45    0.99
  -5  -9   6    2.79    0.81
  -5  -9   6    3.06    0.83
   4   9  -6    0.03    0.95
   4   9  -6    0.85    0.68
  -4  -9   6   -0.38    0.62
  -4  -9   6   -0.28    0.60
  -4  -9   6    0.77    0.61
   3   9  -6    4.03    0.96
   3   9  -6    3.41    0.71
   3   9  -6    1.96    0.62
  -3  -9   6    2.55    0.63
  -3  -9   6    4.51    0.69
  -3  -9   6    3.25    0.63
   2   9  -6    0.39    0.30
   2   9  -6    0.38    0.47
   2   9  -6   -0.78    0.43
   2   9  -6    0.77    0.65
  -2  -9   6    0.23    0.42
  -2  -9   6   -0.13    0.47
  -2  -9   6   -0.10    0.47
  -2  -9   6   -0.41    0.44
   1   9  -6    1.75    0.62
   1   9  -6    1.64    0.49
   1   9  -6    0.85    0.56
   1   9  -6    1.13    0.51
  -1  -9   6    1.31    0.48
  -1  -9   6    0.84    0.41
  -1  -9   6    0.74    0.53
  -1  -9   6    0.70    0.48
   0   9  -6   11.73    0.87
   0   9  -6   10.84    0.94
   0   9  -6   11.94    0.85
   0   9  -6   11.09    0.92
   0  -9   6   11.47    0.90
   0  -9   6   11.72    0.84
   0  -9   6   11.34    1.14
  -1   9  -6   36.98    1.58
  -1   9  -6   36.91    1.47
  -1   9  -6   38.77    1.57
   1  -9   6   36.06    1.57
   1  -9   6   37.34    1.88
   1  -9   6   38.16    1.40
  -2   9  -6    3.48    0.66
  -2   9  -6    3.84    0.65
  -2   9  -6    3.51    0.53
   2  -9   6    3.43    0.68
   2  -9   6    4.11    0.53
   2  -9   6    1.75    0.77
   2  -9   6    4.58    0.93
   2  -9   6    4.35    0.98
  -3   9  -6    5.84    0.79
  -3   9  -6    5.67    0.78
  -3   9  -6    5.73    0.62
   3  -9   6    5.84    0.79
   3  -9   6    8.02    1.28
   3  -9   6    5.28    0.97
  -4   9  -6    4.36    0.57
  -4   9  -6    4.47    0.78
  -4   9  -6    7.11    1.03
   4  -9   6    8.18    1.52
   4  -9   6    4.58    1.12
   4  -9   6    4.72    1.09
  -5   9  -6   -0.05    0.83
  -5   9  -6    1.54    0.82
   5  -9   6    1.40    1.52
   5  -9   6    3.84    1.35
   5  -9   6    3.10    1.18
  -6   9  -6    1.67    1.13
  -6   9  -6    0.85    1.02
   6  -9   6    0.89    1.33
   6  -9   6   -2.19    1.63
   6  -9   6    1.38    1.89
  -7   9  -6    0.55    1.46
  -7   9  -6   -0.63    1.54
   7  -9   6    1.24    2.52
   7  -9   6    1.66    1.96
   7   8  -6    3.25    2.26
  -7  -8   6    1.22    1.13
  -7  -8   6    1.43    1.15
   6   8  -6    0.32    1.46
  -6  -8   6    0.70    0.77
  -6  -8   6    1.68    0.79
  -6  -8   6    0.43    0.89
   5   8  -6    2.11    1.12
  -5  -8   6    0.99    0.87
  -5  -8   6    1.26    0.67
  -5  -8   6    1.64    0.66
   4   8  -6    4.75    1.10
   4   8  -6    2.11    0.63
   4   8  -6    1.98    0.86
  -4  -8   6    2.43    0.61
  -4  -8   6    1.61    0.58
  -4  -8   6    2.14    0.57
   3   8  -6    4.46    0.91
   3   8  -6    3.28    0.74
   3   8  -6    3.58    0.63
  -3  -8   6    3.95    0.62
  -3  -8   6    4.31    0.48
  -3  -8   6    4.11    0.61
  -3  -8   6    3.31    0.62
   2   8  -6   21.33    1.12
   2   8  -6   24.01    1.35
   2   8  -6   21.52    1.15
  -2  -8   6   20.79    0.96
  -2  -8   6   22.27    1.18
  -2  -8   6   23.36    1.10
  -2  -8   6   23.82    1.12
   1   8  -6   28.01    1.42
   1   8  -6   28.15    1.28
   1   8  -6   29.34    1.13
   1   8  -6   28.02    1.27
  -1  -8   6   27.77    1.31
  -1  -8   6   29.27    1.24
  -1  -8   6   28.75    1.33
  -1  -8   6   30.53    1.22
   0   8  -6   15.64    0.94
   0   8  -6   14.86    0.92
   0   8  -6   15.56    0.87
   0   8  -6   16.08    0.93
   0  -8   6   15.18    0.88
   0  -8   6   14.76    0.98
   0  -8   6   15.08    0.76
  -1   8  -6   39.39    1.59
  -1   8  -6   40.88    1.48
  -1   8  -6   38.81    1.55
   1  -8   6   39.32    1.42
   1  -8   6   39.98    1.58
  -2   8  -6   18.25    1.05
  -2   8  -6   19.09    0.91
  -2   8  -6   18.80    1.06
   2  -8   6   17.57    1.24
   2  -8   6   18.96    1.41
   2  -8   6   18.65    1.10
   2  -8   6   13.98    0.90
   2  -8   6   13.70    1.35
  -3   8  -6   -0.17    0.54
  -3   8  -6    0.06    0.39
  -3   8  -6    0.19    0.48
   3  -8   6    0.63    0.81
   3  -8   6   -1.04    0.63
   3  -8   6    0.53    0.40
   3  -8   6   -0.26    0.54
  -4   8  -6    2.95    0.70
  -4   8  -6    3.23    0.44
  -4   8  -6    2.26    0.74
   4  -8   6    3.74    1.10
   4  -8   6    1.02    0.81
   4  -8   6    5.06    1.19
  -5   8  -6    2.75    0.99
  -5   8  -6    2.06    0.76
   5  -8   6    1.42    1.33
   5  -8   6    2.06    1.12
   5  -8   6    1.08    1.27
  -6   8  -6    4.34    1.11
  -6   8  -6    3.93    1.28
   6  -8   6    3.34    1.53
   6  -8   6    3.52    1.41
   6  -8   6    5.81    1.66
  -7   8  -6    0.55    1.36
  -7   8  -6    3.35    1.42
   7  -8   6    4.09    1.84
   7  -8   6    1.18    2.16
   8   7  -6    1.36    2.98
  -8  -7   6    0.73    1.35
  -8  -7   6   -2.43    2.17
   7   7  -6    3.73    1.84
  -7  -7   6    0.82    0.94
  -7  -7   6    1.65    0.95
   6   7  -6    3.49    1.48
  -6  -7   6    2.42    0.91
  -6  -7   6    3.03    0.75
  -6  -7   6    2.43    1.02
   5   7  -6    9.53    1.45
  -5  -7   6    6.70    0.83
  -5  -7   6    8.71    1.08
  -5  -7   6    7.93    0.96
   4   7  -6   14.66    1.32
   4   7  -6   12.10    1.21
   4   7  -6   12.97    1.02
  -4  -7   6   15.04    0.98
  -4  -7   6   13.21    1.03
  -4  -7   6   15.61    1.01
   3   7  -6    1.80    0.73
   3   7  -6    2.14    0.33
   3   7  -6    2.38    0.55
  -3  -7   6    1.83    0.45
  -3  -7   6    2.67    0.40
  -3  -7   6    2.02    0.52
  -3  -7   6    2.32    0.46
   2   7  -6   36.27    1.48
   2   7  -6   33.70    1.61
   2   7  -6   33.23    1.40
   2   7  -6   33.99    1.12
  -2  -7   6   33.72    1.49
  -2  -7   6   33.94    1.18
  -2  -7   6   35.49    1.36
  -2  -7   6   33.36    1.35
   1   7  -6    2.51    0.53
   1   7  -6    2.57    0.36
   1   7  -6    2.31    0.50
   1   7  -6    2.71    0.60
  -1  -7   6    2.36    0.39
  -1  -7   6    1.65    0.42
   0   7  -6    0.36    0.40
   0   7  -6    0.48    0.34
   0   7  -6    0.84    0.45
   0   7  -6    0.58    0.35
   0  -7   6    0.54    0.28
   0  -7   6    0.15    0.34
  -1   7  -6   50.33    1.88
  -1   7  -6   50.94    1.82
  -1   7  -6   51.05    1.73
  -1   7  -6   52.28    1.88
   1  -7   6   51.19    1.98
   1  -7   6   52.16    1.72
   1  -7   6   51.31    1.53
   1  -7   6   50.70    1.95
   1  -7   6   52.27    1.85
  -2   7  -6   83.89    2.41
  -2   7  -6   81.16    2.50
  -2   7  -6   82.55    2.70
  -2   7  -6   84.99    2.70
   2  -7   6   83.39    2.97
   2  -7   6   86.61    2.79
   2  -7   6   70.77    2.59
   2  -7   6   86.63    2.93
  -3   7  -6    2.14    0.54
  -3   7  -6    2.28    0.34
  -3   7  -6    2.23    0.55
   3  -7   6    2.11    0.68
   3  -7   6    2.12    0.48
   3  -7   6    2.41    0.76
   3  -7   6    2.30    0.83
  -4   7  -6   36.56    1.58
  -4   7  -6   34.54    1.63
   4  -7   6   35.62    2.10
   4  -7   6   35.76    2.06
   4  -7   6   34.71    1.98
  -5   7  -6   12.78    1.12
  -5   7  -6    9.84    1.29
   5  -7   6   11.00    1.52
   5  -7   6   11.45    1.53
   5  -7   6   12.56    1.62
  -6   7  -6    2.11    0.99
  -6   7  -6    2.57    1.08
  -6   7  -6    0.51    0.85
   6  -7   6    4.44    1.41
   6  -7   6    3.28    1.49
  -7   7  -6    0.09    1.20
  -7   7  -6   -0.05    1.24
   7  -7   6    0.72    1.61
   7  -7   6   -1.08    1.77
   8   6  -6   -1.21    2.45
  -8  -6   6   -0.19    1.20
  -8  -6   6    1.27    1.24
   7   6  -6    3.60    1.84
  -7  -6   6    3.93    0.98
  -7  -6   6    2.16    0.99
   6   6  -6    6.94    1.50
  -6  -6   6    8.23    1.07
  -6  -6   6   10.28    1.12
  -6  -6   6    8.24    1.08
   5   6  -6    2.11    0.92
  -5  -6   6    2.03    0.54
  -5  -6   6    0.67    0.56
  -5  -6   6    1.48    0.53
   4   6  -6    4.82    0.74
   4   6  -6    4.16    0.92
  -4  -6   6    4.37    0.61
  -4  -6   6    5.45    0.69
  -4  -6   6    5.03    0.57
   3   6  -6   27.95    1.34
   3   6  -6   27.12    1.24
   3   6  -6   26.45    1.01
   3   6  -6   26.59    1.48
  -3  -6   6   27.79    1.20
  -3  -6   6   25.99    1.08
  -3  -6   6   25.32    0.85
  -3  -6   6   26.81    0.86
  -3  -6   6   27.41    1.18
   2   6  -6    5.14    0.34
   2   6  -6    5.69    0.88
   2   6  -6    5.11    0.69
   2   6  -6    5.55    0.64
  -2  -6   6    5.05    0.52
  -2  -6   6    5.16    0.61
  -2  -6   6    4.67    0.33
  -2  -6   6    5.19    0.61
   1   6  -6   50.39    1.77
   1   6  -6   50.25    1.62
   1   6  -6   50.66    1.79
   1   6  -6   48.83    1.81
  -1  -6   6   52.09    1.73
  -1  -6   6   51.03    1.68
  -1  -6   6   51.97    1.62
   0   6  -6  112.06    3.32
   0   6  -6  110.99    3.29
   0   6  -6  114.08    3.53
   0   6  -6  113.42    3.33
   0  -6   6  110.05    3.35
   0  -6   6  111.70    3.25
   0  -6   6  111.19    3.37
  -1   6  -6   29.39    1.23
  -1   6  -6   27.59    1.04
  -1   6  -6   27.39    0.98
   1  -6   6   27.68    0.88
   1  -6   6   28.28    1.27
   1  -6   6   25.92    1.41
   1  -6   6   27.77    1.09
   1  -6   6   27.27    1.20
  -2   6  -6  181.38    4.77
  -2   6  -6  174.29    4.72
  -2   6  -6  174.29    5.05
  -2   6  -6  178.98    5.05
  -2   6  -6  178.35    4.85
   2  -6   6  183.46    5.20
   2  -6   6  145.34    5.38
   2  -6   6  158.78    5.01
   2  -6   6  171.07    5.51
   2  -6   6  176.75    5.26
  -3   6  -6    0.72    0.21
  -3   6  -6    1.08    0.49
  -3   6  -6    1.24    0.46
   3  -6   6    0.43    0.60
   3  -6   6    1.85    0.81
   3  -6   6    1.26    0.47
   3  -6   6    0.70    0.60
  -4   6  -6    0.17    0.52
  -4   6  -6    0.43    0.48
   4  -6   6    0.55    0.75
   4  -6   6    1.38    0.82
   4  -6   6    1.06    0.88
  -5   6  -6    1.95    0.71
  -5   6  -6    0.71    0.61
   5  -6   6    1.35    1.03
   5  -6   6    0.32    0.88
   5  -6   6    1.42    1.00
  -6   6  -6    1.94    0.87
  -6   6  -6   -0.62    0.86
  -6   6  -6    1.30    0.95
   6  -6   6    1.97    1.19
   6  -6   6    1.46    1.33
  -7   6  -6    4.27    1.27
  -7   6  -6    3.93    1.34
   7  -6   6   -1.26    1.65
   7  -6   6    4.39    1.68
   8   5  -6    4.23    2.15
  -8  -5   6    1.99    1.17
  -8  -5   6    2.97    1.15
   7   5  -6    1.61    1.47
  -7  -5   6    2.29    1.00
  -7  -5   6    0.56    0.85
   6   5  -6    1.37    1.21
  -6  -5   6    0.77    0.56
  -6  -5   6    0.59    0.69
  -6  -5   6    0.55    0.63
   5   5  -6    9.84    1.28
  -5  -5   6   10.78    0.87
  -5  -5   6    8.74    0.92
  -5  -5   6    9.96    0.77
   4   5  -6   24.36    1.48
   4   5  -6   25.81    1.28
   4   5  -6   24.16    0.99
  -4  -5   6   23.50    0.97
  -4  -5   6   23.95    1.19
  -4  -5   6   24.67    1.14
   3   5  -6  105.37    3.53
   3   5  -6  102.24    3.39
   3   5  -6  105.35    3.17
  -3  -5   6  106.71    3.23
  -3  -5   6  102.99    3.19
  -3  -5   6  107.81    3.19
   2   5  -6   64.49    2.29
   2   5  -6   57.10    2.30
   2   5  -6   66.91    2.21
   2   5  -6   67.16    1.92
  -2  -5   6   67.45    2.01
  -2  -5   6   64.04    2.10
  -2  -5   6   66.84    2.09
   1   5  -6    3.11    0.46
   1   5  -6    2.91    0.45
   1   5  -6    2.87    0.40
   1   5  -6    2.72    0.32
  -1  -5   6    3.03    0.40
  -1  -5   6    2.54    0.29
  -1  -5   6    2.97    0.37
   0   5  -6    8.74    0.55
   0   5  -6    8.60    0.54
   0   5  -6    9.20    0.68
   0   5  -6    8.58    0.53
   0  -5   6    8.52    0.61
   0  -5   6    9.09    0.59
   0  -5   6    9.70    0.58
   0  -5   6    9.19    0.54
  -1   5  -6    3.03    0.34
  -1   5  -6    2.50    0.41
  -1   5  -6    2.61    0.27
  -1   5  -6    2.80    0.50
   1  -5   6    3.33    0.55
   1  -5   6    2.63    0.39
   1  -5   6    2.64    0.48
   1  -5   6    2.85    0.24
   1  -5   6    3.46    0.54
  -2   5  -6   17.92    0.68
  -2   5  -6   17.63    0.96
  -2   5  -6   18.24    1.06
   2  -5   6   15.81    0.94
   2  -5   6   17.72    1.14
   2  -5   6   18.83    1.14
   2  -5   6   17.36    0.54
   2  -5   6   15.14    1.32
  -3   5  -6   94.37    3.04
  -3   5  -6   95.18    2.96
   3  -5   6   91.06    3.24
   3  -5   6   96.52    3.32
   3  -5   6   90.17    3.44
   3  -5   6   98.91    3.32
  -4   5  -6   30.03    1.42
  -4   5  -6   29.94    1.34
   4  -5   6   30.18    1.73
   4  -5   6   30.38    1.74
   4  -5   6   29.34    1.91
  -5   5  -6   30.93    1.44
  -5   5  -6   34.65    1.84
  -5   5  -6   31.29    1.63
   5  -5   6   34.04    2.24
   5  -5   6   31.69    1.99
  -6   5  -6   12.79    1.14
  -6   5  -6   11.20    1.50
  -6   5  -6   12.22    1.48
   6  -5   6   15.42    1.85
   6  -5   6   15.90    2.64
  -7   5  -6    0.85    1.14
  -7   5  -6   -1.43    1.16
   7  -5   6    0.69    1.51
   7  -5   6    1.02    1.64
   8   4  -6    2.11    1.91
  -8  -4   6    0.55    1.07
  -8  -4   6    0.29    1.02
   7   4  -6    8.00    1.84
  -7  -4   6    5.52    1.01
  -7  -4   6    7.75    1.90
   6   4  -6   15.97    1.62
  -6  -4   6   16.40    1.14
  -6  -4   6   15.57    1.17
  -6  -4   6   16.28    1.22
   5   4  -6   26.32    1.18
   5   4  -6   29.63    1.75
  -5  -4   6   27.90    1.27
  -5  -4   6   29.51    1.67
  -5  -4   6   27.60    1.06
   4   4  -6    8.10    0.67
   4   4  -6    9.38    1.09
   4   4  -6    9.37    0.77
  -4  -4   6    7.91    0.69
  -4  -4   6    9.07    0.68
  -4  -4   6    8.17    0.48
  -4  -4   6    7.17    0.46
   3   4  -6   -0.29    0.41
   3   4  -6    0.41    0.32
   3   4  -6   -0.14    0.58
  -3  -4   6    0.13    0.32
  -3  -4   6    0.73    0.35
  -3  -4   6   -0.21    0.16
   2   4  -6    1.02    0.25
   2   4  -6    0.21    0.37
   2   4  -6    0.49    0.38
  -2  -4   6    0.81    0.26
  -2  -4   6    1.14    0.30
   1   4  -6    9.12    0.59
   1   4  -6    8.42    0.65
   1   4  -6    8.48    0.47
   1   4  -6    8.93    0.56
   1   4  -6    9.41    0.36
  -1  -4   6    8.46    0.51
  -1  -4   6    9.13    0.52
   0   4  -6  122.22    3.48
   0   4  -6  113.72    3.41
   0   4  -6  112.82    3.33
   0   4  -6  111.95    3.29
   0   4  -6  115.51    3.58
   0  -4   6  114.29    3.24
   0  -4   6  110.29    3.30
   0  -4   6  113.74    3.35
   0  -4   6  115.46    3.32
   0  -4   6  114.66    3.36
  -1   4  -6  109.36    3.37
  -1   4  -6  113.93    3.23
  -1   4  -6  113.31    3.37
   1  -4   6  109.76    3.39
   1  -4   6  117.65    3.18
   1  -4   6  110.62    3.42
   1  -4   6  115.73    3.36
  -2   4  -6   99.14    3.00
  -2   4  -6   96.84    2.94
   2  -4   6   92.87    2.69
   2  -4   6   97.57    3.14
   2  -4   6   87.19    2.98
   2  -4   6   98.35    3.14
   2  -4   6  107.73    2.75
   2  -4   6   83.40    3.29
  -3   4  -6   70.31    2.41
  -3   4  -6   74.04    2.94
   3  -4   6   67.92    2.80
   3  -4   6   71.53    2.63
   3  -4   6   72.36    2.51
  -4   4  -6    9.09    0.83
  -4   4  -6    9.32    0.96
  -4   4  -6    7.13    0.83
   4  -4   6    9.59    1.26
   4  -4   6    7.71    1.06
  -5   4  -6    2.88    0.75
  -5   4  -6    3.19    0.64
  -5   4  -6    2.90    0.82
   5  -4   6    3.60    0.90
   5  -4   6    3.39    1.04
  -6   4  -6    0.88    0.89
  -7   4  -6    2.32    1.19
  -7   4  -6    2.10    1.24
   7  -4   6    0.40    1.29
   7  -4   6    2.36    1.58
  -8   4  -6    3.29    1.84
  -8   4  -6    2.76    1.87
   8  -4   6   -0.71    2.06
   8  -4   6    3.10    2.76
   9   3  -6    7.89    2.99
  -9  -3   6    3.25    1.44
  -9  -3   6    1.59    1.48
   8   3  -6    3.49    1.95
  -8  -3   6    1.83    1.02
  -8  -3   6    0.91    1.04
   7   3  -6    4.86    1.62
  -7  -3   6    4.68    0.88
  -7  -3   6    4.90    0.98
   6   3  -6    0.73    0.84
   6   3  -6   -0.01    0.69
  -6  -3   6    0.14    0.53
  -6  -3   6   -0.07    0.45
  -6  -3   6    0.18    0.35
   5   3  -6    0.14    0.47
   5   3  -6    0.22    0.63
  -5  -3   6    0.20    0.43
  -5  -3   6    0.02    0.23
  -5  -3   6    0.91    0.45
   4   3  -6   17.33    1.32
  -4  -3   6   16.87    0.64
  -4  -3   6   17.48    0.89
  -4  -3   6   16.50    0.69
   3   3  -6  138.84    4.43
   3   3  -6  142.60    4.29
   3   3  -6  133.74    4.33
   3   3  -6  148.06    3.94
  -3  -3   6  142.72    4.06
  -3  -3   6  141.64    3.90
  -3  -3   6  141.56    4.14
   2   3  -6  283.56    7.98
   2   3  -6  293.32    7.63
   2   3  -6  269.34    7.73
   2   3  -6  283.95    8.00
  -2  -3   6  276.61    7.71
  -2  -3   6  277.68    7.62
  -2  -3   6  278.36    7.76
   1   3  -6   41.44    1.21
   1   3  -6   40.07    1.49
   1   3  -6   40.62    1.43
   1   3  -6   41.16    1.35
   1   3  -6   41.60    1.27
  -1  -3   6   39.73    1.39
  -1  -3   6   39.19    1.31
   0   3  -6   23.56    0.85
   0   3  -6   22.39    0.97
   0   3  -6   20.86    0.99
   0  -3   6   22.37    0.88
   0  -3   6   24.30    0.85
   0  -3   6   23.09    0.88
   0  -3   6   23.52    0.80
   0  -3   6   22.97    0.87
  -1   3  -6   39.19    1.44
  -1   3  -6   40.85    1.46
   1  -3   6   43.09    1.30
   1  -3   6   40.13    1.45
   1  -3   6   40.85    1.48
   1  -3   6   41.38    1.58
  -2   3  -6    8.20    0.61
   2  -3   6    8.03    0.78
   2  -3   6    7.89    0.43
   2  -3   6    8.40    0.34
   2  -3   6    8.21    0.74
  -3   3  -6    5.88    0.61
  -3   3  -6    7.08    0.83
  -3   3  -6    5.78    0.78
   3  -3   6    6.15    0.83
   3  -3   6    6.38    0.79
   3  -3   6    6.02    0.95
   3  -3   6    7.22    0.40
  -4   3  -6   85.42    2.95
  -4   3  -6   83.28    2.68
  -4   3  -6   80.21    2.83
   4  -3   6   84.19    3.08
   4  -3   6   87.56    3.33
  -5   3  -6   18.30    1.31
  -5   3  -6   17.43    1.32
  -5   3  -6   15.66    1.42
   5  -3   6   17.93    1.58
   5  -3   6   19.67    1.74
  -6   3  -6   16.25    2.43
  -6   3  -6   14.43    1.47
   6  -3   6   12.52    1.80
  -7   3  -6    5.95    1.24
  -7   3  -6    7.22    1.53
   7  -3   6    5.12    1.55
   7  -3   6    6.27    1.67
  -8   3  -6    0.99    1.79
   8  -3   6    0.75    2.17
   8  -3   6    0.74    2.58
   9   2  -6   -1.16    2.51
  -9  -2   6    1.61    1.24
  -9  -2   6    1.06    1.16
   8   2  -6   -0.47    1.73
  -8  -2   6    2.07    1.18
  -8  -2   6   -0.79    0.95
   7   2  -6    0.04    1.31
  -7  -2   6    0.99    0.70
  -7  -2   6    1.21    0.68
   6   2  -6   16.86    1.57
   6   2  -6   13.11    1.56
  -6  -2   6   14.42    0.73
  -6  -2   6   16.17    1.02
  -6  -2   6   16.26    1.08
   5   2  -6   25.02    1.65
   5   2  -6   24.72    1.39
  -5  -2   6   25.93    1.14
  -5  -2   6   24.01    1.19
  -5  -2   6   25.31    0.88
   4   2  -6   73.70    2.59
   4   2  -6   74.00    2.81
  -4  -2   6   71.39    2.34
  -4  -2   6   75.13    2.26
  -4  -2   6   74.11    2.03
  -4  -2   6   71.75    2.06
   3   2  -6   28.99    1.46
   3   2  -6   28.41    0.92
   3   2  -6   26.49    1.38
  -3  -2   6   28.09    0.91
  -3  -2   6   29.22    1.02
  -3  -2   6   28.43    1.09
   2   2  -6   11.86    0.60
   2   2  -6   10.30    0.78
   2   2  -6   11.78    0.77
  -2  -2   6   11.71    0.66
  -2  -2   6   10.81    0.53
  -2  -2   6   12.88    0.52
  -2  -2   6   10.77    0.58
   1   2  -6   22.77    0.95
   1   2  -6   21.72    1.03
   1   2  -6   22.80    0.94
  -1  -2   6   23.20    0.85
  -1  -2   6   23.32    0.90
  -1  -2   6   22.51    0.80
   0   2  -6   29.22    1.19
   0   2  -6   30.64    1.07
   0  -2   6   30.31    1.02
   0  -2   6   30.77    1.10
   0  -2   6   29.97    1.02
   0  -2   6   29.41    1.06
   0  -2   6   30.02    1.03
  -1   2  -6   12.35    0.73
  -1   2  -6   11.97    0.70
  -1   2  -6   13.82    0.67
   1  -2   6   11.96    0.51
   1  -2   6   12.13    0.57
   1  -2   6   11.16    0.72
   1  -2   6   12.33    0.67
   1  -2   6   12.11    0.42
  -2   2  -6   91.32    2.99
  -2   2  -6   89.23    2.75
  -2   2  -6   91.32    2.84
   2  -2   6   96.93    2.47
   2  -2   6   89.49    2.66
   2  -2   6   79.16    3.02
   2  -2   6   88.95    2.87
   2  -2   6   85.90    2.87
  -3   2  -6   49.58    1.78
  -3   2  -6   55.02    2.01
  -3   2  -6   53.89    1.99
   3  -2   6   53.35    2.10
   3  -2   6   52.67    2.02
   3  -2   6   52.21    2.30
   3  -2   6   52.70    1.71
  -4   2  -6   42.92    1.61
  -4   2  -6   44.71    1.94
  -4   2  -6   45.43    1.87
   4  -2   6   47.02    2.06
   4  -2   6   46.96    2.26
   4  -2   6   46.94    1.60
  -5   2  -6   19.04    1.00
  -5   2  -6   19.26    1.45
  -5   2  -6   18.79    1.39
   5  -2   6   18.98    1.75
   5  -2   6   20.46    1.54
  -6   2  -6    0.78    0.94
   6  -2   6    0.68    1.18
  -7   2  -6    0.28    2.64
  -7   2  -6    1.04    1.19
   7  -2   6   -1.53    1.46
   7  -2   6   -2.47    1.23
   9   1  -6    2.15    2.41
  -9  -1   6    1.05    1.19
  -9  -1   6    3.42    1.21
   8   1  -6    6.19    1.78
  -8  -1   6    5.34    1.19
  -8  -1   6    6.64    1.11
  -8  -1   6    7.38    1.13
   7   1  -6    7.87    1.24
   7   1  -6   11.86    1.83
  -7  -1   6    7.70    0.92
  -7  -1   6    7.26    0.85
   6   1  -6   30.57    1.97
   6   1  -6   30.55    1.88
  -6  -1   6   31.21    1.43
  -6  -1   6   31.98    1.37
  -6  -1   6   31.95    1.12
   5   1  -6    0.73    0.69
   5   1  -6    1.78    0.47
  -5  -1   6    1.11    0.41
  -5  -1   6    1.06    0.38
  -5  -1   6    1.57    0.23
  -5  -1   6    1.69    0.24
   4   1  -6   -0.16    0.29
   4   1  -6    0.37    0.52
   4   1  -6    0.21    0.67
  -4  -1   6    0.79    0.35
  -4  -1   6    0.02    0.20
   3   1  -6   10.81    0.92
   3   1  -6   11.35    0.90
   3   1  -6   12.02    0.59
  -3  -1   6   11.58    0.67
  -3  -1   6   11.34    0.61
  -3  -1   6   11.83    0.50
   2   1  -6  291.53    7.76
   2   1  -6  271.92    7.94
   2   1  -6  294.03    8.12
   2   1  -6  280.37    7.94
   2   1  -6  273.75    7.63
  -2  -1   6  275.31    7.68
  -2  -1   6  269.83    7.64
  -2  -1   6  267.41    7.56
  -2  -1   6  277.89    7.56
   1   1  -6  121.15    3.64
   1   1  -6  119.97    3.38
   1   1  -6  122.63    3.63
   1   1  -6  116.87    3.70
  -1  -1   6  123.86    3.47
  -1  -1   6  123.50    3.31
  -1  -1   6  122.01    3.57
  -1  -1   6  119.65    3.41
   0   1  -6  139.41    3.87
   0   1  -6  137.25    4.17
   0   1  -6  138.55    3.95
   0   1  -6  138.76    4.12
   0  -1   6  141.40    3.90
   0  -1   6  137.65    4.00
   0  -1   6  139.91    3.96
   0  -1   6  138.27    4.01
  -1   1  -6   78.38    2.51
  -1   1  -6   74.35    2.50
  -1   1  -6   78.84    2.43
   1  -1   6   80.84    2.41
   1  -1   6   77.14    2.36
   1  -1   6   77.95    2.59
   1  -1   6   74.35    2.47
   1  -1   6   81.46    2.38
  -2   1  -6   32.47    1.62
  -2   1  -6   34.14    1.30
  -2   1  -6   34.57    1.42
   2  -1   6   32.82    1.36
   2  -1   6   33.03    1.23
   2  -1   6   32.54    1.59
   2  -1   6   34.43    0.99
   2  -1   6   34.72    1.08
   2  -1   6   30.38    1.53
   2  -1   6   33.14    0.98
  -3   1  -6   22.61    1.02
  -3   1  -6   22.55    1.27
  -3   1  -6   23.75    1.29
   3  -1   6   22.13    0.86
   3  -1   6   22.76    1.47
   3  -1   6   25.04    1.32
   3  -1   6   23.23    1.02
  -4   1  -6    2.77    0.65
  -4   1  -6    3.27    0.51
  -4   1  -6    3.04    0.67
   4  -1   6    2.63    0.87
   4  -1   6    3.40    0.74
   4  -1   6    3.36    0.44
   4  -1   6    3.05    0.53
  -5   1  -6   12.16    1.24
  -5   1  -6   10.41    1.29
   5  -1   6   13.58    1.40
   5  -1   6   10.41    1.52
  -6   1  -6    5.40    1.21
  -6   1  -6    6.95    1.21
   6  -1   6    7.70    1.65
  -7   1  -6    5.69    1.35
  -7   1  -6    7.49    1.52
  -7   1  -6    5.37    1.44
   7  -1   6    6.46    1.77
   9   0  -6    4.30    2.48
  -9   0   6   -1.90    1.12
   8   0  -6    1.56    2.16
   8   0  -6    1.23    1.67
  -8   0   6    0.77    1.11
  -8   0   6    0.96    0.69
  -8   0   6    0.53    0.82
  -8   0   6    0.53    0.85
   7   0  -6    1.66    1.02
   7   0  -6    0.88    1.20
  -7   0   6    2.42    0.76
  -7   0   6    1.09    0.58
  -7   0   6    1.31    0.61
   6   0  -6    3.23    1.00
   6   0  -6    3.60    1.16
   6   0  -6    3.90    1.03
  -6   0   6    3.84    0.49
  -6   0   6    3.51    0.60
  -6   0   6    3.30    0.58
  -6   0   6    2.92    0.56
  -6   0   6    3.59    0.43
   5   0  -6    9.87    1.27
   5   0  -6   10.86    1.23
   5   0  -6   11.28    0.89
  -5   0   6   10.32    0.60
  -5   0   6    9.72    0.47
  -5   0   6    9.85    0.77
  -5   0   6    9.29    0.78
   4   0  -6   61.02    2.50
   4   0  -6   56.85    2.15
   4   0  -6   58.82    2.40
  -4   0   6   61.64    1.81
  -4   0   6   60.54    1.94
  -4   0   6   62.83    2.01
   3   0  -6  147.53    4.06
   3   0  -6  142.56    4.62
   3   0  -6  146.89    4.27
   3   0  -6  145.66    4.59
  -3   0   6  146.84    4.01
  -3   0   6  147.93    4.10
  -3   0   6  147.22    4.14
  -3   0   6  137.88    4.18
   2   0  -6   91.79    2.88
   2   0  -6   94.06    2.54
   2   0  -6   89.53    2.72
   2   0  -6   88.25    2.96
   2   0  -6   90.05    3.11
  -2   0   6   88.05    2.68
  -2   0   6   91.23    2.52
  -2   0   6   88.48    2.62
   1   0  -6   65.78    1.90
   1   0  -6   64.59    1.91
   1   0  -6   67.53    2.65
   1   0  -6   62.71    2.21
  -1   0   6   63.21    1.99
  -1   0   6   65.02    2.09
   0   0  -6    0.56    0.38
   0   0  -6    0.48    0.36
   0   0  -6    0.64    0.22
   0   0  -6    1.02    0.17
   0   0   6    0.21    0.22
   0   0   6    0.56    0.17
   0   0   6    0.62    0.28
  -1   0  -6    0.71    0.32
  -1   0  -6    0.16    0.44
  -1   0  -6    0.39    0.37
   1   0   6    0.54    0.25
   1   0   6    0.62    0.15
   1   0   6    0.43    0.27
   1   0   6   -0.05    0.33
   1   0   6    0.85    0.36
  -2   0  -6    4.02    0.80
   2   0   6    3.44    0.46
   2   0   6    3.86    0.53
   2   0   6    3.33    0.24
   2   0   6    4.14    0.69
   2   0   6    3.86    0.64
  -3   0  -6   36.75    1.67
  -3   0  -6   37.18    1.39
  -3   0  -6   38.34    1.66
   3   0   6   36.38    1.34
   3   0   6   38.16    1.67
   3   0   6   36.19    1.82
   3   0   6   35.81    1.50
  -4   0  -6   26.52    1.50
  -4   0  -6   29.85    1.55
   4   0   6   25.35    1.67
   4   0   6   27.11    1.42
   4   0   6   25.22    2.03
   4   0   6   29.90    1.64
  -5   0  -6   22.55    1.62
  -5   0  -6   23.43    1.57
   5   0   6   21.82    1.82
   5   0   6   23.39    1.64
  -6   0  -6    6.50    1.26
  -6   0  -6    9.53    1.36
   6   0   6    8.46    1.63
  -7   0  -6   -0.18    1.22
  -7   0  -6    1.42    1.34
  -7   0  -6   -0.42    1.42
   7   0   6   -0.35    1.61
   9  -1  -6    2.05    2.40
   8  -1  -6    7.56    2.00
   8  -1  -6    5.84    1.60
  -8   1   6    5.09    0.95
  -8   1   6    5.41    0.87
  -8   1   6    6.63    0.99
   7  -1  -6   16.50    1.55
   7  -1  -6   14.54    2.11
   7  -1  -6   15.39    1.75
  -7   1   6   14.78    1.06
  -7   1   6   15.47    1.17
  -7   1   6   14.25    1.05
  -7   1   6   15.03    1.13
   6  -1  -6   31.69    1.78
   6  -1  -6   31.67    2.02
   6  -1  -6   31.92    2.08
  -6   1   6   34.01    1.29
  -6   1   6   33.83    1.45
  -6   1   6   34.01    1.20
  -6   1   6   34.15    1.40
   5  -1  -6   38.58    2.11
   5  -1  -6   38.94    1.82
   5  -1  -6   38.49    1.53
   5  -1  -6   39.66    2.10
  -5   1   6   42.02    1.28
  -5   1   6   43.33    1.50
  -5   1   6   39.71    1.52
  -5   1   6   43.70    1.59
   4  -1  -6   13.64    0.66
   4  -1  -6   12.98    0.93
   4  -1  -6   12.56    1.24
   4  -1  -6   14.61    1.26
  -4   1   6   13.67    0.51
  -4   1   6   13.75    0.51
  -4   1   6   13.17    0.47
  -4   1   6   14.66    0.70
  -4   1   6   13.98    0.82
   3  -1  -6   10.57    1.14
   3  -1  -6   10.78    0.81
   3  -1  -6    9.18    1.03
   3  -1  -6   10.31    0.45
  -3   1   6   10.60    0.47
  -3   1   6   10.22    0.53
  -3   1   6    8.93    0.64
  -3   1   6   10.13    0.36
  -3   1   6   10.72    0.36
   2  -1  -6    2.45    0.45
   2  -1  -6    0.92    0.54
   2  -1  -6    0.39    0.50
   2  -1  -6    1.30    0.14
   2  -1  -6    1.38    0.17
   2  -1  -6    1.11    0.32
  -2   1   6    1.73    0.20
  -2   1   6    0.75    0.28
   1  -1  -6  113.64    3.23
   1  -1  -6  112.87    3.50
   1  -1  -6  110.01    3.14
   1  -1  -6  108.36    3.74
  -1   1   6  113.44    3.29
  -1   1   6  115.42    3.32
   0  -1  -6  146.85    4.32
   0  -1  -6  144.88    4.52
   0  -1  -6  150.47    4.20
   0   1   6  151.24    4.33
   0   1   6  147.65    4.33
   0   1   6  155.72    4.35
   0   1   6  150.29    4.21
  -1  -1  -6   79.97    2.55
  -1  -1  -6   79.45    2.71
   1   1   6   79.43    2.54
   1   1   6   78.40    2.58
   1   1   6   80.47    2.31
   1   1   6   78.02    2.57
  -2  -1  -6   49.06    1.87
  -2  -1  -6   46.77    1.95
   2   1   6   47.21    1.44
   2   1   6   47.15    1.78
   2   1   6   45.87    1.90
   2   1   6   48.86    1.88
  -3  -1  -6   24.41    1.33
  -3  -1  -6   24.69    1.38
   3   1   6   23.96    1.28
   3   1   6   20.92    1.07
   3   1   6   18.99    0.71
   3   1   6   23.75    1.44
  -4  -1  -6    8.39    1.15
  -4  -1  -6    9.41    1.13
   4   1   6    9.65    1.65
   4   1   6    9.80    0.93
   4   1   6   12.24    1.00
  -5  -1  -6   -0.57    0.82
  -5  -1  -6    1.30    0.84
   5   1   6    2.82    1.59
   5   1   6    1.74    0.93
  -6  -1  -6    2.10    1.06
  -6  -1  -6    4.32    1.16
  -6  -1  -6    3.14    1.15
   6   1   6    2.00    1.27
  -7  -1  -6    0.76    1.45
  -7  -1  -6    0.10    1.27
   7   1   6    0.54    1.94
   9  -2  -6   -0.66    2.48
   8  -2  -6    5.67    1.54
   8  -2  -6    6.09    1.90
  -8   2   6    2.80    0.80
  -8   2   6    3.17    0.89
   7  -2  -6    2.77    1.23
   7  -2  -6    4.74    1.29
   7  -2  -6    0.45    1.46
   7  -2  -6    2.83    0.76
  -7   2   6    3.36    0.72
  -7   2   6    3.11    0.65
  -7   2   6    3.35    0.67
  -7   2   6    3.31    0.67
   6  -2  -6    0.14    0.88
   6  -2  -6    0.28    0.57
   6  -2  -6   -1.19    1.45
   6  -2  -6    0.55    0.75
  -6   2   6    0.48    0.47
  -6   2   6    0.40    0.39
  -6   2   6   -0.06    0.43
  -6   2   6   -0.46    0.28
  -6   2   6   -0.03    0.42
   5  -2  -6    8.46    1.26
   5  -2  -6    6.61    0.70
   5  -2  -6    9.99    1.31
   5  -2  -6    9.10    1.26
  -5   2   6    8.33    0.74
  -5   2   6    9.05    0.66
  -5   2   6    7.40    0.74
  -5   2   6    8.15    0.51
  -5   2   6    8.04    0.41
   4  -2  -6   12.65    1.35
   4  -2  -6   12.76    1.07
   4  -2  -6   12.88    0.65
   4  -2  -6   12.18    1.22
  -4   2   6   13.33    0.80
  -4   2   6   13.14    0.63
  -4   2   6   13.10    0.84
  -4   2   6   12.65    0.42
  -4   2   6   12.13    0.53
   3  -2  -6   72.08    2.12
   3  -2  -6   74.59    2.88
   3  -2  -6   68.10    2.51
   3  -2  -6   70.10    2.83
  -3   2   6   71.82    2.30
  -3   2   6   73.73    2.08
  -3   2   6   73.50    2.24
  -3   2   6   73.36    2.31
   2  -2  -6  138.81    4.51
   2  -2  -6  135.85    4.12
   2  -2  -6  134.57    3.87
   2  -2  -6  137.24    4.16
   2  -2  -6  135.31    3.69
  -2   2   6  129.29    3.90
  -2   2   6  133.74    3.85
  -2   2   6  134.56    3.95
   1  -2  -6   70.32    2.73
   1  -2  -6   72.23    2.50
   1  -2  -6   72.28    2.01
   1  -2  -6   76.57    2.06
   1  -2  -6   73.15    2.24
  -1   2   6   69.53    2.20
  -1   2   6   68.44    2.24
  -1   2   6   73.47    2.22
   0  -2  -6  163.32    4.95
   0  -2  -6  162.12    4.73
   0  -2  -6  165.99    4.55
   0   2   6  160.98    4.71
   0   2   6  165.27    4.59
   0   2   6  160.12    4.64
   0   2   6  158.54    4.69
  -1  -2  -6    0.78    0.41
  -1  -2  -6    0.08    0.68
   1   2   6    0.36    0.50
   1   2   6   -0.20    0.30
   1   2   6    0.47    0.20
  -2  -2  -6   -0.52    0.44
  -2  -2  -6   -0.11    0.59
   2   2   6    0.65    0.51
   2   2   6   -0.15    0.44
   2   2   6    0.03    0.19
  -3  -2  -6    2.09    0.70
  -3  -2  -6    1.74    0.61
   3   2   6    2.00    0.70
   3   2   6    1.70    0.54
  -4  -2  -6   14.60    1.27
  -4  -2  -6   14.15    1.39
   4   2   6   12.27    1.16
   4   2   6   13.95    1.37
   4   2   6   13.53    1.37
  -5  -2  -6    2.69    0.96
  -5  -2  -6    1.04    0.86
  -5  -2  -6    2.38    0.92
   5   2   6    2.13    1.01
   5   2   6    3.83    1.00
  -6  -2  -6    7.60    1.40
  -6  -2  -6    7.79    1.26
  -6  -2  -6    9.45    1.61
   6   2   6    7.29    1.64
  -7  -2  -6    2.61    1.57
  -7  -2  -6    1.18    1.41
   7   2   6    0.04    1.89
   9  -3  -6    0.25    2.01
   9  -3  -6   -1.58    2.66
   8  -3  -6    2.92    1.64
   8  -3  -6   -0.63    1.84
  -8   3   6    2.56    1.02
   7  -3  -6    9.42    1.73
   7  -3  -6   13.35    1.85
   7  -3  -6   10.54    1.95
   7  -3  -6   11.58    1.24
  -7   3   6   12.23    1.20
  -7   3   6   12.00    1.00
  -7   3   6   10.08    1.06
  -7   3   6   11.80    1.10
   6  -3  -6   16.24    1.12
   6  -3  -6   17.19    1.55
   6  -3  -6   17.40    1.91
   6  -3  -6   19.19    1.89
  -6   3   6   16.71    1.04
  -6   3   6   17.07    0.96
  -6   3   6   17.82    1.11
  -6   3   6   16.92    0.97
   5  -3  -6   33.14    1.86
   5  -3  -6   36.51    2.09
   5  -3  -6   35.35    1.46
   5  -3  -6   34.54    2.08
  -5   3   6   35.39    1.44
  -5   3   6   34.54    1.22
  -5   3   6   34.05    1.42
   4  -3  -6   66.96    2.86
   4  -3  -6   62.29    2.21
   4  -3  -6   67.65    2.66
   4  -3  -6   63.79    2.77
  -4   3   6   66.87    2.21
  -4   3   6   68.29    1.99
  -4   3   6   65.63    2.42
   3  -3  -6   22.75    1.58
   3  -3  -6   22.25    1.34
   3  -3  -6   22.03    0.85
  -3   3   6   21.89    1.03
  -3   3   6   22.94    0.85
   2  -3  -6   28.17    0.93
   2  -3  -6   26.68    1.40
   2  -3  -6   26.87    1.75
   2  -3  -6   29.38    1.06
  -2   3   6   27.21    0.93
  -2   3   6   25.16    1.09
  -2   3   6   28.04    1.00
   1  -3  -6    6.15    0.97
   1  -3  -6    7.02    0.33
   1  -3  -6    7.47    0.32
   1  -3  -6    6.37    0.54
  -1   3   6    6.04    0.54
  -1   3   6    6.99    0.40
  -1   3   6    5.69    0.52
   0  -3  -6   18.62    1.33
   0  -3  -6   18.19    1.01
   0  -3  -6   19.84    0.78
   0  -3  -6   20.37    1.39
   0   3   6   18.93    0.84
   0   3   6   18.79    0.81
   0   3   6   19.90    0.95
   0   3   6   20.56    1.08
  -1  -3  -6   43.16    1.54
  -1  -3  -6   43.76    1.77
  -1  -3  -6   41.93    1.92
   1   3   6   41.13    1.58
   1   3   6   42.29    1.71
   1   3   6   42.25    1.43
  -2  -3  -6   28.77    1.43
  -2  -3  -6   28.13    1.53
  -2  -3  -6   28.46    1.33
   2   3   6   26.95    1.38
   2   3   6   27.12    1.40
   2   3   6   27.12    1.05
  -3  -3  -6   21.91    1.26
  -3  -3  -6   21.70    1.39
  -3  -3  -6   20.92    1.42
   3   3   6   23.08    1.34
   3   3   6   21.94    1.45
   3   3   6   17.18    0.85
  -4  -3  -6   15.64    1.39
  -4  -3  -6   15.36    1.29
  -4  -3  -6   14.75    1.45
   4   3   6   10.87    1.33
   4   3   6   16.87    1.41
   4   3   6   16.04    1.51
  -5  -3  -6    1.72    1.42
  -5  -3  -6    0.25    1.10
  -5  -3  -6    1.10    1.07
   5   3   6   -0.29    1.11
   5   3   6    0.55    0.98
  -6  -3  -6   -1.65    0.99
  -6  -3  -6   -1.06    1.39
  -6  -3  -6    1.43    1.18
   6   3   6    0.89    1.51
  -7  -3  -6   -1.52    1.72
  -7  -3  -6    1.96    1.66
   7   3   6   -2.79    1.93
   9  -4  -6   -0.35    2.25
   8  -4  -6    2.20    1.54
   8  -4  -6    1.85    1.70
   8  -4  -6    3.63    1.73
   7  -4  -6    9.00    1.90
   7  -4  -6    7.25    1.56
   7  -4  -6    8.12    1.03
  -7   4   6    6.14    1.09
  -7   4   6    6.45    1.30
  -7   4   6    6.93    0.85
   6  -4  -6    9.56    1.51
   6  -4  -6    8.45    1.01
   6  -4  -6   10.43    1.49
  -6   4   6    8.63    0.92
  -6   4   6    8.31    0.85
   5  -4  -6    0.91    0.56
   5  -4  -6   -0.27    0.73
   5  -4  -6    1.09    0.87
  -5   4   6    0.89    0.47
  -5   4   6    1.65    0.51
  -5   4   6    1.01    0.27
   4  -4  -6    2.07    0.83
   4  -4  -6    2.13    0.41
   4  -4  -6    1.43    0.83
  -4   4   6    1.74    0.48
  -4   4   6    2.43    0.30
  -4   4   6    2.05    0.48
   3  -4  -6    9.26    0.57
   3  -4  -6    8.53    1.08
   3  -4  -6    8.12    1.24
  -3   4   6    8.07    0.47
  -3   4   6    6.47    0.70
  -3   4   6    7.31    0.47
  -3   4   6    7.03    0.68
   2  -4  -6   37.83    1.27
   2  -4  -6   35.37    2.00
   2  -4  -6   36.63    1.80
   2  -4  -6   36.08    1.38
  -2   4   6   36.35    1.44
  -2   4   6   36.41    1.24
  -2   4   6   35.79    1.38
   1  -4  -6   60.51    2.62
   1  -4  -6   56.42    1.68
   1  -4  -6   56.61    2.25
   1  -4  -6   57.64    2.01
  -1   4   6   55.20    2.00
  -1   4   6   58.90    1.89
  -1   4   6   58.04    1.92
   0  -4  -6   92.90    3.26
   0  -4  -6   92.36    2.80
   0  -4  -6   94.47    3.11
   0   4   6   93.51    2.85
   0   4   6   96.91    2.94
   0   4   6   89.75    3.02
   0   4   6   93.18    2.75
  -1  -4  -6   58.07    2.36
  -1  -4  -6   59.72    2.53
  -1  -4  -6   56.49    2.21
  -1  -4  -6   58.77    2.03
   1   4   6   60.60    2.21
  -2  -4  -6    1.28    0.71
  -2  -4  -6    0.83    0.61
  -2  -4  -6    0.30    0.50
   2   4   6    0.95    0.39
   2   4   6    0.62    0.57
   2   4   6    0.37    0.50
  -3  -4  -6    0.01    0.70
  -3  -4  -6    0.32    0.66
  -3  -4  -6    0.53    0.60
   3   4   6   -0.58    0.41
   3   4   6    0.66    0.71
   3   4   6    0.44    0.65
  -4  -4  -6    0.37    0.84
  -4  -4  -6    1.15    0.86
  -4  -4  -6   -0.13    0.72
   4   4   6    0.59    0.82
   4   4   6    0.65    0.96
   4   4   6    0.46    0.84
  -5  -4  -6    2.26    1.17
  -5  -4  -6    1.02    1.05
  -5  -4  -6    0.32    0.87
   5   4   6    1.84    1.30
   5   4   6    1.72    1.32
  -6  -4  -6    0.21    1.16
  -6  -4  -6    0.42    1.32
   6   4   6    0.89    1.59
   8  -5  -6    0.03    1.60
   8  -5  -6    1.69    1.78
  -8   5   6   -0.22    1.14
  -8   5   6   -0.15    0.85
   7  -5  -6    2.07    1.60
   7  -5  -6    1.44    0.85
   7  -5  -6    2.80    1.55
  -7   5   6    0.98    0.71
  -7   5   6    0.48    0.71
  -7   5   6    0.35    1.04
   6  -5  -6    2.74    1.38
   6  -5  -6    6.24    1.42
   6  -5  -6    3.59    0.79
  -6   5   6    4.60    0.70
  -6   5   6    4.00    0.69
  -6   5   6    5.18    0.93
   5  -5  -6   23.13    1.48
   5  -5  -6   20.92    1.93
   5  -5  -6   24.42    1.85
  -5   5   6   21.92    1.18
  -5   5   6   21.95    1.19
   4  -5  -6   35.42    1.43
   4  -5  -6   33.58    2.11
   4  -5  -6   35.58    1.99
  -4   5   6   33.00    1.42
  -4   5   6   33.02    1.09
  -4   5   6   33.31    1.40
   3  -5  -6   41.48    2.01
   3  -5  -6   35.89    2.06
   3  -5  -6   38.75    1.60
   3  -5  -6   41.40    1.61
  -3   5   6   38.23    1.53
  -3   5   6   36.59    1.48
  -3   5   6   36.80    1.23
   2  -5  -6   10.95    1.27
   2  -5  -6   11.23    1.14
   2  -5  -6   12.02    0.93
   2  -5  -6   14.36    0.75
  -2   5   6   11.81    0.85
  -2   5   6   12.88    0.63
  -2   5   6   11.90    0.79
   1  -5  -6    3.78    0.89
   1  -5  -6    3.45    0.68
   1  -5  -6    3.14    0.29
   1  -5  -6    1.81    0.66
  -1   5   6    2.64    0.59
  -1   5   6    2.32    0.44
   0  -5  -6    0.61    0.86
   0  -5  -6    0.03    0.68
   0  -5  -6    0.42    0.49
   0  -5  -6   -0.45    0.24
   0   5   6   -0.35    0.21
   0   5   6   -0.25    0.36
   0   5   6    0.04    0.46
  -1  -5  -6    1.46    0.57
  -1  -5  -6    3.51    0.61
  -1  -5  -6    2.15    1.02
  -1  -5  -6    2.46    0.80
   1   5   6    1.01    0.50
   1   5   6    1.72    0.44
   1   5   6    2.42    0.45
  -2  -5  -6   14.27    1.38
  -2  -5  -6   14.37    1.03
  -2  -5  -6   12.96    1.22
  -2  -5  -6   12.46    1.61
   2   5   6   14.23    0.90
   2   5   6   14.02    1.22
   2   5   6   12.70    1.30
  -3  -5  -6    9.89    1.48
  -3  -5  -6   10.72    1.30
  -3  -5  -6   10.04    1.27
  -3  -5  -6   11.94    1.12
   3   5   6    8.91    1.11
   3   5   6    7.99    0.91
   3   5   6    9.31    1.17
  -4  -5  -6    7.72    1.15
  -4  -5  -6    6.97    1.28
   4   5   6   12.03    1.62
   4   5   6    6.97    1.18
   4   5   6    6.12    1.40
  -5  -5  -6    4.94    1.29
  -5  -5  -6    2.59    1.13
  -5  -5  -6    1.74    1.56
   5   5   6    1.67    1.80
   5   5   6    3.55    1.76
  -6  -5  -6    1.08    1.45
  -6  -5  -6   -0.29    1.39
   6   5   6   -0.15    1.70
   8  -6  -6    1.68    2.12
   8  -6  -6    3.04    2.05
  -8   6   6    4.84    1.30
  -8   6   6    2.39    0.91
   7  -6  -6    6.40    1.84
   7  -6  -6    7.30    1.75
  -7   6   6    5.15    1.15
  -7   6   6    6.77    1.17
   6  -6  -6    4.54    1.89
   6  -6  -6    4.78    1.56
   6  -6  -6    4.86    0.94
  -6   6   6    5.09    1.01
  -6   6   6    5.27    0.80
  -6   6   6    3.64    0.70
   5  -6  -6    7.44    1.37
   5  -6  -6    6.38    0.93
   5  -6  -6    7.16    1.36
  -5   6   6    6.70    0.75
  -5   6   6    6.23    0.73
   4  -6  -6    1.35    0.96
   4  -6  -6    1.96    1.00
   4  -6  -6   -0.05    0.55
  -4   6   6   -0.68    0.46
  -4   6   6    0.73    0.47
   3  -6  -6    2.71    1.01
   3  -6  -6    3.77    0.59
   3  -6  -6    3.63    0.92
   3  -6  -6    3.58    0.76
  -3   6   6    2.97    0.58
  -3   6   6    3.26    0.57
   2  -6  -6    4.60    0.75
   2  -6  -6    6.39    1.21
   2  -6  -6    5.71    1.07
   2  -6  -6    5.42    0.71
  -2   6   6    5.03    0.62
  -2   6   6    5.98    0.71
   1  -6  -6   13.73    0.78
   1  -6  -6   19.05    1.17
   1  -6  -6   16.32    1.48
   1  -6  -6   16.28    1.57
  -1   6   6   16.30    0.93
  -1   6   6   17.16    1.11
   0  -6  -6   23.86    1.73
   0  -6  -6   21.69    1.49
   0  -6  -6   22.43    1.00
   0  -6  -6   22.08    1.36
   0   6   6   23.13    1.12
   0   6   6   25.79    1.75
  -1  -6  -6   18.44    1.13
  -1  -6  -6   17.83    1.40
  -1  -6  -6   21.89    1.55
  -1  -6  -6   21.04    1.75
   1   6   6   20.15    1.39
   1   6   6   19.17    1.04
   1   6   6   17.95    0.87
  -2  -6  -6    6.87    1.04
  -2  -6  -6    9.02    1.21
  -2  -6  -6    7.92    1.35
  -2  -6  -6    7.60    0.96
   2   6   6    9.46    1.14
   2   6   6    8.21    1.40
   2   6   6    6.77    0.82
  -3  -6  -6    2.00    1.06
  -3  -6  -6    2.72    1.04
  -3  -6  -6    2.19    0.77
   3   6   6    3.44    1.08
   3   6   6    2.04    0.69
   3   6   6    2.55    0.97
  -4  -6  -6    1.54    1.26
  -4  -6  -6    0.57    1.02
  -4  -6  -6   -0.99    0.91
   4   6   6    0.41    1.11
   4   6   6   -0.83    1.06
   4   6   6   -0.04    1.50
  -5  -6  -6    1.68    1.11
  -5  -6  -6    0.35    1.34
   5   6   6   -1.49    2.01
   5   6   6   -2.38    1.41
   8  -7  -6   -0.22    2.41
   8  -7  -6    1.12    2.32
  -8   7   6   -1.10    1.85
  -8   7   6    0.62    1.38
  -8   7   6    0.04    1.16
   7  -7  -6    0.83    1.58
   7  -7  -6   -1.34    1.78
  -7   7   6    1.13    0.78
  -7   7   6    1.14    1.13
   6  -7  -6    1.91    1.78
   6  -7  -6    0.38    1.43
  -6   7   6    1.27    1.18
  -6   7   6    0.01    1.04
  -6   7   6   -0.23    0.63
   5  -7  -6    0.87    0.83
   5  -7  -6    2.46    1.40
   5  -7  -6    2.61    1.44
  -5   7   6    1.62    0.78
  -5   7   6    1.97    0.62
  -5   7   6    1.22    0.63
   4  -7  -6   30.56    2.19
   4  -7  -6   26.84    1.61
   4  -7  -6   26.57    2.18
  -4   7   6   24.86    1.95
  -4   7   6   26.14    1.32
  -4   7   6   26.34    1.55
   3  -7  -6    6.75    1.44
   3  -7  -6    5.83    0.85
   3  -7  -6    5.15    1.26
   3  -7  -6    5.45    1.00
  -3   7   6    5.19    0.65
  -3   7   6    4.12    0.67
   2  -7  -6   11.51    1.11
   2  -7  -6   10.89    1.43
   2  -7  -6   12.25    2.70
  -2   7   6    9.81    0.83
  -2   7   6   10.51    1.16
   1  -7  -6    3.46    1.12
   1  -7  -6    2.21    0.68
   1  -7  -6    2.94    0.99
   1  -7  -6    2.70    0.36
  -1   7   6    2.70    0.66
  -1   7   6    3.84    0.61
   0  -7  -6    0.70    0.64
   0  -7  -6    1.04    0.46
   0   7   6    0.64    0.63
   0   7   6    0.95    0.50
  -1  -7  -6    4.23    0.62
  -1  -7  -6    5.66    1.12
  -1  -7  -6    3.14    1.25
  -1  -7  -6    2.45    0.92
   1   7   6    5.38    0.67
   1   7   6    5.49    0.76
   1   7   6    3.89    0.89
  -2  -7  -6    6.11    0.83
  -2  -7  -6    6.12    1.18
  -2  -7  -6    7.06    1.18
   2   7   6    7.93    0.96
   2   7   6    8.70    1.24
  -3  -7  -6    1.12    1.23
  -3  -7  -6    1.87    0.86
  -3  -7  -6    1.69    0.99
   3   7   6    2.56    0.81
   3   7   6    2.16    1.11
  -4  -7  -6    3.69    1.29
  -4  -7  -6    0.89    0.99
   4   7   6    1.98    1.30
   4   7   6    0.57    1.78
  -5  -7  -6    2.63    1.37
  -5  -7  -6   -0.63    1.58
   5   7   6   -0.23    2.70
   7  -8  -6    2.73    2.22
   7  -8  -6    4.34    2.26
  -7   8   6    1.46    0.94
  -7   8   6   -1.44    1.13
   6  -8  -6    3.58    1.89
   6  -8  -6    3.07    2.00
  -6   8   6    4.50    1.09
  -6   8   6    1.58    0.83
   5  -8  -6    1.89    1.49
   5  -8  -6   -0.43    1.73
  -5   8   6    1.44    0.90
  -5   8   6   -0.13    0.89
  -5   8   6    1.13    0.86
   4  -8  -6    9.10    1.82
   4  -8  -6    6.34    1.77
   4  -8  -6   10.88    1.31
  -4   8   6    8.34    1.12
  -4   8   6    7.09    0.87
  -4   8   6    7.48    0.91
   3  -8  -6    2.44    0.87
   3  -8  -6    3.36    0.82
   3  -8  -6    1.88    1.16
   3  -8  -6    1.98    1.30
  -3   8   6    1.73    0.70
  -3   8   6    1.49    0.67
  -3   8   6    1.43    0.62
   2  -8  -6   -0.66    1.06
   2  -8  -6    1.46    0.79
   2  -8  -6    0.37    0.71
   2  -8  -6    2.25    1.14
  -2   8   6   -0.14    0.55
  -2   8   6    1.17    0.66
  -2   8   6    0.15    0.56
   1  -8  -6   -0.83    0.74
   1  -8  -6    0.96    1.17
   1  -8  -6   -0.04    1.05
  -1   8   6    1.15    0.72
  -1   8   6    1.05    0.55
  -1   8   6    1.23    0.69
   0  -8  -6    7.94    0.85
   0  -8  -6    8.81    1.16
   0  -8  -6    8.62    1.42
   0   8   6    8.84    1.01
   0   8   6    7.68    0.92
   0   8   6    6.45    0.97
  -1  -8  -6    0.74    0.67
  -1  -8  -6   -0.43    0.78
  -1  -8  -6   -0.73    1.17
   1   8   6    1.35    0.91
   1   8   6    0.47    0.55
   1   8   6    0.52    0.63
  -2  -8  -6    2.71    0.74
  -2  -8  -6    2.28    1.03
   2   8   6    0.86    1.00
   2   8   6    1.25    0.77
  -3  -8  -6    2.26    1.10
  -3  -8  -6    2.07    1.07
   3   8   6    2.55    1.00
   3   8   6    3.59    1.30
  -4  -8  -6   -0.38    1.38
  -4  -8  -6    1.86    1.15
   4   8   6    0.50    2.23
   4   8   6   -1.34    1.56
   7  -9  -6   -2.72    2.33
   7  -9  -6    8.09    2.96
  -7   9   6    1.02    1.48
  -7   9   6   -0.68    1.01
   6  -9  -6    0.68    1.95
   6  -9  -6   -0.69    1.88
  -6   9   6    0.52    1.15
  -6   9   6    0.14    0.89
   5  -9  -6   -0.48    1.88
   5  -9  -6   -1.01    1.72
  -5   9   6    0.23    0.74
  -5   9   6    0.93    0.94
   4  -9  -6    1.69    1.66
   4  -9  -6    0.44    1.54
  -4   9   6    2.80    0.79
  -4   9   6    2.25    0.86
  -4   9   6    2.17    0.79
   3  -9  -6    2.70    1.80
   3  -9  -6    5.37    1.01
   3  -9  -6    2.72    1.00
  -3   9   6    2.09    1.01
  -3   9   6    4.28    0.89
   2  -9  -6    0.70    1.16
   2  -9  -6    2.03    1.44
   2  -9  -6    1.16    0.81
   2  -9  -6    1.15    1.52
  -2   9   6    1.06    0.83
  -2   9   6    1.69    0.76
  -2   9   6    1.05    0.66
   1  -9  -6    2.33    1.49
   1  -9  -6    0.66    1.60
   1  -9  -6    3.01    1.00
  -1   9   6    2.13    0.71
  -1   9   6    2.10    0.90
  -1   9   6    1.79    0.71
   0  -9  -6    0.72    1.81
   0  -9  -6    2.47    1.64
   0  -9  -6    0.96    0.97
   0   9   6    0.26    0.67
   0   9   6    2.22    1.06
   0   9   6    3.22    0.84
  -1  -9  -6    0.25    0.97
   1   9   6    0.76    0.75
   1   9   6    0.26    0.92
   1   9   6    0.41    0.75
  -2  -9  -6   -0.27    1.02
  -2  -9  -6   -0.75    0.91
   2   9   6   -0.04    1.20
   2   9   6    0.43    0.91
  -3  -9  -6   -0.55    1.25
  -3  -9  -6    1.14    1.14
   3   9   6    3.16    1.61
  -4  -9  -6    1.51    1.43
  -4  -9  -6   -0.19    1.79
   4   9   6   -4.20    2.84
   6 -10  -6    0.84    2.53
   6 -10  -6    4.01    2.78
  -6  10   6   -0.31    1.28
  -6  10   6    0.64    1.05
   5 -10  -6    0.48    2.04
   5 -10  -6    1.93    2.38
  -5  10   6    0.84    0.87
  -5  10   6    0.41    1.23
   4 -10  -6    3.13    1.95
   4 -10  -6   -0.61    2.07
  -4  10   6    0.95    0.79
  -4  10   6    1.76    1.18
  -4  10   6   -0.30    1.11
   3 -10  -6   -0.39    1.97
   3 -10  -6    0.63    3.06
  -3  10   6    1.33    0.78
  -3  10   6    3.03    0.99
  -3  10   6    1.31    0.86
   2 -10  -6    0.08    1.69
   2 -10  -6   -1.13    3.30
  -2  10   6    0.23    0.74
  -2  10   6    0.10    1.02
   1 -10  -6    0.98    1.85
   1 -10  -6   -1.18    1.02
   1 -10  -6   -1.90    1.02
   1 -10  -6   -0.96    1.77
  -1  10   6    1.21    0.74
  -1  10   6    0.04    0.94
   0 -10  -6    1.01    1.87
   0 -10  -6   -0.05    1.10
   0  10   6   -0.37    0.74
   0  10   6    0.14    1.10
   0  10   6    0.16    1.05
  -1 -10  -6   -0.43    1.17
  -1 -10  -6    2.90    2.19
   1  10   6    2.52    0.91
   1  10   6   -2.84    1.19
  -2 -10  -6    1.75    1.31
   2  10   6    1.94    1.60
   2  10   6   -1.32    1.00
  -3 -10  -6   -1.71    1.64
   3  10   6   -1.35    1.98
   5 -11  -6   -4.36    2.88
   5 -11  -6    3.53    2.77
  -5  11   6    0.20    1.43
  -5  11   6   -1.65    1.02
   4 -11  -6   -1.73    2.26
   4 -11  -6   -0.69    2.74
  -4  11   6    0.84    0.95
  -4  11   6   -1.61    1.32
   3 -11  -6   -3.07    4.22
   3 -11  -6    3.95    2.23
  -3  11   6    0.40    1.25
  -3  11   6    1.49    1.26
  -3  11   6    0.19    0.87
   2 -11  -6   -2.65    2.14
   2 -11  -6    1.54    1.32
   2 -11  -6   -2.35    2.47
  -2  11   6    0.33    1.27
  -2  11   6    0.10    0.80
  -2  11   6    1.68    1.19
   1 -11  -6    1.06    1.26
   1 -11  -6    0.06    2.31
  -1  11   6    0.98    1.20
  -1  11   6   -2.54    1.14
  -1  11   6    0.53    0.78
   0 -11  -6    1.59    2.51
   0 -11  -6   -0.56    1.19
   0  11   6    0.08    0.91
   0  11   6   -0.04    1.25
   0  11   6   -0.36    1.28
  -1 -11  -6    1.36    3.08
   1  11   6    0.47    1.59
   1  11   6    1.32    1.03
  -2 -11  -6   -1.11    1.82
  -2 -11  -6    0.75    3.76
   2  11   6    2.39    1.39
   2  11   6    3.63    2.08
   4 -12  -6    1.11    3.92
   3 -12  -6   -3.41    3.21
   3 -12  -6    2.14    3.45
  -3  12   6   -0.75    1.13
  -3  12   6    0.44    1.53
   2 -12  -6    2.04    1.72
   2 -12  -6    6.50    3.37
  -2  12   6    1.59    1.43
  -2  12   6    1.25    1.09
  -2  12   6   -2.40    1.37
   1 -12  -6    2.14    3.54
   1 -12  -6   -2.25    1.64
  -1  12   6    0.46    1.54
  -1  12   6    0.93    1.15
  -1  12   6    2.08    1.49
   0 -12  -6    1.64    1.90
   0 -12  -6    2.52    4.05
   0  12   6    0.51    1.25
   0  12   6   -2.83    1.70
   0  15  -7    1.91    1.47
   0  15  -7   -1.58    1.23
   0 -15   7    2.12    1.32
   0 -15   7    3.45    2.31
  -1  15  -7   -0.23    1.46
  -1  15  -7    1.80    1.30
  -1  15  -7   -0.33    1.37
   1 -15   7   -1.90    2.29
   1 -15   7    0.81    1.38
   3  14  -7    0.11    1.32
   3  14  -7    1.01    1.73
  -3 -14   7    1.25    1.31
   2  14  -7   -1.60    1.06
   2  14  -7    1.00    1.40
  -2 -14   7    1.58    1.09
   1  14  -7    0.50    1.19
   1  14  -7    0.44    1.27
   1  14  -7    2.08    1.06
  -1 -14   7   -0.49    0.89
   0  14  -7    1.35    1.27
   0  14  -7   -0.25    1.07
   0  14  -7    1.06    0.93
   0 -14   7    1.37    1.01
   0 -14   7   -0.17    2.52
  -1  14  -7   -0.26    0.99
  -1  14  -7    0.35    1.10
  -1  14  -7    1.53    1.05
   1 -14   7    0.11    1.57
   1 -14   7    0.96    1.08
  -2  14  -7    1.13    1.21
  -2  14  -7   -1.47    1.10
  -2  14  -7    0.58    1.04
   2 -14   7    2.14    1.22
   2 -14   7   -0.86    3.70
   2 -14   7    4.24    1.92
  -3  14  -7    0.39    1.38
  -3  14  -7    1.54    1.14
  -3  14  -7    0.52    1.32
   3 -14   7    1.01    2.33
   3 -14   7    3.00    2.55
   4  13  -7   -1.81    1.75
   4  13  -7    0.63    1.35
  -4 -13   7   -1.11    1.43
  -4 -13   7   -0.31    1.03
  -4 -13   7    2.32    1.19
   3  13  -7    2.56    1.41
   3  13  -7    0.43    0.99
  -3 -13   7    3.12    1.23
  -3 -13   7   -1.48    0.87
  -3 -13   7   -0.66    0.91
   2  13  -7   -0.26    0.82
   2  13  -7    1.26    1.18
   2  13  -7   -0.63    1.11
  -2 -13   7    0.85    0.85
   1  13  -7    2.98    0.88
   1  13  -7    2.41    1.15
   1  13  -7    2.80    1.02
  -1 -13   7   -0.10    0.77
   0  13  -7    1.01    0.84
   0  13  -7   -0.71    0.97
   0  13  -7   -0.33    0.94
   0  13  -7    0.30    0.91
   0 -13   7    0.40    0.86
   0 -13   7    2.55    1.31
  -1  13  -7    0.06    1.01
  -1  13  -7    1.39    0.81
  -1  13  -7   -0.89    0.85
  -1  13  -7    1.77    0.98
   1 -13   7    2.58    1.29
   1 -13   7    0.27    0.96
   1 -13   7    2.07    1.62
  -2  13  -7    0.49    0.89
  -2  13  -7    0.48    1.01
  -2  13  -7    2.07    1.06
   2 -13   7    0.21    1.42
   2 -13   7    2.16    1.11
  -3  13  -7    1.82    1.07
  -3  13  -7   -0.32    0.93
  -3  13  -7   -1.10    1.09
   3 -13   7   -1.77    1.97
   3 -13   7   -0.40    1.71
  -4  13  -7    1.64    1.20
  -4  13  -7   -1.14    1.26
   4 -13   7   -0.79    1.78
   4 -13   7    0.54    2.33
   5  12  -7   -2.91    2.02
  -5 -12   7   -0.03    1.12
  -5 -12   7    0.35    1.18
   4  12  -7   -0.33    0.92
   4  12  -7    0.77    1.34
  -4 -12   7   -0.20    1.28
  -4 -12   7   -0.68    0.87
  -4 -12   7    0.64    0.87
   3  12  -7    2.48    1.22
   3  12  -7    1.09    0.81
  -3 -12   7    0.30    0.84
  -3 -12   7    0.18    1.02
  -3 -12   7    0.75    0.76
   2  12  -7   -1.31    0.76
   2  12  -7    1.57    0.76
  -2 -12   7    0.76    0.64
  -2 -12   7    1.27    0.75
   1  12  -7    1.28    0.67
   1  12  -7    0.99    0.85
   1  12  -7    0.86    0.92
   1  12  -7    0.47    0.72
  -1 -12   7    2.16    0.78
  -1 -12   7    0.93    0.54
   0  12  -7    0.87    0.85
   0  12  -7    2.43    0.86
   0  12  -7    1.23    0.65
   0  12  -7    1.30    0.75
   0 -12   7    1.51    0.89
   0 -12   7    0.67    1.14
   0 -12   7    1.27    1.15
  -1  12  -7   -0.20    0.86
  -1  12  -7    1.60    0.95
  -1  12  -7    0.42    0.83
  -1  12  -7    0.15    0.79
   1 -12   7    0.83    0.84
   1 -12   7    0.44    1.25
   1 -12   7    1.74    1.11
  -2  12  -7    0.52    0.73
  -2  12  -7    0.37    0.82
   2 -12   7    0.44    1.22
   2 -12   7    0.06    1.09
   2 -12   7    0.97    1.00
   2 -12   7    0.68    1.50
  -3  12  -7    0.29    0.96
  -3  12  -7    0.44    0.78
  -3  12  -7    1.03    0.95
   3 -12   7    2.01    1.42
   3 -12   7    0.30    1.24
  -4  12  -7    0.55    1.00
  -4  12  -7   -1.56    1.00
   4 -12   7    0.03    1.43
   4 -12   7    2.02    1.45
   4 -12   7    1.80    2.05
  -5  12  -7   -0.89    1.23
  -5  12  -7    0.74    1.41
   5 -12   7    1.03    2.25
   5 -12   7    2.00    2.03
   6  11  -7    2.33    3.12
  -6 -11   7   -0.52    1.33
  -6 -11   7    2.20    1.33
   5  11  -7    0.77    1.53
  -5 -11   7    0.27    1.25
  -5 -11   7    1.29    0.97
  -5 -11   7   -0.20    0.90
   4  11  -7    0.42    1.27
   4  11  -7   -0.62    0.80
  -4 -11   7   -0.69    0.89
  -4 -11   7   -1.17    0.78
  -4 -11   7    1.19    0.82
   3  11  -7   -0.47    1.61
   3  11  -7   -0.78    0.86
   3  11  -7    0.86    1.13
  -3 -11   7    0.02    0.67
  -3 -11   7    0.83    0.94
  -3 -11   7   -0.05    0.66
   2  11  -7    0.66    0.66
   2  11  -7    0.78    0.71
   2  11  -7   -0.52    0.76
  -2 -11   7    0.40    0.72
  -2 -11   7    0.16    0.54
  -2 -11   7    1.03    0.78
   1  11  -7    1.56    0.76
   1  11  -7    1.48    0.73
   1  11  -7    1.46    0.68
   1  11  -7    2.59    0.58
  -1 -11   7    1.59    0.62
  -1 -11   7    1.84    0.53
   0  11  -7    6.85    0.98
   0  11  -7    6.11    0.82
   0  11  -7    8.13    0.97
   0  11  -7    8.32    1.02
   0 -11   7    7.88    0.78
   0 -11   7    8.52    1.16
   0 -11   7    8.05    1.22
   0 -11   7    6.73    0.86
  -1  11  -7    5.15    0.81
  -1  11  -7    6.09    0.97
  -1  11  -7    4.95    0.89
  -1  11  -7    4.21    0.67
   1 -11   7    4.40    0.99
   1 -11   7    4.67    0.86
   1 -11   7    5.53    1.17
  -2  11  -7    3.46    0.92
  -2  11  -7    4.11    0.95
  -2  11  -7    3.09    0.67
   2 -11   7    4.00    1.25
   2 -11   7    5.94    1.15
   2 -11   7    1.96    1.11
   2 -11   7    5.09    1.03
  -3  11  -7    4.26    0.96
  -3  11  -7    3.29    1.65
  -3  11  -7    3.04    0.65
   3 -11   7    5.18    1.57
   3 -11   7    3.16    1.28
  -4  11  -7    0.65    0.89
  -4  11  -7   -0.37    0.96
   4 -11   7   -0.83    1.69
   4 -11   7    0.16    1.31
   4 -11   7   -0.93    1.22
  -5  11  -7    0.84    1.07
  -5  11  -7   -0.37    1.17
   5 -11   7    0.11    1.70
   5 -11   7   -0.50    1.92
   5 -11   7    2.58    1.51
  -6  11  -7   -0.78    1.77
  -6  11  -7   -3.37    1.30
   6 -11   7    2.94    1.89
   6 -11   7    2.78    2.48
   6 -11   7   -1.72    2.40
   6  10  -7   -1.70    1.93
  -6 -10   7   -0.60    1.03
  -6 -10   7   -0.39    1.06
   5  10  -7   -0.27    1.27
  -5 -10   7    0.56    0.85
  -5 -10   7   -0.51    0.96
  -5 -10   7    0.73    0.81
   4  10  -7    0.36    1.34
   4  10  -7   -0.35    0.74
  -4 -10   7    0.02    0.73
  -4 -10   7   -0.70    1.02
  -4 -10   7    0.60    0.76
   3  10  -7    0.05    0.74
   3  10  -7    0.39    0.69
   3  10  -7    1.33    0.89
  -3 -10   7    1.75    0.70
  -3 -10   7    1.43    0.69
  -3 -10   7    1.41    0.62
   2  10  -7    5.88    0.83
   2  10  -7    5.15    0.93
   2  10  -7    6.08    0.80
   2  10  -7    5.19    0.63
  -2 -10   7    4.84    0.70
  -2 -10   7    4.90    0.80
  -2 -10   7    5.77    0.70
   1  10  -7    4.20    0.64
   1  10  -7    4.52    0.82
   1  10  -7    2.76    0.67
   1  10  -7    3.90    0.61
  -1 -10   7    4.04    0.78
  -1 -10   7    3.64    0.53
  -1 -10   7    3.58    0.66
   0  10  -7    2.50    0.59
   0  10  -7    1.56    0.64
   0  10  -7    1.95    0.67
   0  10  -7    1.80    0.58
   0 -10   7    2.79    0.73
   0 -10   7    2.40    0.60
   0 -10   7    2.69    0.92
   0 -10   7    2.14    0.48
  -1  10  -7   12.29    1.01
  -1  10  -7   12.84    1.09
  -1  10  -7   12.63    0.95
  -1  10  -7   15.65    1.07
   1 -10   7   13.36    1.06
   1 -10   7   13.33    1.26
   1 -10   7   13.14    0.99
   1 -10   7   12.03    1.36
  -2  10  -7    0.63    0.70
  -2  10  -7   -0.39    0.44
  -2  10  -7    0.04    1.00
  -2  10  -7    0.45    0.61
   2 -10   7    2.03    0.94
   2 -10   7    0.07    0.73
   2 -10   7   -0.65    0.63
   2 -10   7   -0.50    0.92
  -3  10  -7    1.13    0.83
  -3  10  -7    0.32    0.71
  -3  10  -7    1.37    0.59
   3 -10   7    1.14    1.10
   3 -10   7    1.96    1.19
   3 -10   7   -1.18    0.90
  -4  10  -7   -1.09    1.31
  -4  10  -7    2.42    1.12
   4 -10   7    0.42    1.20
   4 -10   7   -0.50    1.20
   4 -10   7    1.63    1.43
  -5  10  -7    3.33    1.39
  -5  10  -7    2.52    1.16
   5 -10   7    4.08    1.49
   5 -10   7    1.17    1.39
   5 -10   7   -0.03    1.62
  -6  10  -7    1.40    1.34
  -6  10  -7    2.58    1.28
   6 -10   7    0.73    2.06
   6 -10   7    0.90    1.73
   6 -10   7    2.60    1.99
   7   9  -7    5.24    2.68
  -7  -9   7    1.00    1.23
  -7  -9   7   -0.14    1.38
   6   9  -7   -0.58    1.61
  -6  -9   7    2.41    0.95
  -6  -9   7    0.30    0.92
   5   9  -7    5.14    1.32
  -5  -9   7    2.64    0.85
  -5  -9   7    2.37    0.73
  -5  -9   7    2.97    0.81
   4   9  -7    4.64    0.87
   4   9  -7    5.74    1.19
  -4  -9   7    4.11    0.74
  -4  -9   7    4.43    0.81
  -4  -9   7    4.31    0.78
   3   9  -7    2.80    0.64
   3   9  -7    2.13    0.90
   3   9  -7    3.23    0.75
  -3  -9   7    3.03    0.62
  -3  -9   7    2.95    0.65
  -3  -9   7    2.11    0.61
   2   9  -7   -0.04    0.53
   2   9  -7    0.40    0.67
   2   9  -7   -0.14    0.47
   2   9  -7    0.37    0.29
  -2  -9   7   -0.33    0.42
  -2  -9   7   -0.04    0.50
  -2  -9   7   -0.11    0.41
   1   9  -7    0.34    0.57
   1   9  -7    0.49    0.47
   1   9  -7   -0.26    0.49
   1   9  -7   -0.18    0.42
  -1  -9   7    0.34    0.41
  -1  -9   7   -0.01    0.36
  -1  -9   7   -0.20    0.43
   0   9  -7   18.27    1.06
   0   9  -7   19.99    1.17
   0   9  -7   17.36    1.09
   0   9  -7   16.68    1.01
   0  -9   7   17.80    1.15
   0  -9   7   17.05    0.94
   0  -9   7   17.37    1.04
   0  -9   7   17.05    1.18
  -1   9  -7   10.28    0.89
  -1   9  -7    9.40    0.90
  -1   9  -7    9.32    0.76
  -1   9  -7    8.45    0.73
   1  -9   7    9.75    1.21
   1  -9   7    8.98    0.45
   1  -9   7    8.59    1.02
   1  -9   7    8.66    0.88
   1  -9   7    8.12    0.88
  -2   9  -7   16.95    1.15
  -2   9  -7   18.81    0.99
  -2   9  -7   17.37    0.83
  -2   9  -7   19.12    1.20
   2  -9   7   20.85    1.49
   2  -9   7   18.00    1.36
   2  -9   7   23.16    1.74
   2  -9   7   18.13    1.24
  -3   9  -7   14.15    1.15
  -3   9  -7   11.09    0.88
  -3   9  -7   13.36    1.08
   3  -9   7   12.64    1.49
   3  -9   7   10.82    1.28
   3  -9   7    7.61    1.36
  -4   9  -7    9.70    1.10
  -4   9  -7    9.11    1.15
   4  -9   7   12.29    1.66
   4  -9   7    9.00    1.47
   4  -9   7    7.53    1.56
  -5   9  -7    4.64    1.11
  -5   9  -7    5.30    1.24
   5  -9   7    4.34    1.73
   5  -9   7    3.34    1.37
   5  -9   7    6.31    1.64
  -6   9  -7   -0.63    1.12
  -6   9  -7    1.51    1.12
   6  -9   7    0.67    1.55
   6  -9   7    0.60    1.52
   6  -9   7   -2.14    1.65
   7   8  -7    3.38    2.15
  -7  -8   7    1.29    1.11
  -7  -8   7    0.13    1.05
   6   8  -7    0.31    1.44
  -6  -8   7    0.05    1.17
  -6  -8   7    1.60    0.89
   5   8  -7    0.67    1.10
  -5  -8   7    1.14    0.71
  -5  -8   7    0.43    0.64
  -5  -8   7    1.57    0.67
   4   8  -7    1.73    0.86
   4   8  -7   -0.85    0.89
  -4  -8   7    1.38    0.54
  -4  -8   7    0.60    0.56
  -4  -8   7    1.11    0.53
   3   8  -7   -0.52    0.58
   3   8  -7    0.02    0.59
   3   8  -7   -0.42    0.47
  -3  -8   7    0.32    0.42
  -3  -8   7   -0.30    0.40
  -3  -8   7   -0.65    0.60
   2   8  -7    8.68    0.52
   2   8  -7    8.64    0.79
   2   8  -7    9.42    0.86
   2   8  -7    8.64    0.98
  -2  -8   7    9.17    0.89
  -2  -8   7   10.78    1.17
  -2  -8   7    8.04    0.85
  -2  -8   7    8.10    0.73
   1   8  -7    8.88    0.92
   1   8  -7    8.68    0.66
   1   8  -7    7.51    0.75
   1   8  -7    7.67    0.83
  -1  -8   7    9.53    0.76
  -1  -8   7    7.42    0.65
  -1  -8   7    8.48    0.67
   0   8  -7   18.42    0.99
   0   8  -7   17.01    0.98
   0   8  -7   19.35    1.01
   0   8  -7   17.75    1.04
   0  -8   7   20.01    1.03
   0  -8   7   17.09    1.01
   0  -8   7   18.26    0.94
   0  -8   7   19.98    1.11
  -1   8  -7   10.40    0.88
  -1   8  -7    9.81    0.76
  -1   8  -7    9.72    0.82
  -1   8  -7    9.71    0.64
   1  -8   7    9.95    0.45
   1  -8   7    8.71    0.92
   1  -8   7    9.40    0.82
  -2   8  -7   19.83    1.11
  -2   8  -7   15.95    1.04
  -2   8  -7   16.89    0.92
  -2   8  -7   16.99    0.71
   2  -8   7   16.31    1.11
   2  -8   7   14.05    1.38
   2  -8   7   16.60    1.38
   2  -8   7   14.84    1.27
  -3   8  -7    0.64    0.53
  -3   8  -7    0.64    0.55
   3  -8   7   -0.40    0.63
   3  -8   7   -0.65    0.61
   3  -8   7   -0.55    0.73
   3  -8   7    1.13    0.88
  -4   8  -7    1.36    0.71
  -4   8  -7    2.18    0.71
   4  -8   7    3.88    1.21
   4  -8   7    2.37    1.13
   4  -8   7    2.76    0.96
  -5   8  -7    0.31    1.18
  -5   8  -7   -0.29    0.90
   5  -8   7    1.71    1.26
   5  -8   7   -1.60    1.05
  -6   8  -7    4.44    1.18
  -6   8  -7    3.07    1.10
  -6   8  -7    3.45    1.18
   6  -8   7    3.98    1.63
   6  -8   7    1.75    1.44
  -7   8  -7    2.04    1.54
  -7   8  -7    0.12    1.61
   7  -8   7    3.73    2.33
   7  -8   7   -0.88    2.04
   8   7  -7    5.53    3.04
  -8  -7   7   -0.15    1.37
  -8  -7   7    0.24    1.43
   7   7  -7   -0.79    1.84
  -7  -7   7    0.96    1.01
  -7  -7   7    0.14    1.00
   6   7  -7   -0.07    1.26
  -6  -7   7    2.45    0.86
  -6  -7   7    0.07    0.99
   5   7  -7   -0.28    0.90
  -5  -7   7    0.96    0.63
  -5  -7   7    0.81    0.60
  -5  -7   7    0.90    0.65
   4   7  -7   26.05    1.87
   4   7  -7   32.07    1.82
  -4  -7   7   33.42    1.46
  -4  -7   7   30.32    1.38
  -4  -7   7   32.37    1.41
   3   7  -7   28.44    1.60
   3   7  -7   28.41    1.36
   3   7  -7   29.17    1.60
   3   7  -7   30.14    1.19
  -3  -7   7   29.96    1.31
  -3  -7   7   30.04    1.29
   2   7  -7   10.45    0.93
   2   7  -7    9.59    0.96
   2   7  -7    9.46    0.52
   2   7  -7   10.03    0.82
  -2  -7   7   11.22    0.76
  -2  -7   7   11.29    0.87
  -2  -7   7   10.12    0.78
  -2  -7   7   10.44    0.45
   1   7  -7    0.47    0.40
   1   7  -7    0.59    0.46
   1   7  -7    0.18    0.27
   1   7  -7    1.11    0.52
  -1  -7   7    1.18    0.39
  -1  -7   7    0.74    0.31
  -1  -7   7    0.57    0.40
   0   7  -7    1.69    0.52
   0   7  -7    1.33    0.44
   0   7  -7    2.24    0.42
   0  -7   7    1.95    0.52
   0  -7   7    1.36    0.47
  -1   7  -7    3.00    0.56
  -1   7  -7    3.28    0.50
  -1   7  -7    2.60    0.37
  -1   7  -7    3.14    0.54
   1  -7   7    3.15    0.53
   1  -7   7    2.94    0.28
   1  -7   7    3.04    0.62
   1  -7   7    3.43    0.50
   1  -7   7    3.50    0.67
  -2   7  -7    6.73    0.37
  -2   7  -7    7.76    0.77
  -2   7  -7    7.03    0.76
  -2   7  -7    7.21    0.56
   2  -7   7    7.27    1.04
   2  -7   7    7.92    0.88
   2  -7   7    5.71    0.98
   2  -7   7    5.44    0.99
   2  -7   7    6.83    0.87
  -3   7  -7   44.56    1.76
  -3   7  -7   43.79    1.43
  -3   7  -7   41.72    1.76
   3  -7   7   37.10    1.80
   3  -7   7   45.44    2.05
   3  -7   7   46.07    2.11
  -4   7  -7   24.39    1.41
  -4   7  -7   22.70    1.28
   4  -7   7   22.16    1.71
   4  -7   7   20.02    1.92
   4  -7   7   22.19    1.69
  -5   7  -7   14.69    1.27
  -5   7  -7   13.01    1.42
   5  -7   7   15.79    1.89
   5  -7   7   15.36    1.98
   5  -7   7   13.43    1.93
  -6   7  -7    4.46    1.08
  -6   7  -7    4.97    1.20
  -6   7  -7    3.23    1.11
   6  -7   7    4.31    1.60
   6  -7   7    4.84    1.61
  -7   7  -7    0.51    1.37
  -7   7  -7   -0.20    1.33
   7  -7   7   -1.53    1.88
   7  -7   7    2.19    2.01
   8   6  -7    1.86    2.33
  -8  -6   7   -0.95    1.15
  -8  -6   7   -0.86    1.13
   7   6  -7    1.10    1.49
  -7  -6   7    2.92    0.94
  -7  -6   7    4.64    1.06
   6   6  -7    8.03    1.56
  -6  -6   7    7.02    0.99
  -6  -6   7    8.14    1.00
   5   6  -7    1.17    0.90
  -5  -6   7    1.71    0.55
  -5  -6   7    0.74    0.50
   4   6  -7    1.98    0.58
   4   6  -7    2.34    0.78
  -4  -6   7    1.66    0.48
  -4  -6   7    1.47    0.48
  -4  -6   7    1.52    0.38
   3   6  -7    0.36    0.69
   3   6  -7    0.48    0.62
   3   6  -7    0.62    0.40
  -3  -6   7    0.74    0.37
  -3  -6   7    1.06    0.41
  -3  -6   7    0.34    0.27
   2   6  -7    0.01    0.41
   2   6  -7    0.19    0.55
   2   6  -7    0.19    0.21
   2   6  -7    0.20    0.57
  -2  -6   7    0.09    0.35
  -2  -6   7    0.07    0.33
   1   6  -7   27.27    1.02
   1   6  -7   27.33    1.21
   1   6  -7   26.73    1.19
   1   6  -7   27.89    1.28
  -1  -6   7   25.37    1.18
  -1  -6   7   28.39    0.95
  -1  -6   7   27.30    1.15
   0   6  -7   31.81    1.25
   0   6  -7   34.61    1.42
   0   6  -7   32.68    1.22
   0   6  -7   32.78    1.27
   0  -6   7   32.00    1.32
   0  -6   7   32.91    1.34
   0  -6   7   34.23    1.20
   0  -6   7   31.00    1.21
   0  -6   7   33.63    1.26
  -1   6  -7   62.11    2.12
  -1   6  -7   63.60    2.19
  -1   6  -7   61.59    1.90
  -1   6  -7   61.08    1.99
   1  -6   7   62.71    2.18
   1  -6   7   62.44    2.27
   1  -6   7   64.56    1.85
   1  -6   7   64.91    2.11
   1  -6   7   65.43    2.23
  -2   6  -7    1.23    0.28
  -2   6  -7    1.72    0.52
  -2   6  -7    0.90    0.50
   2  -6   7    0.82    0.62
   2  -6   7    1.10    0.47
   2  -6   7    1.67    0.73
   2  -6   7    1.77    0.60
  -3   6  -7   27.00    1.22
  -3   6  -7   25.48    1.27
   3  -6   7   21.91    1.41
   3  -6   7   25.74    1.49
   3  -6   7   20.41    1.63
   3  -6   7   25.67    1.53
  -4   6  -7    3.14    0.64
  -4   6  -7    4.43    0.76
   4  -6   7    5.50    1.18
   4  -6   7    4.25    0.91
   4  -6   7    4.81    1.05
  -5   6  -7   -0.56    0.77
  -5   6  -7   -0.31    0.72
  -5   6  -7    0.05    0.61
   5  -6   7    1.10    0.93
   5  -6   7   -0.07    1.14
  -6   6  -7    2.25    1.10
  -6   6  -7    0.32    0.95
  -6   6  -7   -0.52    0.79
   6  -6   7   -0.41    1.50
   6  -6   7   -0.16    1.37
  -7   6  -7    8.20    1.65
  -7   6  -7    2.65    1.46
   7  -6   7    7.39    2.11
   7  -6   7    4.73    1.98
   8   5  -7    1.13    1.98
  -8  -5   7   -0.45    1.08
  -8  -5   7   -0.67    1.07
   7   5  -7    3.97    1.56
   6   5  -7    1.49    1.12
  -6  -5   7   -0.08    0.64
  -6  -5   7    0.15    0.53
   5   5  -7    2.34    0.86
  -5  -5   7    2.01    0.56
  -5  -5   7    2.59    0.60
  -5  -5   7    2.20    0.37
   4   5  -7    6.68    0.67
   4   5  -7    7.72    0.96
   4   5  -7    7.18    1.05
  -4  -5   7    7.20    0.72
  -4  -5   7    5.90    0.68
  -4  -5   7    7.09    0.71
   3   5  -7  166.28    4.87
   3   5  -7  160.03    5.06
   3   5  -7  160.36    5.02
  -3  -5   7  161.18    4.69
  -3  -5   7  160.95    4.74
  -3  -5   7  159.85    4.58
   2   5  -7   14.53    0.66
   2   5  -7   13.55    0.99
   2   5  -7   13.53    0.97
  -2  -5   7   15.98    0.82
  -2  -5   7   15.88    0.84
   1   5  -7  113.93    3.46
   1   5  -7  111.02    3.40
   1   5  -7  111.46    3.52
  -1  -5   7  114.23    3.37
  -1  -5   7  115.19    3.33
   0   5  -7    2.01    0.41
   0   5  -7    2.06    0.36
   0   5  -7    2.36    0.34
   0   5  -7    3.16    0.88
   0  -5   7    2.74    0.40
   0  -5   7    1.82    0.25
   0  -5   7    2.00    0.41
   0  -5   7    2.19    0.38
  -1   5  -7    3.19    0.37
  -1   5  -7    3.39    0.56
  -1   5  -7    3.08    0.54
  -1   5  -7    2.65    0.28
   1  -5   7    3.77    0.51
   1  -5   7    2.78    0.57
   1  -5   7    2.13    0.28
   1  -5   7    2.56    0.50
   1  -5   7    3.20    0.56
  -2   5  -7    6.75    0.75
  -2   5  -7    6.72    0.74
   2  -5   7    6.56    0.93
   2  -5   7    7.72    0.92
   2  -5   7    5.22    0.34
   2  -5   7    7.18    1.10
  -3   5  -7   35.62    1.47
  -3   5  -7   35.42    1.53
   3  -5   7   33.27    1.61
   3  -5   7   30.63    1.88
   3  -5   7   34.75    1.71
  -4   5  -7   15.89    1.07
  -4   5  -7   17.54    1.17
   4  -5   7   16.51    1.64
   4  -5   7   18.38    1.40
  -5   5  -7   20.96    1.47
  -5   5  -7   20.15    1.24
  -5   5  -7   20.87    1.61
   5  -5   7   21.08    1.80
   5  -5   7   19.90    2.07
  -6   5  -7   10.77    1.42
  -6   5  -7   10.01    1.34
   6  -5   7    8.78    1.75
   6  -5   7   10.03    1.67
  -7   5  -7    5.76    1.44
  -7   5  -7    3.55    1.39
   7  -5   7    4.51    2.00
   7  -5   7    3.35    1.59
   8   4  -7    3.65    1.99
  -8  -4   7    3.82    1.19
  -8  -4   7    2.91    1.55
   7   4  -7    2.91    1.54
  -7  -4   7    2.75    0.90
  -7  -4   7    1.93    0.88
   6   4  -7    6.50    1.29
  -6  -4   7    7.45    0.94
  -6  -4   7    7.65    0.91
   5   4  -7   28.03    1.30
   5   4  -7   27.64    1.77
  -5  -4   7   26.64    1.29
  -5  -4   7   28.01    1.25
  -5  -4   7   27.21    0.98
   4   4  -7    1.73    0.69
   4   4  -7    0.68    0.67
   4   4  -7    0.04    0.39
  -4  -4   7    0.51    0.36
  -4  -4   7    0.66    0.19
  -4  -4   7    0.57    0.40
   3   4  -7  106.95    3.21
   3   4  -7  117.44    3.81
   3   4  -7  116.23    3.74
   3   4  -7  113.62    3.10
   3   4  -7  109.43    3.68
  -3  -4   7  109.33    3.37
  -3  -4   7  109.02    3.44
   2   4  -7    1.65    0.31
   2   4  -7    1.00    0.44
   2   4  -7    0.78    0.49
   2   4  -7    1.48    0.32
  -2  -4   7    0.87    0.29
   1   4  -7    6.65    0.57
   1   4  -7    6.30    0.33
   1   4  -7    5.88    0.49
   1   4  -7    5.59    0.69
  -1  -4   7    6.23    0.46
  -1  -4   7    6.11    0.50
  -1  -4   7    6.75    0.49
   0   4  -7   15.22    0.86
   0   4  -7   15.52    0.68
   0   4  -7   15.15    0.77
   0  -4   7   14.77    0.75
   0  -4   7   15.53    0.64
   0  -4   7   15.30    0.75
  -1   4  -7  175.67    5.08
  -1   4  -7  171.22    5.08
   1  -4   7  169.02    5.09
   1  -4   7  177.45    4.86
   1  -4   7  178.74    5.06
  -2   4  -7    2.79    0.57
  -2   4  -7    2.69    0.54
   2  -4   7    1.97    0.61
   2  -4   7    3.77    0.84
   2  -4   7    2.99    0.31
  -3   4  -7   23.84    1.17
  -3   4  -7   23.18    1.23
   3  -4   7   20.73    1.56
   3  -4   7   24.56    1.42
   3  -4   7   21.41    1.30
   3  -4   7   25.31    0.82
  -4   4  -7   37.35    1.62
  -4   4  -7   33.57    1.61
  -4   4  -7   34.82    1.68
   4  -4   7   32.75    1.78
   4  -4   7   31.79    2.04
  -5   4  -7    8.28    0.96
  -5   4  -7    7.45    1.09
  -5   4  -7    7.97    1.08
   5  -4   7    7.40    1.42
   5  -4   7    8.95    1.26
  -6   4  -7   -0.68    0.92
  -6   4  -7   -1.07    1.60
   6  -4   7    1.91    1.29
   6  -4   7   -0.51    1.18
  -7   4  -7    1.04    1.24
  -7   4  -7    1.41    1.39
   7  -4   7    0.03    1.92
   7  -4   7    0.99    1.51
   9   3  -7    8.45    3.24
  -9  -3   7    0.26    1.38
  -9  -3   7    1.31    1.22
   8   3  -7    2.02    1.83
  -8  -3   7    3.66    1.07
  -8  -3   7    3.65    1.08
   7   3  -7   12.27    3.22
  -7  -3   7   11.53    1.21
  -7  -3   7   11.83    1.34
   6   3  -7    6.20    1.19
  -6  -3   7    7.18    0.90
  -6  -3   7    7.32    0.82
   5   3  -7    1.20    0.65
   5   3  -7    1.86    0.76
  -5  -3   7    1.68    0.44
  -5  -3   7    1.68    0.25
  -5  -3   7    1.39    0.43
   4   3  -7   10.72    1.11
   4   3  -7   12.20    0.93
  -4  -3   7   12.84    0.80
  -4  -3   7   12.24    0.44
   3   3  -7   15.94    1.00
   3   3  -7   14.76    1.09
   3   3  -7   16.37    0.63
   3   3  -7   12.12    1.35
   3   3  -7   16.28    0.51
  -3  -3   7   15.85    0.85
  -3  -3   7   14.80    0.56
  -3  -3   7   15.98    0.73
   2   3  -7   77.25    2.48
   2   3  -7   87.33    2.28
   2   3  -7   80.51    2.75
   2   3  -7   78.12    2.66
  -2  -3   7   80.96    2.45
  -2  -3   7   80.94    2.39
  -2  -3   7   74.87    2.43
   1   3  -7   97.19    3.04
   1   3  -7  101.17    2.84
   1   3  -7  102.12    3.01
   1   3  -7   99.31    3.16
  -1  -3   7   97.63    2.84
  -1  -3   7   99.28    2.90
  -1  -3   7   96.61    2.91
  -1  -3   7   99.10    2.91
   0   3  -7  194.22    5.63
   0   3  -7  198.90    5.80
   0   3  -7  201.29    5.72
   0  -3   7  194.80    5.50
   0  -3   7  196.25    5.54
   0  -3   7  194.62    5.58
   0  -3   7  194.98    5.57
   0  -3   7  200.88    5.49
  -1   3  -7   59.27    2.09
  -1   3  -7   61.65    2.10
   1  -3   7   61.82    2.06
   1  -3   7   61.65    2.07
   1  -3   7   66.04    1.91
  -2   3  -7    7.04    0.82
  -2   3  -7    7.47    0.73
  -2   3  -7    7.51    0.79
   2  -3   7    8.08    0.87
   2  -3   7    6.97    0.78
   2  -3   7    6.41    0.90
   2  -3   7    8.85    0.38
   2  -3   7    6.93    0.49
  -3   3  -7    0.36    0.47
  -3   3  -7    0.70    0.46
   3  -3   7   -0.16    0.63
   3  -3   7    0.35    0.22
   3  -3   7   -0.11    0.53
   3  -3   7    0.55    0.52
  -4   3  -7    5.50    0.85
  -4   3  -7    6.87    0.89
  -4   3  -7    6.45    0.78
   4  -3   7    7.38    1.13
   4  -3   7    6.70    0.92
  -5   3  -7    4.72    0.82
  -5   3  -7    3.15    0.87
  -5   3  -7    4.32    0.90
   5  -3   7    3.29    1.11
   5  -3   7    5.01    1.11
  -6   3  -7    5.63    1.13
  -6   3  -7    4.98    1.56
   6  -3   7    5.45    1.59
   6  -3   7    6.91    1.33
  -7   3  -7    8.29    1.49
  -7   3  -7    7.47    1.61
   7  -3   7    5.54    1.57
   7  -3   7    4.79    2.03
   9   2  -7    3.83    2.78
  -9  -2   7   -0.12    1.20
  -9  -2   7    0.72    1.25
   8   2  -7   -0.36    1.74
  -8  -2   7    0.53    0.96
  -8  -2   7    1.12    1.00
  -8  -2   7    0.97    1.00
   7   2  -7    4.42    1.56
  -7  -2   7    2.65    0.73
  -7  -2   7    2.65    0.71
   6   2  -7    3.67    1.01
   6   2  -7    4.13    1.05
  -6  -2   7    4.65    0.64
  -6  -2   7    5.14    0.69
   5   2  -7   16.27    1.37
  -5  -2   7   16.68    0.90
  -5  -2   7   15.38    0.94
   4   2  -7   57.21    2.32
   4   2  -7   59.78    2.48
  -4  -2   7   61.49    1.89
  -4  -2   7   60.15    2.01
  -4  -2   7   60.37    1.76
   3   2  -7   51.15    2.05
   3   2  -7   50.76    1.49
   3   2  -7   47.18    2.24
   3   2  -7   49.13    1.60
  -3  -2   7   48.59    1.71
  -3  -2   7   51.16    1.57
  -3  -2   7   53.90    2.05
   2   2  -7  223.96    6.44
   2   2  -7  225.35    6.70
   2   2  -7  230.61    6.60
   2   2  -7  233.85    6.20
  -2  -2   7  224.08    6.24
  -2  -2   7  222.17    6.32
  -2  -2   7  224.74    6.35
   1   2  -7    0.33    0.32
   1   2  -7    0.29    0.15
   1   2  -7    0.10    0.42
  -1  -2   7    0.48    0.15
  -1  -2   7    0.37    0.26
  -1  -2   7    0.12    0.20
  -1  -2   7    0.03    0.19
   0   2  -7    3.94    0.54
   0   2  -7    3.73    0.37
   0   2  -7    3.07    0.57
   0   2  -7    3.74    0.43
   0  -2   7    4.33    0.46
   0  -2   7    2.52    0.34
   0  -2   7    3.53    0.38
   0  -2   7    2.79    0.40
   0  -2   7    3.25    0.40
  -1   2  -7   32.41    1.34
  -1   2  -7   31.90    1.39
  -1   2  -7   31.70    1.24
   1  -2   7   32.16    1.24
   1  -2   7   34.06    1.02
  -2   2  -7   57.27    1.96
  -2   2  -7   55.09    2.06
  -2   2  -7   59.15    2.03
   2  -2   7   57.69    1.59
   2  -2   7   52.28    2.06
   2  -2   7   51.07    1.81
   2  -2   7   56.40    2.00
   2  -2   7   59.07    1.61
   2  -2   7   50.23    2.23
  -3   2  -7   15.90    0.93
  -3   2  -7   17.38    1.10
  -3   2  -7   15.12    1.08
   3  -2   7   15.38    1.10
   3  -2   7   13.76    0.77
   3  -2   7   14.89    1.13
   3  -2   7   14.91    1.33
  -4   2  -7   38.74    1.62
  -4   2  -7   39.28    1.85
  -4   2  -7   40.06    1.85
   4  -2   7   38.65    1.52
   4  -2   7   41.36    1.92
   4  -2   7   38.93    2.18
  -5   2  -7   16.33    1.45
  -5   2  -7   15.31    1.43
   5  -2   7   16.89    1.64
   5  -2   7   16.64    1.79
  -6   2  -7    5.07    1.19
  -6   2  -7    4.67    1.29
   6  -2   7    5.42    1.25
   6  -2   7    5.10    1.58
  -7   2  -7    1.65    1.58
  -7   2  -7    1.26    1.30
   7  -2   7   -0.99    1.38
   7  -2   7    0.55    1.84
   9   1  -7   -0.52    2.66
  -9  -1   7    0.14    1.13
  -9  -1   7    1.07    1.21
   8   1  -7    7.09    1.85
  -8  -1   7    4.75    1.01
  -8  -1   7    7.04    1.12
   7   1  -7   17.04    2.10
   7   1  -7   13.34    1.63
  -7  -1   7   14.43    1.29
  -7  -1   7   13.80    1.26
  -7  -1   7   14.97    1.26
   6   1  -7   32.82    1.97
   6   1  -7   35.17    2.15
  -6  -1   7   33.77    1.39
  -6  -1   7   35.25    1.56
  -6  -1   7   35.16    1.50
   5   1  -7   10.74    0.80
   5   1  -7   13.26    1.29
   5   1  -7   10.95    1.36
  -5  -1   7   12.13    0.82
  -5  -1   7   13.04    0.87
  -5  -1   7   11.90    0.67
   4   1  -7    3.33    0.44
   4   1  -7    2.42    0.83
   4   1  -7    1.91    0.76
  -4  -1   7    1.74    0.42
  -4  -1   7    2.61    0.44
  -4  -1   7    2.78    0.32
   3   1  -7    6.97    0.50
   3   1  -7    7.13    1.04
   3   1  -7    6.64    0.52
   3   1  -7    6.59    0.95
  -3  -1   7    7.40    0.40
  -3  -1   7    6.63    0.71
  -3  -1   7    7.80    0.57
  -3  -1   7    8.19    0.54
   2   1  -7    1.83    0.48
   2   1  -7    1.86    0.30
   2   1  -7    1.13    0.36
   2   1  -7    1.76    0.61
   2   1  -7    0.55    0.58
  -2  -1   7    1.21    0.28
  -2  -1   7    1.56    0.16
  -2  -1   7    1.22    0.30
  -2  -1   7    1.37    0.22
   1   1  -7   96.83    3.14
   1   1  -7   98.34    3.05
   1   1  -7   95.35    3.04
   1   1  -7   96.35    2.75
  -1  -1   7   94.73    2.84
  -1  -1   7   94.55    2.77
  -1  -1   7   94.12    2.84
   0   1  -7  177.41    4.99
   0   1  -7  182.04    4.89
   0   1  -7  173.81    5.23
   0   1  -7  171.54    5.22
   0  -1   7  176.94    5.05
   0  -1   7  175.93    4.91
   0  -1   7  174.95    4.99
  -1   1  -7  168.71    5.10
  -1   1  -7  169.28    4.99
  -1   1  -7  170.03    5.14
   1  -1   7  172.33    4.93
   1  -1   7  176.00    4.88
   1  -1   7  172.49    4.93
   1  -1   7  173.92    5.07
   1  -1   7  172.98    5.18
  -2   1  -7   72.55    2.56
  -2   1  -7   73.49    2.44
  -2   1  -7   76.88    2.51
   2  -1   7   70.68    2.73
   2  -1   7   72.12    2.05
   2  -1   7   66.62    2.54
   2  -1   7   74.88    2.18
   2  -1   7   75.08    2.08
   2  -1   7   67.01    2.33
   2  -1   7   74.03    2.44
  -3   1  -7    1.78    0.52
  -3   1  -7    2.06    0.60
  -3   1  -7    2.64    0.60
   3  -1   7    2.16    0.70
   3  -1   7    1.83    0.44
   3  -1   7    2.35    0.30
   3  -1   7    2.88    0.65
   3  -1   7    2.56    0.67
  -4   1  -7    2.56    0.56
  -4   1  -7    2.01    0.73
  -4   1  -7    2.34    0.70
   4  -1   7    1.93    0.81
   4  -1   7    3.20    0.65
   4  -1   7    2.94    0.76
  -5   1  -7    1.53    0.81
  -5   1  -7    0.46    0.79
   5  -1   7   -0.72    0.96
   5  -1   7    0.73    0.81
  -6   1  -7    1.36    0.98
  -6   1  -7    1.05    1.12
   6  -1   7   -0.60    1.04
   6  -1   7    2.01    1.34
  -7   1  -7    0.76    1.35
  -7   1  -7    0.35    1.43
  -7   1  -7    5.96    1.63
   7  -1   7    3.02    1.95
   9   0  -7    4.03    2.67
  -9   0   7   -2.23    1.27
   8   0  -7    2.05    1.43
   8   0  -7    3.67    1.86
  -8   0   7    2.19    0.97
  -8   0   7    1.57    1.02
   7   0  -7    0.56    1.20
   7   0  -7    1.72    1.38
   7   0  -7   -0.14    0.91
  -7   0   7    0.76    0.58
  -7   0   7    0.53    0.57
  -7   0   7    0.59    0.62
   6   0  -7    0.28    0.96
   6   0  -7    0.94    0.84
   6   0  -7    0.15    0.85
  -6   0   7   -0.19    0.45
  -6   0   7    0.60    0.61
  -6   0   7    0.26    0.31
  -6   0   7    0.47    0.46
   5   0  -7   14.09    0.99
   5   0  -7   14.82    1.34
   5   0  -7   14.99    1.37
  -5   0   7   15.42    0.94
  -5   0   7   14.88    0.87
  -5   0   7   14.95    0.66
   4   0  -7   48.02    2.30
   4   0  -7   46.18    2.20
  -4   0   7   48.34    1.47
  -4   0   7   51.25    1.75
   3   0  -7  123.12    4.20
   3   0  -7  123.02    3.68
   3   0  -7  124.89    3.46
   3   0  -7  123.43    3.71
  -3   0   7  122.24    3.66
  -3   0   7  121.46    3.42
  -3   0   7  122.86    3.41
  -3   0   7  121.90    3.55
   2   0  -7  106.73    3.51
   2   0  -7  109.73    2.93
   2   0  -7  115.71    3.06
   2   0  -7  102.52    3.73
   2   0  -7  109.67    3.27
   2   0  -7  107.04    3.34
  -2   0   7  101.46    3.17
  -2   0   7  103.43    2.99
  -2   0   7  105.89    3.12
   1   0  -7  107.09    3.47
   1   0  -7  110.30    3.16
  -1   0   7  110.54    3.24
  -1   0   7  110.43    3.25
   0   0  -7   88.70    3.03
   0   0  -7   92.91    3.08
   0   0  -7   92.26    2.83
   0   0  -7   95.28    2.67
   0   0   7   96.27    2.84
   0   0   7   96.99    2.89
  -1   0  -7    5.20    0.68
  -1   0  -7    5.31    0.59
  -1   0  -7    5.05    0.87
   1   0   7    5.35    0.35
   1   0   7    4.21    0.73
   1   0   7    4.85    0.64
   1   0   7    5.50    0.48
   1   0   7    4.55    0.58
  -2   0  -7    9.61    0.88
  -2   0  -7    9.23    0.73
  -2   0  -7    9.40    1.02
   2   0   7    8.54    0.74
   2   0   7    8.19    0.79
   2   0   7    7.42    1.03
   2   0   7    7.91    0.44
   2   0   7    7.31    0.93
  -3   0  -7   19.26    1.21
  -3   0  -7   18.17    0.98
  -3   0  -7   19.96    1.27
   3   0   7   17.90    0.86
   3   0   7   18.67    1.20
   3   0   7   18.65    1.41
   3   0   7   16.85    1.21
  -4   0  -7   20.33    1.42
  -4   0  -7   20.37    1.39
   4   0   7   17.24    1.21
   4   0   7   19.73    1.40
   4   0   7   19.32    1.63
  -5   0  -7   10.87    1.73
  -5   0  -7   10.69    1.31
   5   0   7    9.30    1.48
  -6   0  -7    8.40    1.70
  -6   0  -7    9.03    1.42
   6   0   7    9.90    1.80
  -7   0  -7   -1.36    1.46
  -7   0  -7    6.98    1.72
  -7   0  -7    1.42    1.42
   7   0   7   -0.21    1.94
   9  -1  -7    3.88    2.62
   8  -1  -7    3.61    1.89
   8  -1  -7    3.23    1.64
  -8   1   7    4.31    0.93
  -8   1   7    1.71    0.90
   7  -1  -7   20.03    2.35
   7  -1  -7   19.12    1.92
   7  -1  -7   19.15    1.62
  -7   1   7   17.76    1.22
  -7   1   7   20.54    1.22
  -7   1   7   20.14    1.34
   6  -1  -7   20.48    1.52
   6  -1  -7   20.88    1.83
   6  -1  -7   21.57    1.85
  -6   1   7   22.05    1.10
  -6   1   7   19.28    0.86
  -6   1   7   22.16    1.20
   5  -1  -7   46.55    2.47
   5  -1  -7   47.16    2.30
   5  -1  -7   43.56    2.18
  -5   1   7   47.05    1.71
  -5   1   7   44.74    1.61
  -5   1   7   42.90    1.38
   4  -1  -7   30.04    1.77
   4  -1  -7   25.69    1.34
   4  -1  -7   27.55    1.75
  -4   1   7   28.96    1.09
  -4   1   7   26.39    0.87
  -4   1   7   28.05    1.19
   3  -1  -7    6.27    0.66
   3  -1  -7    5.30    1.07
   3  -1  -7    5.38    0.97
  -3   1   7    5.85    0.49
  -3   1   7    5.45    0.63
  -3   1   7    5.46    0.25
   2  -1  -7    1.56    0.18
   2  -1  -7    2.11    0.87
   2  -1  -7    1.76    0.48
   2  -1  -7    1.01    0.67
   2  -1  -7    1.72    0.21
   2  -1  -7    2.13    0.48
  -2   1   7    1.93    0.33
  -2   1   7    2.07    0.23
  -2   1   7    1.75    0.42
   1  -1  -7   12.23    0.62
   1  -1  -7   10.21    1.26
   1  -1  -7   13.02    0.58
   1  -1  -7   11.97    0.99
  -1   1   7   12.36    0.64
  -1   1   7   11.96    0.71
  -1   1   7   11.58    0.68
   0  -1  -7   58.42    2.28
   0  -1  -7   58.44    1.77
   0  -1  -7   56.35    1.96
   0   1   7   60.66    1.85
   0   1   7   61.08    2.02
   0   1   7   61.20    2.00
  -1  -1  -7   60.39    2.11
  -1  -1  -7   61.08    2.32
   1   1   7   58.93    2.05
   1   1   7   57.90    2.14
   1   1   7   59.61    2.14
  -2  -1  -7  103.22    3.26
  -2  -1  -7  100.85    3.38
   2   1   7   93.41    3.20
   2   1   7   99.68    2.84
   2   1   7   98.49    3.36
   2   1   7   95.48    3.26
  -3  -1  -7   32.28    1.59
  -3  -1  -7   32.94    1.69
   3   1   7   34.74    1.02
   3   1   7   31.48    1.77
   3   1   7   27.68    1.37
   3   1   7   33.17    1.58
  -4  -1  -7   10.03    1.16
  -4  -1  -7    9.89    1.22
   4   1   7    9.62    1.35
   4   1   7    8.05    1.09
   4   1   7    9.25    0.97
  -5  -1  -7   -0.73    0.90
  -5  -1  -7    0.69    0.95
   5   1   7   -0.37    1.16
   5   1   7    0.40    0.76
  -6  -1  -7   -1.07    2.18
  -6  -1  -7    1.33    1.13
  -6  -1  -7   -1.60    1.10
   6   1   7    0.00    1.44
  -7  -1  -7   -1.28    1.41
  -7  -1  -7    2.17    1.69
   7   1   7    1.14    2.03
   9  -2  -7    7.15    2.86
   8  -2  -7    5.70    2.00
   8  -2  -7    3.98    1.64
   8  -2  -7    1.03    1.67
  -8   2   7    4.29    1.01
  -8   2   7    1.71    0.98
   7  -2  -7    5.20    1.35
   7  -2  -7    6.50    1.79
   7  -2  -7    7.19    1.28
  -7   2   7    8.32    1.00
  -7   2   7    4.70    0.77
  -7   2   7    4.88    0.73
   6  -2  -7    3.70    1.04
   6  -2  -7    1.81    0.58
   6  -2  -7    3.07    1.16
   6  -2  -7    1.47    0.92
  -6   2   7    2.03    0.57
  -6   2   7    2.66    0.53
  -6   2   7    2.41    0.59
   5  -2  -7    0.85    0.88
   5  -2  -7    0.83    0.36
   5  -2  -7    1.32    0.84
   5  -2  -7    1.34    0.90
  -5   2   7    0.25    0.45
  -5   2   7    1.02    0.27
  -5   2   7    1.02    0.44
  -5   2   7    1.19    0.43
   4  -2  -7   11.64    1.24
   4  -2  -7   13.04    1.11
   4  -2  -7   12.19    0.59
   4  -2  -7   12.52    1.22
  -4   2   7   12.67    0.66
  -4   2   7   13.34    0.85
  -4   2   7   12.94    0.86
   3  -2  -7   52.93    2.13
   3  -2  -7   55.23    1.58
   3  -2  -7   55.29    2.57
  -3   2   7   53.48    1.62
  -3   2   7   56.72    1.76
  -3   2   7   57.44    1.93
  -3   2   7   55.42    1.89
   2  -2  -7   95.80    3.59
   2  -2  -7   93.61    3.16
   2  -2  -7   96.03    2.75
   2  -2  -7   87.51    3.13
  -2   2   7   94.84    2.91
  -2   2   7   93.04    2.86
  -2   2   7   92.01    2.79
   1  -2  -7   64.90    1.82
   1  -2  -7   59.73    2.02
   1  -2  -7   65.06    3.18
  -1   2   7   60.62    1.99
  -1   2   7   60.64    2.05
  -1   2   7   59.10    1.97
   0  -2  -7  122.53    3.27
   0  -2  -7   99.65    3.57
   0  -2  -7  104.41    3.40
   0   2   7  103.18    3.28
   0   2   7  108.18    3.31
   0   2   7  103.97    3.22
   0   2   7  104.24    3.13
  -1  -2  -7   70.67    2.64
  -1  -2  -7   70.63    2.46
   1   2   7   67.28    2.39
   1   2   7   71.15    2.13
   1   2   7   68.23    2.42
   1   2   7   66.07    2.35
  -2  -2  -7    5.91    0.89
  -2  -2  -7    4.11    0.71
   2   2   7    6.69    0.96
   2   2   7    5.12    0.72
   2   2   7    4.67    0.43
  -3  -2  -7    0.92    0.60
  -3  -2  -7    0.78    0.73
   3   2   7    0.94    0.72
   3   2   7    0.23    0.27
   3   2   7    0.33    0.56
  -4  -2  -7    0.15    0.74
  -4  -2  -7    1.19    0.80
   4   2   7    2.23    0.78
   4   2   7    1.20    0.87
   4   2   7    1.89    0.82
  -5  -2  -7    4.08    1.16
  -5  -2  -7    3.99    1.64
  -5  -2  -7    5.00    1.29
   5   2   7    4.94    1.04
   5   2   7    4.20    1.39
  -6  -2  -7    4.47    1.30
  -6  -2  -7    0.74    1.53
  -6  -2  -7    5.21    1.67
   6   2   7    3.23    1.60
  -7  -2  -7    1.31    1.86
  -7  -2  -7    1.45    2.00
   7   2   7    0.64    2.16
   9  -3  -7    0.18    2.17
   8  -3  -7   -1.40    1.54
   8  -3  -7    0.34    1.99
  -8   3   7   -0.29    0.90
  -8   3   7   -0.25    0.93
  -8   3   7    0.50    1.03
   7  -3  -7    4.26    1.19
   7  -3  -7    3.53    2.17
   7  -3  -7    3.07    1.38
   7  -3  -7    2.50    0.71
  -7   3   7    2.37    0.72
  -7   3   7    3.62    0.75
   6  -3  -7   11.63    1.04
   6  -3  -7   12.74    1.57
   6  -3  -7   13.37    1.95
   6  -3  -7   14.45    1.87
  -6   3   7   10.93    1.02
  -6   3   7   12.41    0.86
  -6   3   7   12.30    0.98
   5  -3  -7   35.95    2.24
   5  -3  -7   34.60    1.38
   5  -3  -7   36.23    2.01
   5  -3  -7   36.18    2.25
  -5   3   7   36.47    1.30
  -5   3   7   36.97    1.52
  -5   3   7   38.90    1.54
   4  -3  -7   39.69    1.37
   4  -3  -7   41.53    2.06
   4  -3  -7   41.43    2.28
  -4   3   7   42.60    1.60
  -4   3   7   41.98    1.39
  -4   3   7   41.71    1.61
   3  -3  -7   27.90    0.94
   3  -3  -7   27.76    1.78
   3  -3  -7   29.90    1.66
  -3   3   7   28.09    1.06
  -3   3   7   29.01    1.23
  -3   3   7   27.62    1.25
   2  -3  -7    9.14    0.67
   2  -3  -7    8.31    0.36
   2  -3  -7    8.77    1.34
   2  -3  -7    8.75    1.02
   2  -3  -7    7.38    1.11
  -2   3   7    8.00    0.58
  -2   3   7    8.67    0.68
  -2   3   7    7.78    0.50
  -2   3   7    8.85    0.76
   1  -3  -7    0.93    0.60
   1  -3  -7    0.73    0.36
   1  -3  -7    0.02    0.21
   1  -3  -7    0.04    0.81
   1  -3  -7    0.19    0.18
  -1   3   7    0.08    0.32
  -1   3   7   -0.38    0.38
  -1   3   7    0.22    0.23
  -1   3   7    0.02    0.36
   0  -3  -7    2.94    0.59
   0  -3  -7    4.16    0.69
   0  -3  -7    4.16    1.02
   0  -3  -7    3.93    0.88
   0   3   7    3.17    0.44
   0   3   7    3.08    0.69
   0   3   7    3.44    0.60
  -1  -3  -7   27.78    1.25
  -1  -3  -7   26.71    1.57
  -1  -3  -7   29.43    1.44
  -1  -3  -7   29.14    1.80
   1   3   7   26.49    1.25
   1   3   7   27.23    1.36
   1   3   7   28.33    1.12
   1   3   7   30.03    1.40
  -2  -3  -7   19.25    1.26
  -2  -3  -7   17.29    1.37
  -2  -3  -7   17.56    1.13
   2   3   7   17.44    0.86
   2   3   7   19.32    1.26
   2   3   7   20.22    1.35
  -3  -3  -7   36.67    1.92
  -3  -3  -7   34.16    1.74
  -3  -3  -7   34.26    1.67
   3   3   7   36.76    1.80
   3   3   7   27.73    1.21
   3   3   7   33.64    1.84
  -4  -3  -7   14.46    1.56
  -4  -3  -7   12.62    1.36
  -4  -3  -7   16.02    1.63
   4   3   7   12.74    1.42
   4   3   7   18.59    1.63
   4   3   7   14.68    1.56
  -5  -3  -7    2.66    1.28
  -5  -3  -7    0.13    0.93
  -5  -3  -7    0.93    1.04
   5   3   7    1.42    2.16
   5   3   7   -0.09    1.10
  -6  -3  -7   -0.16    1.16
  -6  -3  -7   -0.55    1.31
  -6  -3  -7    0.14    1.87
   6   3   7   -0.08    1.56
   8  -4  -7    6.17    1.94
   8  -4  -7    1.44    1.87
  -8   4   7    3.68    1.28
  -8   4   7    3.49    0.98
   7  -4  -7    8.52    1.86
   7  -4  -7   11.01    1.70
  -7   4   7    9.00    1.21
  -7   4   7    6.34    0.87
  -7   4   7    9.39    1.54
   6  -4  -7    1.75    0.64
   6  -4  -7    1.94    1.26
   6  -4  -7    3.58    1.20
  -6   4   7    1.75    0.62
  -6   4   7    2.48    0.61
   5  -4  -7    6.81    1.22
   5  -4  -7    6.36    0.73
   5  -4  -7    8.12    1.41
  -5   4   7    6.36    0.73
  -5   4   7    6.00    0.54
  -5   4   7    6.28    0.76
   4  -4  -7    0.20    0.30
   4  -4  -7    0.12    0.71
   4  -4  -7    1.68    0.82
  -4   4   7    1.07    0.47
  -4   4   7    0.67    0.28
  -4   4   7    0.80    0.46
   3  -4  -7    3.73    0.47
   3  -4  -7    3.54    0.39
   3  -4  -7    2.98    0.84
   3  -4  -7    4.14    1.02
  -3   4   7    2.73    0.37
  -3   4   7    3.38    0.51
  -3   4   7    3.29    0.55
   2  -4  -7   13.70    1.31
   2  -4  -7   16.10    0.67
   2  -4  -7   14.89    1.54
   2  -4  -7   15.39    0.90
  -2   4   7   18.05    0.99
  -2   4   7   16.18    0.88
  -2   4   7   16.12    0.79
   1  -4  -7   85.30    3.10
   1  -4  -7   82.50    2.78
   1  -4  -7   84.52    2.41
   1  -4  -7   81.13    3.30
  -1   4   7   84.43    2.76
  -1   4   7   82.80    2.39
  -1   4   7   83.82    2.64
  -1   4   7   85.58    2.67
   0  -4  -7    5.49    0.48
   0  -4  -7    5.34    0.77
   0  -4  -7    5.64    1.09
   0  -4  -7    4.82    0.85
   0   4   7    5.73    0.73
   0   4   7    6.93    0.83
   0   4   7    4.97    0.54
   0   4   7    5.61    0.50
  -1  -4  -7   32.18    1.80
  -1  -4  -7   36.37    1.68
  -1  -4  -7   35.72    1.52
  -1  -4  -7   35.27    2.02
   1   4   7   34.36    1.39
   1   4   7   35.90    1.65
   1   4   7   35.71    1.43
  -2  -4  -7   19.51    1.77
  -2  -4  -7   21.64    1.22
  -2  -4  -7   19.43    1.39
  -2  -4  -7   20.26    1.67
   2   4   7   21.03    1.11
   2   4   7   19.24    1.37
   2   4   7   20.98    1.41
  -3  -4  -7    2.46    0.70
  -3  -4  -7    1.90    0.81
  -3  -4  -7    2.41    1.13
  -3  -4  -7    2.67    0.96
   3   4   7    2.20    0.84
   3   4   7    1.92    0.75
  -4  -4  -7    0.73    0.90
  -4  -4  -7    0.66    1.06
   4   4   7    3.30    1.13
   4   4   7    0.52    1.03
   4   4   7    1.32    1.10
  -5  -4  -7    1.38    1.16
  -5  -4  -7   -0.16    0.92
   5   4   7    0.79    1.45
   5   4   7    0.73    1.28
  -6  -4  -7    1.33    1.63
  -6  -4  -7   -0.42    1.36
   6   4   7    2.25    1.76
   8  -5  -7   -0.30    1.86
   8  -5  -7    0.50    1.88
  -8   5   7   -0.66    2.31
  -8   5   7   -0.60    0.95
   7  -5  -7    0.67    1.61
  -7   5   7    0.95    0.76
  -7   5   7   -0.44    0.96
  -7   5   7    1.05    0.97
   6  -5  -7    1.44    2.15
   6  -5  -7    0.51    1.46
  -6   5   7    2.04    0.67
  -6   5   7    2.35    0.67
   5  -5  -7   11.36    1.70
   5  -5  -7   14.72    1.75
   5  -5  -7   13.48    1.15
  -5   5   7   15.36    1.06
  -5   5   7   13.51    1.03
   4  -5  -7   22.65    2.04
   4  -5  -7   27.57    1.85
   4  -5  -7   23.53    1.07
  -4   5   7   24.73    1.23
  -4   5   7   25.33    0.91
  -4   5   7   24.79    1.23
   3  -5  -7   24.55    1.00
   3  -5  -7   25.25    1.32
   3  -5  -7   26.20    1.95
   3  -5  -7   26.38    1.75
  -3   5   7   24.05    1.18
  -3   5   7   25.46    1.24
   2  -5  -7    5.87    0.81
   2  -5  -7    5.98    0.52
   2  -5  -7    6.31    1.03
   2  -5  -7    5.10    1.12
  -2   5   7    5.74    0.68
  -2   5   7    4.72    0.54
  -2   5   7    4.32    0.61
   1  -5  -7   13.82    1.12
   1  -5  -7   14.59    1.27
   1  -5  -7   12.52    0.58
   1  -5  -7   16.31    1.46
  -1   5   7   14.22    0.85
  -1   5   7   14.11    0.94
  -1   5   7   14.08    1.05
   0  -5  -7    0.43    0.30
   0  -5  -7    0.69    0.86
   0  -5  -7    0.27    0.69
   0  -5  -7    0.24    0.56
   0   5   7   -0.50    0.51
   0   5   7    0.03    0.38
  -1  -5  -7    1.14    0.55
  -1  -5  -7    3.27    1.12
  -1  -5  -7    2.12    0.83
  -1  -5  -7    1.01    0.70
   1   5   7    1.42    0.44
   1   5   7    2.27    0.68
   1   5   7    2.29    0.46
  -2  -5  -7   13.71    1.05
  -2  -5  -7   11.51    1.28
  -2  -5  -7   13.38    1.61
  -2  -5  -7   11.14    1.49
   2   5   7   12.90    1.32
   2   5   7   13.38    0.92
   2   5   7   14.13    1.38
  -3  -5  -7    6.62    1.31
  -3  -5  -7    6.31    1.21
  -3  -5  -7    7.67    0.99
  -3  -5  -7    6.97    1.14
   3   5   7    6.02    1.05
   3   5   7    7.54    0.80
   3   5   7    7.39    1.25
  -4  -5  -7    5.86    1.83
  -4  -5  -7    2.67    1.43
  -4  -5  -7    3.91    1.12
   4   5   7    4.01    1.43
   4   5   7    5.31    1.38
   4   5   7    4.83    1.25
  -5  -5  -7    5.21    1.21
  -5  -5  -7    3.99    1.76
  -5  -5  -7    3.94    1.40
   5   5   7    3.71    1.59
   8  -6  -7    1.86    2.21
   8  -6  -7    1.38    2.34
  -8   6   7   -0.97    1.25
  -8   6   7    1.62    1.08
   7  -6  -7    4.02    1.71
   7  -6  -7    4.82    1.87
  -7   6   7    3.46    1.25
  -7   6   7    3.22    0.91
   6  -6  -7    1.87    1.60
   6  -6  -7    5.61    1.74
  -6   6   7    2.76    0.71
  -6   6   7    3.55    0.84
   5  -6  -7    1.87    1.37
   5  -6  -7    4.31    1.53
  -5   6   7    2.83    0.66
  -5   6   7    2.88    0.68
   4  -6  -7   10.02    0.90
   4  -6  -7   13.36    1.75
   4  -6  -7   13.26    1.66
  -4   6   7   10.57    0.98
  -4   6   7    9.64    0.92
   3  -6  -7    0.32    0.91
   3  -6  -7    1.54    0.43
   3  -6  -7    2.32    1.08
   3  -6  -7    2.03    0.67
  -3   6   7    1.82    0.56
  -3   6   7    1.65    0.55
   2  -6  -7    0.80    0.40
   2  -6  -7    0.77    0.85
   2  -6  -7    0.65    0.59
   2  -6  -7   -0.66    0.73
  -2   6   7    0.38    0.43
  -2   6   7   -0.05    0.49
   1  -6  -7    7.12    0.91
   1  -6  -7    5.62    0.64
   1  -6  -7    9.30    1.38
  -1   6   7    7.22    0.88
  -1   6   7    7.72    0.77
   0  -6  -7   13.09    1.67
   0  -6  -7   11.07    1.19
   0  -6  -7   14.59    1.43
   0  -6  -7   13.18    0.82
   0   6   7   13.94    1.19
   0   6   7   14.93    0.94
  -1  -6  -7    1.86    0.83
  -1  -6  -7    0.64    0.52
  -1  -6  -7    1.39    1.07
  -1  -6  -7    1.04    0.88
   1   6   7    0.53    0.49
   1   6   7    0.44    0.69
  -2  -6  -7    7.89    1.13
  -2  -6  -7    7.94    1.45
  -2  -6  -7    9.15    0.96
  -2  -6  -7    8.81    1.31
   2   6   7    7.76    0.90
   2   6   7    9.83    0.96
   2   6   7    7.24    1.17
  -3  -6  -7    5.38    1.18
  -3  -6  -7    4.30    1.51
  -3  -6  -7    4.65    0.96
   3   6   7    5.75    1.41
  -4  -6  -7    0.89    1.19
  -4  -6  -7    0.94    0.99
  -4  -6  -7   -1.62    1.40
   4   6   7   -0.03    1.21
  -5  -6  -7    0.33    1.50
  -5  -6  -7   -0.39    1.29
   8  -7  -7    1.58    2.65
   8  -7  -7    3.47    2.87
  -8   7   7    2.83    1.55
  -8   7   7    0.51    1.17
   7  -7  -7    0.80    1.64
   7  -7  -7    3.78    2.10
  -7   7   7    0.91    1.19
  -7   7   7    0.74    0.88
   6  -7  -7    0.11    1.65
   6  -7  -7    0.65    1.68
  -6   7   7    0.16    0.78
  -6   7   7    0.54    0.78
  -6   7   7   -0.16    0.93
   5  -7  -7    4.71    1.62
  -5   7   7    1.42    0.70
  -5   7   7    2.29    0.68
   4  -7  -7    5.04    1.53
   4  -7  -7    3.10    1.39
  -4   7   7    4.06    0.74
  -4   7   7    3.64    0.77
   3  -7  -7    8.69    1.56
   3  -7  -7    8.82    1.73
   3  -7  -7    6.80    0.95
   3  -7  -7    7.78    1.02
  -3   7   7    7.87    0.91
  -3   7   7    7.88    1.05
   2  -7  -7    9.28    1.04
   2  -7  -7    8.22    0.96
   2  -7  -7    9.06    1.49
   2  -7  -7    7.85    1.40
  -2   7   7    6.52    0.84
  -2   7   7    7.66    0.86
   1  -7  -7    3.33    1.27
   1  -7  -7    1.61    0.76
   1  -7  -7    3.55    1.27
  -1   7   7    4.85    0.80
  -1   7   7    3.48    0.66
   0  -7  -7   10.71    1.31
   0  -7  -7    8.58    1.49
   0   7   7    8.39    1.03
   0   7   7   10.01    0.97
  -1  -7  -7    1.60    1.22
  -1  -7  -7    1.37    0.59
  -1  -7  -7   -0.42    0.98
  -1  -7  -7    0.93    0.87
   1   7   7   -0.09    0.53
   1   7   7    0.73    0.58
   1   7   7   -0.42    0.81
  -2  -7  -7    1.43    1.77
  -2  -7  -7    0.23    0.72
  -2  -7  -7   -1.22    1.09
   2   7   7   -0.16    1.02
   2   7   7   -0.40    0.65
  -3  -7  -7    0.54    1.71
  -3  -7  -7    0.78    0.98
  -3  -7  -7    2.24    1.16
   3   7   7    1.21    1.28
  -4  -7  -7    1.92    1.12
  -4  -7  -7    1.43    1.30
  -4  -7  -7   -0.01    1.83
   4   7   7    3.25    1.55
   4   7   7    1.32    2.01
   7  -8  -7    1.25    2.39
   7  -8  -7    0.98    2.47
  -7   8   7   -1.09    1.27
  -7   8   7   -1.70    1.27
   6  -8  -7   -0.27    1.92
   6  -8  -7    3.50    2.09
  -6   8   7    0.34    1.11
  -6   8   7    1.80    0.90
   5  -8  -7    3.04    1.85
   5  -8  -7    0.06    1.82
  -5   8   7    0.56    0.91
  -5   8   7    1.82    0.82
  -5   8   7    1.93    0.79
   4  -8  -7    6.86    3.00
   4  -8  -7    7.20    3.12
  -4   8   7    5.23    0.90
  -4   8   7    6.48    1.09
   3  -8  -7    1.97    1.18
   3  -8  -7    2.13    1.55
   3  -8  -7   -1.24    1.40
  -3   8   7    1.06    0.68
  -3   8   7    0.60    0.86
  -3   8   7    1.60    0.74
   2  -8  -7    0.59    1.36
   2  -8  -7    1.51    0.82
   2  -8  -7    2.35    1.49
  -2   8   7    0.16    0.70
  -2   8   7    0.78    0.75
  -2   8   7    1.04    0.67
   1  -8  -7    1.52    1.71
   1  -8  -7   -0.20    0.86
   1  -8  -7   -0.90    1.41
  -1   8   7   -0.50    0.73
  -1   8   7   -0.34    0.63
  -1   8   7    0.02    0.57
   0  -8  -7   -0.44    1.33
   0  -8  -7    0.79    0.96
   0   8   7   -0.39    0.63
   0   8   7    0.66    0.62
   0   8   7   -0.41    0.91
  -1  -8  -7   -0.87    2.11
   1   8   7    2.55    0.69
   1   8   7   -0.39    0.65
   1   8   7    0.64    1.07
  -2  -8  -7    0.59    1.02
  -2  -8  -7    0.15    0.80
   2   8   7    0.55    1.16
   2   8   7    0.10    0.87
  -3  -8  -7   -0.70    1.03
  -3  -8  -7    0.58    1.18
   3   8   7    1.90    1.48
  -4  -8  -7    3.44    1.33
  -4  -8  -7    0.16    1.62
   4   8   7   -2.76    2.32
   4   8   7   -0.59    1.93
   6  -9  -7    7.71    2.42
   6  -9  -7   -2.46    2.44
  -6   9   7    0.26    1.27
  -6   9   7    1.55    0.95
   5  -9  -7    1.67    2.21
   5  -9  -7    3.50    2.08
  -5   9   7    0.36    0.82
  -5   9   7    1.39    1.02
  -5   9   7    2.20    1.09
   4  -9  -7    0.46    1.92
   4  -9  -7    0.23    1.69
  -4   9   7   -1.40    0.72
  -4   9   7    0.62    0.93
  -4   9   7    0.39    0.85
   3  -9  -7    3.91    1.78
   3  -9  -7    1.40    1.07
  -3   9   7    2.34    1.31
  -3   9   7    0.58    0.75
  -3   9   7    1.51    0.81
   2  -9  -7    2.54    1.68
   2  -9  -7    2.18    1.95
   2  -9  -7    1.53    1.07
  -2   9   7    2.34    0.69
  -2   9   7    2.52    0.93
   1  -9  -7    5.10    2.95
   1  -9  -7    2.81    1.11
   1  -9  -7    2.05    1.62
  -1   9   7    2.50    1.14
  -1   9   7    1.25    1.24
  -1   9   7    1.76    0.73
   0  -9  -7    4.98    1.95
   0  -9  -7    4.11    2.47
   0  -9  -7    0.37    1.15
   0   9   7    3.69    0.90
   0   9   7    1.38    0.80
   0   9   7    1.63    1.01
  -1  -9  -7   -0.33    1.09
   1   9   7   -1.73    1.11
   1   9   7   -0.28    0.77
  -2  -9  -7   -1.06    1.15
   2   9   7   -1.38    1.32
   2   9   7   -0.15    1.03
  -3  -9  -7    3.80    1.59
   3   9   7    0.02    1.71
   6 -10  -7   -3.95    3.18
   6 -10  -7    7.37    3.39
  -6  10   7    1.37    1.65
  -6  10   7   -1.65    1.10
   5 -10  -7    2.96    2.58
   5 -10  -7   -0.10    2.73
  -5  10   7    0.41    1.01
  -5  10   7    2.84    1.41
   4 -10  -7    3.69    2.66
   4 -10  -7    4.09    2.19
  -4  10   7    1.47    0.90
  -4  10   7    0.19    0.99
  -4  10   7    2.63    1.19
   3 -10  -7    1.19    2.08
   3 -10  -7   -1.58    2.17
  -3  10   7   -0.39    0.78
  -3  10   7    1.44    0.90
  -3  10   7    0.85    1.03
   2 -10  -7   -0.39    1.94
   2 -10  -7   -1.01    1.16
   2 -10  -7   -1.69    2.33
  -2  10   7   -0.53    0.83
  -2  10   7    0.88    1.08
  -2  10   7    1.84    0.82
   1 -10  -7   -0.83    1.12
   1 -10  -7   -1.84    2.01
   1 -10  -7    0.40    2.79
  -1  10   7   -1.11    0.70
  -1  10   7    1.06    1.06
  -1  10   7    0.13    1.09
   0 -10  -7   -2.02    1.96
   0 -10  -7    2.66    1.29
   0  10   7    0.55    1.16
   0  10   7    3.44    1.33
   0  10   7    1.31    0.87
  -1 -10  -7   -2.49    2.42
  -1 -10  -7    1.60    1.25
   1  10   7    0.17    0.95
   1  10   7   -1.47    1.39
  -2 -10  -7    0.55    1.59
   2  10   7    0.06    1.87
   2  10   7   -1.19    1.12
   4 -11  -7   -5.57    2.70
   4 -11  -7   -9.32    3.97
  -4  11   7   -1.05    1.45
  -4  11   7    0.98    1.10
   3 -11  -7    1.59    2.65
   3 -11  -7    2.12    3.03
  -3  11   7    1.40    1.31
  -3  11   7   -0.79    1.32
  -3  11   7   -1.25    0.92
   2 -11  -7   -3.45    2.65
   2 -11  -7    1.29    2.63
   2 -11  -7   -0.94    1.47
  -2  11   7    1.60    1.36
  -2  11   7    0.96    1.31
  -2  11   7   -0.08    0.93
   1 -11  -7   -2.81    2.57
   1 -11  -7    1.31    1.34
  -1  11   7    2.72    1.37
  -1  11   7   -5.04    1.84
  -1  11   7   -0.83    0.98
   0 -11  -7   -1.74    1.45
   0 -11  -7    0.46    2.93
   0  11   7    2.17    1.10
   0  11   7    0.01    1.60
  -1 -11  -7   -0.16    1.76
  -1 -11  -7   -5.94    3.59
   1  11   7    0.35    1.25
   1  11   7    5.78    3.25
   0  15  -8   -0.18    1.31
   0  15  -8    2.53    1.61
   0 -15   8    1.57    2.51
   0 -15   8    5.50    1.44
  -1  15  -8    0.75    1.57
  -1  15  -8    4.13    2.40
   1 -15   8    0.41    2.63
   3  14  -8   -0.72    1.68
   3  14  -8   -0.18    1.35
  -3 -14   8   -1.17    1.37
   2  14  -8   -0.04    1.44
   2  14  -8   -0.13    1.44
   2  14  -8    0.41    1.17
  -2 -14   8   -0.23    1.08
   1  14  -8    3.02    1.43
   1  14  -8   -0.07    1.08
   1  14  -8    1.25    1.25
  -1 -14   8    1.19    1.73
   0  14  -8   -0.81    1.10
   0  14  -8    0.99    1.01
   0 -14   8    1.08    0.96
   0 -14   8    0.56    1.70
  -1  14  -8    2.59    1.08
  -1  14  -8    1.17    1.12
  -1  14  -8    0.02    1.09
   1 -14   8   -0.68    1.79
   1 -14   8    4.99    1.16
  -2  14  -8    0.28    1.08
  -2  14  -8   -1.29    1.16
  -2  14  -8   -0.91    1.19
   2 -14   8   -1.94    1.92
   2 -14   8    2.03    1.23
  -3  14  -8   -1.12    1.44
  -3  14  -8   -0.18    1.42
   3 -14   8    4.72    2.54
   4  13  -8    1.21    1.70
   4  13  -8   -0.96    1.33
  -4 -13   8   -1.23    1.04
  -4 -13   8   -0.86    1.11
   3  13  -8    0.06    0.94
   3  13  -8    0.58    1.46
  -3 -13   8   -0.04    0.86
  -3 -13   8   -0.06    0.93
   2  13  -8   -1.33    1.14
   2  13  -8   -0.10    1.21
   2  13  -8    0.65    0.89
  -2 -13   8    0.34    0.81
   1  13  -8   -0.66    0.85
   1  13  -8   -0.54    0.96
   1  13  -8   -0.65    1.10
  -1 -13   8    1.46    0.84
   0  13  -8    3.86    0.93
   0  13  -8    3.36    1.10
   0  13  -8    1.88    0.90
   0  13  -8    1.76    1.20
   0 -13   8    3.85    0.97
   0 -13   8    4.61    1.44
  -1  13  -8    0.79    0.89
  -1  13  -8   -0.24    0.92
  -1  13  -8    1.13    0.92
   1 -13   8    1.55    1.38
   1 -13   8    2.78    0.96
  -2  13  -8    0.93    1.09
  -2  13  -8    0.92    0.97
  -2  13  -8    1.10    1.31
   2 -13   8    1.79    1.43
   2 -13   8    2.78    1.10
  -3  13  -8    1.64    1.13
  -3  13  -8    3.25    1.49
  -3  13  -8    0.20    1.10
   3 -13   8    0.01    2.10
   3 -13   8    2.07    1.88
  -4  13  -8   -0.47    1.41
  -4  13  -8   -0.21    1.36
   4 -13   8    4.65    2.09
   4 -13   8    2.33    2.34
   5  12  -8    2.41    2.03
  -5 -12   8    0.02    1.12
  -5 -12   8    0.21    1.18
   4  12  -8   -2.09    0.94
   4  12  -8   -1.03    1.29
  -4 -12   8   -1.50    0.83
  -4 -12   8    2.00    0.95
  -4 -12   8   -0.28    1.19
   3  12  -8   -0.36    0.77
   3  12  -8   -0.97    1.22
   3  12  -8    0.88    1.25
  -3 -12   8   -1.62    0.70
  -3 -12   8   -0.18    0.73
   2  12  -8    3.54    1.03
   2  12  -8    1.64    0.86
   2  12  -8    1.66    1.95
  -2 -12   8    0.41    0.65
  -2 -12   8    1.69    0.81
   1  12  -8    0.80    0.72
   1  12  -8   -0.27    0.85
   1  12  -8    0.80    0.81
   1  12  -8    1.19    0.94
  -1 -12   8   -1.00    0.55
  -1 -12   8   -0.05    0.67
   0  12  -8    0.16    0.85
   0  12  -8    1.18    1.35
   0  12  -8    0.48    0.69
   0 -12   8    0.18    0.70
   0 -12   8    1.44    1.09
  -1  12  -8   -0.27    0.76
  -1  12  -8    0.97    0.80
  -1  12  -8    1.86    0.83
   1 -12   8    0.56    1.09
   1 -12   8    0.23    0.76
   1 -12   8    1.55    1.22
  -2  12  -8    0.07    0.80
  -2  12  -8   -0.55    0.91
  -2  12  -8    0.34    0.89
   2 -12   8    2.20    0.97
   2 -12   8    0.87    1.23
   2 -12   8   -0.71    1.18
   2 -12   8    1.88    1.39
  -3  12  -8   -1.57    0.97
  -3  12  -8   -0.15    0.94
  -3  12  -8    0.35    0.84
   3 -12   8   -1.57    1.65
   3 -12   8    1.59    1.45
  -4  12  -8    1.41    1.23
  -4  12  -8    0.92    1.04
   4 -12   8    2.62    1.97
   4 -12   8   -0.74    1.49
   4 -12   8   -0.26    1.58
  -5  12  -8    0.50    1.29
  -5  12  -8    0.74    1.52
   5 -12   8   -1.72    2.01
   5 -12   8    2.49    1.96
   5 -12   8   -2.55    2.23
   6  11  -8    5.75    2.74
  -6 -11   8    0.44    1.37
  -6 -11   8    2.34    1.42
   5  11  -8    1.53    1.56
  -5 -11   8    0.53    0.92
  -5 -11   8    0.48    1.00
   4  11  -8    0.89    0.84
   4  11  -8   -0.73    1.10
  -4 -11   8   -1.18    2.03
  -4 -11   8    1.45    0.89
  -4 -11   8    1.27    0.83
   3  11  -8    1.12    1.19
   3  11  -8    0.46    0.93
   3  11  -8    0.31    0.75
  -3 -11   8    0.15    0.66
  -3 -11   8    0.51    1.08
  -3 -11   8    0.04    0.80
   2  11  -8   -0.22    0.71
   2  11  -8   -0.06    0.74
   2  11  -8    0.43    0.86
  -2 -11   8    0.38    0.69
  -2 -11   8   -0.31    0.53
   1  11  -8    0.30    0.66
   1  11  -8    0.38    0.54
   1  11  -8    0.10    0.73
   1  11  -8   -0.91    0.72
  -1 -11   8   -0.21    0.47
  -1 -11   8    0.62    0.66
   0  11  -8    4.55    0.87
   0  11  -8    5.56    0.96
   0  11  -8    4.32    0.77
   0  11  -8    3.71    0.71
   0 -11   8    4.54    0.59
   0 -11   8    5.32    1.07
   0 -11   8    5.23    1.03
   0 -11   8    3.83    0.82
  -1  11  -8    5.15    0.79
  -1  11  -8    5.84    1.01
  -1  11  -8    6.21    0.87
  -1  11  -8    8.02    0.94
   1 -11   8    8.16    0.91
   1 -11   8    5.56    1.18
   1 -11   8    6.49    0.97
   1 -11   8    6.25    1.23
  -2  11  -8    3.08    0.91
  -2  11  -8    1.73    0.67
   2 -11   8    4.34    0.97
   2 -11   8    4.87    1.17
   2 -11   8    2.84    1.23
   2 -11   8    2.23    1.23
  -3  11  -8    2.85    0.94
  -3  11  -8    2.84    0.96
  -3  11  -8    3.73    0.75
   3 -11   8    3.08    1.35
   3 -11   8    4.26    1.54
   3 -11   8    4.41    1.45
  -4  11  -8    1.98    0.98
  -4  11  -8    1.31    0.98
   4 -11   8    3.58    1.77
   4 -11   8   -1.13    1.40
   4 -11   8    4.38    1.53
  -5  11  -8   -0.23    1.26
  -5  11  -8    0.71    1.18
   5 -11   8    1.23    2.07
   5 -11   8   -0.53    1.87
   6  10  -8   -0.57    1.77
  -6 -10   8    0.54    1.05
  -6 -10   8    1.24    1.04
   5  10  -8   -1.05    1.32
  -5 -10   8    0.45    0.79
  -5 -10   8   -2.11    0.80
   4  10  -8   -0.88    1.11
  -4 -10   8   -0.09    0.73
  -4 -10   8   -1.20    0.62
   3  10  -8    2.03    0.82
   3  10  -8   -1.31    0.76
   3  10  -8   -0.07    0.70
  -3 -10   8    1.18    0.69
  -3 -10   8    0.79    0.64
  -3 -10   8    0.84    0.63
   2  10  -8    2.72    0.85
   2  10  -8    2.72    0.66
   2  10  -8    2.35    0.75
  -2 -10   8    3.33    0.63
  -2 -10   8    1.83    0.62
   1  10  -8    5.21    0.91
   1  10  -8    4.39    0.72
   1  10  -8    6.76    0.90
   1  10  -8    5.30    0.65
  -1 -10   8    5.52    0.64
  -1 -10   8    5.17    0.75
   0  10  -8    1.28    0.67
   0  10  -8    2.14    0.59
   0  10  -8    1.57    0.70
   0  10  -8    2.04    0.56
   0 -10   8    0.81    0.47
   0 -10   8    1.99    0.58
   0 -10   8    1.46    0.93
   0 -10   8    1.06    0.73
  -1  10  -8    0.89    0.64
  -1  10  -8    0.80    0.52
  -1  10  -8    1.55    0.64
  -1  10  -8    2.69    0.93
   1 -10   8    1.26    0.78
   1 -10   8    1.60    0.88
   1 -10   8    1.61    0.53
   1 -10   8    0.65    0.57
  -2  10  -8    0.36    0.65
  -2  10  -8    1.35    0.75
  -2  10  -8    0.92    0.52
   2 -10   8    1.94    0.65
   2 -10   8    0.58    0.86
   2 -10   8    0.03    0.66
   2 -10   8    3.63    1.09
   2 -10   8    0.41    0.91
  -3  10  -8   -0.37    0.74
  -3  10  -8   -0.28    0.52
  -3  10  -8    1.93    0.85
   3 -10   8    1.11    1.14
   3 -10   8    2.10    1.17
   3 -10   8    0.66    0.94
  -4  10  -8   -0.30    0.83
  -4  10  -8    1.09    0.85
   4 -10   8   -3.56    2.04
   4 -10   8    1.58    1.27
  -5  10  -8    1.39    1.17
  -5  10  -8   -0.10    1.09
   5 -10   8    1.27    1.63
   5 -10   8    2.08    1.45
  -6  10  -8    1.85    1.39
  -6  10  -8    2.32    1.59
   6 -10   8    2.45    2.12
   6 -10   8    0.51    2.08
   7   9  -8   -0.05    2.62
  -7  -9   8    0.40    1.18
  -7  -9   8    1.60    1.40
   6   9  -8    2.81    1.61
  -6  -9   8   -0.02    0.92
  -6  -9   8   -0.98    1.05
   5   9  -8    1.72    1.24
  -5  -9   8    2.45    0.79
  -5  -9   8    1.81    0.79
   4   9  -8    4.66    1.34
   4   9  -8    4.18    1.13
  -4  -9   8    4.69    0.84
  -4  -9   8    4.09    0.81
  -4  -9   8    4.56    0.74
   3   9  -8    5.94    0.82
   3   9  -8    5.21    1.01
   3   9  -8    6.82    0.97
  -3  -9   8    5.93    0.73
  -3  -9   8    5.98    0.78
  -3  -9   8    6.70    0.81
   2   9  -8    3.15    0.74
   2   9  -8    2.64    0.40
   2   9  -8    2.55    0.77
   2   9  -8    1.52    0.57
  -2  -9   8    2.71    0.59
  -2  -9   8    2.99    0.56
   1   9  -8   -0.22    0.49
   1   9  -8   -0.31    0.45
   1   9  -8    0.66    0.65
   1   9  -8    0.21    0.55
  -1  -9   8    1.04    0.45
  -1  -9   8    0.61    0.41
  -1  -9   8    0.60    0.48
   0   9  -8    0.03    0.52
   0   9  -8    0.50    0.45
   0   9  -8   -0.23    0.44
   0   9  -8   -0.39    0.60
   0  -9   8    0.05    0.48
   0  -9   8   -0.05    0.37
   0  -9   8    1.90    0.61
   0  -9   8    0.30    0.56
  -1   9  -8    5.53    0.74
  -1   9  -8    5.48    0.76
  -1   9  -8    4.76    0.65
  -1   9  -8    6.42    0.71
   1  -9   8    5.38    0.66
   1  -9   8    6.10    0.97
   1  -9   8    7.97    1.10
   1  -9   8    5.13    0.40
   1  -9   8    6.55    0.79
  -2   9  -8   10.87    1.08
  -2   9  -8    9.87    0.82
  -2   9  -8   10.83    1.04
   2  -9   8    9.86    1.32
   2  -9   8   10.45    1.04
   2  -9   8   11.70    1.55
   2  -9   8   10.93    1.10
   2  -9   8   11.02    1.40
  -3   9  -8    2.74    0.77
  -3   9  -8    3.77    0.79
  -3   9  -8    3.78    0.61
   3  -9   8    1.96    1.04
   3  -9   8    3.14    1.17
   3  -9   8    3.33    0.79
   3  -9   8    4.47    0.99
  -4   9  -8    9.64    1.48
  -4   9  -8   12.27    1.28
   4  -9   8   11.76    1.71
  -5   9  -8    1.63    1.02
  -5   9  -8    3.33    1.13
   5  -9   8    2.94    1.54
   5  -9   8    1.10    1.48
   5  -9   8    3.64    1.40
  -6   9  -8    0.00    1.23
  -6   9  -8    1.03    1.38
  -6   9  -8   -0.45    1.22
   6  -9   8    1.06    1.88
   6  -9   8    0.51    1.67
   7   8  -8    2.36    2.03
  -7  -8   8    0.00    1.03
  -7  -8   8    0.29    1.06
   6   8  -8    1.06    1.42
  -6  -8   8    1.76    0.88
  -6  -8   8    2.45    0.89
   5   8  -8   -0.37    1.04
  -5  -8   8   -0.29    0.71
  -5  -8   8   -0.89    0.62
   4   8  -8    1.30    0.91
   4   8  -8    0.98    0.89
  -4  -8   8    2.30    0.59
  -4  -8   8    0.97    0.58
  -4  -8   8    1.28    0.58
   3   8  -8   -1.01    0.68
   3   8  -8   -1.01    0.46
   3   8  -8    0.54    0.70
  -3  -8   8    0.59    0.48
  -3  -8   8    0.42    0.49
  -3  -8   8    0.45    0.44
   2   8  -8    1.39    0.31
   2   8  -8    1.27    0.55
   2   8  -8    0.98    0.67
   2   8  -8    0.90    0.49
  -2  -8   8    0.54    0.44
  -2  -8   8    1.03    0.44
   1   8  -8    6.10    0.73
   1   8  -8    6.51    0.81
   1   8  -8    5.69    0.71
   1   8  -8    6.36    0.91
  -1  -8   8    5.77    0.69
  -1  -8   8    5.72    0.54
  -1  -8   8    5.59    0.66
   0   8  -8   40.88    1.60
   0   8  -8   41.13    1.59
   0   8  -8   39.98    1.73
   0   8  -8   38.83    1.57
   0  -8   8   44.12    1.76
   0  -8   8   42.63    1.54
   0  -8   8   42.50    1.64
   0  -8   8   40.93    1.61
  -1   8  -8    1.63    0.47
  -1   8  -8    1.33    0.50
  -1   8  -8    1.89    0.58
  -1   8  -8    1.55    0.38
   1  -8   8    2.50    0.59
   1  -8   8    2.22    0.85
   1  -8   8    1.59    0.58
   1  -8   8    0.98    0.21
   1  -8   8    1.81    0.65
  -2   8  -8    7.04    0.86
  -2   8  -8    6.47    0.70
  -2   8  -8    7.87    0.90
   2  -8   8    7.18    0.96
   2  -8   8    8.25    1.12
   2  -8   8    7.10    0.86
   2  -8   8    7.04    0.92
   2  -8   8    7.64    1.21
  -3   8  -8    1.99    0.67
  -3   8  -8    1.72    0.65
  -3   8  -8    0.73    0.51
   3  -8   8    0.86    0.93
   3  -8   8    0.37    0.61
   3  -8   8    2.11    0.91
   3  -8   8    2.85    0.89
  -4   8  -8    0.83    0.69
  -4   8  -8    0.18    0.74
   4  -8   8    0.92    0.97
   4  -8   8   -1.42    1.09
   4  -8   8   -0.22    0.94
  -5   8  -8   -0.35    0.86
  -5   8  -8    0.77    0.95
   5  -8   8    1.27    1.26
   5  -8   8    0.67    1.36
  -6   8  -8    0.35    1.17
  -6   8  -8    0.87    1.22
  -6   8  -8    1.17    1.14
   6  -8   8    0.29    1.66
   6  -8   8   -0.93    1.67
   8   7  -8   -0.80    2.89
  -8  -7   8   -0.01    1.36
  -8  -7   8   -1.80    1.44
   7   7  -8   -1.10    1.56
  -7  -7   8    1.62    0.94
  -7  -7   8   -0.01    0.98
   6   7  -8    2.77    1.38
  -6  -7   8   -1.28    1.12
  -6  -7   8   -0.65    0.69
   5   7  -8    5.78    1.14
   5   7  -8    6.17    1.29
  -5  -7   8    4.39    0.77
  -5  -7   8    4.89    0.78
  -5  -7   8    5.59    1.12
   4   7  -8    7.52    1.19
   4   7  -8   11.10    1.23
  -4  -7   8    7.55    0.84
  -4  -7   8    7.47    0.85
  -4  -7   8    7.69    0.96
   3   7  -8    8.37    1.10
   3   7  -8   11.12    1.36
  -3  -7   8   10.86    0.84
  -3  -7   8   11.18    0.85
   2   7  -8   36.77    1.70
   2   7  -8   34.07    1.61
   2   7  -8   36.33    1.55
  -2  -7   8   37.10    1.46
  -2  -7   8   38.27    1.46
   1   7  -8    2.36    0.58
   1   7  -8    2.46    0.42
   1   7  -8    2.33    0.54
   1   7  -8    1.97    0.48
  -1  -7   8    2.20    0.52
  -1  -7   8    2.46    0.45
   0   7  -8   33.90    1.39
   0   7  -8   33.04    1.36
   0   7  -8   35.86    1.51
   0   7  -8   32.27    1.30
   0  -7   8   35.89    1.50
   0  -7   8   35.09    1.19
   0  -7   8   33.61    1.31
   0  -7   8   33.02    1.40
  -1   7  -8    0.42    0.44
  -1   7  -8    0.39    0.27
  -1   7  -8   -0.02    0.39
  -1   7  -8    0.15    0.50
   1  -7   8    0.17    0.45
   1  -7   8   -0.01    0.16
   1  -7   8    0.51    0.53
   1  -7   8    1.05    0.58
   1  -7   8    0.83    0.46
  -2   7  -8    8.00    0.86
  -2   7  -8    7.61    0.85
  -2   7  -8    7.09    0.61
   2  -7   8    6.74    1.00
   2  -7   8    7.58    1.01
   2  -7   8    7.15    0.93
   2  -7   8    7.80    1.09
   2  -7   8    7.34    0.90
  -3   7  -8    9.16    0.94
  -3   7  -8   10.43    1.00
   3  -7   8    6.93    0.85
   3  -7   8    9.31    1.31
   3  -7   8   10.74    1.26
   3  -7   8    8.87    1.18
  -4   7  -8    9.19    1.17
  -4   7  -8    7.53    1.01
   4  -7   8    6.05    1.41
   4  -7   8    8.32    1.20
  -5   7  -8    3.69    1.00
  -5   7  -8    5.46    0.94
  -5   7  -8    3.11    0.97
   5  -7   8    5.18    1.60
   5  -7   8    3.96    1.24
  -6   7  -8    1.53    1.23
  -6   7  -8    3.55    1.28
  -6   7  -8    6.29    1.44
   6  -7   8    3.43    1.63
   6  -7   8    0.93    1.70
  -7   7  -8    0.97    1.57
  -7   7  -8   -0.84    1.57
   7  -7   8    3.54    2.52
   7  -7   8   -1.84    2.21
   8   6  -8    1.10    2.33
  -8  -6   8    1.16    1.25
  -8  -6   8    2.09    1.25
   7   6  -8    2.15    1.66
  -7  -6   8    0.48    0.91
  -7  -6   8    1.09    0.95
  -6  -6   8    3.85    1.38
  -6  -6   8    3.00    0.78
   5   6  -8    4.99    1.14
  -5  -6   8    6.11    0.78
  -5  -6   8    4.56    0.71
   4   6  -8    8.86    0.77
   4   6  -8    8.06    1.18
   4   6  -8    8.24    1.16
  -4  -6   8    8.20    0.58
  -4  -6   8    7.25    0.78
  -4  -6   8    8.87    0.79
   3   6  -8    7.75    0.58
   3   6  -8    6.77    0.87
   3   6  -8    7.68    0.99
   3   6  -8    7.42    1.01
  -3  -6   8    7.25    0.71
  -3  -6   8    7.52    0.73
   2   6  -8    0.66    0.62
   2   6  -8    1.49    0.59
   2   6  -8    0.61    0.29
  -2  -6   8    1.20    0.44
  -2  -6   8    1.20    0.43
   1   6  -8    8.15    0.84
   1   6  -8    8.04    0.59
   1   6  -8    7.13    0.76
  -1  -6   8    8.67    0.69
  -1  -6   8    9.51    0.68
   0   6  -8   17.65    0.83
   0   6  -8   17.67    0.95
   0   6  -8   18.81    1.08
   0  -6   8   18.62    0.98
   0  -6   8   17.73    0.91
   0  -6   8   16.66    0.74
  -1   6  -8   53.55    1.60
  -1   6  -8   50.45    1.95
  -1   6  -8   52.67    1.91
   1  -6   8   49.61    1.92
   1  -6   8   54.05    1.91
   1  -6   8   53.85    1.61
   1  -6   8   51.70    1.95
   1  -6   8   56.52    2.64
  -2   6  -8   12.47    0.92
  -2   6  -8   13.09    0.93
   2  -6   8   10.58    1.03
   2  -6   8   12.26    1.14
   2  -6   8   12.99    1.26
   2  -6   8    9.52    0.49
   2  -6   8   12.72    1.01
  -3   6  -8   23.26    1.30
  -3   6  -8   23.88    1.24
   3  -6   8   22.35    1.50
   3  -6   8   20.32    1.64
   3  -6   8   19.91    1.33
  -4   6  -8    8.86    1.11
  -4   6  -8    7.73    0.96
   4  -6   8    9.08    1.31
   4  -6   8    7.44    1.36
  -5   6  -8   -0.72    1.06
  -5   6  -8    1.59    0.76
   5  -6   8    2.07    2.15
   5  -6   8    0.57    1.08
  -6   6  -8   -0.49    1.03
  -6   6  -8    0.68    1.16
   6  -6   8    1.14    1.68
   6  -6   8   -0.61    1.29
  -7   6  -8   -2.13    1.44
  -7   6  -8    2.00    1.61
   7  -6   8   -0.72    2.38
   7  -6   8   -2.68    1.93
   8   5  -8    0.11    2.22
  -8  -5   8    2.60    1.19
  -8  -5   8    2.27    1.17
   7   5  -8    3.70    1.62
  -7  -5   8    2.25    0.84
   6   5  -8    1.61    1.14
  -6  -5   8    1.21    0.74
  -6  -5   8    1.33    0.64
   5   5  -8    3.07    1.14
   5   5  -8   -0.13    0.58
  -5  -5   8    0.84    0.48
  -5  -5   8    1.23    0.50
   4   5  -8   17.37    1.06
   4   5  -8   17.99    1.36
   4   5  -8   17.25    1.57
  -4  -5   8   17.57    0.98
  -4  -5   8   17.64    0.95
  -4  -5   8   16.43    0.70
   3   5  -8    8.10    1.08
   3   5  -8    7.48    0.97
   3   5  -8    8.20    0.47
   3   5  -8    7.64    0.90
  -3  -5   8    7.06    0.69
  -3  -5   8    8.76    0.71
   2   5  -8   33.26    1.55
   2   5  -8   35.28    1.27
   2   5  -8   34.61    1.64
  -2  -5   8   33.02    1.31
  -2  -5   8   35.34    1.33
   1   5  -8   57.05    1.92
   1   5  -8   61.16    1.74
   1   5  -8   58.64    2.17
   1   5  -8   58.25    2.03
  -1  -5   8   58.11    1.95
  -1  -5   8   57.01    1.87
  -1  -5   8   58.99    1.93
   0   5  -8   54.19    1.76
   0   5  -8   53.59    2.01
   0   5  -8   54.04    1.87
   0  -5   8   53.54    1.87
   0  -5   8   54.28    1.87
   0  -5   8   54.91    1.83
   0  -5   8   53.46    1.69
  -1   5  -8  108.55    3.48
  -1   5  -8  114.31    3.46
   1  -5   8  112.05    3.19
   1  -5   8  107.76    3.52
   1  -5   8  113.22    3.44
   1  -5   8  111.16    3.48
  -2   5  -8   15.88    0.99
  -2   5  -8   14.14    0.96
   2  -5   8   12.00    0.61
   2  -5   8   14.76    1.10
   2  -5   8   14.98    1.06
   2  -5   8   15.48    1.32
  -3   5  -8    0.66    0.52
  -3   5  -8    1.90    0.60
   3  -5   8    0.68    0.61
   3  -5   8    0.13    0.62
   3  -5   8    0.72    0.78
  -4   5  -8    7.76    0.99
  -4   5  -8    7.05    0.94
  -4   5  -8    6.58    0.95
   4  -5   8    3.86    1.12
   4  -5   8    7.44    1.08
  -5   5  -8    6.10    1.05
  -5   5  -8    5.09    0.84
  -5   5  -8    4.02    1.03
   5  -5   8    6.63    1.31
   5  -5   8    5.29    1.64
  -6   5  -8    2.29    1.12
  -6   5  -8    1.82    1.13
   6  -5   8    1.53    1.38
   6  -5   8    4.00    1.67
  -7   5  -8    7.62    2.03
  -7   5  -8    1.78    1.49
   7  -5   8    5.62    1.93
   7  -5   8    2.76    2.32
   8   4  -8    1.87    1.96
  -8  -4   8   -0.18    1.02
  -8  -4   8   -1.91    1.70
   7   4  -8    1.43    1.53
  -7  -4   8    0.73    0.77
  -7  -4   8    0.14    0.79
   6   4  -8    3.95    1.15
  -6  -4   8    4.84    0.77
  -6  -4   8    5.14    0.70
   5   4  -8   14.73    1.23
   5   4  -8   16.32    1.48
  -5  -4   8   16.31    1.02
  -5  -4   8   16.71    0.96
   4   4  -8   55.74    2.38
   4   4  -8   49.72    2.37
   4   4  -8   54.73    2.16
  -4  -4   8   56.92    1.85
  -4  -4   8   51.64    1.89
   3   4  -8   42.17    1.34
   3   4  -8   39.79    1.96
   3   4  -8   39.15    1.25
   3   4  -8   40.15    1.87
   3   4  -8   39.27    1.84
  -3  -4   8   40.85    1.51
  -3  -4   8   40.48    1.48
  -3  -4   8   39.34    1.23
   2   4  -8   10.45    0.65
   2   4  -8    9.00    0.66
   2   4  -8   10.21    1.04
   2   4  -8    9.45    0.85
  -2  -4   8    9.21    0.73
  -2  -4   8   10.41    0.71
  -2  -4   8   10.38    0.66
   1   4  -8   16.56    0.88
   1   4  -8   17.06    0.67
   1   4  -8   16.99    1.14
  -1  -4   8   16.64    0.78
  -1  -4   8   18.09    0.75
  -1  -4   8   17.00    0.83
  -1  -4   8   16.72    0.87
   0   4  -8   32.58    1.17
   0   4  -8   33.81    1.34
   0   4  -8   33.14    1.47
   0  -4   8   31.80    1.11
   0  -4   8   29.15    1.39
   0  -4   8   32.08    1.22
   0  -4   8   30.19    1.69
  -1   4  -8    6.04    0.73
  -1   4  -8    6.17    0.79
   1  -4   8    5.16    0.61
   1  -4   8    4.94    0.40
   1  -4   8    5.39    0.66
  -2   4  -8   93.87    3.06
  -2   4  -8   94.56    3.03
   2  -4   8   84.39    2.77
   2  -4   8   94.77    3.12
   2  -4   8   94.69    3.39
   2  -4   8  100.20    3.19
  -3   4  -8   44.23    1.72
  -3   4  -8   42.65    1.79
  -3   4  -8   44.13    1.81
   3  -4   8   40.09    1.37
   3  -4   8   38.25    2.15
   3  -4   8   43.06    1.91
   3  -4   8   39.22    2.39
  -4   4  -8   27.81    1.54
  -4   4  -8   29.21    1.44
  -4   4  -8   27.46    1.55
   4  -4   8   23.97    1.98
   4  -4   8   28.14    1.71
  -5   4  -8   13.14    1.55
  -5   4  -8   14.60    1.63
  -5   4  -8   14.76    1.49
   5  -4   8   12.10    1.94
   5  -4   8   12.44    1.71
  -6   4  -8    0.38    1.11
  -6   4  -8    1.70    1.14
   6  -4   8    0.33    1.18
   6  -4   8   -0.76    1.33
  -7   4  -8    4.22    1.64
  -7   4  -8    0.98    1.43
   7  -4   8    4.71    1.80
   7  -4   8    1.81    2.25
   8   3  -8   10.07    2.09
  -8  -3   8    5.15    1.13
  -8  -3   8    8.14    1.22
  -8  -3   8    7.56    1.18
   7   3  -8    8.85    1.72
  -7  -3   8    7.29    1.00
  -7  -3   8    9.35    0.98
   6   3  -8   11.40    1.57
   6   3  -8    9.06    1.27
  -6  -3   8    9.72    0.88
  -6  -3   8   10.46    0.99
   5   3  -8    3.35    1.16
   5   3  -8    3.81    1.01
  -5  -3   8    2.67    0.51
  -5  -3   8    3.44    0.52
   4   3  -8    8.13    1.10
   4   3  -8    8.19    1.12
  -4  -3   8    8.19    0.71
  -4  -3   8    7.28    0.92
   3   3  -8    0.17    0.27
   3   3  -8    0.08    0.73
   3   3  -8    1.23    0.62
   3   3  -8    0.43    0.65
  -3  -3   8    0.41    0.35
  -3  -3   8    0.06    0.25
  -3  -3   8   -0.02    0.36
   2   3  -8   98.74    3.29
   2   3  -8  107.77    2.85
   2   3  -8   97.33    3.14
  -2  -3   8  100.97    2.98
  -2  -3   8  102.47    3.05
   1   3  -8   34.58    1.22
   1   3  -8   35.73    1.40
   1   3  -8   36.81    2.21
   1   3  -8   34.72    1.39
  -1  -3   8   34.95    1.25
  -1  -3   8   34.21    1.16
  -1  -3   8   36.36    1.26
   0   3  -8  121.20    3.57
   0   3  -8  121.76    3.74
   0  -3   8  122.28    3.82
   0  -3   8  130.04    3.63
   0  -3   8  113.11    3.58
   0  -3   8  119.41    3.52
  -1   3  -8  122.69    3.83
  -1   3  -8  127.00    3.97
  -1   3  -8  127.33    4.01
   1  -3   8  135.80    3.94
   1  -3   8  132.62    3.72
   1  -3   8  127.27    3.87
  -2   3  -8   27.58    1.30
  -2   3  -8   29.67    1.40
  -2   3  -8   29.01    1.38
   2  -3   8   26.00    1.36
   2  -3   8   25.62    1.08
   2  -3   8   30.41    0.94
   2  -3   8   27.24    1.59
  -3   3  -8    1.73    0.64
  -3   3  -8    1.70    0.57
  -3   3  -8    0.58    0.60
   3  -3   8    0.98    0.70
   3  -3   8   -0.12    0.57
   3  -3   8    1.02    0.31
   3  -3   8    1.33    0.61
  -4   3  -8    0.73    0.67
  -4   3  -8    0.19    0.61
  -4   3  -8    0.63    0.71
   4  -3   8   -0.28    0.88
   4  -3   8    0.86    0.73
   4  -3   8    0.39    0.37
  -5   3  -8    1.86    0.97
  -5   3  -8    1.36    0.90
   5  -3   8    2.09    1.24
   5  -3   8    1.57    0.94
  -6   3  -8    3.88    1.29
  -6   3  -8    6.40    1.32
   6  -3   8    6.82    1.41
   6  -3   8    4.84    1.73
  -7   3  -8    2.15    1.53
  -7   3  -8    1.25    1.55
   7  -3   8    2.60    1.63
   7  -3   8    1.58    2.21
   9   2  -8   -2.54    2.63
  -9  -2   8    0.12    1.20
  -9  -2   8    1.13    1.25
   8   2  -8    0.28    1.68
  -8  -2   8    0.91    0.88
  -8  -2   8   -1.35    0.89
   7   2  -8   -1.97    1.05
  -7  -2   8   -0.25    0.69
  -7  -2   8   -0.52    0.66
  -7  -2   8   -0.09    0.61
   6   2  -8    3.00    0.93
   6   2  -8    2.87    1.10
  -6  -2   8    3.25    0.70
  -6  -2   8    2.45    0.52
  -6  -2   8    2.94    0.61
   5   2  -8    5.81    1.11
   5   2  -8    5.60    1.02
  -5  -2   8    5.60    0.68
  -5  -2   8    5.52    0.75
  -5  -2   8    6.24    0.72
   4   2  -8  143.59    4.70
   4   2  -8  139.53    3.97
   4   2  -8  143.83    5.05
  -4  -2   8  139.82    4.03
  -4  -2   8  138.81    4.16
  -4  -2   8  141.43    4.23
   3   2  -8   59.91    2.55
   3   2  -8   58.38    2.37
   3   2  -8   61.77    1.97
   3   2  -8   58.17    1.75
  -3  -2   8   60.34    1.83
  -3  -2   8   59.38    1.95
  -3  -2   8   58.30    2.01
   2   2  -8   46.79    1.42
   2   2  -8   42.23    1.66
   2   2  -8   42.11    1.76
  -2  -2   8   44.81    1.42
   1   2  -8   77.27    2.26
   1   2  -8   74.53    2.69
   1   2  -8   75.90    2.69
   1   2  -8   77.33    2.57
  -1  -2   8   77.93    2.32
  -1  -2   8   76.97    2.21
  -1  -2   8   76.55    2.36
  -1  -2   8   75.80    2.38
   0   2  -8    5.34    0.80
   0   2  -8    4.60    0.51
   0   2  -8    4.04    0.68
   0  -2   8    3.97    0.46
   0  -2   8    4.72    0.42
  -1   2  -8    9.40    0.91
  -1   2  -8    9.15    0.74
  -1   2  -8    7.78    0.99
   1  -2   8    8.85    0.65
   1  -2   8   10.40    0.64
   1  -2   8   10.04    0.47
   1  -2   8    9.82    0.88
   1  -2   8    9.96    1.01
  -2   2  -8    1.87    0.52
  -2   2  -8    2.04    0.60
   2  -2   8    1.29    0.63
   2  -2   8    2.67    0.59
   2  -2   8    1.64    0.61
   2  -2   8    1.79    0.20
   2  -2   8    1.29    0.38
  -3   2  -8   60.41    2.16
  -3   2  -8   58.08    2.20
  -3   2  -8   57.59    2.23
   3  -2   8   53.82    2.27
   3  -2   8   52.10    2.47
   3  -2   8   46.98    1.92
   3  -2   8   57.97    2.22
  -4   2  -8   24.86    1.52
  -4   2  -8   27.53    1.51
  -4   2  -8   27.17    1.61
   4  -2   8   25.75    1.60
   4  -2   8   21.82    1.88
  -5   2  -8   18.17    1.65
  -5   2  -8   16.74    1.59
   5  -2   8   17.15    2.16
   5  -2   8   19.65    1.73
  -6   2  -8    4.51    1.34
  -6   2  -8    5.95    1.29
   6  -2   8    6.04    1.71
   6  -2   8    4.78    1.38
  -7   2  -8    0.73    1.52
  -7   2  -8    1.58    1.54
   7  -2   8    4.76    2.22
   9   1  -8    2.12    2.74
  -9  -1   8   -1.46    1.18
  -9  -1   8    1.40    1.23
   8   1  -8    7.08    1.94
  -8  -1   8    3.79    1.44
  -8  -1   8    4.53    1.04
   7   1  -8   14.63    2.15
   7   1  -8   12.86    1.83
  -7  -1   8   13.38    1.05
  -7  -1   8   16.84    1.29
  -7  -1   8   15.54    1.29
   6   1  -8   17.24    1.21
   6   1  -8   17.18    1.69
   6   1  -8   16.92    1.65
  -6  -1   8   18.07    0.96
  -6  -1   8   17.79    1.08
  -6  -1   8   18.03    1.18
   5   1  -8    8.02    1.13
   5   1  -8    9.51    1.31
  -5  -1   8    9.01    0.85
  -5  -1   8   10.25    0.78
  -5  -1   8    9.91    0.59
   4   1  -8   19.51    1.43
   4   1  -8   19.67    1.58
   4   1  -8   19.65    0.90
  -4  -1   8   19.56    1.03
  -4  -1   8   19.93    0.76
  -4  -1   8   19.54    0.96
   3   1  -8    2.21    0.74
   3   1  -8    2.98    0.45
   3   1  -8    2.22    0.96
   3   1  -8    2.85    0.40
  -3  -1   8    2.10    0.41
  -3  -1   8    3.08    0.46
  -3  -1   8    2.34    0.32
  -3  -1   8    2.84    0.31
   2   1  -8    9.73    0.90
   2   1  -8    9.66    0.61
   2   1  -8    8.63    1.17
   2   1  -8    7.93    0.75
  -2  -1   8    9.22    0.63
  -2  -1   8    9.12    0.49
  -2  -1   8    7.17    0.82
   1   1  -8  182.68    5.04
   1   1  -8  176.51    5.50
   1   1  -8  187.36    5.39
   1   1  -8  176.08    5.37
  -1  -1   8  179.01    5.15
  -1  -1   8  177.58    5.15
   0   1  -8   55.25    2.24
   0   1  -8   54.51    1.79
   0   1  -8   54.80    2.12
   0  -1   8   51.83    2.03
   0  -1   8   55.24    1.81
   0  -1   8   55.65    1.71
  -1   1  -8   74.92    2.57
  -1   1  -8   78.02    2.79
  -1   1  -8   80.80    2.76
   1  -1   8   82.10    2.70
   1  -1   8   81.85    2.53
   1  -1   8   80.71    2.33
   1  -1   8   80.78    2.50
  -2   1  -8   57.61    2.22
  -2   1  -8   56.85    2.11
  -2   1  -8   57.95    2.08
   2  -1   8   53.57    2.17
   2  -1   8   50.93    1.97
   2  -1   8   55.39    2.35
   2  -1   8   54.35    1.63
   2  -1   8   57.76    2.03
  -3   1  -8   41.40    1.74
  -3   1  -8   42.15    1.82
  -3   1  -8   41.03    1.88
   3  -1   8   38.34    2.06
   3  -1   8   37.52    1.76
   3  -1   8   39.83    1.92
   3  -1   8   42.49    1.79
  -4   1  -8    5.11    0.85
  -4   1  -8    7.95    1.02
  -4   1  -8    3.92    0.90
   4  -1   8    6.34    0.91
   4  -1   8    5.09    1.12
   4  -1   8    4.12    0.76
  -5   1  -8    1.05    0.92
  -5   1  -8    0.57    1.05
   5  -1   8    1.63    1.22
   5  -1   8   -1.36    0.83
  -6   1  -8    1.19    1.28
  -6   1  -8    0.67    1.10
   6  -1   8    1.73    1.61
  -7   1  -8   -0.27    1.70
  -7   1  -8    2.43    1.67
  -7   1  -8    3.70    1.62
   7  -1   8   -0.74    2.43
   9   0  -8    0.40    2.72
  -9   0   8    0.25    1.18
   8   0  -8    1.60    1.82
   8   0  -8    0.52    1.84
  -8   0   8    0.23    0.87
   7   0  -8    5.73    1.83
   7   0  -8    3.15    1.22
  -7   0   8    4.42    0.83
  -7   0   8    5.55    0.79
   6   0  -8    1.20    0.97
   6   0  -8    1.56    0.96
   6   0  -8    1.37    0.98
  -6   0   8    0.17    0.47
  -6   0   8    0.64    0.52
  -6   0   8    0.73    0.37
   5   0  -8    4.16    0.99
   5   0  -8    4.32    1.04
   5   0  -8    4.79    0.72
  -5   0   8    3.68    0.54
  -5   0   8    3.80    0.39
  -5   0   8    3.64    0.60
   4   0  -8   19.52    1.55
   4   0  -8   19.90    1.51
   4   0  -8   18.73    1.04
  -4   0   8   20.68    0.95
  -4   0   8   19.28    0.69
  -4   0   8   18.94    0.99
   3   0  -8  150.10    4.52
   3   0  -8  150.72    4.50
   3   0  -8  148.53    5.12
   3   0  -8  146.69    4.88
   3   0  -8  152.70    4.21
  -3   0   8  152.57    4.42
  -3   0   8  147.04    4.14
   2   0  -8   17.16    1.11
   2   0  -8   18.36    0.62
   2   0  -8   17.35    1.64
   2   0  -8   17.01    0.96
   2   0  -8   17.93    1.26
  -2   0   8   17.64    0.85
  -2   0   8   18.11    0.92
   1   0  -8   98.97    3.37
   1   0  -8  100.64    3.00
  -1   0   8  104.93    3.10
   0   0  -8   67.84    2.48
   0   0  -8   65.80    2.17
   0   0  -8   66.92    1.98
   0   0  -8   67.77    2.52
   0   0   8   64.92    2.31
   0   0   8   72.99    2.30
   0   0   8   67.48    2.07
  -1   0  -8   16.91    1.16
  -1   0  -8   19.56    1.26
   1   0   8   18.57    0.84
   1   0   8   17.88    1.13
   1   0   8   19.73    1.08
   1   0   8   17.31    1.21
   1   0   8   19.01    0.83
  -2   0  -8    3.22    0.62
  -2   0  -8    4.20    0.84
  -2   0  -8    3.38    0.66
   2   0   8    2.87    0.28
   2   0   8    3.47    0.58
   2   0   8    3.16    0.64
   2   0   8    2.19    0.69
   2   0   8    2.92    0.71
  -3   0  -8    4.00    0.88
  -3   0  -8    3.36    0.74
   3   0   8    4.16    0.72
   3   0   8    4.21    0.94
   3   0   8    3.84    0.71
   3   0   8    3.97    0.46
  -4   0  -8    5.65    0.98
  -4   0  -8    6.00    1.05
   4   0   8    4.45    0.76
   4   0   8    5.16    1.15
   4   0   8    7.23    0.99
  -5   0  -8   12.18    1.46
  -5   0  -8   10.33    1.35
   5   0   8    7.45    1.62
  -6   0  -8    9.50    1.48
  -6   0  -8    9.21    1.58
   6   0   8    5.31    1.72
  -7   0  -8    1.29    1.77
  -7   0  -8   -0.08    1.79
   7   0   8   -0.62    2.39
   9  -1  -8    1.55    2.71
   8  -1  -8    3.84    1.87
   8  -1  -8    3.38    1.85
  -8   1   8    0.45    0.86
  -8   1   8    2.17    0.89
  -8   1   8    0.31    0.88
   7  -1  -8   11.26    2.93
   7  -1  -8    5.71    1.16
   7  -1  -8    7.81    1.47
  -7   1   8    7.85    0.97
  -7   1   8    7.10    0.93
  -7   1   8    7.52    0.82
   6  -1  -8   18.17    1.45
   6  -1  -8   19.31    1.89
   6  -1  -8   17.47    1.83
  -6   1   8   18.00    1.05
  -6   1   8   17.22    1.13
   5  -1  -8   29.24    1.99
   5  -1  -8   30.89    2.01
  -5   1   8   32.30    1.28
  -5   1   8   30.45    1.39
  -5   1   8   30.82    0.97
   4  -1  -8   21.71    1.31
   4  -1  -8   23.62    1.65
   4  -1  -8   25.73    1.68
  -4   1   8   22.78    1.10
  -4   1   8   22.38    0.71
  -4   1   8   25.31    1.04
   3  -1  -8   55.15    2.09
   3  -1  -8   57.70    2.13
   3  -1  -8   54.95    2.44
   3  -1  -8   54.91    2.60
  -3   1   8   55.24    1.94
  -3   1   8   55.71    1.82
   2  -1  -8    2.47    1.01
   2  -1  -8    2.11    0.22
   2  -1  -8    2.32    0.59
   2  -1  -8    2.41    0.28
   2  -1  -8    2.45    0.95
  -2   1   8    1.90    0.40
  -2   1   8    2.35    0.48
  -2   1   8    2.07    0.25
   1  -1  -8   17.35    0.86
   1  -1  -8   18.81    1.70
   1  -1  -8   20.14    1.37
  -1   1   8   20.38    0.97
  -1   1   8   20.63    0.89
  -1   1   8   20.66    0.99
   0  -1  -8   86.11    3.17
   0  -1  -8   88.34    2.86
   0  -1  -8   88.21    2.61
   0   1   8   90.33    2.91
   0   1   8   94.74    2.91
   0   1   8   91.78    2.72
   0   1   8   94.66    2.89
  -1  -1  -8   43.25    1.95
  -1  -1  -8   43.23    1.77
   1   1   8   42.44    1.80
   1   1   8   44.55    1.75
   1   1   8   42.88    1.42
   1   1   8   43.73    1.79
  -2  -1  -8   25.73    1.34
  -2  -1  -8   24.65    1.49
   2   1   8   23.05    1.43
   2   1   8   23.25    1.36
   2   1   8   22.81    1.00
   2   1   8   21.18    1.29
  -3  -1  -8   41.75    2.03
  -3  -1  -8   44.77    1.94
   3   1   8   45.35    2.17
   3   1   8   38.33    1.67
   3   1   8   39.22    1.90
  -4  -1  -8   22.02    1.63
  -4  -1  -8   21.13    1.66
   4   1   8   18.53    1.48
   4   1   8   17.53    1.78
  -5  -1  -8    2.18    1.18
  -5  -1  -8    1.96    1.05
   5   1   8    0.46    1.00
  -6  -1  -8   -0.69    1.37
  -6  -1  -8    0.63    1.14
  -6  -1  -8    1.47    1.31
   6   1   8    4.28    1.78
   9  -2  -8    4.95    3.15
   8  -2  -8    7.62    1.79
   8  -2  -8    5.40    2.00
  -8   2   8    5.27    1.34
  -8   2   8    2.61    0.98
   7  -2  -8    5.28    1.79
   7  -2  -8    5.47    1.59
   7  -2  -8    7.13    1.32
  -7   2   8    4.71    0.86
  -7   2   8    6.30    0.75
  -7   2   8    5.11    0.92
   6  -2  -8    3.14    1.17
   6  -2  -8    5.00    1.01
   6  -2  -8    2.64    1.17
  -6   2   8    2.81    0.60
  -6   2   8    2.48    0.52
  -6   2   8    2.26    0.64
   5  -2  -8    1.25    0.98
   5  -2  -8    0.90    0.87
   5  -2  -8    0.63    0.98
  -5   2   8    1.72    0.44
  -5   2   8    1.88    0.52
  -5   2   8    1.18    0.48
   4  -2  -8    0.12    0.77
   4  -2  -8    0.34    0.84
   4  -2  -8    1.94    0.92
  -4   2   8    0.42    0.43
  -4   2   8    0.26    0.45
   3  -2  -8    7.42    1.17
   3  -2  -8    8.02    1.00
  -3   2   8    9.35    0.76
  -3   2   8    6.88    0.62
  -3   2   8    8.63    0.44
  -3   2   8    7.06    0.67
   2  -2  -8   49.74    2.11
   2  -2  -8   52.23    2.57
   2  -2  -8   48.75    1.61
   2  -2  -8   45.56    2.11
  -2   2   8   49.90    1.76
  -2   2   8   49.42    1.72
  -2   2   8   49.54    1.69
   1  -2  -8   43.59    1.59
   1  -2  -8   42.90    1.96
   1  -2  -8   42.12    2.32
  -1   2   8   43.62    1.64
  -1   2   8   45.21    1.56
   0  -2  -8   29.47    1.81
   0  -2  -8   29.19    1.36
   0  -2  -8   28.00    1.67
   0   2   8   30.00    1.25
   0   2   8   29.12    1.19
   0   2   8   30.62    1.37
   0   2   8   32.14    1.36
  -1  -2  -8   27.09    1.82
  -1  -2  -8   29.48    1.40
   1   2   8   28.78    1.41
   1   2   8   29.24    1.40
   1   2   8   30.88    1.45
   1   2   8   28.20    1.10
  -2  -2  -8    7.88    1.07
  -2  -2  -8    7.45    0.97
   2   2   8    8.33    0.99
   2   2   8    7.61    1.07
   2   2   8    7.90    0.55
  -3  -2  -8   -0.36    0.63
  -3  -2  -8    0.15    0.83
   3   2   8   -0.09    0.71
   3   2   8   -0.82    0.60
  -4  -2  -8   -0.25    0.94
  -4  -2  -8    0.41    0.77
  -4  -2  -8    0.36    0.85
   4   2   8   -0.88    0.92
   4   2   8    1.00    0.84
  -5  -2  -8    2.06    0.98
  -5  -2  -8   -0.63    1.04
   5   2   8    1.26    1.38
   5   2   8    1.80    1.72
  -6  -2  -8    2.48    1.45
  -6  -2  -8    2.32    1.30
  -6  -2  -8    3.36    1.74
   6   2   8    2.67    1.95
   8  -3  -8   -0.97    2.13
   8  -3  -8   -1.41    1.69
  -8   3   8    0.89    1.01
  -8   3   8    2.79    1.16
  -8   3   8    1.57    0.91
   7  -3  -8    1.06    1.56
   7  -3  -8   -0.20    1.19
  -7   3   8    0.35    0.76
  -7   3   8    0.58    0.75
   6  -3  -8    9.67    1.75
   6  -3  -8    9.46    1.42
   6  -3  -8    7.38    1.50
  -6   3   8    7.37    0.83
  -6   3   8    8.41    0.93
  -6   3   8    7.64    0.98
   5  -3  -8   20.87    1.65
   5  -3  -8   21.91    0.93
   5  -3  -8   20.77    1.95
  -5   3   8   21.39    1.20
  -5   3   8   19.78    1.03
  -5   3   8   20.65    1.15
   4  -3  -8   33.94    1.89
   4  -3  -8   35.78    2.09
   4  -3  -8   30.88    1.10
  -4   3   8   32.56    1.41
  -4   3   8   34.84    1.46
  -4   3   8   32.77    1.27
   3  -3  -8   31.21    1.77
   3  -3  -8   32.48    2.06
   3  -3  -8   30.51    1.17
  -3   3   8   29.93    1.19
  -3   3   8   30.26    1.31
  -3   3   8   33.07    1.36
   2  -3  -8   15.40    1.39
   2  -3  -8   17.54    1.23
   2  -3  -8   16.37    0.85
   2  -3  -8   14.54    1.45
  -2   3   8   16.88    0.88
  -2   3   8   15.78    0.87
  -2   3   8   18.05    0.99
   1  -3  -8   16.21    1.30
   1  -3  -8   16.94    1.01
   1  -3  -8   17.20    0.67
   1  -3  -8   16.72    0.61
   1  -3  -8   18.21    1.52
  -1   3   8   17.26    0.90
  -1   3   8   18.25    1.04
  -1   3   8   17.35    0.78
  -1   3   8   18.77    1.02
   0  -3  -8    1.70    0.84
   0  -3  -8    1.74    0.62
   0  -3  -8    2.25    0.35
   0  -3  -8    1.95    0.94
   0   3   8    2.92    0.48
   0   3   8    1.68    0.53
   0   3   8    2.70    0.58
  -1  -3  -8   29.85    1.88
  -1  -3  -8   34.48    1.48
  -1  -3  -8   31.57    1.82
  -1  -3  -8   31.73    1.59
   1   3   8   29.60    1.44
   1   3   8   33.45    1.58
   1   3   8   31.80    1.54
   1   3   8   31.26    1.29
  -2  -3  -8   13.05    1.03
  -2  -3  -8   13.32    1.20
  -2  -3  -8   10.55    1.30
   2   3   8   12.23    1.25
   2   3   8   14.16    1.25
   2   3   8   11.82    0.78
  -3  -3  -8   13.81    1.26
  -3  -3  -8   14.08    1.38
  -3  -3  -8   11.44    1.39
   3   3   8   14.24    1.44
   3   3   8   12.54    1.42
  -4  -3  -8    5.55    1.25
  -4  -3  -8    6.31    1.11
   4   3   8    4.89    1.37
   4   3   8    4.67    1.22
   4   3   8    5.49    1.14
  -5  -3  -8    5.09    1.25
  -5  -3  -8    6.21    1.57
  -5  -3  -8    7.02    1.24
   5   3   8    7.44    1.69
   5   3   8    5.47    1.42
  -6  -3  -8    2.17    1.42
  -6  -3  -8   -0.78    1.55
   6   3   8    1.47    1.91
   8  -4  -8    4.85    2.05
   8  -4  -8    4.31    2.03
  -8   4   8    1.41    1.25
  -8   4   8    2.69    0.96
   7  -4  -8    2.12    1.67
   7  -4  -8    3.45    1.57
  -7   4   8    5.57    0.93
  -7   4   8    5.43    0.97
   6  -4  -8    3.14    1.25
   6  -4  -8    4.60    1.44
  -6   4   8    5.36    0.82
  -6   4   8    5.10    0.80
   5  -4  -8    5.38    1.32
   5  -4  -8    8.02    1.30
  -5   4   8    4.83    0.54
  -5   4   8    5.68    0.72
  -5   4   8    5.03    0.69
   4  -4  -8    2.40    0.97
   4  -4  -8    3.24    1.01
  -4   4   8    1.70    0.52
  -4   4   8    2.88    0.58
  -4   4   8    2.22    0.40
   3  -4  -8    2.97    1.01
   3  -4  -8    1.72    0.45
   3  -4  -8    2.15    0.88
  -3   4   8    1.38    0.51
  -3   4   8    1.41    0.46
  -3   4   8    1.56    0.39
   2  -4  -8    3.40    0.57
   2  -4  -8    3.47    0.31
   2  -4  -8    4.62    0.90
   2  -4  -8    2.94    0.96
   2  -4  -8    4.16    1.04
  -2   4   8    4.06    0.63
  -2   4   8    3.09    0.51
  -2   4   8    3.09    0.51
  -2   4   8    3.86    0.30
   1  -4  -8   12.27    1.25
   1  -4  -8   12.64    1.14
   1  -4  -8   13.43    0.58
   1  -4  -8   14.85    1.68
  -1   4   8   13.81    0.62
  -1   4   8   13.70    1.01
  -1   4   8   15.18    1.03
  -1   4   8   14.05    0.86
   0  -4  -8    9.34    1.35
   0  -4  -8   10.73    1.23
   0  -4  -8    7.93    1.01
   0  -4  -8    9.96    0.65
   0   4   8    9.77    0.99
   0   4   8   11.79    1.00
   0   4   8   10.45    0.67
   0   4   8   11.08    0.75
  -1  -4  -8    7.03    0.79
  -1  -4  -8    4.77    0.96
  -1  -4  -8    4.62    0.84
  -1  -4  -8    5.21    1.21
   1   4   8    5.96    0.64
   1   4   8    5.43    0.69
   1   4   8    5.92    0.85
  -2  -4  -8    8.51    1.08
  -2  -4  -8    7.74    1.31
  -2  -4  -8    7.41    0.92
  -2  -4  -8    9.09    1.28
   2   4   8    6.65    0.96
   2   4   8    7.21    0.81
   2   4   8    7.44    0.97
  -3  -4  -8    6.02    0.93
  -3  -4  -8    6.09    1.39
  -3  -4  -8    6.16    1.21
  -3  -4  -8    5.44    1.16
   3   4   8    6.50    1.08
   3   4   8    5.50    1.13
  -4  -4  -8   -0.42    1.03
  -4  -4  -8   -0.30    1.26
  -4  -4  -8    0.53    1.09
   4   4   8   -1.08    1.14
   4   4   8    0.50    1.16
   4   4   8    1.94    1.14
  -5  -4  -8   -1.94    1.03
  -5  -4  -8   -1.24    1.23
  -5  -4  -8    0.36    1.64
   5   4   8    0.04    1.52
   5   4   8    1.20    1.38
   8  -5  -8    4.17    2.26
   8  -5  -8    0.30    2.10
  -8   5   8    2.06    1.33
  -8   5   8    0.61    1.00
   7  -5  -8   -2.11    1.61
   7  -5  -8   -1.02    1.76
  -7   5   8    0.56    1.21
  -7   5   8    0.51    0.84
  -7   5   8    0.12    1.07
   6  -5  -8    1.06    1.62
   6  -5  -8    0.45    1.45
  -6   5   8    0.38    0.59
  -6   5   8   -0.29    0.68
   5  -5  -8    2.69    1.36
   5  -5  -8    2.51    1.44
  -5   5   8    1.77    0.62
  -5   5   8    2.09    0.61
   4  -5  -8   14.06    1.67
   4  -5  -8   13.09    1.57
  -4   5   8   12.63    0.71
  -4   5   8   13.17    1.02
  -4   5   8   11.33    0.94
   3  -5  -8   16.89    1.61
   3  -5  -8   16.22    1.71
  -3   5   8   17.27    0.87
  -3   5   8   18.14    1.13
  -3   5   8   17.66    1.04
   2  -5  -8   16.04    0.72
   2  -5  -8   12.92    1.24
   2  -5  -8   16.02    1.76
   2  -5  -8   13.03    1.47
  -2   5   8   15.35    0.98
  -2   5   8   13.54    1.02
  -2   5   8   15.70    1.01
   1  -5  -8   15.67    1.43
   1  -5  -8   15.38    1.21
   1  -5  -8   14.85    1.77
  -1   5   8   16.40    1.18
  -1   5   8   15.92    0.96
  -1   5   8   16.28    1.11
   0  -5  -8    7.09    0.67
   0  -5  -8    8.83    1.22
   0  -5  -8    8.08    1.36
   0  -5  -8    7.72    1.03
   0   5   8    8.66    1.07
   0   5   8    7.34    0.74
  -1  -5  -8    0.91    0.89
  -1  -5  -8   -0.47    0.68
  -1  -5  -8   -0.65    0.50
  -1  -5  -8   -0.45    1.11
   1   5   8   -0.15    0.47
   1   5   8    0.23    0.46
  -2  -5  -8    6.77    1.11
  -2  -5  -8    6.81    1.42
  -2  -5  -8    5.34    1.24
  -2  -5  -8    6.74    0.84
   2   5   8    4.69    0.98
   2   5   8    5.25    0.70
   2   5   8    7.73    1.07
  -3  -5  -8    1.62    1.22
  -3  -5  -8    0.67    0.80
  -3  -5  -8   -1.02    1.18
   3   5   8    0.50    1.01
  -4  -5  -8    2.08    1.10
  -4  -5  -8    1.58    1.51
  -4  -5  -8    2.53    1.02
   4   5   8    2.14    1.40
   4   5   8    0.99    1.54
   4   5   8   -0.17    1.28
  -5  -5  -8    0.49    1.26
  -5  -5  -8    0.55    1.34
  -5  -5  -8    5.56    2.01
   5   5   8   -1.84    1.60
   8  -6  -8    2.51    2.68
  -8   6   8    0.67    1.14
  -8   6   8   -0.26    1.49
   7  -6  -8    2.75    1.75
   7  -6  -8   -3.89    1.90
  -7   6   8    1.10    1.16
  -7   6   8    0.81    0.90
   6  -6  -8    6.19    1.95
  -6   6   8    4.87    0.90
  -6   6   8    6.14    0.95
   5  -6  -8    3.97    1.53
   5  -6  -8    3.90    1.76
  -5   6   8    3.41    0.81
  -5   6   8    3.09    0.77
   4  -6  -8    3.95    1.48
   4  -6  -8    4.69    1.41
  -4   6   8    3.85    0.70
  -4   6   8    3.87    0.73
   3  -6  -8    1.58    0.78
   3  -6  -8    1.41    1.24
   3  -6  -8    1.31    1.17
  -3   6   8    2.74    0.66
  -3   6   8    2.39    0.65
   2  -6  -8    1.06    1.05
   2  -6  -8   -0.11    0.61
   2  -6  -8    0.24    2.37
  -2   6   8   -0.31    0.57
  -2   6   8   -0.46    0.45
   1  -6  -8    1.40    0.74
   1  -6  -8    1.30    1.08
  -1   6   8    0.53    0.62
  -1   6   8    0.79    0.53
   0  -6  -8    2.40    0.82
   0  -6  -8    2.75    1.17
   0  -6  -8    2.71    0.99
   0  -6  -8    2.33    0.52
   0   6   8    1.90    0.76
   0   6   8    2.21    0.57
  -1  -6  -8    3.10    1.11
  -1  -6  -8    0.97    0.58
  -1  -6  -8    1.33    1.26
  -1  -6  -8    1.27    0.87
   1   6   8    1.95    0.60
   1   6   8    1.49    0.97
  -2  -6  -8   -0.33    0.66
  -2  -6  -8    2.24    1.81
  -2  -6  -8   -1.90    0.90
  -2  -6  -8    0.90    1.43
   2   6   8    1.27    0.66
  -3  -6  -8    3.40    0.92
  -3  -6  -8   -0.26    1.37
  -3  -6  -8    1.11    1.08
   3   6   8    1.47    1.17
  -4  -6  -8    1.65    1.66
  -4  -6  -8    1.40    1.29
  -4  -6  -8    0.73    1.10
   4   6   8   -0.47    1.76
   4   6   8   -2.17    1.31
   7  -7  -8    3.00    2.21
   7  -7  -8    0.07    2.27
  -7   7   8   -0.31    1.25
  -7   7   8    1.12    1.00
   6  -7  -8    3.18    1.99
   6  -7  -8   -0.35    1.90
  -6   7   8   -0.31    0.99
  -6   7   8   -0.60    0.75
  -6   7   8    0.09    1.09
   5  -7  -8   -0.91    2.83
   5  -7  -8   -0.02    1.54
  -5   7   8   -0.05    0.74
  -5   7   8   -0.64    0.61
   4  -7  -8    1.46    1.61
   4  -7  -8    1.63    1.72
  -4   7   8   -0.49    0.68
  -4   7   8   -0.68    0.61
   3  -7  -8    1.37    0.90
   3  -7  -8    2.68    1.52
   3  -7  -8    2.92    1.51
  -3   7   8    2.80    0.73
  -3   7   8    4.16    0.87
   2  -7  -8    7.89    1.56
   2  -7  -8   14.35    2.00
   2  -7  -8   13.55    1.41
  -2   7   8   10.78    1.01
  -2   7   8   12.22    1.26
   1  -7  -8    5.95    1.60
   1  -7  -8    4.41    1.35
   1  -7  -8    7.90    1.03
  -1   7   8    5.77    0.80
  -1   7   8    6.38    1.00
   0  -7  -8    1.90    1.44
   0  -7  -8    4.04    1.04
   0   7   8    2.12    0.68
   0   7   8    4.15    1.04
  -1  -7  -8    3.87    1.52
  -1  -7  -8    2.10    1.01
  -1  -7  -8    0.77    1.24
  -1  -7  -8    0.63    0.96
   1   7   8    0.38    0.67
   1   7   8   -0.04    1.26
  -2  -7  -8    2.74    1.07
  -2  -7  -8    1.55    1.34
  -2  -7  -8    0.54    0.82
   2   7   8   -0.09    1.05
   2   7   8    1.15    0.79
  -3  -7  -8   -1.04    1.63
  -3  -7  -8   -1.01    1.04
  -3  -7  -8   -0.30    1.15
   3   7   8    2.32    1.40
  -4  -7  -8   -1.39    1.24
  -4  -7  -8    2.01    2.08
  -4  -7  -8   -2.35    1.51
   4   7   8   -4.61    3.26
   4   7   8    1.68    1.84
   7  -8  -8    2.79    3.07
   7  -8  -8    0.31    2.94
  -7   8   8    2.76    1.58
  -7   8   8    0.61    1.17
   6  -8  -8   -1.73    2.14
   6  -8  -8    3.17    2.39
  -6   8   8    0.12    1.23
  -6   8   8    2.74    0.98
   5  -8  -8    3.40    2.18
   5  -8  -8    6.03    2.17
  -5   8   8    5.54    1.20
  -5   8   8    6.37    1.26
  -5   8   8    5.50    1.01
   4  -8  -8    1.62    1.86
   4  -8  -8    3.53    1.90
  -4   8   8    1.23    0.94
  -4   8   8    1.33    0.81
  -4   8   8    1.10    0.86
   3  -8  -8    2.13    1.72
   3  -8  -8    0.43    1.89
   3  -8  -8    1.58    1.08
  -3   8   8    1.28    0.85
  -3   8   8    0.62    0.69
   2  -8  -8   -1.03    1.72
   2  -8  -8   -0.04    0.92
  -2   8   8    0.30    0.78
   1  -8  -8    0.46    1.00
   1  -8  -8   -0.50    1.54
   1  -8  -8    1.02    2.92
  -1   8   8   -0.37    0.64
   0  -8  -8    2.19    1.60
   0  -8  -8    1.64    1.04
   0   8   8    2.43    0.79
   0   8   8    0.59    0.73
   0   8   8    1.01    1.02
  -1  -8  -8    3.75    1.18
   1   8   8   -0.47    0.92
   1   8   8    1.08    1.18
  -2  -8  -8    0.25    1.13
   2   8   8    1.14    1.32
   2   8   8   -0.95    0.94
  -3  -8  -8   -1.17    1.41
   3   8   8   -0.25    1.67
   6  -9  -8    3.18    3.05
   6  -9  -8   -0.03    2.60
  -6   9   8   -0.07    1.51
  -6   9   8   -0.85    1.05
   5  -9  -8    2.19    2.63
   5  -9  -8    3.21    2.25
  -5   9   8    3.14    1.13
  -5   9   8    3.19    1.24
   4  -9  -8   -1.70    2.04
   4  -9  -8   -2.72    2.23
  -4   9   8    1.11    1.03
  -4   9   8    0.99    0.84
  -4   9   8    0.45    0.93
   3  -9  -8    0.70    1.28
   3  -9  -8    1.11    1.78
   3  -9  -8    0.54    2.15
  -3   9   8    1.75    0.96
  -3   9   8    0.97    0.85
  -3   9   8    0.14    0.68
   2  -9  -8   -0.77    1.80
   2  -9  -8   -0.60    2.59
   2  -9  -8    0.27    1.15
  -2   9   8    1.60    0.86
  -2   9   8    1.06    0.72
  -2   9   8    0.76    1.03
   1  -9  -8    3.67    1.20
   1  -9  -8    2.42    1.75
   1  -9  -8    5.66    2.32
  -1   9   8    1.93    1.13
  -1   9   8    2.64    0.86
  -1   9   8    3.44    0.89
   0  -9  -8    0.94    1.90
   0  -9  -8   -2.19    1.07
   0   9   8   -0.33    1.18
   0   9   8   -1.41    0.75
  -1  -9  -8   -0.32    1.14
   1   9   8    1.00    0.90
   1   9   8   -0.77    1.22
  -2  -9  -8   -2.72    1.33
   2   9   8    0.73    1.70
   5 -10  -8    2.09    3.24
   5 -10  -8   -3.87    3.24
  -5  10   8   -0.67    1.12
  -5  10   8    0.88    1.50
   4 -10  -8    0.17    2.48
   4 -10  -8    0.52    2.86
  -4  10   8   -0.12    1.26
  -4  10   8    1.10    1.17
  -4  10   8   -0.83    0.91
   3 -10  -8    3.47    2.20
   3 -10  -8   -1.61    2.44
  -3  10   8    0.32    0.99
  -3  10   8    1.53    0.89
  -3  10   8    0.20    1.17
   2 -10  -8   -1.25    2.61
   2 -10  -8   -0.40    1.35
   2 -10  -8   -2.59    2.16
  -2  10   8    0.75    0.87
  -2  10   8   -0.87    0.89
  -2  10   8   -0.49    1.25
   1 -10  -8    5.75    3.14
   1 -10  -8   -0.33    1.28
   1 -10  -8    2.31    2.32
  -1  10   8    1.39    1.45
  -1  10   8   -0.36    0.83
  -1  10   8   -0.70    0.87
   0 -10  -8   -0.60    1.35
   0 -10  -8   -0.88    2.47
   0  10   8   -0.85    0.88
   0  10   8   -0.75    1.46
  -1 -10  -8    1.02    3.05
   1  10   8    2.89    1.08
   3 -11  -8    0.60    3.25
   3 -11  -8   -0.64    3.30
  -3  11   8    2.29    1.55
  -3  11   8    3.23    1.25
  -3  11   8   -2.61    1.57
   2 -11  -8   -6.16    4.89
   2 -11  -8   -2.55    1.74
   2 -11  -8    0.72    2.98
  -2  11   8    2.97    1.74
  -2  11   8   -0.89    1.06
  -2  11   8   -1.77    1.47
   1 -11  -8   -1.63    3.25
   1 -11  -8   -1.59    1.64
  -1  11   8   -0.20    1.15
  -1  11   8    0.79    1.64
  -1  11   8    4.24    1.75
   2  14  -9    0.33    1.49
   2  14  -9    1.75    1.49
   2  14  -9   -1.58    1.18
  -2 -14   9   -0.04    1.14
   1  14  -9    0.13    1.62
   1  14  -9    0.62    1.18
   1  14  -9    0.90    1.30
  -1 -14   9    0.29    1.76
  -1 -14   9   -0.83    1.05
   0  14  -9    1.49    1.10
   0  14  -9    0.50    1.17
   0 -14   9    0.35    1.88
   0 -14   9    0.07    1.06
  -1  14  -9    0.30    1.16
  -1  14  -9   -0.30    1.29
  -1  14  -9   -2.41    1.02
   1 -14   9   -0.03    1.14
   1 -14   9    5.35    1.89
  -2  14  -9    2.18    1.34
  -2  14  -9   -0.60    1.18
  -2  14  -9   -0.27    1.35
   2 -14   9    0.97    1.36
   2 -14   9   -1.10    2.07
   4  13  -9    1.00    1.77
  -4 -13   9   -0.66    1.19
  -4 -13   9   -1.14    1.02
   3  13  -9    1.55    1.04
   3  13  -9    2.25    1.46
  -3 -13   9   -0.70    0.87
  -3 -13   9    0.02    0.96
   2  13  -9   -0.03    0.91
   2  13  -9    0.47    1.20
   2  13  -9   -0.06    1.25
  -2 -13   9   -1.10    0.75
  -2 -13   9   -0.78    0.84
   1  13  -9    0.28    1.00
   1  13  -9    1.71    0.99
  -1 -13   9    1.36    0.84
  -1 -13   9    0.05    1.44
   0  13  -9    0.90    0.86
   0  13  -9    1.59    1.07
   0  13  -9   -1.25    0.88
   0 -13   9    0.88    1.51
   0 -13   9    1.09    0.90
  -1  13  -9    0.40    0.99
  -1  13  -9    1.74    1.06
  -1  13  -9    1.10    0.97
   1 -13   9    1.56    0.95
   1 -13   9    2.45    1.62
  -2  13  -9   -1.27    1.02
  -2  13  -9    1.39    1.16
  -2  13  -9   -0.19    1.06
   2 -13   9   -0.58    1.50
   2 -13   9    2.69    1.73
   2 -13   9    1.40    1.08
  -3  13  -9   -1.08    1.13
  -3  13  -9   -2.56    1.10
   3 -13   9   -0.43    1.86
   3 -13   9    1.14    1.70
   3 -13   9   -1.10    1.62
  -4  13  -9   -0.74    1.48
  -4  13  -9    1.16    1.63
   4 -13   9   -0.29    2.39
   4 -13   9    0.98    2.25
   5  12  -9   -0.99    1.76
  -5 -12   9   -1.54    1.15
  -5 -12   9    1.40    1.26
   4  12  -9    1.88    1.37
  -4 -12   9   -0.76    0.92
  -4 -12   9    0.33    0.84
   3  12  -9    0.09    2.15
   3  12  -9    1.08    2.56
   3  12  -9    0.67    0.90
  -3 -12   9    0.11    0.74
  -3 -12   9   -0.12    0.81
   2  12  -9    1.00    0.89
   2  12  -9    0.33    1.36
  -2 -12   9    0.96    0.74
  -2 -12   9    1.23    0.69
   1  12  -9   -0.23    1.03
   1  12  -9    0.86    0.84
   1  12  -9    0.84    0.96
  -1 -12   9    0.23    0.80
  -1 -12   9    0.38    1.08
  -1 -12   9   -0.52    0.61
   0  12  -9    0.31    0.91
   0  12  -9    0.12    0.79
   0  12  -9    1.23    0.77
   0  12  -9    1.21    0.85
   0 -12   9    0.64    1.24
   0 -12   9    1.50    0.93
   0 -12   9    0.64    0.78
  -1  12  -9    0.81    0.88
  -1  12  -9    1.39    0.86
  -1  12  -9    0.77    0.82
   1 -12   9    0.21    1.17
   1 -12   9   -0.21    0.86
  -2  12  -9    1.63    0.83
  -2  12  -9   -0.99    0.94
  -2  12  -9    0.86    0.94
   2 -12   9    0.79    0.94
   2 -12   9   -2.41    2.77
   2 -12   9    1.75    1.45
   2 -12   9   -0.12    1.42
  -3  12  -9    2.41    1.03
  -3  12  -9    1.10    1.08
   3 -12   9   -0.52    1.33
   3 -12   9    0.77    1.70
   3 -12   9    1.81    1.51
  -4  12  -9    0.27    1.24
  -4  12  -9    0.94    1.30
   4 -12   9    2.56    1.95
   4 -12   9    1.41    1.82
   4 -12   9    4.33    1.72
   5  11  -9   -0.73    1.54
  -5 -11   9   -1.32    0.84
  -5 -11   9    0.65    0.98
   4  11  -9    1.15    1.22
  -4 -11   9    1.69    0.83
  -4 -11   9    0.07    0.82
   3  11  -9    0.43    0.84
   3  11  -9    1.51    1.07
  -3 -11   9    0.16    0.74
  -3 -11   9   -0.08    0.76
   2  11  -9    0.31    1.03
   2  11  -9    3.20    1.06
   2  11  -9    1.18    0.91
  -2 -11   9    1.29    0.77
  -2 -11   9    2.04    0.61
   1  11  -9    0.41    0.88
   1  11  -9    0.62    0.80
   1  11  -9    0.97    0.56
   1  11  -9    0.34    0.72
  -1 -11   9    0.34    0.51
  -1 -11   9    0.17    0.70
   0  11  -9   -0.12    0.61
   0  11  -9    0.32    0.83
   0  11  -9    0.29    0.64
   0  11  -9    0.69    0.78
   0 -11   9    1.14    0.54
   0 -11   9    0.20    1.08
   0 -11   9    0.87    0.78
  -1  11  -9    1.64    0.75
  -1  11  -9    1.84    0.81
  -1  11  -9    2.20    1.00
   1 -11   9    1.50    1.06
   1 -11   9    1.99    0.79
   1 -11   9    1.81    1.14
   1 -11   9    2.64    0.64
  -2  11  -9    2.32    0.93
  -2  11  -9    1.68    1.03
  -2  11  -9    1.12    0.69
   2 -11   9    2.22    1.21
   2 -11   9    2.95    1.63
   2 -11   9    2.33    0.92
   2 -11   9    4.36    1.43
  -3  11  -9   -0.90    0.87
  -3  11  -9    0.55    0.93
   3 -11   9    0.59    1.66
   3 -11   9   -0.76    1.17
   3 -11   9    2.54    1.72
  -4  11  -9    2.13    1.17
   4 -11   9    3.79    2.72
   4 -11   9    0.40    1.55
   4 -11   9    3.38    1.73
  -5  11  -9   -0.71    1.26
  -5  11  -9    2.12    1.40
   5 -11   9    2.74    1.98
   5 -11   9   -1.39    1.61
   5 -11   9    6.98    2.03
   6  10  -9    0.54    1.95
  -6 -10   9    1.05    1.11
  -6 -10   9    1.31    1.05
   5  10  -9    2.15    1.41
  -5 -10   9    1.31    0.83
  -5 -10   9    0.89    0.82
   4  10  -9   -1.12    1.06
   4  10  -9   -0.87    1.22
  -4 -10   9   -0.28    0.74
  -4 -10   9   -0.18    0.67
   3  10  -9   -0.36    0.77
   3  10  -9   -1.06    0.83
   3  10  -9    1.06    0.86
  -3 -10   9    0.66    0.72
  -3 -10   9    1.41    0.72
   2  10  -9    0.74    0.66
   2  10  -9    0.25    0.76
   2  10  -9   -1.00    0.73
  -2 -10   9   -0.13    0.55
  -2 -10   9    0.94    0.61
   1  10  -9    3.05    0.60
   1  10  -9    2.54    0.79
   1  10  -9    2.92    0.84
   1  10  -9    2.22    0.69
  -1 -10   9    3.25    0.59
  -1 -10   9    3.07    0.72
   0  10  -9    4.37    0.72
   0  10  -9    4.62    0.73
   0  10  -9    4.65    0.85
   0  10  -9    3.95    0.83
   0 -10   9    5.27    1.01
   0 -10   9    3.98    0.61
   0 -10   9    4.21    0.78
   0 -10   9    3.16    0.51
  -1  10  -9    6.10    0.77
  -1  10  -9    3.77    0.87
  -1  10  -9    4.79    0.84
   1 -10   9    3.29    0.82
   1 -10   9    4.54    1.01
   1 -10   9    5.09    1.02
   1 -10   9    5.38    0.71
  -2  10  -9    3.12    0.88
  -2  10  -9    3.40    0.66
  -2  10  -9    4.22    0.90
   2 -10   9    2.57    1.10
   2 -10   9    4.16    1.11
   2 -10   9    2.30    0.88
   2 -10   9    2.11    1.07
   2 -10   9    2.18    0.68
  -3  10  -9   -0.35    0.94
  -3  10  -9   -0.44    1.05
   3 -10   9    1.18    1.15
   3 -10   9    1.40    1.30
  -4  10  -9    0.49    1.00
  -4  10  -9    0.61    0.94
   4 -10   9    1.61    1.45
   4 -10   9    3.45    1.50
   4 -10   9    0.42    1.31
  -5  10  -9    1.34    1.26
  -5  10  -9   -0.19    1.09
   5 -10   9   -3.74    1.64
   5 -10   9   -0.91    1.41
   7   9  -9    3.61    2.51
  -7  -9   9    1.26    1.23
  -7  -9   9    0.36    1.34
   6   9  -9    0.09    1.63
  -6  -9   9   -0.23    0.86
  -6  -9   9   -1.15    0.94
   5   9  -9    0.82    1.14
  -5  -9   9    0.83    0.79
  -5  -9   9    0.96    0.74
   4   9  -9    1.23    1.14
   4   9  -9    2.73    1.17
  -4  -9   9    2.65    0.72
  -4  -9   9    2.62    0.77
   3   9  -9    5.17    1.00
   3   9  -9    5.80    0.96
  -3  -9   9    5.69    0.78
  -3  -9   9    5.84    0.77
   2   9  -9    5.09    0.78
   2   9  -9    4.04    0.52
   2   9  -9    4.63    0.87
   2   9  -9    4.66    0.89
  -2  -9   9    4.89    0.67
  -2  -9   9    3.69    0.64
   1   9  -9    3.75    0.57
   1   9  -9    4.84    0.76
   1   9  -9    3.77    0.77
   1   9  -9    3.81    0.74
  -1  -9   9    4.17    0.66
  -1  -9   9    3.43    0.58
   0   9  -9    0.01    0.49
   0   9  -9    0.72    0.49
   0   9  -9    0.98    0.63
   0  -9   9    0.55    0.41
   0  -9   9    0.43    0.55
   0  -9   9    1.22    0.69
   0  -9   9    0.59    0.56
  -1   9  -9   -0.50    0.47
  -1   9  -9   -0.53    0.53
  -1   9  -9   -0.36    0.62
   1  -9   9    0.30    0.55
   1  -9   9   -1.15    0.43
   1  -9   9    0.02    0.71
   1  -9   9    0.23    0.67
  -2   9  -9    3.35    0.80
  -2   9  -9    3.38    0.58
  -2   9  -9    2.74    0.79
   2  -9   9    3.89    0.96
   2  -9   9    1.36    0.97
   2  -9   9    3.71    0.87
   2  -9   9    4.21    0.74
   2  -9   9    4.97    1.13
  -3   9  -9    2.11    0.83
  -3   9  -9    2.58    0.88
   3  -9   9    2.36    1.06
   3  -9   9   -0.78    1.08
   3  -9   9    4.27    0.86
   3  -9   9    2.79    1.08
  -4   9  -9    5.48    1.39
  -4   9  -9    6.03    1.11
   4  -9   9    3.74    1.35
   4  -9   9    8.05    1.65
   4  -9   9    3.13    1.69
  -5   9  -9    2.59    1.08
  -5   9  -9    2.60    1.20
   5  -9   9    0.19    1.51
   5  -9   9    3.60    1.56
  -6   9  -9    0.39    1.45
  -6   9  -9    0.10    1.51
   6  -9   9    2.03    2.24
   6  -9   9    0.23    2.07
   7   8  -9    2.05    1.96
  -7  -8   9    1.12    1.15
  -7  -8   9   -0.98    1.04
   6   8  -9    2.02    1.51
  -6  -8   9    0.50    0.82
  -6  -8   9    1.55    0.88
   5   8  -9    2.84    2.10
  -5  -8   9    0.91    1.16
  -5  -8   9    2.22    0.74
   4   8  -9    2.01    0.93
   4   8  -9    0.89    0.95
  -4  -8   9    2.26    0.65
  -4  -8   9    1.81    0.64
   3   8  -9    0.19    0.69
   3   8  -9    0.35    0.72
   3   8  -9    1.18    0.72
  -3  -8   9    1.40    0.57
  -3  -8   9    0.80    0.51
   2   8  -9    1.73    0.71
   2   8  -9    1.43    0.38
   2   8  -9    1.61    0.58
   2   8  -9    2.11    0.69
  -2  -8   9    2.92    0.56
  -2  -8   9    2.52    0.53
   1   8  -9    2.60    0.72
   1   8  -9    3.93    0.75
   1   8  -9    3.98    0.61
   1   8  -9    3.22    0.62
  -1  -8   9    3.56    0.60
  -1  -8   9    4.01    0.56
   0   8  -9    4.10    0.60
   0   8  -9    4.11    0.64
   0   8  -9    3.88    0.61
   0   8  -9    4.00    0.68
   0  -8   9    3.81    0.44
   0  -8   9    4.20    0.59
   0  -8   9    3.96    0.75
   0  -8   9    3.41    0.54
   0  -8   9    4.69    0.64
  -1   8  -9   16.95    1.16
  -1   8  -9   15.07    1.07
  -1   8  -9   15.83    0.95
  -1   8  -9   14.84    0.76
   1  -8   9   15.42    0.67
   1  -8   9   15.05    1.21
   1  -8   9   16.33    1.28
   1  -8   9   15.84    1.01
   1  -8   9   15.49    1.07
  -2   8  -9   16.30    1.18
  -2   8  -9   14.59    1.28
   2  -8   9   18.62    1.63
   2  -8   9   18.08    1.19
   2  -8   9   15.54    1.38
   2  -8   9   17.61    1.36
   2  -8   9   15.82    1.21
  -3   8  -9   10.06    1.15
  -3   8  -9    7.82    1.06
   3  -8   9    8.43    1.27
   3  -8   9    6.36    1.30
   3  -8   9    9.81    1.40
   3  -8   9    6.25    0.89
  -4   8  -9    1.85    1.18
  -4   8  -9    4.16    0.89
   4  -8   9   -0.19    0.85
   4  -8   9    0.84    1.34
   4  -8   9    5.67    1.39
  -5   8  -9    1.06    1.05
  -5   8  -9   -0.23    1.02
  -5   8  -9    1.42    0.99
   5  -8   9    0.99    1.33
   5  -8   9    1.38    1.56
  -6   8  -9   -0.32    1.37
  -6   8  -9   -3.03    1.19
   6  -8   9   -0.29    2.07
   6  -8   9    0.02    1.82
   7   7  -9    0.59    1.82
  -7  -7   9    0.14    0.97
  -7  -7   9    0.73    0.96
   6   7  -9   -0.06    1.36
  -6  -7   9   -0.10    0.74
  -6  -7   9    0.98    0.77
   5   7  -9    0.70    1.01
   5   7  -9    1.65    1.01
  -5  -7   9    1.59    0.65
  -5  -7   9    2.13    0.76
   4   7  -9    4.82    1.02
   4   7  -9    6.05    1.02
  -4  -7   9    6.06    0.73
  -4  -7   9    5.58    0.72
   3   7  -9   17.64    1.42
   3   7  -9   18.27    1.36
   3   7  -9   19.04    1.42
  -3  -7   9   17.56    1.03
  -3  -7   9   16.67    1.05
   2   7  -9    9.22    0.65
   2   7  -9    8.65    1.00
   2   7  -9   10.97    1.04
  -2  -7   9   11.26    0.82
  -2  -7   9   10.96    0.80
   1   7  -9   30.42    1.51
   1   7  -9   31.42    1.47
  -1  -7   9   33.85    1.33
  -1  -7   9   33.24    1.38
  -1  -7   9   33.81    1.32
   0   7  -9    8.68    0.82
   0   7  -9    9.64    0.74
   0   7  -9   10.90    0.93
   0  -7   9    9.22    0.91
   0  -7   9   11.14    0.77
   0  -7   9   11.10    0.84
   0  -7   9    9.23    0.60
  -1   7  -9    2.34    0.58
  -1   7  -9    2.10    0.45
  -1   7  -9    1.67    0.58
   1  -7   9    2.79    0.54
   1  -7   9    1.94    0.29
   1  -7   9    2.02    0.55
   1  -7   9    3.32    0.71
  -2   7  -9    0.85    0.57
  -2   7  -9   -0.81    0.51
   2  -7   9    0.02    0.60
   2  -7   9    0.79    0.64
   2  -7   9   -0.07    0.52
  -3   7  -9    9.48    1.05
  -3   7  -9    9.34    1.04
   3  -7   9   13.75    1.39
   3  -7   9   10.55    1.52
   3  -7   9    7.65    0.95
  -4   7  -9    1.69    0.77
  -4   7  -9    0.74    0.86
   4  -7   9    1.61    1.00
   4  -7   9   -0.31    0.77
   4  -7   9   -1.70    1.25
  -5   7  -9   10.57    1.38
  -5   7  -9   10.50    1.33
  -5   7  -9   10.09    1.41
   5  -7   9   10.67    1.63
   5  -7   9    6.10    1.69
  -6   7  -9    5.55    1.39
  -6   7  -9    4.89    1.44
   6  -7   9    1.89    1.86
   6  -7   9    3.00    1.66
   8   6  -9   -0.54    2.34
  -8  -6   9   -0.73    1.19
  -8  -6   9    1.57    1.29
   7   6  -9    0.41    1.56
  -7  -6   9   -0.49    0.90
  -7  -6   9    1.60    0.89
   6   6  -9   -0.11    1.30
  -6  -6   9    0.96    0.70
  -6  -6   9    1.53    0.75
   5   6  -9   18.99    1.73
  -5  -6   9   17.99    1.18
  -5  -6   9   19.20    1.12
   4   6  -9    7.48    1.14
   4   6  -9    6.74    0.91
   4   6  -9    6.68    1.10
  -4  -6   9    7.44    0.78
  -4  -6   9    8.12    0.80
   3   6  -9   16.80    1.36
   3   6  -9   17.68    1.35
   3   6  -9   22.34    0.87
   3   6  -9   17.41    1.52
  -3  -6   9   20.83    1.08
  -3  -6   9   18.15    0.98
   2   6  -9    6.37    0.86
   2   6  -9    4.94    0.59
   2   6  -9    5.59    0.88
  -2  -6   9    4.51    0.61
  -2  -6   9    4.82    0.63
   1   6  -9   12.66    1.04
   1   6  -9   12.50    0.87
   1   6  -9   13.11    0.85
  -1  -6   9   12.06    0.96
  -1  -6   9   12.24    0.83
  -1  -6   9   13.83    0.82
  -1  -6   9   13.65    0.84
   0   6  -9    0.24    0.31
   0   6  -9    0.16    0.46
   0   6  -9    1.06    0.60
   0  -6   9    0.10    0.38
   0  -6   9    0.10    0.26
   0  -6   9    0.21    0.50
   0  -6   9    0.13    0.40
  -1   6  -9   13.51    0.95
  -1   6  -9   12.36    1.01
   1  -6   9   12.57    1.00
   1  -6   9   13.00    0.90
   1  -6   9   10.74    0.91
  -2   6  -9   19.35    1.19
  -2   6  -9   19.50    1.20
   2  -6   9   17.59    0.76
   2  -6   9   19.97    1.36
   2  -6   9   25.11    1.57
   2  -6   9   21.97    1.24
  -3   6  -9   38.18    1.70
  -3   6  -9   39.04    1.77
   3  -6   9   39.96    1.95
   3  -6   9   30.86    1.77
   3  -6   9   34.33    2.17
  -4   6  -9   18.62    1.33
  -4   6  -9   14.99    1.43
  -4   6  -9   20.23    1.53
   4  -6   9   12.76    1.44
   4  -6   9   15.98    1.61
   4  -6   9   14.43    1.91
  -5   6  -9    3.68    1.08
  -5   6  -9    3.54    0.94
  -5   6  -9    4.21    1.13
   5  -6   9    2.62    1.23
   5  -6   9    3.04    1.49
  -6   6  -9    2.34    1.28
  -6   6  -9    0.87    1.28
   6  -6   9    0.93    1.78
   6  -6   9    1.25    1.56
   8   5  -9    1.21    2.18
  -8  -5   9    1.60    1.22
  -8  -5   9    1.47    1.15
   7   5  -9    4.26    1.66
  -7  -5   9    4.52    0.98
   6   5  -9    0.12    1.23
  -6  -5   9    0.13    0.60
  -6  -5   9   -0.38    0.58
   5   5  -9    1.04    0.73
   5   5  -9    1.54    0.93
  -5  -5   9    1.99    0.59
  -5  -5   9    1.52    0.50
   4   5  -9    1.19    0.71
   4   5  -9    0.64    0.69
   4   5  -9   -0.29    0.76
  -4  -5   9   -0.02    0.40
  -4  -5   9    1.35    0.46
   3   5  -9   32.17    1.96
   3   5  -9   32.39    1.71
   3   5  -9   35.07    1.81
   3   5  -9   32.62    1.23
  -3  -5   9   34.15    1.39
  -3  -5   9   33.87    1.34
   2   5  -9   29.75    1.25
   2   5  -9   28.89    1.58
  -2  -5   9   32.44    1.27
  -2  -5   9   30.37    1.23
  -2  -5   9   31.07    1.25
   1   5  -9   99.03    3.16
   1   5  -9  102.86    2.93
   1   5  -9  103.37    3.40
   1   5  -9   97.36    3.19
  -1  -5   9  101.92    3.13
  -1  -5   9  103.86    3.08
  -1  -5   9  102.12    3.10
   0   5  -9   43.53    1.81
   0   5  -9   41.30    1.73
   0   5  -9   41.56    1.68
   0  -5   9   41.52    1.58
   0  -5   9   42.89    1.59
   0  -5   9   41.10    1.42
   0  -5   9   43.15    1.63
  -1   5  -9   13.56    1.02
  -1   5  -9   12.59    0.95
   1  -5   9   12.72    0.91
   1  -5   9   12.69    1.04
   1  -5   9   13.28    0.94
   1  -5   9   12.76    0.61
  -2   5  -9    8.82    0.94
  -2   5  -9    8.20    0.95
   2  -5   9   11.12    1.20
   2  -5   9    6.82    0.54
   2  -5   9    9.31    1.05
   2  -5   9   10.42    1.09
  -3   5  -9   -0.59    0.54
  -3   5  -9   -0.23    0.53
  -3   5  -9    0.13    0.59
   3  -5   9   -1.48    0.60
   3  -5   9   -0.03    0.65
   3  -5   9   -0.78    0.74
  -4   5  -9    1.84    0.80
  -4   5  -9    1.26    0.72
  -4   5  -9    1.43    0.77
   4  -5   9   -0.59    0.98
   4  -5   9    3.55    0.95
  -5   5  -9    2.84    1.11
  -5   5  -9    1.83    1.05
  -5   5  -9    3.46    0.99
   5  -5   9    1.17    1.42
  -6   5  -9   14.49    1.81
  -6   5  -9   12.60    1.70
   6  -5   9   15.23    2.03
  -7   5  -9    2.52    1.93
  -7   5  -9    2.31    1.91
   7  -5   9    3.16    3.15
   8   4  -9    1.24    2.01
  -8  -4   9   -1.70    1.00
  -8  -4   9   -0.55    0.92
  -8  -4   9    0.45    0.99
   7   4  -9   -0.12    1.33
  -7  -4   9    0.07    0.81
  -7  -4   9    1.30    0.75
   6   4  -9    6.43    1.44
  -6  -4   9    3.97    0.67
  -6  -4   9    3.99    0.73
   5   4  -9   11.61    1.53
   5   4  -9   14.12    1.48
  -5  -4   9   13.54    0.89
  -5  -4   9   12.34    0.95
   4   4  -9   47.69    2.22
   4   4  -9   46.01    2.22
  -4  -4   9   47.01    1.76
  -4  -4   9   47.30    1.67
   3   4  -9   11.83    0.73
   3   4  -9   12.99    1.15
   3   4  -9   12.80    1.29
  -3  -4   9   12.34    0.81
  -3  -4   9   11.99    0.80
  -3  -4   9   13.87    0.84
   2   4  -9   49.18    1.58
   2   4  -9   45.10    2.01
   2   4  -9   45.06    1.70
   2   4  -9   45.07    1.88
  -2  -4   9   45.71    1.63
  -2  -4   9   41.86    1.72
  -2  -4   9   44.45    1.62
   1   4  -9   16.98    0.95
   1   4  -9   15.57    0.76
   1   4  -9   17.37    0.99
   1   4  -9   16.19    1.21
  -1  -4   9   17.23    0.93
  -1  -4   9   15.71    0.90
  -1  -4   9   16.33    0.90
  -1  -4   9   17.83    0.76
   0   4  -9   -0.22    0.55
   0   4  -9   -0.14    0.53
   0   4  -9    0.49    0.30
   0  -4   9    0.03    0.42
   0  -4   9    0.27    0.42
   0  -4   9    0.17    0.30
   0  -4   9    0.34    0.27
  -1   4  -9    0.60    0.53
  -1   4  -9    0.41    0.54
   1  -4   9    0.50    0.23
   1  -4   9    0.08    0.40
   1  -4   9    0.56    0.42
  -2   4  -9   22.54    1.26
  -2   4  -9   20.67    1.24
  -2   4  -9   23.32    1.21
   2  -4   9   21.00    1.27
   2  -4   9   20.78    1.43
   2  -4   9   20.68    0.94
   2  -4   9   22.82    1.29
  -3   4  -9   13.86    1.10
  -3   4  -9   12.02    1.07
  -3   4  -9   13.72    1.16
   3  -4   9   13.21    1.20
   3  -4   9   11.14    1.26
   3  -4   9   12.65    1.49
  -4   4  -9   26.57    1.64
  -4   4  -9   28.07    1.51
  -4   4  -9   25.65    1.64
   4  -4   9   21.00    2.15
   4  -4   9   28.27    1.68
  -5   4  -9    9.29    1.63
  -5   4  -9   11.42    1.52
  -5   4  -9   12.39    1.88
   5  -4   9    8.57    1.71
   5  -4   9   10.70    1.44
  -6   4  -9    2.70    1.21
  -6   4  -9    4.46    1.39
   6  -4   9    3.70    1.40
   6  -4   9    0.56    1.85
  -7   4  -9    4.60    1.96
  -7   4  -9   -0.21    1.74
   7  -4   9   -0.30    1.73
   7  -4   9   -1.17    2.78
   8   3  -9    6.22    1.95
  -8  -3   9    4.12    1.14
  -8  -3   9    5.02    1.19
   7   3  -9    4.56    1.59
  -7  -3   9    5.66    1.03
  -7  -3   9    4.36    0.96
   6   3  -9    9.96    1.45
   6   3  -9    7.53    1.49
  -6  -3   9   10.23    1.01
  -6  -3   9    9.67    1.21
  -6  -3   9    8.95    1.10
   5   3  -9   -0.34    0.82
   5   3  -9   -0.35    0.81
  -5  -3   9   -0.02    0.45
  -5  -3   9    0.80    0.42
  -5  -3   9    0.27    0.42
   4   3  -9   28.60    1.71
   4   3  -9   33.45    1.96
  -4  -3   9   32.11    1.24
  -4  -3   9   28.94    1.29
  -4  -3   9   30.17    1.34
   3   3  -9    4.37    0.84
   3   3  -9    3.15    0.87
   3   3  -9    6.58    0.62
   3   3  -9    6.36    1.20
  -3  -3   9    4.30    0.52
  -3  -3   9    5.46    0.63
  -3  -3   9    4.56    0.57
   2   3  -9   58.52    2.33
   2   3  -9   54.31    1.68
   2   3  -9   59.44    1.66
   2   3  -9   54.41    2.15
   2   3  -9   54.92    1.62
   2   3  -9   53.14    2.02
   2   3  -9   57.48    1.63
  -2  -3   9   56.32    1.81
  -2  -3   9   56.95    1.91
  -2  -3   9   55.38    1.89
  -2  -3   9   55.02    1.68
   1   3  -9   97.26    2.87
   1   3  -9   97.66    3.38
   1   3  -9  101.22    3.21
   1   3  -9  100.35    3.15
  -1  -3   9   97.53    2.86
  -1  -3   9   99.98    2.99
  -1  -3   9   96.16    3.02
   0   3  -9  197.95    5.79
   0   3  -9  197.97    5.89
   0   3  -9  197.19    5.55
   0  -3   9  181.73    5.82
   0  -3   9  200.41    5.54
   0  -3   9  190.76    5.52
   0  -3   9  196.21    5.64
  -1   3  -9    2.96    0.68
  -1   3  -9    2.68    0.69
  -1   3  -9    2.78    0.55
   1  -3   9    4.42    0.55
   1  -3   9    3.85    0.49
   1  -3   9    2.49    0.54
  -2   3  -9   71.89    2.48
  -2   3  -9   70.63    2.60
  -2   3  -9   69.73    2.55
   2  -3   9   72.74    2.81
   2  -3   9   72.03    2.57
   2  -3   9   63.70    2.27
   2  -3   9   71.57    2.52
  -3   3  -9    9.66    1.04
  -3   3  -9    8.94    1.08
  -3   3  -9   10.68    1.14
   3  -3   9    9.11    1.10
   3  -3   9   11.30    1.04
   3  -3   9    9.30    1.28
  -4   3  -9    1.51    0.77
  -4   3  -9    2.46    0.85
  -4   3  -9    1.13    0.74
   4  -3   9    2.31    0.78
   4  -3   9   -1.12    1.04
  -5   3  -9    0.60    0.96
   5  -3   9   -0.10    1.30
   5  -3   9   -0.12    1.00
  -6   3  -9    3.81    1.34
  -6   3  -9    5.94    1.42
   6  -3   9    5.90    1.44
   6  -3   9    6.80    1.85
  -7   3  -9    2.75    1.84
  -7   3  -9    3.43    1.92
   7  -3   9    1.57    3.05
   7  -3   9    1.06    1.78
   8   2  -9    3.20    2.11
  -8  -2   9    2.88    0.97
  -8  -2   9    1.00    0.96
   7   2  -9    0.16    1.30
   7   2  -9    3.12    1.23
  -7  -2   9    0.13    0.68
  -7  -2   9    0.31    0.58
   6   2  -9   -0.57    0.93
   6   2  -9    1.63    0.96
  -6  -2   9    0.10    0.51
  -6  -2   9    0.63    0.43
  -6  -2   9    0.17    0.55
   5   2  -9   20.87    1.69
   5   2  -9   17.58    1.56
  -5  -2   9   20.76    0.98
  -5  -2   9   20.18    1.16
  -5  -2   9   19.41    1.08
   4   2  -9   14.22    0.66
   4   2  -9   17.07    1.72
   4   2  -9   14.81    1.50
  -4  -2   9   14.99    0.96
  -4  -2   9   14.81    0.89
  -4  -2   9   15.53    0.72
   3   2  -9   30.74    1.30
   3   2  -9   30.12    1.62
   3   2  -9   28.94    1.00
   3   2  -9   27.23    1.87
  -3  -2   9   29.66    1.26
  -3  -2   9   28.69    1.19
  -3  -2   9   27.91    0.99
  -3  -2   9   28.24    1.03
   2   2  -9   41.40    1.14
   2   2  -9   37.97    1.74
   2   2  -9   35.61    1.61
   2   2  -9   38.48    1.85
   2   2  -9   37.22    1.13
   2   2  -9   39.20    1.35
  -2  -2   9   37.88    1.16
  -2  -2   9   37.24    1.14
  -2  -2   9   40.08    1.45
  -2  -2   9   38.17    1.44
  -2  -2   9   39.80    1.31
   1   2  -9   26.28    0.95
   1   2  -9   24.93    1.48
   1   2  -9   24.67    1.25
   1   2  -9   26.87    1.37
  -1  -2   9   26.85    1.13
  -1  -2   9   25.62    1.04
  -1  -2   9   26.83    1.19
  -1  -2   9   26.68    0.88
   0   2  -9  144.28    4.51
   0   2  -9  143.06    4.22
   0   2  -9  146.63    4.59
   0  -2   9  144.22    4.31
   0  -2   9  146.71    4.14
   0  -2   9  143.05    4.21
  -1   2  -9   16.51    1.19
  -1   2  -9   14.81    1.14
  -1   2  -9   15.36    0.99
   1  -2   9   15.97    0.85
   1  -2   9   19.33    1.25
   1  -2   9   15.06    0.69
   1  -2   9   16.00    0.85
   1  -2   9   16.56    1.06
  -2   2  -9    5.10    0.79
  -2   2  -9    4.55    0.79
  -2   2  -9    4.96    0.69
   2  -2   9    4.36    0.31
   2  -2   9    4.53    0.77
   2  -2   9    4.84    0.69
   2  -2   9    5.70    0.93
   2  -2   9    5.18    0.89
  -3   2  -9    4.99    0.79
  -3   2  -9    5.52    0.89
  -3   2  -9    6.29    0.98
   3  -2   9    6.22    0.97
   3  -2   9    4.49    0.77
   3  -2   9    6.03    1.14
   3  -2   9    3.93    0.75
  -4   2  -9    7.52    1.17
  -4   2  -9    7.47    1.09
  -4   2  -9    7.52    1.05
   4  -2   9    9.43    1.24
   4  -2   9    4.97    1.22
  -5   2  -9    5.18    1.12
   5  -2   9    2.86    1.48
   5  -2   9    4.60    1.18
  -6   2  -9   11.90    1.59
  -6   2  -9   10.11    1.69
   6  -2   9   12.31    1.72
   6  -2   9    7.07    2.05
   9   1  -9    3.93    3.12
  -9  -1   9   -1.59    1.24
  -9  -1   9   -0.75    1.24
   8   1  -9    0.18    1.70
  -8  -1   9    2.34    0.97
  -8  -1   9    1.16    1.44
   7   1  -9    9.48    2.41
   7   1  -9    8.12    1.51
  -7  -1   9    7.06    0.99
  -7  -1   9    7.63    0.94
   6   1  -9   13.65    1.73
   6   1  -9   15.25    1.68
  -6  -1   9   12.55    0.86
  -6  -1   9   13.38    1.17
  -6  -1   9   13.06    0.97
   5   1  -9   19.43    1.61
   5   1  -9   19.75    1.07
   5   1  -9   19.97    1.68
  -5  -1   9   23.16    1.20
  -5  -1   9   21.01    0.85
  -5  -1   9   20.45    1.09
   4   1  -9   29.93    1.76
   4   1  -9   27.18    1.16
   4   1  -9   28.39    1.82
  -4  -1   9   28.62    1.20
  -4  -1   9   28.05    1.00
  -4  -1   9   28.97    1.29
   3   1  -9   11.11    1.20
   3   1  -9   14.16    0.94
   3   1  -9   10.31    1.42
   3   1  -9   12.61    0.73
  -3  -1   9   11.00    0.81
  -3  -1   9   12.76    0.59
  -3  -1   9   12.42    0.79
   2   1  -9   -0.53    0.51
   2   1  -9    0.67    0.67
   2   1  -9    0.11    0.15
   2   1  -9   -1.33    0.83
  -2  -1   9   -0.08    0.36
  -2  -1   9    0.53    0.39
  -2  -1   9   -0.01    0.22
   1   1  -9   55.94    2.23
   1   1  -9   55.72    1.77
   1   1  -9   56.09    2.26
  -1  -1   9   56.97    1.92
  -1  -1   9   55.15    1.93
   0   1  -9   89.64    3.13
   0   1  -9   86.65    2.78
   0   1  -9   94.25    3.14
   0  -1   9   89.84    2.87
   0  -1   9   88.86    2.79
   0  -1   9   89.66    2.61
  -1   1  -9   57.51    2.32
  -1   1  -9   57.48    2.43
  -1   1  -9   58.85    2.13
   1  -1   9   60.39    2.06
   1  -1   9   59.35    2.30
   1  -1   9   58.41    1.80
   1  -1   9   58.35    1.94
   1  -1   9   60.25    2.19
  -2   1  -9   38.96    1.84
  -2   1  -9   38.06    1.68
  -2   1  -9   39.41    1.80
   2  -1   9   39.84    1.35
   2  -1   9   37.89    1.80
   2  -1   9   38.42    1.96
   2  -1   9   36.15    1.64
  -3   1  -9   45.81    2.08
  -3   1  -9   45.84    1.95
  -3   1  -9   44.54    1.99
   3  -1   9   39.17    1.86
   3  -1   9   46.43    2.33
   3  -1   9   46.68    1.93
   3  -1   9   41.16    2.07
  -4   1  -9    8.15    1.10
  -4   1  -9   10.77    1.29
  -4   1  -9    9.58    1.22
   4  -1   9    9.16    1.49
   4  -1   9    9.51    1.13
  -5   1  -9   -1.36    0.94
  -5   1  -9    0.04    1.28
   5  -1   9   -0.69    1.04
   5  -1   9   -1.03    1.31
  -6   1  -9    0.80    1.29
  -6   1  -9   -0.39    1.37
   6  -1   9   -2.00    1.65
   9   0  -9    5.19    2.99
  -9   0   9    2.21    1.43
   8   0  -9    5.01    1.86
  -8   0   9    2.02    0.95
  -8   0   9    1.91    1.06
  -8   0   9    4.01    1.18
   7   0  -9    6.05    1.38
   7   0  -9    2.95    1.71
  -7   0   9    0.44    1.16
  -7   0   9    3.47    0.86
   6   0  -9    1.00    1.18
   6   0  -9    2.06    1.14
   6   0  -9    1.73    0.99
  -6   0   9    1.53    0.61
  -6   0   9    1.87    0.55
   5   0  -9    4.08    1.12
   5   0  -9    2.64    0.96
   5   0  -9    2.21    0.63
  -5   0   9    2.85    0.29
  -5   0   9    1.94    0.50
  -5   0   9    2.87    0.50
   4   0  -9    1.79    0.92
   4   0  -9    2.46    0.88
   4   0  -9    3.26    0.58
  -4   0   9    1.41    0.41
  -4   0   9    2.18    0.24
  -4   0   9    1.42    0.46
   3   0  -9    9.23    0.96
   3   0  -9    6.77    1.14
   3   0  -9    8.42    1.16
   3   0  -9    8.25    0.73
  -3   0   9    7.61    0.67
  -3   0   9    7.70    0.74
  -3   0   9    6.91    0.39
   2   0  -9   46.76    2.51
   2   0  -9   49.34    2.20
   2   0  -9   47.07    2.12
   2   0  -9   45.84    1.43
  -2   0   9   45.55    1.69
  -2   0   9   47.15    1.68
   1   0  -9   14.78    1.25
   1   0  -9   13.89    0.71
  -1   0   9   15.48    0.91
  -1   0   9   16.44    0.88
   0   0  -9   57.95    2.34
   0   0  -9   57.06    2.03
   0   0  -9   59.12    1.77
   0   0   9   62.88    2.18
   0   0   9   64.14    2.15
   0   0   9   58.16    1.90
   0   0   9   60.29    2.06
  -1   0  -9   41.95    1.94
  -1   0  -9   41.48    1.71
   1   0   9   42.31    1.39
   1   0   9   41.32    1.66
   1   0   9   42.34    1.81
   1   0   9   42.69    1.88
  -2   0  -9    8.40    1.10
  -2   0  -9    7.74    0.93
   2   0   9    8.23    1.14
   2   0   9    7.23    0.45
   2   0   9    6.92    0.93
   2   0   9    8.17    0.88
  -3   0  -9   -1.09    0.61
  -3   0  -9    0.12    0.70
   3   0   9    1.08    0.78
   3   0   9    0.05    0.58
  -4   0  -9    0.99    0.89
  -4   0  -9    1.25    0.92
   4   0   9    0.94    1.00
   4   0   9    0.54    0.72
  -5   0  -9    1.26    0.96
  -5   0  -9    2.40    1.23
   5   0   9    2.04    1.35
   5   0   9    3.07    1.11
  -6   0  -9    1.40    1.53
  -6   0  -9    3.61    1.32
   6   0   9    3.13    1.77
   9  -1  -9    7.00    3.10
  -9   1   9   -0.38    1.42
   8  -1  -9    0.17    1.79
   8  -1  -9   -0.24    1.91
  -8   1   9    0.23    1.05
  -8   1   9   -0.08    1.03
   7  -1  -9    1.32    1.44
   7  -1  -9   -0.63    1.43
  -7   1   9    0.19    0.74
  -7   1   9    0.25    0.59
  -7   1   9   -0.07    0.69
   6  -1  -9    7.83    1.53
   6  -1  -9    8.83    1.32
   6  -1  -9   11.18    1.73
  -6   1   9    8.32    0.87
  -6   1   9    7.95    0.99
   5  -1  -9   37.87    2.41
   5  -1  -9   40.35    2.27
   5  -1  -9   36.55    2.06
  -5   1   9   38.13    1.46
  -5   1   9   36.19    1.60
   4  -1  -9   45.46    2.36
   4  -1  -9   51.18    2.60
   4  -1  -9   45.77    2.06
  -4   1   9   44.88    1.78
  -4   1   9   50.30    1.69
   3  -1  -9   23.01    1.31
   3  -1  -9   23.14    1.47
   3  -1  -9   21.86    1.60
   3  -1  -9   21.87    1.72
  -3   1   9   22.34    1.04
  -3   1   9   21.67    1.12
   2  -1  -9    7.32    0.95
   2  -1  -9    6.20    0.44
   2  -1  -9    7.28    0.48
   2  -1  -9    7.88    1.38
  -2   1   9    8.23    0.77
  -2   1   9    8.05    0.72
   1  -1  -9   15.44    1.28
   1  -1  -9   13.76    0.78
   1  -1  -9   13.87    1.64
  -1   1   9   17.04    0.93
  -1   1   9   16.72    0.95
  -1   1   9   16.63    0.85
   0  -1  -9    8.80    1.09
   0  -1  -9    9.73    0.86
   0   1   9    9.95    0.80
   0   1   9    9.96    0.86
   0   1   9   10.13    0.84
  -1  -1  -9   21.25    1.45
  -1  -1  -9   21.23    1.20
   1   1   9   19.59    0.86
   1   1   9   19.66    1.25
   1   1   9   20.23    1.34
   1   1   9   20.70    1.20
  -2  -1  -9   34.18    1.60
  -2  -1  -9   32.77    1.78
   2   1   9   31.82    1.74
   2   1   9   29.69    1.58
   2   1   9   31.33    1.13
   2   1   9   32.35    1.68
  -3  -1  -9   22.49    1.57
  -3  -1  -9   24.97    1.67
   3   1   9   20.83    1.64
   3   1   9   21.06    1.22
   3   1   9   21.81    1.54
  -4  -1  -9   10.54    1.29
  -4  -1  -9   10.96    1.47
   4   1   9   10.31    1.45
   4   1   9    6.91    1.06
  -5  -1  -9    0.75    1.25
  -5  -1  -9    3.90    1.14
   5   1   9    1.90    1.52
   5   1   9    3.29    1.29
  -6  -1  -9   -0.57    1.38
  -6  -1  -9   -0.24    1.26
  -6  -1  -9    0.26    1.58
   6   1   9    2.27    1.98
   8  -2  -9    3.39    2.08
   8  -2  -9    1.78    1.82
  -8   2   9    6.39    1.11
  -8   2   9    5.15    1.05
   7  -2  -9    5.68    2.90
   7  -2  -9    3.20    1.67
   7  -2  -9    3.28    1.69
  -7   2   9    6.18    1.01
  -7   2   9    4.69    0.71
   6  -2  -9    3.42    1.08
   6  -2  -9    2.86    1.28
   6  -2  -9    4.42    1.46
  -6   2   9    2.64    0.56
  -6   2   9    2.78    0.64
  -6   2   9    2.05    0.67
   5  -2  -9    3.72    1.06
   5  -2  -9    1.93    1.08
   5  -2  -9    4.38    1.30
  -5   2   9    4.37    0.80
  -5   2   9    3.37    0.70
  -5   2   9    3.07    0.53
   4  -2  -9    0.39    0.89
   4  -2  -9   -0.13    0.86
  -4   2   9   -0.44    0.37
  -4   2   9   -0.04    0.45
  -4   2   9    0.16    0.40
   3  -2  -9    2.00    1.02
   3  -2  -9    3.18    0.94
   3  -2  -9    1.78    0.62
  -3   2   9    2.07    0.46
  -3   2   9    2.00    0.48
  -3   2   9    1.53    0.48
   2  -2  -9   21.49    1.42
   2  -2  -9   21.05    1.72
   2  -2  -9   20.81    0.94
   2  -2  -9   21.41    1.62
  -2   2   9   22.48    1.09
  -2   2   9   22.59    1.11
  -2   2   9   19.85    1.00
   1  -2  -9   18.64    1.40
   1  -2  -9   18.93    1.07
   1  -2  -9   17.94    1.77
  -1   2   9   23.82    1.00
  -1   2   9   22.21    1.12
  -1   2   9   23.76    1.12
  -1   2   9   21.25    1.00
   0  -2  -9    8.24    1.00
   0  -2  -9    6.26    0.98
   0  -2  -9    6.56    1.14
   0   2   9    7.59    0.67
   0   2   9    8.04    0.82
   0   2   9    9.09    0.90
   0   2   9    7.51    0.74
  -1  -2  -9   19.41    1.22
  -1  -2  -9   19.00    1.45
   1   2   9   19.45    1.32
   1   2   9   20.50    1.36
   1   2   9   19.43    0.98
   1   2   9   17.37    1.23
  -2  -2  -9    8.63    1.10
  -2  -2  -9    9.57    1.26
   2   2   9    8.32    1.03
   2   2   9    8.75    0.65
   2   2   9    8.14    1.06
  -3  -2  -9   -0.89    0.86
  -3  -2  -9   -0.04    0.72
   3   2   9   -1.20    0.75
   3   2   9   -0.36    0.77
  -4  -2  -9    1.19    0.99
  -4  -2  -9    0.72    0.93
  -4  -2  -9   -0.37    1.07
   4   2   9   -1.80    1.09
   4   2   9    0.27    1.03
  -5  -2  -9   -0.69    1.11
  -5  -2  -9   -2.10    1.35
  -5  -2  -9   -1.93    0.96
   5   2   9   -0.10    1.46
   5   2   9   -0.65    1.58
  -6  -2  -9    2.48    1.45
  -6  -2  -9    3.27    1.74
  -6  -2  -9    3.03    1.89
   6   2   9    0.17    2.06
   8  -3  -9    2.69    2.02
  -8   3   9   -0.45    0.91
  -8   3   9    0.02    1.22
  -8   3   9    1.19    1.10
   7  -3  -9    0.80    1.37
   7  -3  -9    1.52    1.52
  -7   3   9   -0.17    0.79
  -7   3   9    0.75    0.74
   6  -3  -9   -0.14    1.52
   6  -3  -9    2.40    1.26
  -6   3   9    1.24    0.73
  -6   3   9    1.50    0.66
  -6   3   9    1.34    0.50
   5  -3  -9    9.68    1.34
   5  -3  -9   10.13    1.73
  -5   3   9    9.83    1.01
  -5   3   9    8.11    0.83
  -5   3   9    8.44    0.91
   4  -3  -9   39.12    2.13
   4  -3  -9   34.76    2.42
  -4   3   9   39.01    1.51
  -4   3   9   38.91    1.60
  -4   3   9   38.39    1.63
   3  -3  -9   29.00    1.80
   3  -3  -9   25.95    1.93
   3  -3  -9   26.42    1.10
  -3   3   9   26.10    1.23
  -3   3   9   28.19    1.31
  -3   3   9   27.79    1.22
   2  -3  -9   24.00    1.66
   2  -3  -9   15.97    1.68
   2  -3  -9   20.66    1.49
   2  -3  -9   15.01    0.96
  -2   3   9   19.97    1.09
  -2   3   9   19.67    1.05
  -2   3   9   18.04    0.98
   1  -3  -9   16.07    0.93
   1  -3  -9   12.95    1.32
   1  -3  -9   14.88    1.70
  -1   3   9   18.15    1.04
  -1   3   9   15.20    0.90
  -1   3   9   15.94    0.80
  -1   3   9   16.91    1.05
   0  -3  -9   12.47    1.09
   0  -3  -9   12.53    0.77
   0  -3  -9   10.17    1.33
   0  -3  -9   13.74    1.66
   0   3   9   14.30    1.10
   0   3   9   13.12    1.09
   0   3   9   13.82    0.87
   0   3   9   15.44    0.86
  -1  -3  -9    1.47    1.04
  -1  -3  -9    0.43    0.51
  -1  -3  -9   -0.45    0.55
  -1  -3  -9   -0.99    0.78
   1   3   9    0.28    0.62
   1   3   9   -0.13    0.60
   1   3   9    0.07    0.40
   1   3   9   -0.24    0.74
  -2  -3  -9    6.99    0.98
  -2  -3  -9    6.49    0.84
  -2  -3  -9    8.90    1.25
   2   3   9    7.06    1.03
   2   3   9    7.36    0.74
   2   3   9    6.41    0.96
  -3  -3  -9    5.64    0.94
  -3  -3  -9    3.68    0.99
  -3  -3  -9    5.93    1.17
   3   3   9    3.19    1.00
   3   3   9    2.69    0.99
  -4  -3  -9    5.91    1.51
  -4  -3  -9    5.09    1.10
  -4  -3  -9    4.26    1.13
   4   3   9    5.64    1.45
  -5  -3  -9    2.46    1.61
  -5  -3  -9    5.39    1.16
  -5  -3  -9    5.02    1.37
   5   3   9   -1.42    1.48
   5   3   9    1.29    2.51
   8  -4  -9   -1.69    2.06
  -8   4   9   -0.73    1.25
  -8   4   9    2.42    1.01
   7  -4  -9    2.00    1.60
   7  -4  -9    7.49    1.88
  -7   4   9    1.18    0.82
   6  -4  -9    9.27    1.62
  -6   4   9    8.80    1.18
  -6   4   9    8.18    1.00
   5  -4  -9    3.79    1.45
   5  -4  -9    4.58    1.35
  -5   4   9    4.25    0.75
  -5   4   9    6.40    1.11
  -5   4   9    4.21    0.72
   4  -4  -9    7.07    1.28
   4  -4  -9    4.93    1.26
  -4   4   9    4.88    0.69
  -4   4   9    5.78    0.79
   3  -4  -9    1.10    0.96
   3  -4  -9    1.37    0.51
   3  -4  -9    1.02    0.93
  -3   4   9    0.68    0.50
  -3   4   9    0.14    0.44
  -3   4   9    0.69    0.48
   2  -4  -9    0.63    1.03
   2  -4  -9   -0.73    0.90
   2  -4  -9   -0.61    0.77
  -2   4   9    0.51    0.47
  -2   4   9   -0.18    0.51
  -2   4   9    0.33    0.45
   1  -4  -9    3.07    0.39
   1  -4  -9    2.33    0.72
   1  -4  -9    2.33    0.86
   1  -4  -9    0.03    1.92
  -1   4   9    3.22    0.46
  -1   4   9    2.49    0.64
  -1   4   9    3.19    0.56
  -1   4   9    3.07    0.66
   0  -4  -9   11.53    1.36
   0  -4  -9    9.88    0.73
   0  -4  -9    9.48    1.46
   0  -4  -9    7.91    1.01
   0   4   9   10.88    0.90
   0   4   9    9.27    1.07
   0   4   9   10.26    1.07
   0   4   9   10.55    0.77
  -1  -4  -9    2.28    1.13
  -1  -4  -9    2.36    0.61
  -1  -4  -9    1.85    0.72
  -1  -4  -9    1.60    0.86
   1   4   9    2.86    0.82
   1   4   9    2.66    0.52
   1   4   9    3.52    0.78
  -2  -4  -9    4.09    1.22
  -2  -4  -9    5.64    1.45
  -2  -4  -9    5.11    0.82
  -2  -4  -9    5.59    1.05
   2   4   9    6.11    1.01
   2   4   9    7.28    0.73
   2   4   9    7.19    1.11
  -3  -4  -9    6.13    0.98
  -3  -4  -9    2.74    1.28
  -3  -4  -9    6.59    2.02
   3   4   9    3.47    1.30
   3   4   9    4.78    1.51
  -4  -4  -9    0.60    1.14
  -4  -4  -9   -0.49    2.71
  -4  -4  -9    2.08    1.02
   4   4   9    0.52    1.26
   4   4   9    0.87    1.49
  -5  -4  -9   -1.64    1.16
  -5  -4  -9   -2.16    1.44
  -5  -4  -9    0.01    1.79
   5   4   9    3.49    1.63
   5   4   9   -0.43    2.03
   8  -5  -9    2.41    2.55
  -8   5   9    2.41    1.18
  -8   5   9    5.28    1.57
   7  -5  -9   -1.65    1.94
   7  -5  -9    1.09    2.04
  -7   5   9    0.00    0.96
  -7   5   9    1.10    0.91
   6  -5  -9    0.61    1.64
   6  -5  -9   -0.95    1.49
  -6   5   9    0.73    0.69
  -6   5   9   -0.38    0.77
   5  -5  -9   -0.43    1.57
   5  -5  -9    0.92    1.37
  -5   5   9    0.18    0.59
  -5   5   9    0.52    0.63
   4  -5  -9    2.69    1.40
   4  -5  -9    2.93    1.25
  -4   5   9    3.28    0.71
  -4   5   9    4.48    0.70
   3  -5  -9    9.95    1.59
   3  -5  -9    7.30    1.40
   3  -5  -9    7.72    1.08
  -3   5   9    9.27    1.04
  -3   5   9    7.89    0.88
  -3   5   9   10.08    1.03
   2  -5  -9   26.26    2.29
   2  -5  -9   23.53    1.53
   2  -5  -9   23.84    2.08
  -2   5   9   26.44    1.31
  -2   5   9   28.50    1.54
  -2   5   9   27.21    1.29
   1  -5  -9    6.46    0.86
   1  -5  -9    6.20    2.75
   1  -5  -9    6.93    1.21
  -1   5   9    6.02    0.74
  -1   5   9    7.21    0.85
  -1   5   9    5.56    0.81
   0  -5  -9    6.61    0.67
   0  -5  -9    6.06    1.16
   0  -5  -9    5.34    0.91
   0  -5  -9    8.10    1.54
   0   5   9    6.52    0.72
   0   5   9    5.55    0.91
  -1  -5  -9    5.14    0.73
  -1  -5  -9    5.61    1.20
  -1  -5  -9    4.49    0.96
  -1  -5  -9    4.13    1.41
   1   5   9    5.18    1.01
   1   5   9    5.69    0.68
  -2  -5  -9    1.31    1.21
  -2  -5  -9   -0.15    0.63
  -2  -5  -9   -0.01    1.36
  -2  -5  -9   -1.00    0.84
   2   5   9   -0.69    0.55
   2   5   9   -0.11    1.00
  -3  -5  -9   -0.68    1.01
  -3  -5  -9    0.40    1.40
  -3  -5  -9    1.40    0.89
   3   5   9    2.08    1.18
  -4  -5  -9    2.04    1.30
  -4  -5  -9    2.23    1.13
  -4  -5  -9    1.40    1.72
   4   5   9   -0.71    1.46
   7  -6  -9    3.15    2.01
   7  -6  -9    4.74    2.39
  -7   6   9    1.70    1.25
  -7   6   9   -1.39    0.90
   6  -6  -9    4.17    2.00
   6  -6  -9    6.16    2.06
  -6   6   9    3.20    0.91
   5  -6  -9    2.72    1.60
   5  -6  -9    4.90    1.84
  -5   6   9    4.42    0.87
  -5   6   9    4.19    0.93
   4  -6  -9    4.40    1.57
   4  -6  -9    4.12    1.73
  -4   6   9    4.55    0.85
  -4   6   9    4.40    0.83
   3  -6  -9    2.61    1.45
   3  -6  -9   -0.90    1.32
   3  -6  -9    1.26    0.85
  -3   6   9    0.87    0.62
  -3   6   9    1.57    0.71
   2  -6  -9    1.64    1.26
   2  -6  -9    3.61    1.40
   2  -6  -9    2.05    0.72
  -2   6   9    1.80    0.75
  -2   6   9    2.84    0.67
   1  -6  -9   -0.37    0.70
   1  -6  -9    0.51    1.26
  -1   6   9   -0.32    0.53
  -1   6   9   -0.34    0.67
   0  -6  -9    0.51    0.72
   0  -6  -9    0.05    1.18
   0  -6  -9    2.99    2.45
   0   6   9   -0.05    0.56
   0   6   9    0.00    0.88
  -1  -6  -9    4.04    1.67
  -1  -6  -9    2.76    1.27
  -1  -6  -9    1.59    0.99
  -1  -6  -9    2.06    0.73
   1   6   9    2.74    0.67
  -2  -6  -9    4.34    1.13
  -2  -6  -9    0.96    0.80
  -2  -6  -9    2.01    1.41
  -2  -6  -9    0.47    1.93
   2   6   9    1.86    0.75
   2   6   9    1.47    1.13
  -3  -6  -9   -0.37    1.15
  -3  -6  -9   -1.93    1.00
  -3  -6  -9   -1.29    1.51
   3   6   9   -0.79    1.32
  -4  -6  -9   -0.72    1.87
  -4  -6  -9   -0.07    1.44
  -4  -6  -9   -0.58    1.29
   4   6   9    4.26    1.88
   7  -7  -9    5.08    2.82
   7  -7  -9    0.03    2.71
  -7   7   9    1.42    1.13
   6  -7  -9    1.08    2.25
   6  -7  -9    0.21    1.99
  -6   7   9   -0.49    0.96
  -6   7   9    0.81    0.84
  -6   7   9   -0.83    1.20
   5  -7  -9    0.58    1.81
   5  -7  -9    2.75    1.95
  -5   7   9    0.99    0.77
   4  -7  -9    2.11    1.81
  -4   7   9    0.23    0.68
  -4   7   9    0.02    0.80
   3  -7  -9    3.20    1.85
   3  -7  -9    1.67    0.97
   3  -7  -9    2.52    1.67
  -3   7   9    1.91    1.10
  -3   7   9    1.31    1.46
   2  -7  -9    3.27    1.65
   2  -7  -9    2.13    0.88
   2  -7  -9    3.03    1.69
  -2   7   9    2.99    0.76
  -2   7   9    4.67    1.00
   1  -7  -9    5.72    1.93
   1  -7  -9    5.33    1.01
   1  -7  -9    7.06    1.99
  -1   7   9    5.96    0.92
  -1   7   9    5.44    1.08
   0  -7  -9    0.68    1.05
   0  -7  -9    0.42    3.05
   0   7   9    1.27    0.75
   0   7   9    1.54    0.97
  -1  -7  -9    0.17    1.09
  -1  -7  -9    0.71    1.87
  -1  -7  -9   -0.34    2.23
   1   7   9    1.32    1.16
   1   7   9    1.20    0.89
  -2  -7  -9    3.91    1.20
  -2  -7  -9    2.87    1.56
   2   7   9    1.37    1.26
  -3  -7  -9   -1.30    1.82
  -3  -7  -9    1.18    1.38
   3   7   9    1.18    1.64
   6  -8  -9   -0.66    2.56
   6  -8  -9   -2.98    2.71
  -6   8   9   -0.08    1.34
  -6   8   9    0.80    1.03
   5  -8  -9    1.16    2.29
   5  -8  -9    0.72    2.26
  -5   8   9    0.78    1.65
  -5   8   9    1.07    0.85
  -5   8   9    0.92    1.14
   4  -8  -9    5.73    2.37
   4  -8  -9    2.68    2.23
  -4   8   9    1.35    0.95
  -4   8   9    0.59    0.85
   3  -8  -9    2.60    1.86
   3  -8  -9    2.55    1.29
   3  -8  -9    3.61    2.26
  -3   8   9    1.29    0.88
  -3   8   9    1.19    0.76
   2  -8  -9    0.52    1.07
   2  -8  -9   -2.51    1.59
  -2   8   9    2.58    1.02
  -2   8   9    1.97    0.79
   1  -8  -9   -1.21    2.19
   1  -8  -9    0.96    1.70
   1  -8  -9    0.52    1.08
  -1   8   9    0.67    0.73
  -1   8   9    0.68    1.01
   0  -8  -9   -1.32    1.03
   0  -8  -9   -4.13    4.28
   0   8   9   -0.17    0.86
   0   8   9   -0.89    0.70
   0   8   9    0.39    1.07
  -1  -8  -9   -1.43    1.08
   1   8   9   -0.26    0.82
   1   8   9   -0.90    1.29
  -2  -8  -9    1.01    1.21
   2   8   9    1.00    1.50
   5  -9  -9    0.91    2.85
   5  -9  -9    4.69    3.05
  -5   9   9    1.36    1.37
  -5   9   9    0.64    1.25
  -5   9   9    0.83    0.99
   4  -9  -9   -1.18    2.36
   4  -9  -9    3.42    2.71
  -4   9   9   -0.73    1.04
  -4   9   9    1.86    0.99
  -4   9   9    0.79    1.15
   3  -9  -9    0.82    2.56
   3  -9  -9   -1.29    2.07
  -3   9   9    2.53    1.10
  -3   9   9   -1.07    0.74
  -3   9   9    1.45    1.02
   2  -9  -9    0.42    4.41
   2  -9  -9   -0.34    1.36
   2  -9  -9    2.20    2.00
  -2   9   9   -1.69    0.88
  -2   9   9   -0.47    0.76
  -2   9   9    1.08    1.18
   1  -9  -9    1.37    2.66
   1  -9  -9    1.14    2.00
   1  -9  -9    0.29    1.24
  -1   9   9    1.09    0.91
  -1   9   9    0.30    1.20
  -1   9   9    0.75    0.79
   0  -9  -9   -2.65    1.16
   0  -9  -9    1.39    2.04
   0   9   9   -0.24    0.82
   0   9   9    1.22    1.03
   0   9   9    0.41    1.41
  -1  -9  -9    2.32    1.31
   1   9   9    3.88    1.62
   1   9   9    2.76    1.08
   4 -10  -9    2.81    3.32
   4 -10  -9   -3.78    3.26
  -4  10   9   -0.20    1.41
  -4  10   9    0.73    1.42
  -4  10   9   -0.17    1.12
   3 -10  -9    0.92    3.01
   3 -10  -9    0.35    2.83
  -3  10   9    1.30    1.13
  -3  10   9   -1.65    1.00
  -3  10   9    0.54    1.30
   2 -10  -9   -4.06    2.38
   2 -10  -9   -0.54    2.02
   2 -10  -9    2.95    2.93
  -2  10   9    0.15    1.03
  -2  10   9    0.17    1.42
  -2  10   9    0.65    1.00
   1 -10  -9   -0.96    2.59
   1 -10  -9   -1.27    1.50
  -1  10   9    0.26    1.54
  -1  10   9    1.78    1.12
  -1  10   9   -0.87    1.00
   0 -10  -9    1.69    1.64
   0 -10  -9    2.67    2.88
   0  10   9    0.94    1.06
   0  10   9    1.74    1.81
   2  14 -10    0.53    1.60
   2  14 -10    0.78    1.50
   2  14 -10    2.75    1.33
  -2 -14  10    3.36    1.24
  -2 -14  10    0.27    2.06
   1  14 -10    0.09    1.38
   1  14 -10   -1.36    1.20
  -1 -14  10    1.18    1.15
  -1 -14  10   -1.68    1.83
   0  14 -10    1.09    1.35
   0  14 -10   -2.70    1.16
   0 -14  10   -1.91    1.84
   0 -14  10    1.77    1.18
  -1  14 -10   -0.61    1.40
  -1  14 -10    2.36    1.26
  -1  14 -10    0.35    1.24
   1 -14  10    1.84    2.10
   1 -14  10    1.03    1.23
   1 -14  10    5.08    1.78
  -2  14 -10    3.38    1.57
  -2  14 -10    0.11    1.39
   2 -14  10   -2.49    1.49
   2 -14  10    1.84    2.59
   4  13 -10    5.01    1.93
  -4 -13  10   -0.85    1.10
  -4 -13  10    0.35    1.41
   3  13 -10    3.13    1.57
  -3 -13  10   -0.44    0.89
  -3 -13  10    0.36    1.01
   2  13 -10    0.44    1.20
   2  13 -10   -1.09    1.29
   2  13 -10    0.66    0.98
  -2 -13  10    0.78    0.82
  -2 -13  10   -1.12    0.84
   1  13 -10   -1.54    0.97
   1  13 -10   -0.72    1.11
  -1 -13  10   -1.21    1.48
  -1 -13  10   -0.56    0.92
   0  13 -10    2.66    1.16
   0  13 -10    0.43    0.98
   0  13 -10    0.65    1.23
   0 -13  10    1.51    1.60
   0 -13  10    2.48    0.95
  -1  13 -10    0.88    1.14
  -1  13 -10    0.67    1.08
  -1  13 -10    0.22    0.96
   1 -13  10    2.03    1.64
   1 -13  10    0.57    0.98
  -2  13 -10    0.44    1.05
  -2  13 -10    0.41    1.16
  -2  13 -10   -0.48    1.06
   2 -13  10   -2.90    1.81
   2 -13  10    1.00    1.45
   2 -13  10    1.94    1.22
  -3  13 -10    0.15    1.41
  -3  13 -10   -0.56    1.35
   3 -13  10    0.53    1.87
   3 -13  10    0.27    1.95
   5  12 -10    3.08    1.84
  -5 -12  10    0.14    1.31
  -5 -12  10   -0.64    1.19
   4  12 -10   -1.79    1.40
  -4 -12  10    0.51    1.02
  -4 -12  10    0.53    0.88
   3  12 -10   -0.20    1.20
   3  12 -10    0.06    1.40
  -3 -12  10    1.63    0.87
  -3 -12  10   -1.54    0.74
   2  12 -10   -0.72    1.03
   2  12 -10   -0.19    2.01
   2  12 -10    1.53    0.92
  -2 -12  10   -0.13    0.78
   1  12 -10   -0.24    1.00
   1  12 -10    2.45    0.92
   1  12 -10    1.91    1.01
  -1 -12  10    1.63    0.69
  -1 -12  10    0.33    0.81
  -1 -12  10   -1.02    1.23
   0  12 -10    0.94    0.85
   0  12 -10    2.89    1.09
   0  12 -10    1.23    0.88
   0 -12  10    2.40    0.71
   0 -12  10    2.90    0.90
   0 -12  10    1.09    1.36
  -1  12 -10    2.05    1.30
  -1  12 -10    2.01    1.04
  -1  12 -10   -0.01    1.11
   1 -12  10    1.11    0.89
   1 -12  10    1.71    1.78
  -2  12 -10   -0.08    0.91
  -2  12 -10   -0.85    1.00
  -2  12 -10    0.28    0.98
   2 -12  10   -0.48    1.31
   2 -12  10    0.14    1.56
   2 -12  10    2.00    1.01
  -3  12 -10   -1.38    1.05
  -3  12 -10   -0.03    1.04
   3 -12  10   -0.73    1.53
   3 -12  10    0.09    1.52
   3 -12  10   -0.65    1.61
  -4  12 -10    1.57    1.38
  -4  12 -10   -0.10    1.33
   4 -12  10    3.25    1.93
   4 -12  10   -0.89    2.13
   4 -12  10   -3.56    1.90
   5  11 -10    2.25    1.60
  -5 -11  10   -0.96    0.95
  -5 -11  10    1.06    1.00
   4  11 -10    1.95    1.31
  -4 -11  10    1.41    0.83
  -4 -11  10    1.09    0.83
   3  11 -10    4.57    1.85
  -3 -11  10    3.58    0.88
  -3 -11  10    1.79    0.78
   2  11 -10    0.65    1.05
   2  11 -10    1.24    0.82
   2  11 -10   -0.91    0.92
  -2 -11  10   -0.34    0.60
  -2 -11  10    0.37    0.68
   1  11 -10    0.84    0.86
   1  11 -10    0.75    0.57
   1  11 -10   -0.10    0.88
   1  11 -10    0.01    0.70
  -1 -11  10    1.22    0.59
  -1 -11  10    0.42    0.71
  -1 -11  10   -0.32    1.74
   0  11 -10   -0.55    0.68
   0  11 -10   -0.01    0.66
   0 -11  10    0.79    0.57
   0 -11  10   -0.57    0.75
   0 -11  10   -0.85    1.13
  -1  11 -10    1.13    0.91
  -1  11 -10    1.26    0.83
  -1  11 -10    1.07    0.72
   1 -11  10    0.61    1.52
   1 -11  10    1.40    0.91
   1 -11  10    1.14    0.66
  -2  11 -10    0.82    0.97
  -2  11 -10   -0.34    0.91
  -2  11 -10    1.19    0.74
   2 -11  10    2.62    1.57
   2 -11  10   -1.31    1.32
   2 -11  10    1.22    1.26
   2 -11  10   -0.56    0.87
  -3  11 -10    5.09    1.16
  -3  11 -10    3.34    1.04
   3 -11  10    5.80    1.59
   3 -11  10    1.35    1.64
   3 -11  10    4.36    1.49
  -4  11 -10    2.04    1.15
  -4  11 -10    1.93    1.14
   4 -11  10    2.27    1.75
   4 -11  10    2.19    1.75
  -5  11 -10    0.20    1.45
  -5  11 -10    3.28    1.73
   5 -11  10    2.97    1.93
   5 -11  10    0.09    2.36
   6  10 -10    0.47    1.97
  -6 -10  10   -1.99    1.03
  -6 -10  10   -1.37    1.08
   5  10 -10    0.38    1.41
  -5 -10  10    0.34    0.93
  -5 -10  10   -0.93    0.80
   4  10 -10   -0.19    1.08
   4  10 -10    0.55    2.49
  -4 -10  10    1.59    0.77
  -4 -10  10    0.47    0.72
   3  10 -10   -1.75    0.98
   3  10 -10    0.79    0.97
  -3 -10  10   -0.04    0.65
   2  10 -10    0.64    0.73
   2  10 -10   -0.32    0.83
   2  10 -10    0.05    0.81
  -2 -10  10    0.32    0.61
  -2 -10  10    0.80    0.65
   1  10 -10    1.69    0.77
   1  10 -10    4.53    0.96
   1  10 -10    3.80    0.74
   1  10 -10    3.20    0.62
  -1 -10  10    4.15    0.82
  -1 -10  10    4.26    0.92
  -1 -10  10    2.94    0.62
   0  10 -10    2.18    0.90
   0  10 -10    2.88    0.82
   0  10 -10    2.49    0.66
   0  10 -10    3.55    0.68
   0 -10  10    1.68    0.70
   0 -10  10    1.70    0.60
   0 -10  10    2.65    0.60
   0 -10  10    2.87    0.96
  -1  10 -10    5.33    1.06
  -1  10 -10    5.13    0.90
  -1  10 -10    3.04    0.69
   1 -10  10    5.06    1.12
   1 -10  10    4.35    0.97
   1 -10  10    6.27    0.76
   1 -10  10    5.00    0.98
  -2  10 -10    2.23    0.88
  -2  10 -10    2.16    0.67
   2 -10  10    3.48    1.26
   2 -10  10    2.19    1.03
   2 -10  10    4.12    0.83
   2 -10  10    5.00    1.27
  -3  10 -10    1.34    0.96
  -3  10 -10    0.40    0.86
   3 -10  10    1.37    1.31
   3 -10  10    2.09    1.35
   3 -10  10    2.86    1.33
  -4  10 -10    1.11    1.02
  -4  10 -10    0.09    0.98
   4 -10  10    1.72    1.61
   4 -10  10    2.30    1.60
  -5  10 -10    1.39    1.32
  -5  10 -10    0.97    1.34
   5 -10  10   -1.04    1.64
   5 -10  10    0.86    1.97
   6   9 -10    1.88    1.80
  -6  -9  10    0.42    1.05
  -6  -9  10    0.47    0.89
   5   9 -10    0.06    1.26
  -5  -9  10   -0.01    0.77
  -5  -9  10    0.66    0.75
   4   9 -10    4.86    1.31
   4   9 -10    4.36    1.35
  -4  -9  10    5.01    1.02
  -4  -9  10    5.27    0.97
   3   9 -10    8.19    1.21
   3   9 -10    6.45    1.14
  -3  -9  10    7.85    0.92
  -3  -9  10    6.76    0.84
   2   9 -10    6.32    1.01
   2   9 -10    5.13    0.94
  -2  -9  10    5.95    0.75
  -2  -9  10    5.49    0.75
   1   9 -10    6.49    0.79
   1   9 -10    5.46    0.92
   1   9 -10    7.01    0.96
   1   9 -10    5.68    0.79
  -1  -9  10    6.88    0.74
  -1  -9  10    6.20    0.71
  -1  -9  10    6.70    0.78
  -1  -9  10    7.52    0.92
   0   9 -10    1.22    0.65
   0   9 -10    1.91    0.59
   0   9 -10    3.00    0.77
   0   9 -10    1.19    0.50
   0  -9  10    2.29    0.55
   0  -9  10    2.35    0.65
   0  -9  10    1.01    0.71
   0  -9  10    1.91    0.49
  -1   9 -10    0.64    0.79
  -1   9 -10    1.18    0.68
   1  -9  10    0.36    0.51
   1  -9  10    1.67    0.88
   1  -9  10    0.21    0.62
  -2   9 -10    1.76    0.84
  -2   9 -10    1.12    0.76
   2  -9  10    1.73    0.70
   2  -9  10    2.68    0.89
   2  -9  10    2.16    1.04
   2  -9  10    2.62    0.96
  -3   9 -10    2.00    0.90
   3  -9  10    2.72    1.49
   3  -9  10    1.71    1.25
   3  -9  10    2.26    0.90
  -4   9 -10    1.30    1.02
  -4   9 -10    2.80    1.03
   4  -9  10    1.35    1.54
   4  -9  10    3.18    1.44
  -5   9 -10    4.31    1.24
  -5   9 -10    9.54    1.52
  -5   9 -10    4.49    1.27
   5  -9  10    4.96    1.65
   5  -9  10    2.29    1.81
   7   8 -10   -2.17    1.97
  -7  -8  10    2.10    1.14
  -7  -8  10   -0.30    1.11
   6   8 -10    3.69    1.65
  -6  -8  10    0.32    0.80
  -6  -8  10   -0.71    0.84
   5   8 -10    0.25    1.48
   5   8 -10    5.10    1.36
  -5  -8  10    0.28    0.73
   4   8 -10    1.37    0.90
   4   8 -10    4.02    1.17
  -4  -8  10    1.20    0.66
  -4  -8  10    1.86    0.64
   3   8 -10    6.07    1.00
   3   8 -10    2.77    0.96
  -3  -8  10    4.52    0.68
  -3  -8  10    4.55    0.69
   2   8 -10   -0.05    0.66
   2   8 -10   -0.61    0.64
   2   8 -10    1.03    0.50
  -2  -8  10    0.68    0.52
  -2  -8  10    0.72    0.48
   1   8 -10    3.56    0.81
   1   8 -10    3.00    0.59
   1   8 -10    4.00    0.79
  -1  -8  10    3.59    0.60
  -1  -8  10    3.67    0.61
  -1  -8  10    2.66    0.49
  -1  -8  10    3.13    0.66
   0   8 -10    5.82    0.72
   0   8 -10    7.12    0.80
   0   8 -10    5.87    0.88
   0  -8  10    6.20    0.81
   0  -8  10    6.75    0.82
   0  -8  10    6.93    0.87
   0  -8  10    6.79    0.88
  -1   8 -10    4.76    0.77
  -1   8 -10    5.79    0.85
   1  -8  10    6.03    0.73
   1  -8  10    5.41    0.94
   1  -8  10    6.21    0.53
   1  -8  10    5.70    0.81
  -2   8 -10    9.10    1.04
  -2   8 -10    6.14    0.92
   2  -8  10    8.93    1.07
   2  -8  10    6.87    1.03
   2  -8  10    9.96    1.39
  -3   8 -10   10.88    1.21
  -3   8 -10   10.38    1.25
   3  -8  10    6.89    1.39
   3  -8  10   11.28    1.49
   3  -8  10    8.86    1.09
  -4   8 -10    4.34    1.09
  -4   8 -10    3.70    1.18
   4  -8  10    3.77    1.25
   4  -8  10    2.10    1.52
   4  -8  10    2.87    1.09
  -5   8 -10   -0.23    1.06
  -5   8 -10    2.57    1.18
  -5   8 -10    1.12    1.14
   5  -8  10    1.06    1.39
   5  -8  10   -1.43    1.67
  -6   8 -10    1.64    1.56
  -6   8 -10   -0.45    1.67
   6  -8  10    0.09    1.99
   6  -8  10    3.04    2.82
   7   7 -10    4.35    1.97
  -7  -7  10    0.49    1.03
  -7  -7  10   -1.15    1.00
   6   7 -10    1.02    1.44
  -6  -7  10   -1.34    0.74
  -6  -7  10   -0.06    0.79
   5   7 -10    1.03    1.16
   5   7 -10   -0.23    1.14
  -5  -7  10   -0.32    0.63
  -5  -7  10    0.89    0.59
   4   7 -10    5.27    1.11
   4   7 -10    3.84    1.08
  -4  -7  10    5.92    0.79
  -4  -7  10    3.94    0.65
   3   7 -10   16.42    1.34
   3   7 -10   17.46    1.53
   3   7 -10   14.85    1.93
  -3  -7  10   18.01    1.05
  -3  -7  10   18.39    1.07
   2   7 -10   18.05    1.38
   2   7 -10   18.82    1.07
   2   7 -10   19.55    1.35
  -2  -7  10   21.71    1.10
  -2  -7  10   21.69    1.05
  -2  -7  10   21.54    1.11
   1   7 -10   26.60    1.42
   1   7 -10   29.31    1.55
   1   7 -10   28.15    1.36
  -1  -7  10   29.53    1.34
  -1  -7  10   27.93    1.21
  -1  -7  10   28.62    1.41
  -1  -7  10   29.49    1.29
   0   7 -10   24.27    1.26
   0   7 -10   26.06    1.43
   0   7 -10   24.52    1.31
   0  -7  10   24.83    1.39
   0  -7  10   24.30    1.11
   0  -7  10   25.02    1.26
   0  -7  10   24.54    1.21
  -1   7 -10    7.74    0.92
  -1   7 -10    7.53    0.86
   1  -7  10    6.49    0.47
   1  -7  10    7.19    0.85
   1  -7  10    8.26    1.05
   1  -7  10    7.54    0.88
  -2   7 -10    0.26    0.60
  -2   7 -10    0.38    0.67
   2  -7  10    0.18    0.67
   2  -7  10    0.52    0.74
   2  -7  10    0.13    0.59
  -3   7 -10    2.07    0.78
  -3   7 -10    2.86    0.80
   3  -7  10    1.32    0.82
   3  -7  10    2.07    1.13
   3  -7  10    2.34    0.95
  -4   7 -10    0.58    0.91
  -4   7 -10    0.83    0.87
  -4   7 -10    0.07    0.85
   4  -7  10    0.65    0.93
   4  -7  10   -1.22    1.22
   4  -7  10   -1.23    1.00
  -5   7 -10    4.34    1.14
  -5   7 -10    5.96    1.31
   5  -7  10    2.75    1.60
   5  -7  10    7.28    1.51
  -6   7 -10   11.95    1.86
  -6   7 -10    6.43    1.73
   6  -7  10    5.99    2.41
   6  -7  10    7.24    1.93
   8   6 -10    3.71    2.57
  -8  -6  10   -0.99    1.23
  -8  -6  10    0.16    1.24
   7   6 -10    0.24    1.58
  -7  -6  10    0.06    0.88
  -7  -6  10   -0.76    0.82
   6   6 -10    2.69    1.45
  -6  -6  10    2.11    0.74
  -6  -6  10    2.37    0.85
   5   6 -10    7.17    1.35
  -5  -6  10    6.44    0.87
  -5  -6  10    6.24    0.80
   4   6 -10    4.77    1.33
   4   6 -10    3.92    1.14
   4   6 -10    2.69    1.02
  -4  -6  10    4.37    0.65
  -4  -6  10    3.09    0.63
   3   6 -10    5.75    0.98
   3   6 -10    5.09    0.95
   3   6 -10    5.28    1.32
  -3  -6  10    5.19    0.62
  -3  -6  10    5.63    0.73
  -3  -6  10    3.97    0.62
   2   6 -10    6.30    0.76
   2   6 -10    6.03    0.90
   2   6 -10    5.99    0.88
  -2  -6  10    5.48    0.67
  -2  -6  10    5.53    0.67
  -2  -6  10    5.89    0.72
   1   6 -10   13.20    1.05
   1   6 -10   11.43    0.89
   1   6 -10   10.65    1.04
  -1  -6  10   10.96    0.82
  -1  -6  10   13.21    0.89
  -1  -6  10   11.57    0.80
   0   6 -10   12.20    0.94
   0   6 -10   14.03    0.78
   0   6 -10   12.71    1.10
   0  -6  10   15.09    0.95
   0  -6  10   13.38    1.07
   0  -6  10   12.48    0.87
   0  -6  10   13.37    0.73
  -1   6 -10    8.79    0.99
  -1   6 -10    7.97    0.92
   1  -6  10    7.02    0.85
   1  -6  10    7.89    1.02
   1  -6  10    8.46    0.53
   1  -6  10    8.36    0.85
  -2   6 -10    9.03    1.02
  -2   6 -10   10.95    1.11
   2  -6  10    8.71    1.18
   2  -6  10    9.69    1.05
   2  -6  10   11.22    1.34
  -3   6 -10   17.16    1.34
  -3   6 -10   15.70    1.33
  -3   6 -10   16.99    1.24
   3  -6  10   17.89    1.46
   3  -6  10   16.03    1.45
   3  -6  10   13.79    1.69
  -4   6 -10    2.97    0.95
  -4   6 -10    3.63    0.99
   4  -6  10    1.20    0.94
   4  -6  10    2.85    1.09
  -5   6 -10    8.07    1.33
  -5   6 -10    5.30    1.20
  -5   6 -10    4.57    1.11
   5  -6  10    3.92    1.79
   5  -6  10    5.81    1.33
  -6   6 -10    0.88    1.38
  -6   6 -10    2.39    1.58
   6  -6  10    1.62    1.56
   6  -6  10   -0.20    1.99
   8   5 -10    5.47    2.28
  -8  -5  10    1.96    1.18
  -8  -5  10   -0.83    1.22
  -8  -5  10    2.74    1.24
   7   5 -10    1.97    1.63
  -7  -5  10    4.58    0.96
  -7  -5  10    3.99    1.06
  -6  -5  10    1.85    0.66
   5   5 -10    3.67    1.09
   5   5 -10    2.38    1.10
  -5  -5  10    2.47    0.57
  -5  -5  10    3.56    0.66
   4   5 -10    2.85    1.16
   4   5 -10   -0.12    0.82
   4   5 -10    0.39    0.74
  -4  -5  10   -0.16    0.40
  -4  -5  10   -0.27    0.41
  -4  -5  10   -0.10    0.47
   3   5 -10    0.90    0.75
   3   5 -10    1.18    0.71
   3   5 -10    1.91    1.16
  -3  -5  10    0.86    0.43
  -3  -5  10    1.23    0.47
  -3  -5  10    1.46    0.46
   2   5 -10   76.90    2.82
   2   5 -10   77.75    2.92
   2   5 -10   73.94    2.59
  -2  -5  10   77.86    2.53
  -2  -5  10   78.42    2.50
  -2  -5  10   78.05    2.51
   1   5 -10   23.36    1.33
   1   5 -10   24.78    1.19
   1   5 -10   23.80    1.40
  -1  -5  10   22.07    1.03
  -1  -5  10   22.40    1.06
  -1  -5  10   23.84    1.10
  -1  -5  10   23.97    1.13
   0   5 -10   48.76    1.68
   0   5 -10   50.55    1.94
   0   5 -10   48.78    2.05
   0  -5  10   48.54    1.67
   0  -5  10   49.65    1.85
   0  -5  10   48.20    1.80
   0  -5  10   49.76    1.83
  -1   5 -10   57.90    2.25
  -1   5 -10   57.59    2.19
   1  -5  10   54.68    2.17
   1  -5  10   58.92    2.10
   1  -5  10   57.11    1.83
  -2   5 -10    7.26    0.92
  -2   5 -10    9.20    1.05
  -2   5 -10    8.88    1.07
   2  -5  10   11.76    1.30
   2  -5  10    7.68    0.63
   2  -5  10   10.39    1.04
   2  -5  10    9.09    1.08
  -3   5 -10    6.07    1.01
  -3   5 -10    6.77    0.93
  -3   5 -10    5.02    0.86
   3  -5  10    5.95    0.94
   3  -5  10    5.53    1.07
   3  -5  10    5.75    1.27
  -4   5 -10    5.54    1.14
  -4   5 -10    5.30    0.99
  -4   5 -10    4.41    0.95
   4  -5  10    3.93    0.99
   4  -5  10    3.09    2.00
   4  -5  10    2.45    1.14
  -5   5 -10    0.94    1.03
  -5   5 -10    3.10    1.15
  -5   5 -10    1.77    1.41
   5  -5  10    1.91    1.23
   5  -5  10   -1.30    1.62
  -6   5 -10    4.27    1.60
  -6   5 -10    2.92    1.36
   6  -5  10    3.33    1.62
   6  -5  10    3.17    1.95
   8   4 -10    0.02    1.99
  -8  -4  10   -0.55    1.10
  -8  -4  10   -0.99    0.96
   7   4 -10    0.11    1.53
  -7  -4  10    0.33    0.77
  -7  -4  10   -0.94    0.73
  -7  -4  10    1.22    0.87
   6   4 -10    2.46    1.40
  -6  -4  10    2.95    0.85
  -6  -4  10    2.91    0.77
  -6  -4  10    2.52    0.62
   5   4 -10    3.67    1.14
   5   4 -10    5.47    1.12
  -5  -4  10    4.33    0.71
  -5  -4  10    3.92    0.64
  -5  -4  10    4.11    0.58
   4   4 -10   17.66    1.52
   4   4 -10   19.94    2.37
  -4  -4  10   17.53    1.06
  -4  -4  10   16.69    1.00
  -4  -4  10   18.44    0.97
   3   4 -10    5.39    0.66
   3   4 -10    4.07    0.85
   3   4 -10    4.71    1.13
   3   4 -10    4.40    0.92
  -3  -4  10    6.04    0.66
  -3  -4  10    5.08    0.63
  -3  -4  10    5.44    0.64
   2   4 -10    3.85    0.99
   2   4 -10    3.66    0.31
   2   4 -10    3.62    0.66
   2   4 -10    3.15    0.73
  -2  -4  10    3.55    0.52
  -2  -4  10    3.73    0.54
  -2  -4  10    2.90    0.49
  -2  -4  10    3.39    0.40
   1   4 -10   39.37    1.40
   1   4 -10   42.10    1.93
   1   4 -10   39.70    1.64
   1   4 -10   43.33    1.82
  -1  -4  10   41.16    1.42
  -1  -4  10   41.99    1.57
  -1  -4  10   41.71    1.51
  -1  -4  10   41.49    1.61
   0   4 -10    9.20    0.95
   0   4 -10    9.25    0.70
   0   4 -10    9.08    1.02
   0  -4  10    9.60    0.70
   0  -4  10    9.49    0.80
   0  -4  10    7.97    0.85
  -1   4 -10   13.24    1.12
  -1   4 -10   14.22    0.96
  -1   4 -10   14.51    1.15
   1  -4  10   14.32    1.01
   1  -4  10   14.16    1.00
   1  -4  10   14.68    0.77
  -2   4 -10    9.31    1.09
  -2   4 -10   12.53    1.01
  -2   4 -10   11.86    1.15
   2  -4  10   12.47    1.12
   2  -4  10   10.76    1.12
   2  -4  10   10.20    0.77
   2  -4  10   12.71    1.31
  -3   4 -10    8.97    1.17
  -3   4 -10    8.08    1.01
  -3   4 -10    9.27    1.15
   3  -4  10    6.78    1.09
   3  -4  10    8.56    1.18
   3  -4  10    7.73    1.28
   3  -4  10   11.68    0.82
  -4   4 -10    9.46    1.14
  -4   4 -10    6.97    1.12
  -4   4 -10    7.92    1.29
   4  -4  10   10.05    1.27
   4  -4  10    7.64    1.53
  -5   4 -10    2.78    1.21
  -5   4 -10    2.56    1.02
   5  -4  10    2.00    1.15
   5  -4  10    0.59    1.61
  -6   4 -10    5.16    1.50
  -6   4 -10    2.72    1.42
   6  -4  10    5.49    1.64
   6  -4  10    4.83    2.24
   8   3 -10    5.07    2.13
  -8  -3  10    2.30    1.10
  -8  -3  10    2.88    1.09
   7   3 -10    5.06    2.26
  -7  -3  10    3.43    0.96
  -7  -3  10    2.90    0.70
  -7  -3  10    2.33    0.84
   6   3 -10   14.73    1.93
   6   3 -10   16.48    1.82
  -6  -3  10   15.30    0.99
  -6  -3  10   16.72    1.31
  -6  -3  10   15.66    1.16
   5   3 -10   15.69    1.59
   5   3 -10   17.02    1.72
  -5  -3  10   15.48    1.05
  -5  -3  10   17.08    1.15
  -5  -3  10   16.43    0.94
   4   3 -10    8.24    1.19
   4   3 -10    9.05    1.35
  -4  -3  10    6.75    0.70
  -4  -3  10    6.89    0.81
  -4  -3  10    7.02    0.76
   3   3 -10    3.38    1.09
   3   3 -10    5.92    0.76
   3   3 -10    4.90    0.93
   3   3 -10    5.15    0.98
  -3  -3  10    5.21    0.62
  -3  -3  10    5.66    0.66
  -3  -3  10    5.51    0.72
   2   3 -10    7.95    0.88
   2   3 -10    7.64    0.47
   2   3 -10    7.51    1.01
   2   3 -10    6.97    0.36
  -2  -3  10    6.52    0.65
  -2  -3  10    7.84    0.69
  -2  -3  10    6.18    0.64
  -2  -3  10    6.61    0.42
   1   3 -10   52.16    1.96
   1   3 -10   50.41    2.17
   1   3 -10   52.89    2.09
   1   3 -10   52.00    1.66
  -1  -3  10   52.47    1.86
  -1  -3  10   50.45    1.78
  -1  -3  10   49.57    1.82
  -1  -3  10   50.17    1.61
   0   3 -10    2.36    0.69
   0   3 -10    3.19    0.47
   0   3 -10    5.33    0.82
   0  -3  10    2.72    0.40
   0  -3  10    3.17    0.54
   0  -3  10    3.32    0.49
  -1   3 -10   82.64    3.03
  -1   3 -10   83.65    2.78
  -1   3 -10   82.07    2.96
   1  -3  10   93.71    3.11
   1  -3  10   83.46    2.81
   1  -3  10   84.74    2.83
   1  -3  10   79.47    2.71
  -2   3 -10   52.80    2.26
  -2   3 -10   53.48    2.23
  -2   3 -10   51.91    2.09
   2  -3  10   59.56    2.49
   2  -3  10   56.82    2.26
   2  -3  10   54.41    2.13
   2  -3  10   53.96    1.62
  -3   3 -10   21.57    1.48
  -3   3 -10   22.40    1.46
  -3   3 -10   21.15    1.52
   3  -3  10   18.00    1.74
   3  -3  10   19.54    1.56
   3  -3  10   20.05    1.32
   3  -3  10   19.45    1.37
  -4   3 -10    5.16    1.07
  -4   3 -10    6.24    1.10
  -4   3 -10    4.95    1.10
   4  -3  10    5.79    1.49
   4  -3  10    5.09    1.04
  -5   3 -10    5.58    1.27
  -5   3 -10    4.93    1.12
   5  -3  10    3.60    1.62
   5  -3  10    3.87    1.25
  -6   3 -10    0.32    1.31
  -6   3 -10    0.62    1.44
   6  -3  10   -3.87    1.91
   6  -3  10   -0.04    1.41
   8   2 -10    3.15    2.03
  -8  -2  10    1.48    1.00
  -8  -2  10    1.14    1.41
   7   2 -10    0.25    1.49
   7   2 -10    1.14    1.29
  -7  -2  10    0.46    0.82
   6   2 -10   -0.17    1.09
   6   2 -10   -0.10    1.20
  -6  -2  10    0.09    0.56
  -6  -2  10    0.08    0.47
  -6  -2  10   -0.50    0.64
   5   2 -10    5.58    1.23
   5   2 -10    4.75    1.21
  -5  -2  10    3.18    0.67
  -5  -2  10    3.49    0.57
  -5  -2  10    3.78    0.53
   4   2 -10    0.23    0.76
   4   2 -10    1.28    0.79
  -4  -2  10    0.36    0.30
  -4  -2  10    0.90    0.45
  -4  -2  10    0.35    0.47
   3   2 -10   46.63    1.94
   3   2 -10   49.33    2.22
   3   2 -10   43.60    2.55
  -3  -2  10   48.28    1.72
  -3  -2  10   47.90    1.76
  -3  -2  10   47.82    1.36
  -3  -2  10   47.26    1.56
   2   2 -10    9.43    0.42
   2   2 -10    8.18    1.16
   2   2 -10    8.38    1.08
   2   2 -10    7.81    0.40
  -2  -2  10    9.23    0.62
  -2  -2  10    9.83    0.75
  -2  -2  10    9.15    0.74
   1   2 -10   22.87    0.89
   1   2 -10   22.05    1.43
   1   2 -10   23.29    1.44
  -1  -2  10   20.70    1.10
  -1  -2  10   21.94    1.06
  -1  -2  10   22.84    0.74
   0   2 -10   22.48    1.04
   0   2 -10   26.56    1.45
   0   2 -10   23.42    1.36
   0  -2  10   22.68    1.11
   0  -2  10   23.33    0.90
   0  -2  10   22.29    1.05
  -1   2 -10    0.65    0.63
  -1   2 -10    1.50    0.50
  -1   2 -10    0.82    0.68
   1  -2  10    1.47    0.41
   1  -2  10    1.06    0.63
   1  -2  10    2.54    0.64
   1  -2  10    1.07    0.46
  -2   2 -10   -0.57    0.45
  -2   2 -10    0.44    0.66
  -2   2 -10    0.92    0.66
   2  -2  10   -0.23    0.66
   2  -2  10    0.60    0.50
   2  -2  10   -0.15    0.55
   2  -2  10   -0.41    0.54
   2  -2  10    0.16    0.19
  -3   2 -10    4.05    0.94
  -3   2 -10    6.70    0.99
  -3   2 -10    5.26    0.86
   3  -2  10    6.07    0.86
   3  -2  10    4.07    1.05
   3  -2  10    4.57    0.95
   3  -2  10    3.62    0.75
  -4   2 -10    1.90    0.88
  -4   2 -10    2.11    1.03
  -4   2 -10    1.64    0.88
   4  -2  10    2.55    1.31
   4  -2  10    0.72    1.22
   4  -2  10    1.58    0.88
  -5   2 -10    9.42    1.45
  -5   2 -10    6.18    1.25
   5  -2  10    4.21    1.68
   5  -2  10    5.49    1.29
  -6   2 -10    3.30    1.41
  -6   2 -10    1.14    1.54
   6  -2  10    4.11    2.16
   8   1 -10    3.00    1.95
  -8  -1  10   -1.51    0.97
  -8  -1  10   -1.19    0.92
   7   1 -10    2.56    1.60
   7   1 -10    2.28    1.47
  -7  -1  10    2.73    0.89
  -7  -1  10    2.47    0.82
   6   1 -10    6.63    1.51
   6   1 -10    7.84    1.46
  -6  -1  10    5.84    0.83
  -6  -1  10    5.84    0.75
   5   1 -10   66.53    3.11
   5   1 -10   80.34    3.44
  -5  -1  10   68.90    2.18
  -5  -1  10   73.28    2.45
  -5  -1  10   74.30    2.56
   4   1 -10   14.30    1.50
   4   1 -10   13.39    1.41
   4   1 -10   12.23    0.82
  -4  -1  10   12.99    0.93
  -4  -1  10   13.35    0.86
  -4  -1  10   13.46    0.61
   3   1 -10   17.33    1.41
   3   1 -10   17.41    1.74
   3   1 -10   18.84    0.98
  -3  -1  10   17.56    0.95
  -3  -1  10   16.85    1.00
   2   1 -10   13.27    1.58
   2   1 -10   14.00    1.33
   2   1 -10   13.25    0.55
   2   1 -10   13.39    1.34
  -2  -1  10   13.42    0.86
  -2  -1  10   13.74    0.89
   1   1 -10    1.42    0.65
   1   1 -10    1.34    0.30
   1   1 -10    1.40    0.76
  -1  -1  10    1.56    0.47
  -1  -1  10    2.29    0.48
   0   1 -10    1.00    0.63
   0   1 -10    1.46    0.39
   0   1 -10    0.42    0.62
   0  -1  10    1.01    0.69
   0  -1  10    1.68    0.44
  -1   1 -10   29.58    1.62
  -1   1 -10   28.54    1.36
  -1   1 -10   26.31    1.51
   1  -1  10   30.15    1.47
   1  -1  10   28.78    1.05
   1  -1  10   29.69    1.32
   1  -1  10   28.40    1.15
   1  -1  10   30.03    1.56
  -2   1 -10   28.07    1.69
  -2   1 -10   28.29    1.56
  -2   1 -10   29.77    1.53
   2  -1  10   26.75    0.97
   2  -1  10   30.90    1.78
   2  -1  10   28.91    1.43
   2  -1  10   29.94    1.65
   2  -1  10   28.99    1.42
  -3   1 -10   29.01    1.67
  -3   1 -10   28.16    1.75
  -3   1 -10   29.67    1.61
   3  -1  10   25.07    1.78
   3  -1  10   27.71    1.98
   3  -1  10   22.24    1.49
   3  -1  10   31.48    1.56
  -4   1 -10   11.53    1.52
  -4   1 -10   12.50    1.55
   4  -1  10    9.18    1.10
   4  -1  10    9.25    1.62
   4  -1  10    9.88    1.31
  -5   1 -10   -0.62    1.17
  -5   1 -10   -0.16    1.08
   5  -1  10   -2.05    1.34
  -6   1 -10    0.73    1.38
  -6   1 -10    0.86    1.55
   6  -1  10   -3.51    1.90
   8   0 -10    5.21    2.05
   8   0 -10    4.11    2.07
  -8   0  10    1.36    1.01
  -8   0  10    3.52    1.06
  -8   0  10    4.56    1.03
   7   0 -10    3.97    1.63
   7   0 -10    5.40    1.76
  -7   0  10    3.88    0.81
  -7   0  10    4.04    0.94
   6   0 -10   -1.38    1.31
   6   0 -10    1.41    1.31
  -6   0  10   -0.13    0.55
  -6   0  10    0.86    0.65
   5   0 -10    5.82    0.95
   5   0 -10    8.82    1.49
   5   0 -10    5.57    1.30
  -5   0  10    5.54    0.73
  -5   0  10    5.70    0.74
   4   0 -10    1.74    1.01
   4   0 -10   -0.13    0.74
   4   0 -10   -0.14    0.58
  -4   0  10    0.65    0.43
  -4   0  10    0.47    0.21
  -4   0  10    0.15    0.44
   3   0 -10    5.02    0.98
   3   0 -10    4.59    1.10
   3   0 -10    7.28    0.85
   3   0 -10    7.04    1.18
  -3   0  10    6.31    0.70
  -3   0  10    6.26    0.69
   2   0 -10   32.68    2.23
   2   0 -10   41.81    1.27
   2   0 -10   35.82    1.88
  -2   0  10   39.29    1.54
  -2   0  10   37.64    1.51
   1   0 -10   61.16    2.46
   1   0 -10   59.62    2.00
  -1   0  10   59.98    2.08
  -1   0  10   62.06    2.12
   0   0 -10    1.24    0.67
   0   0 -10    0.59    0.48
   0   0  10    1.01    0.49
   0   0  10    1.32    0.40
   0   0  10    1.74    0.60
   0   0  10    1.26    0.45
  -1   0 -10   16.65    1.31
  -1   0 -10   16.61    1.09
   1   0  10   17.57    1.10
   1   0  10   16.93    1.20
   1   0  10   16.58    0.79
   1   0  10   18.44    1.29
  -2   0 -10   10.49    1.28
  -2   0 -10    9.64    1.10
   2   0  10    8.87    1.21
   2   0  10    8.12    0.91
   2   0  10    9.77    1.13
   2   0  10    8.96    0.52
  -3   0 -10   -0.69    0.71
  -3   0 -10    0.65    0.88
   3   0  10    0.04    0.69
   3   0  10   -1.11    0.77
  -4   0 -10    0.71    1.10
   4   0  10    0.03    0.91
   4   0  10   -0.76    1.30
  -5   0 -10    3.24    1.39
  -5   0 -10    2.02    1.10
   5   0  10    2.75    1.67
  -6   0 -10    3.30    1.58
  -6   0 -10    2.80    1.75
  -6   0 -10    1.66    1.48
   6   0  10    1.22    2.11
   8  -1 -10   -0.63    1.92
   8  -1 -10   -0.07    2.01
  -8   1  10    1.67    0.99
  -8   1  10   -0.10    0.99
   7  -1 -10   -0.36    1.44
  -7   1  10   -0.15    1.45
  -7   1  10   -0.04    0.76
  -7   1  10   -0.99    0.75
   6  -1 -10    4.95    1.46
   6  -1 -10    5.86    1.60
  -6   1  10    6.61    0.89
  -6   1  10    7.09    0.77
   5  -1 -10   19.29    3.35
   5  -1 -10   17.17    1.76
   5  -1 -10   15.61    1.65
  -5   1  10   16.92    1.03
  -5   1  10   17.74    1.19
   4  -1 -10   38.15    2.44
   4  -1 -10   39.42    2.25
  -4   1  10   40.77    1.57
  -4   1  10   43.01    1.72
   3  -1 -10   20.90    1.48
   3  -1 -10   20.83    1.86
  -3   1  10   22.17    1.09
  -3   1  10   21.55    1.14
   2  -1 -10   25.50    0.97
   2  -1 -10   22.36    1.56
  -2   1  10   22.53    1.07
  -2   1  10   24.35    1.14
  -2   1  10   24.05    1.17
   1  -1 -10   26.23    1.91
   1  -1 -10   24.48    1.15
   1  -1 -10   24.84    1.59
  -1   1  10   27.35    1.24
  -1   1  10   24.67    1.22
  -1   1  10   27.13    1.13
   0  -1 -10    5.23    0.75
   0  -1 -10    5.29    0.91
   0   1  10    5.31    0.63
   0   1  10    4.77    0.68
   0   1  10    5.30    0.81
   0   1  10    3.93    0.62
  -1  -1 -10    0.86    0.54
  -1  -1 -10    1.50    0.74
   1   1  10    0.59    0.51
   1   1  10    0.00    0.63
   1   1  10    0.33    0.74
   1   1  10    0.95    0.69
  -2  -1 -10    7.16    0.96
  -2  -1 -10    8.16    1.12
   2   1  10    7.23    0.99
   2   1  10    7.85    1.09
   2   1  10    7.16    0.57
   2   1  10    8.45    1.00
  -3  -1 -10    6.58    1.21
  -3  -1 -10    7.21    1.10
   3   1  10    5.69    1.02
   3   1  10    5.89    1.19
  -4  -1 -10    8.36    1.31
  -4  -1 -10    4.22    1.22
   4   1  10    4.57    1.50
   4   1  10    4.97    1.16
  -5  -1 -10    4.40    1.26
  -5  -1 -10    4.64    1.52
  -5  -1 -10    4.76    1.29
   5   1  10    1.97    1.63
   8  -2 -10   -0.14    2.19
   8  -2 -10    2.54    2.27
  -8   2  10    3.87    1.09
  -8   2  10    1.06    0.95
   7  -2 -10    4.44    1.89
   7  -2 -10    2.15    1.74
  -7   2  10    3.63    0.87
  -7   2  10    3.30    0.92
   6  -2 -10    7.13    1.35
   6  -2 -10    4.03    1.60
   6  -2 -10    6.59    1.91
  -6   2  10    5.46    0.88
  -6   2  10    5.07    0.90
  -6   2  10    5.04    0.69
   5  -2 -10    4.42    1.54
   5  -2 -10    7.15    1.26
  -5   2  10    5.03    0.76
  -5   2  10    5.26    0.75
  -5   2  10    6.12    0.66
   4  -2 -10    8.74    1.31
   4  -2 -10    9.64    1.63
  -4   2  10    8.58    0.83
  -4   2  10    8.75    0.93
  -4   2  10    8.47    0.83
   3  -2 -10    1.52    0.76
   3  -2 -10    0.80    0.88
   3  -2 -10    1.40    1.10
  -3   2  10    1.15    0.47
  -3   2  10    0.87    0.41
  -3   2  10    0.98    0.47
   2  -2 -10    3.18    1.03
   2  -2 -10    1.15    0.74
   2  -2 -10    3.30    0.98
   2  -2 -10    5.50    0.61
  -2   2  10    3.18    0.55
  -2   2  10    3.05    0.54
  -2   2  10    3.30    0.56
   1  -2 -10   25.67    1.36
   1  -2 -10   26.44    1.71
   1  -2 -10   29.41    2.17
  -1   2  10   29.16    1.25
  -1   2  10   29.93    1.39
  -1   2  10   27.88    1.21
  -1   2  10   28.70    1.34
   0  -2 -10   18.14    1.54
   0  -2 -10   21.53    1.30
   0  -2 -10   21.81    1.96
   0   2  10   20.45    1.44
   0   2  10   20.24    1.27
   0   2  10   20.53    1.24
   0   2  10   21.28    1.00
  -1  -2 -10    1.35    0.82
  -1  -2 -10    1.47    0.67
   1   2  10    2.73    0.77
   1   2  10    1.52    0.44
   1   2  10    1.97    0.74
   1   2  10    0.93    0.66
  -2  -2 -10   20.02    1.67
  -2  -2 -10   19.85    1.46
   2   2  10   20.02    1.53
   2   2  10   17.81    1.50
  -3  -2 -10    4.01    1.21
  -3  -2 -10    5.12    1.09
   3   2  10    2.31    1.10
   3   2  10    1.78    0.94
  -4  -2 -10    0.53    0.94
  -4  -2 -10    1.40    1.27
  -4  -2 -10    1.28    1.05
  -5  -2 -10    2.25    1.15
  -5  -2 -10    2.43    1.56
  -5  -2 -10   -0.57    1.26
   5   2  10   -0.77    1.74
   5   2  10   -2.88    1.53
   8  -3 -10    1.43    2.25
  -8   3  10    0.72    1.13
  -8   3  10    1.30    1.01
   7  -3 -10    2.66    1.93
  -7   3  10   -0.08    0.83
  -7   3  10   -0.59    0.77
   6  -3 -10   -0.04    1.34
  -6   3  10    0.34    1.23
  -6   3  10   -0.01    0.72
   5  -3 -10    2.96    1.53
   5  -3 -10    4.20    1.26
  -5   3  10    3.36    0.74
  -5   3  10    3.21    0.61
  -5   3  10    4.97    0.82
   4  -3 -10    6.40    1.16
   4  -3 -10    9.31    1.72
  -4   3  10    6.92    0.83
  -4   3  10    6.84    0.71
  -4   3  10    5.20    0.72
   3  -3 -10   15.45    0.92
   3  -3 -10   17.85    2.75
   3  -3 -10   13.35    1.56
  -3   3  10   18.90    1.05
  -3   3  10   19.55    1.07
  -3   3  10   19.53    1.13
   2  -3 -10   27.45    1.88
   2  -3 -10   33.38    1.45
   2  -3 -10   32.09    2.05
   2  -3 -10   28.16    2.32
  -2   3  10   31.52    1.41
  -2   3  10   31.34    1.22
  -2   3  10   32.26    1.38
  -2   3  10   32.08    1.49
   1  -3 -10   14.24    0.68
   1  -3 -10   17.98    1.54
   1  -3 -10   13.54    1.21
   1  -3 -10   15.09    1.68
  -1   3  10   14.49    0.86
  -1   3  10   15.39    1.10
  -1   3  10   16.19    1.06
  -1   3  10   16.74    0.93
   0  -3 -10   16.39    1.72
   0  -3 -10   13.90    0.88
   0  -3 -10   11.34    1.11
   0  -3 -10   14.21    1.46
   0   3  10   12.82    0.86
   0   3  10   13.53    1.18
   0   3  10   13.69    1.00
   0   3  10   15.01    1.22
  -1  -3 -10    0.79    0.68
  -1  -3 -10    0.89    1.13
  -1  -3 -10    1.59    0.55
  -1  -3 -10    0.10    0.93
   1   3  10    0.85    0.72
   1   3  10    0.54    0.43
   1   3  10    0.25    0.64
   1   3  10   -0.36    0.68
  -2  -3 -10    0.96    1.06
  -2  -3 -10    0.71    0.65
  -2  -3 -10   -1.42    2.76
  -2  -3 -10    0.78    0.90
   2   3  10    0.23    0.60
   2   3  10   -0.78    0.83
   2   3  10   -0.22    0.76
  -3  -3 -10    1.92    0.85
  -3  -3 -10   -0.20    1.75
  -3  -3 -10    0.26    0.92
   3   3  10   -0.59    1.02
   3   3  10   -0.62    1.06
  -4  -3 -10    1.89    1.13
  -4  -3 -10    2.93    1.52
  -4  -3 -10    2.12    1.05
   4   3  10    2.49    1.57
   4   3  10    0.33    1.29
  -5  -3 -10    2.14    1.33
  -5  -3 -10    3.44    1.59
  -5  -3 -10    1.60    1.93
   5   3  10    1.83    1.72
   5   3  10    1.01    1.97
   8  -4 -10    2.86    2.66
  -8   4  10    1.62    1.11
  -8   4  10    3.08    1.53
   7  -4 -10    2.53    2.08
  -7   4  10    3.44    0.94
  -7   4  10    1.88    1.90
   6  -4 -10    7.84    1.79
   6  -4 -10    4.98    1.83
  -6   4  10    6.23    0.95
  -6   4  10    6.87    1.10
   5  -4 -10    7.59    1.54
   5  -4 -10    7.74    1.96
  -5   4  10    4.54    0.79
  -5   4  10    6.13    0.86
   4  -4 -10   11.46    1.66
   4  -4 -10    7.61    1.55
  -4   4  10    9.50    1.04
  -4   4  10    8.84    0.94
  -4   4  10    7.94    0.92
   3  -4 -10    0.91    1.13
   3  -4 -10   -2.00    1.05
   3  -4 -10   -0.39    0.58
  -3   4  10    0.56    0.54
  -3   4  10    1.22    0.55
  -3   4  10    1.02    0.51
   2  -4 -10    0.91    1.06
   2  -4 -10   -0.38    0.87
   2  -4 -10   -1.47    1.15
   2  -4 -10    1.11    0.74
  -2   4  10    0.59    0.47
  -2   4  10    0.24    0.57
  -2   4  10    0.69    0.53
   1  -4 -10   -0.58    1.26
   1  -4 -10    0.50    0.86
   1  -4 -10   -0.67    0.58
  -1   4  10    0.32    0.62
  -1   4  10    0.60    0.59
  -1   4  10    0.17    0.47
   0  -4 -10    5.63    1.30
   0  -4 -10    6.57    0.92
   0  -4 -10    4.00    1.18
   0  -4 -10    6.24    0.78
   0   4  10    7.06    0.91
   0   4  10    8.55    1.12
   0   4  10    6.29    0.70
  -1  -4 -10    5.02    1.23
  -1  -4 -10    6.23    0.77
  -1  -4 -10    5.36    1.61
  -1  -4 -10    6.69    1.02
   1   4  10    5.54    0.68
   1   4  10    4.75    0.95
  -2  -4 -10    3.47    1.05
  -2  -4 -10    5.04    1.62
  -2  -4 -10    3.92    1.54
  -2  -4 -10    5.09    0.85
   2   4  10    5.58    1.26
   2   4  10    5.03    1.12
  -3  -4 -10    2.64    1.45
  -3  -4 -10    4.18    1.11
  -3  -4 -10    1.38    1.10
  -3  -4 -10    3.47    1.89
   3   4  10    0.49    1.28
  -4  -4 -10    0.84    1.02
  -4  -4 -10    1.21    1.28
  -4  -4 -10    5.50    1.77
   4   4  10    2.02    1.49
   7  -5 -10    1.56    2.23
   7  -5 -10   -2.96    3.36
  -7   5  10   -0.15    1.02
  -7   5  10    0.93    0.95
   6  -5 -10    4.00    2.66
   6  -5 -10    2.07    1.93
  -6   5  10    1.40    0.83
  -6   5  10    0.83    0.88
   5  -5 -10    2.04    1.61
   5  -5 -10    1.59    1.56
  -5   5  10    0.10    0.70
  -5   5  10    0.30    0.71
   4  -5 -10   -1.65    1.36
   4  -5 -10    0.81    1.65
  -4   5  10    0.64    0.63
  -4   5  10   -0.06    0.64
   3  -5 -10    6.13    1.54
   3  -5 -10    2.99    1.13
   3  -5 -10    4.20    1.50
  -3   5  10    6.18    0.86
  -3   5  10    3.53    0.71
  -3   5  10    5.79    0.77
   2  -5 -10    7.42    1.70
   2  -5 -10    6.24    1.69
   2  -5 -10    7.12    0.99
  -2   5  10    8.54    0.96
  -2   5  10    7.53    0.90
  -2   5  10    8.59    1.04
   1  -5 -10   12.59    2.05
   1  -5 -10   11.31    1.17
   1  -5 -10   10.05    1.59
  -1   5  10   12.08    0.99
  -1   5  10   11.84    1.27
  -1   5  10   12.13    1.20
   0  -5 -10   10.27    1.92
   0  -5 -10    6.31    1.52
   0  -5 -10    4.51    0.89
   0   5  10    6.97    1.09
   0   5  10    7.04    0.78
  -1  -5 -10    3.61    1.66
  -1  -5 -10    1.25    1.67
  -1  -5 -10    1.56    0.96
  -1  -5 -10    0.86    0.78
   1   5  10    1.39    0.58
  -2  -5 -10    0.38    1.36
  -2  -5 -10    1.48    0.81
  -2  -5 -10    1.85    1.10
   2   5  10   -0.56    1.08
  -3  -5 -10   -0.54    1.11
  -3  -5 -10    2.33    1.62
  -3  -5 -10   -0.35    1.04
   3   5  10   -0.24    1.21
  -4  -5 -10    1.89    1.41
  -4  -5 -10    1.17    1.95
  -4  -5 -10   -1.76    1.21
   4   5  10   -2.31    1.64
   7  -6 -10   -3.68    2.64
   7  -6 -10    5.17    2.75
  -7   6  10    0.70    1.07
  -7   6  10    2.49    1.50
  -7   6  10    1.43    1.21
   6  -6 -10    1.10    1.86
   6  -6 -10    5.74    2.28
  -6   6  10    1.34    0.92
  -6   6  10    1.87    1.54
   5  -6 -10    7.57    2.39
   5  -6 -10    4.52    1.86
  -5   6  10    6.42    0.96
  -5   6  10    3.97    0.95
   4  -6 -10   -0.78    1.84
   4  -6 -10    2.21    1.82
  -4   6  10    1.67    0.77
  -4   6  10    1.29    0.75
   3  -6 -10    5.75    1.85
   3  -6 -10    4.62    1.76
  -3   6  10    3.66    0.89
  -3   6  10    3.22    0.80
   2  -6 -10    2.18    0.88
   2  -6 -10    2.14    1.89
   2  -6 -10    3.72    1.66
  -2   6  10    2.18    0.86
  -2   6  10    3.05    0.73
   1  -6 -10   -1.16    0.77
   1  -6 -10   -0.10    1.47
   1  -6 -10    1.20    1.71
  -1   6  10   -0.51    0.85
  -1   6  10   -0.55    0.61
   0  -6 -10   -2.31    1.20
   0  -6 -10   -0.36    0.88
   0   6  10   -0.53    0.95
   0   6  10    0.94    0.61
  -1  -6 -10    0.16    1.90
  -1  -6 -10    2.50    1.39
  -1  -6 -10    3.06    1.45
   1   6  10    0.19    0.71
   1   6  10    1.98    1.08
  -2  -6 -10    1.34    1.62
  -2  -6 -10   -1.20    1.02
   2   6  10    0.39    1.16
  -3  -6 -10   -1.89    1.27
  -3  -6 -10   -0.14    1.79
   3   6  10    2.61    1.59
   6  -7 -10    2.24    2.70
   6  -7 -10    0.02    2.37
  -6   7  10    0.72    1.34
  -6   7  10    2.06    1.15
  -6   7  10    1.13    1.02
   5  -7 -10    1.50    1.97
   5  -7 -10   -4.96    2.13
  -5   7  10    0.00    0.90
  -5   7  10    2.20    0.92
   4  -7 -10   -3.59    1.79
   4  -7 -10   -2.26    1.85
  -4   7  10   -0.66    0.71
  -4   7  10    0.18    0.85
   3  -7 -10    3.84    1.94
   3  -7 -10   -1.10    2.06
  -3   7  10    1.14    0.71
  -3   7  10    2.19    0.96
   2  -7 -10   -2.06    1.59
   2  -7 -10   -1.48    3.37
   2  -7 -10   -0.58    0.95
  -2   7  10    0.95    0.70
  -2   7  10    0.25    0.90
   1  -7 -10    4.83    1.90
   1  -7 -10    3.71    2.31
   1  -7 -10   -0.63    0.99
  -1   7  10    1.67    0.74
  -1   7  10    2.56    0.99
   0  -7 -10    0.77    1.24
   0  -7 -10    3.02    2.56
   0   7  10    2.75    1.09
   0   7  10    2.84    0.81
  -1  -7 -10    1.00    1.10
  -1  -7 -10    3.56    3.53
  -1  -7 -10    1.21    1.61
   1   7  10    2.30    1.27
   1   7  10    1.01    0.85
  -2  -7 -10    0.58    1.21
  -2  -7 -10    1.92    1.79
   2   7  10    1.96    1.48
  -3  -7 -10    1.03    2.25
  -3  -7 -10   -0.48    1.68
   3   7  10    3.12    2.11
   6  -8 -10   -1.88    3.23
   6  -8 -10    2.33    4.63
  -6   8  10    2.72    1.59
  -6   8  10    1.31    1.22
   5  -8 -10   -0.32    2.88
   5  -8 -10   -5.87    2.65
  -5   8  10   -2.32    1.00
  -5   8  10   -0.15    1.30
  -5   8  10    0.99    1.13
   4  -8 -10   -1.76    2.54
   4  -8 -10    2.34    2.37
  -4   8  10    0.90    1.08
  -4   8  10    0.09    0.81
   3  -8 -10    0.32    2.53
   3  -8 -10   -0.60    2.06
  -3   8  10    0.73    0.72
  -3   8  10    0.71    1.07
   2  -8 -10    0.39    2.37
   2  -8 -10   -0.91    1.96
   2  -8 -10   -2.10    1.18
  -2   8  10    0.30    1.05
  -2   8  10   -0.12    0.80
   1  -8 -10   -1.99    1.76
   1  -8 -10    3.14    2.44
  -1   8  10   -0.11    1.09
  -1   8  10    1.50    0.79
   0  -8 -10   -2.95    1.11
   0  -8 -10    1.26    1.78
   0  -8 -10   -1.03    2.75
   0   8  10    0.04    0.94
   0   8  10   -0.45    1.25
   0   8  10   -1.31    0.78
  -1  -8 -10   -0.79    1.16
   1   8  10    0.02    0.94
   1   8  10   -0.48    1.49
  -2  -8 -10    0.51    1.56
   2   8  10    0.93    2.01
   5  -9 -10    1.27    3.49
   5  -9 -10   -3.11    3.56
  -5   9  10    0.27    1.22
  -5   9  10    1.12    1.45
  -5   9  10   -0.27    1.60
   4  -9 -10   -0.22    3.10
   4  -9 -10   -1.01    3.13
  -4   9  10   -2.37    1.22
  -4   9  10   -0.24    0.97
  -4   9  10   -2.60    1.17
   3  -9 -10   -3.01    2.49
   3  -9 -10   -0.16    2.99
  -3   9  10    1.49    1.19
  -3   9  10   -1.44    0.86
  -3   9  10    0.56    1.25
   2  -9 -10   -1.81    2.48
   2  -9 -10    4.09    3.00
  -2   9  10   -0.72    1.22
  -2   9  10   -0.29    1.03
  -2   9  10   -1.18    0.82
   1  -9 -10   -1.62    2.97
   1  -9 -10   -0.11    1.43
   1  -9 -10   -3.51    2.33
  -1   9  10    0.95    0.90
  -1   9  10   -1.81    1.41
  -1   9  10    0.57    1.49
   0  -9 -10    3.78    1.45
   0  -9 -10    0.68    2.81
   0   9  10   -1.04    1.58
   0   9  10    0.81    0.96
   2 -10 -10   -0.91    3.37
   2  14 -11   -2.55    1.74
  -2 -14  11    0.81    1.48
  -2 -14  11   -0.44    2.05
   1  14 -11    3.08    1.39
   1  14 -11   -0.77    1.50
  -1 -14  11    1.86    1.25
  -1 -14  11   -1.15    2.07
   0  14 -11    0.05    1.26
   0  14 -11    0.83    1.50
   0 -14  11    1.97    1.27
   0 -14  11    0.24    2.05
  -1  14 -11   -0.63    1.29
  -1  14 -11    1.83    1.25
  -1  14 -11   -0.85    1.58
   1 -14  11    0.67    1.64
   1 -14  11    2.82    2.33
   1 -14  11    1.27    1.38
   3  13 -11    2.24    1.66
   3  13 -11   -0.62    1.84
  -3 -13  11   -0.43    0.91
  -3 -13  11    0.20    1.08
   2  13 -11    1.46    1.43
   2  13 -11    0.75    1.84
  -2 -13  11   -0.24    0.95
  -2 -13  11    0.56    0.84
  -2 -13  11    0.82    1.62
   1  13 -11    2.55    1.24
   1  13 -11   -0.57    1.06
  -1 -13  11    1.80    0.99
  -1 -13  11    1.29    1.70
   0  13 -11    0.90    1.19
   0  13 -11    1.35    1.13
   0 -13  11   -0.15    0.89
   0 -13  11    1.89    1.73
  -1  13 -11    1.54    1.01
  -1  13 -11    0.85    1.08
  -1  13 -11   -0.27    1.11
   1 -13  11    3.40    1.81
   1 -13  11    0.23    1.07
  -2  13 -11    1.98    1.10
  -2  13 -11   -0.06    1.28
   2 -13  11   -1.56    1.57
   2 -13  11   -0.06    1.30
   2 -13  11    1.31    2.11
  -3  13 -11    1.11    1.65
  -3  13 -11    4.77    1.54
   3 -13  11    1.13    1.98
   3 -13  11   -0.11    2.26
   4  12 -11    2.75    1.80
  -4 -12  11    0.38    1.05
  -4 -12  11    0.03    0.89
   3  12 -11   -0.44    1.38
   3  12 -11    3.10    1.58
  -3 -12  11    1.18    0.94
  -3 -12  11   -0.70    0.75
   2  12 -11    0.57    1.24
  -2 -12  11    0.50    0.91
  -2 -12  11   -0.11    0.74
  -2 -12  11   -0.87    1.38
   1  12 -11    0.22    0.92
   1  12 -11   -0.13    1.07
  -1 -12  11    1.78    1.46
  -1 -12  11    0.08    0.81
  -1 -12  11    1.34    0.93
   0  12 -11    1.28    0.88
   0  12 -11    3.17    1.10
   0  12 -11    4.32    1.02
   0 -12  11    3.12    0.93
   0 -12  11    2.07    0.81
   0 -12  11    4.83    1.52
  -1  12 -11    2.30    0.89
  -1  12 -11    0.81    0.93
  -1  12 -11   -0.12    1.11
   1 -12  11   -0.08    1.52
   1 -12  11    1.04    0.90
  -2  12 -11    0.33    0.95
  -2  12 -11    2.49    1.19
   2 -12  11   -1.29    1.34
   2 -12  11    2.21    1.07
   2 -12  11    0.60    1.80
  -3  12 -11    0.79    1.14
  -3  12 -11    0.02    1.31
   3 -12  11    0.40    1.91
   3 -12  11    0.42    1.64
  -4  12 -11    2.04    1.55
  -4  12 -11    1.35    1.65
   4 -12  11   -3.29    2.20
   4 -12  11    5.28    2.23
   5  11 -11    0.22    1.65
  -5 -11  11    1.97    1.13
  -5 -11  11    1.66    1.07
   4  11 -11    1.22    2.20
   4  11 -11   -0.34    1.33
  -4 -11  11   -0.15    0.91
  -4 -11  11    0.99    0.80
   3  11 -11    2.39    1.48
   3  11 -11   -1.02    1.33
  -3 -11  11    1.56    0.80
  -3 -11  11    1.08    0.79
   2  11 -11    2.00    1.19
   2  11 -11    0.99    1.04
  -2 -11  11    0.74    0.78
  -2 -11  11    0.70    0.74
   1  11 -11    2.44    1.08
   1  11 -11    0.45    0.95
   1  11 -11    0.41    0.75
  -1 -11  11    1.07    0.78
  -1 -11  11    1.24    0.58
  -1 -11  11    1.83    0.68
  -1 -11  11    1.01    1.28
   0  11 -11    1.34    1.03
   0  11 -11    0.86    0.73
   0 -11  11    1.25    0.64
   0 -11  11    0.64    0.75
   0 -11  11    1.76    1.38
  -1  11 -11    2.33    1.00
  -1  11 -11   -0.20    0.85
   1 -11  11   -0.30    0.82
   1 -11  11    1.34    1.33
   1 -11  11    0.17    0.69
  -2  11 -11    2.92    0.97
  -2  11 -11    2.64    1.10
   2 -11  11    4.89    1.37
   2 -11  11    4.50    1.44
  -3  11 -11    3.52    1.19
  -3  11 -11    1.33    1.01
   3 -11  11    1.10    1.46
   3 -11  11    1.50    1.65
  -4  11 -11    2.11    1.25
  -4  11 -11    1.76    1.36
   4 -11  11   -1.23    1.89
   4 -11  11    6.34    1.99
   6  10 -11   -2.84    2.01
  -6 -10  11   -0.03    1.14
  -6 -10  11   -1.80    1.09
   5  10 -11   -0.36    1.49
  -5 -10  11    0.03    0.82
  -5 -10  11    0.31    0.92
   4  10 -11    0.59    1.54
   4  10 -11    0.97    1.30
  -4 -10  11    0.36    0.79
  -4 -10  11    1.08    0.77
   3  10 -11    3.78    1.27
   3  10 -11    1.05    1.10
  -3 -10  11    2.50    0.78
   2  10 -11    2.53    1.14
   2  10 -11    4.05    1.01
  -2 -10  11    3.11    1.07
  -2 -10  11    2.79    0.75
   1  10 -11    1.39    0.62
   1  10 -11    0.69    1.16
   1  10 -11    0.98    0.87
  -1 -10  11    1.12    0.48
  -1 -10  11    1.86    0.96
  -1 -10  11    1.10    0.61
  -1 -10  11    0.56    0.72
   0  10 -11    2.00    0.99
   0  10 -11    1.38    0.64
   0 -10  11    1.30    0.59
   0 -10  11    0.35    0.96
   0 -10  11    0.70    0.72
  -1  10 -11    1.44    1.50
  -1  10 -11    2.95    0.80
   1 -10  11    2.24    0.65
   1 -10  11    0.02    1.04
   1 -10  11    2.68    1.22
  -2  10 -11    1.39    1.06
  -2  10 -11    1.86    0.95
   2 -10  11    2.91    1.20
   2 -10  11    0.83    0.80
   2 -10  11    0.91    1.91
  -3  10 -11    4.58    1.18
  -3  10 -11    2.94    1.06
   3 -10  11    3.41    1.46
   3 -10  11    2.31    1.69
  -4  10 -11   -1.10    1.11
  -4  10 -11   -1.95    1.13
   4 -10  11    0.79    1.52
   4 -10  11   -2.98    1.56
  -5  10 -11    1.44    1.57
  -5  10 -11    0.67    1.70
  -5  10 -11   -2.35    1.35
   5 -10  11    0.64    2.32
   5 -10  11    0.80    1.96
   6   9 -11   -1.09    1.86
  -6  -9  11   -0.38    1.01
  -6  -9  11    0.72    0.97
   5   9 -11   -1.14    1.56
  -5  -9  11   -0.21    0.79
  -5  -9  11    0.03    0.78
   4   9 -11    5.51    1.35
   4   9 -11    6.91    1.43
  -4  -9  11    6.86    0.93
  -4  -9  11    5.57    0.96
   3   9 -11    1.53    0.92
   3   9 -11    2.77    1.88
  -3  -9  11    0.87    0.68
  -3  -9  11    1.13    0.69
   2   9 -11    3.62    1.05
   2   9 -11    5.54    0.97
  -2  -9  11    6.05    0.72
  -2  -9  11    5.46    0.86
  -2  -9  11    5.73    0.82
   1   9 -11    8.74    0.93
   1   9 -11    7.91    1.17
   1   9 -11    7.98    1.13
  -1  -9  11   13.57    1.39
  -1  -9  11    8.47    1.06
  -1  -9  11   11.12    0.83
  -1  -9  11    8.71    0.95
   0   9 -11    6.60    1.07
   0   9 -11    6.55    0.87
   0  -9  11    5.38    0.80
   0  -9  11    8.06    1.02
   0  -9  11    5.80    0.69
   0  -9  11    9.68    1.19
  -1   9 -11    4.18    0.87
  -1   9 -11    2.52    0.93
   1  -9  11    4.35    1.08
   1  -9  11    3.61    0.88
   1  -9  11    3.68    0.73
  -2   9 -11    3.85    0.97
  -2   9 -11    2.02    0.90
   2  -9  11    4.19    1.17
   2  -9  11    3.37    0.77
   2  -9  11    4.95    1.31
  -3   9 -11    2.46    0.95
  -3   9 -11    2.29    0.98
   3  -9  11    3.56    1.67
   3  -9  11    0.43    1.17
   3  -9  11    2.17    0.97
  -4   9 -11    1.91    1.12
  -4   9 -11    1.96    1.14
   4  -9  11    2.59    1.30
   4  -9  11    0.01    1.54
  -5   9 -11    3.64    1.57
  -5   9 -11    3.53    1.40
  -5   9 -11    3.49    1.44
   5  -9  11    3.31    2.13
   5  -9  11    2.23    1.85
   7   8 -11    0.33    2.10
  -7  -8  11    0.00    1.16
  -7  -8  11   -0.86    1.14
   6   8 -11    0.42    1.74
  -6  -8  11    1.03    0.93
  -6  -8  11    3.88    0.95
   5   8 -11    2.54    1.37
   5   8 -11    2.96    1.49
  -5  -8  11    2.03    0.82
  -5  -8  11    0.41    0.72
   4   8 -11    1.21    1.24
   4   8 -11    1.29    1.11
  -4  -8  11    0.62    0.63
  -4  -8  11    0.79    0.66
   3   8 -11    0.76    0.87
   3   8 -11    1.25    0.95
  -3  -8  11    0.73    0.58
  -3  -8  11    0.97    0.61
   2   8 -11   -0.22    0.69
   2   8 -11    0.36    0.80
   2   8 -11    0.04    0.70
  -2  -8  11   -0.04    0.51
  -2  -8  11    0.12    0.51
  -2  -8  11    0.19    0.44
   1   8 -11    1.07    0.77
   1   8 -11    2.88    0.61
   1   8 -11    0.81    0.71
  -1  -8  11    2.33    0.63
  -1  -8  11    2.29    0.75
  -1  -8  11    2.11    0.57
  -1  -8  11    2.39    0.48
   0   8 -11    1.99    0.61
   0   8 -11    2.66    0.85
   0  -8  11    0.71    0.70
   0  -8  11    1.65    0.45
   0  -8  11    0.99    0.63
   0  -8  11    0.81    0.57
  -1   8 -11    2.86    0.89
  -1   8 -11    5.24    0.87
   1  -8  11    2.82    0.77
   1  -8  11    4.43    0.75
   1  -8  11    4.66    0.90
  -2   8 -11    5.30    1.02
  -2   8 -11    6.25    1.05
   2  -8  11    6.31    1.14
   2  -8  11    6.34    0.87
   2  -8  11    5.78    1.19
  -3   8 -11    5.88    1.15
  -3   8 -11    5.43    1.04
   3  -8  11    8.39    1.66
   3  -8  11    5.47    1.04
   3  -8  11    7.26    1.44
  -4   8 -11    1.89    1.02
  -4   8 -11    4.11    1.13
  -4   8 -11    2.94    1.06
   4  -8  11   -0.76    1.39
   4  -8  11    2.61    1.42
   4  -8  11    1.18    1.14
  -5   8 -11   -1.21    1.33
  -5   8 -11   -0.92    1.37
  -5   8 -11   -1.92    1.20
   5  -8  11   -2.11    1.85
   5  -8  11   -3.23    1.60
   7   7 -11    1.42    2.01
  -7  -7  11    2.35    1.13
  -7  -7  11    0.23    1.08
   6   7 -11   -0.25    1.48
  -6  -7  11   -0.50    0.80
  -6  -7  11    0.33    0.78
   5   7 -11   -0.30    1.30
  -5  -7  11   -0.37    0.68
  -5  -7  11    0.43    0.70
   4   7 -11    0.41    0.98
   4   7 -11    1.22    1.14
  -4  -7  11   -0.53    0.52
  -4  -7  11    0.52    0.52
   3   7 -11    9.25    1.18
   3   7 -11    6.45    1.43
   3   7 -11   11.14    1.36
  -3  -7  11    6.31    0.86
  -3  -7  11    8.89    0.98
  -3  -7  11    9.04    0.88
   2   7 -11    9.03    1.18
   2   7 -11   11.05    1.27
   2   7 -11    9.88    1.26
  -2  -7  11   10.07    1.00
  -2  -7  11   10.78    0.90
  -2  -7  11   10.57    0.90
  -2  -7  11   11.04    0.94
   1   7 -11   13.35    1.22
   1   7 -11   12.22    1.07
   1   7 -11   13.01    1.25
  -1  -7  11   13.80    1.08
  -1  -7  11   11.92    0.95
  -1  -7  11   13.89    0.86
  -1  -7  11   13.70    1.01
   0   7 -11   14.87    1.13
   0   7 -11   13.28    0.91
   0   7 -11   11.83    1.24
   0  -7  11   15.39    1.09
   0  -7  11   12.59    1.30
   0  -7  11   14.25    0.86
   0  -7  11   14.38    1.00
  -1   7 -11   17.13    1.27
  -1   7 -11   17.64    1.35
   1  -7  11   16.88    1.16
   1  -7  11   17.51    1.23
   1  -7  11   18.44    1.33
   1  -7  11   15.89    0.77
  -2   7 -11    3.26    0.89
  -2   7 -11    5.16    0.90
   2  -7  11    5.21    0.88
   2  -7  11    5.60    1.17
   2  -7  11    4.62    0.99
  -3   7 -11    0.17    0.82
  -3   7 -11    0.93    0.79
  -3   7 -11    2.15    0.94
   3  -7  11    0.63    0.91
   3  -7  11   -0.45    1.14
   3  -7  11   -1.57    0.83
  -4   7 -11    3.15    1.12
  -4   7 -11    4.43    1.34
  -4   7 -11    4.48    1.04
   4  -7  11    1.18    1.15
   4  -7  11    3.98    1.33
   4  -7  11    2.64    1.45
  -5   7 -11    2.87    1.22
  -5   7 -11    2.12    1.42
  -5   7 -11    0.55    1.31
   5  -7  11    0.48    1.48
   5  -7  11   -1.25    1.75
   7   6 -11    0.43    1.78
  -7  -6  11   -0.98    1.08
  -7  -6  11   -0.09    1.38
  -7  -6  11    0.46    0.95
   6   6 -11    0.90    1.30
  -6  -6  11    0.19    0.73
  -6  -6  11   -0.58    0.75
  -6  -6  11   -0.27    1.01
   5   6 -11    4.47    1.43
  -5  -6  11    3.11    0.75
  -5  -6  11    3.82    0.85
  -5  -6  11    5.39    0.79
   4   6 -11    7.65    1.36
   4   6 -11    7.77    1.34
   4   6 -11   10.67    1.97
  -4  -6  11    6.45    0.87
  -4  -6  11    5.80    0.71
  -4  -6  11    6.93    0.85
   3   6 -11    4.01    1.03
   3   6 -11    4.37    0.96
   3   6 -11    3.64    1.23
  -3  -6  11    2.68    0.57
  -3  -6  11    2.65    0.58
  -3  -6  11    2.72    0.61
   2   6 -11    3.20    0.87
   2   6 -11    3.59    0.89
  -2  -6  11    3.42    0.54
  -2  -6  11    3.49    0.62
  -2  -6  11    2.65    0.56
   1   6 -11   -0.54    0.60
   1   6 -11    1.02    0.60
   1   6 -11    0.41    0.63
  -1  -6  11    1.11    0.51
  -1  -6  11    1.26    0.41
  -1  -6  11    1.47    0.51
  -1  -6  11    1.70    0.69
   0   6 -11    1.40    0.63
   0   6 -11    0.65    0.39
   0   6 -11    0.82    0.66
   0  -6  11    0.21    0.47
   0  -6  11   -0.20    0.49
   0  -6  11    0.77    0.42
   0  -6  11    1.20    0.58
  -1   6 -11    2.54    0.71
  -1   6 -11    1.65    0.68
   1  -6  11    2.94    0.77
   1  -6  11    2.01    0.63
   1  -6  11    2.06    0.38
  -2   6 -11    8.59    1.09
  -2   6 -11    9.86    1.20
  -2   6 -11    9.18    1.11
   2  -6  11    8.54    1.13
   2  -6  11    8.02    1.22
   2  -6  11    9.09    1.22
  -3   6 -11    3.50    0.95
  -3   6 -11    2.37    0.96
  -3   6 -11    3.99    0.88
   3  -6  11    4.38    1.06
   3  -6  11    3.69    1.18
   3  -6  11    3.36    1.00
  -4   6 -11    9.78    1.30
  -4   6 -11    7.50    1.18
  -4   6 -11    8.47    1.34
   4  -6  11    7.04    1.46
   4  -6  11    6.17    1.32
   4  -6  11    8.34    1.86
  -5   6 -11    2.57    1.37
  -5   6 -11    2.79    1.15
   5  -6  11    3.51    1.39
   5  -6  11    0.05    1.75
  -6   6 -11   -2.16    1.54
  -6   6 -11    1.94    1.86
   6  -6  11   -1.66    1.86
   6  -6  11   -0.57    2.64
   8   5 -11    1.12    2.36
  -8  -5  11   -0.16    1.34
  -8  -5  11   -0.91    1.17
   7   5 -11    2.77    1.70
  -7  -5  11    5.06    1.00
  -7  -5  11    1.93    1.05
  -7  -5  11    1.36    0.96
   6   5 -11    8.62    1.70
  -6  -5  11    7.48    1.04
  -6  -5  11    7.03    0.95
  -6  -5  11    6.62    0.91
   5   5 -11    4.87    1.24
   5   5 -11    3.95    1.17
  -5  -5  11    3.43    0.61
  -5  -5  11    2.59    0.77
  -5  -5  11    2.76    0.70
   4   5 -11    4.82    1.23
   4   5 -11    6.17    1.23
   4   5 -11    4.60    1.15
  -4  -5  11    4.67    0.70
  -4  -5  11    4.34    0.68
  -4  -5  11    4.96    0.65
   3   5 -11    3.43    1.17
   3   5 -11    2.25    0.55
   3   5 -11    1.75    0.89
   3   5 -11    0.98    0.78
  -3  -5  11    0.94    0.43
  -3  -5  11    1.04    0.46
  -3  -5  11    0.97    0.54
   2   5 -11   11.53    1.23
   2   5 -11   10.96    1.36
   2   5 -11   11.64    1.22
  -2  -5  11   12.81    0.86
  -2  -5  11   12.28    0.91
  -2  -5  11   10.86    0.76
  -2  -5  11   12.65    0.89
   1   5 -11   10.72    1.15
   1   5 -11    9.66    1.05
   1   5 -11   10.41    0.91
  -1  -5  11    9.13    0.71
  -1  -5  11    9.39    0.83
  -1  -5  11    9.32    0.83
  -1  -5  11    9.63    0.76
   0   5 -11   17.84    1.23
   0   5 -11   20.54    1.35
   0  -5  11   17.65    1.09
   0  -5  11   19.24    1.11
   0  -5  11   18.14    0.96
   0  -5  11   18.51    1.12
  -1   5 -11   13.89    0.98
  -1   5 -11   14.22    1.23
  -1   5 -11   14.54    1.26
   1  -5  11   12.23    1.04
   1  -5  11   13.31    1.12
  -2   5 -11   31.45    1.71
  -2   5 -11   27.48    1.75
  -2   5 -11   30.60    1.56
   2  -5  11   30.68    1.65
   2  -5  11   28.72    1.62
   2  -5  11   28.69    1.25
   2  -5  11   33.42    1.96
  -3   5 -11    7.89    1.12
  -3   5 -11    8.66    1.21
  -3   5 -11    5.15    0.90
   3  -5  11    7.24    1.19
   3  -5  11    9.90    1.20
   3  -5  11   10.18    1.60
  -4   5 -11   -0.32    0.88
  -4   5 -11    0.46    0.99
  -4   5 -11    0.13    1.01
   4  -5  11   -0.81    1.23
   4  -5  11   -1.28    1.01
  -5   5 -11    2.19    1.05
  -5   5 -11    0.72    1.23
   5  -5  11   -0.24    1.80
   5  -5  11    0.35    1.36
  -6   5 -11    2.19    1.57
  -6   5 -11   -1.12    1.64
   6  -5  11    3.51    2.44
   6  -5  11    1.51    1.71
   8   4 -11    1.51    2.15
  -8  -4  11   -0.32    1.16
  -8  -4  11    1.45    1.13
   7   4 -11   -0.74    1.48
  -7  -4  11    0.45    0.78
  -7  -4  11    2.10    0.97
   6   4 -11    2.34    1.32
  -6  -4  11    1.33    0.87
  -6  -4  11    0.56    1.01
  -6  -4  11    0.13    0.59
   5   4 -11    2.97    1.11
   5   4 -11    0.02    1.01
  -5  -4  11    0.93    0.50
  -5  -4  11    0.96    0.66
  -5  -4  11    0.72    0.53
   4   4 -11   13.36    1.50
   4   4 -11   12.23    1.63
  -4  -4  11   13.23    0.94
  -4  -4  11   11.54    0.99
  -4  -4  11   10.27    0.90
   3   4 -11   14.98    1.82
   3   4 -11   14.13    1.42
   3   4 -11   13.22    1.31
   3   4 -11   12.82    1.09
  -3  -4  11   13.55    0.89
  -3  -4  11   11.87    0.92
  -3  -4  11   13.19    0.96
   2   4 -11   38.78    1.26
   2   4 -11   39.46    1.93
   2   4 -11   41.22    2.03
   2   4 -11   41.03    1.91
  -2  -4  11   41.10    1.56
  -2  -4  11   42.72    1.61
  -2  -4  11   38.87    1.33
  -2  -4  11   37.95    1.51
   1   4 -11    1.20    0.57
   1   4 -11    1.61    0.65
   1   4 -11    1.53    0.30
   1   4 -11    2.80    0.80
  -1  -4  11    2.03    0.53
  -1  -4  11    1.46    0.48
  -1  -4  11    2.41    0.38
  -1  -4  11    1.16    0.42
   0   4 -11    8.33    1.08
   0   4 -11    7.26    0.79
   0   4 -11    7.80    1.00
   0  -4  11    5.45    0.68
   0  -4  11    6.93    0.68
   0  -4  11    7.01    0.80
  -1   4 -11    0.30    0.43
  -1   4 -11    1.02    0.67
  -1   4 -11    0.92    0.73
   1  -4  11    0.13    0.41
   1  -4  11    0.65    0.70
   1  -4  11    1.18    0.59
   1  -4  11    0.05    0.52
  -2   4 -11    1.70    0.61
  -2   4 -11    2.22    0.76
  -2   4 -11    1.34    0.80
   2  -4  11    1.80    0.59
   2  -4  11    0.76    0.66
   2  -4  11    1.32    0.81
   2  -4  11    1.11    0.64
  -3   4 -11   -0.30    0.81
  -3   4 -11    0.31    0.83
  -3   4 -11   -0.18    0.73
   3  -4  11   -0.76    0.81
   3  -4  11   -0.71    0.88
   3  -4  11    0.61    0.73
  -4   4 -11    7.18    1.61
  -4   4 -11    6.84    1.17
  -4   4 -11    4.02    1.22
   4  -4  11    7.01    1.64
   4  -4  11    6.04    1.20
  -5   4 -11    7.20    1.32
  -5   4 -11    7.18    1.57
   5  -4  11    6.23    1.45
   5  -4  11    7.81    1.89
  -6   4 -11   -0.44    1.75
  -6   4 -11    3.70    1.59
   6  -4  11   -2.22    1.67
   6  -4  11    0.57    2.33
   8   3 -11    0.97    2.20
  -8  -3  11    1.12    1.17
  -8  -3  11    1.26    1.01
   7   3 -11    4.56    1.73
  -7  -3  11    4.52    1.03
  -7  -3  11    2.74    0.83
   6   3 -11   11.47    1.68
   6   3 -11   13.65    2.18
  -6  -3  11   11.38    1.22
  -6  -3  11   10.70    0.92
  -6  -3  11   10.52    1.33
   5   3 -11   18.74    1.91
   5   3 -11   19.91    1.81
  -5  -3  11   17.02    0.99
  -5  -3  11   17.19    1.15
  -5  -3  11   19.22    1.27
   4   3 -11   16.37    1.88
   4   3 -11   15.74    1.48
   4   3 -11   13.77    1.00
  -4  -3  11   16.01    1.00
  -4  -3  11   16.54    1.06
  -4  -3  11   15.60    0.90
   3   3 -11    3.15    0.97
   3   3 -11    1.97    0.80
   3   3 -11    2.80    0.77
   3   3 -11    0.24    1.04
  -3  -3  11    1.80    0.31
  -3  -3  11    1.82    0.52
  -3  -3  11    1.71    0.46
  -3  -3  11    3.11    0.53
   2   3 -11   21.17    1.49
   2   3 -11   20.92    1.54
   2   3 -11   20.53    0.75
   2   3 -11   20.20    0.92
   2   3 -11   21.81    1.50
  -2  -3  11   21.05    1.09
  -2  -3  11   21.71    1.09
  -2  -3  11   21.44    1.10
  -2  -3  11   22.02    0.75
   1   3 -11    4.31    0.75
   1   3 -11    3.91    0.88
   1   3 -11    3.47    0.44
   1   3 -11    4.46    0.75
  -1  -3  11    4.19    0.66
  -1  -3  11    3.51    0.40
  -1  -3  11    3.96    0.59
  -1  -3  11    4.56    0.56
   0   3 -11   12.60    1.17
   0   3 -11   12.46    1.12
   0  -3  11   12.89    0.80
   0  -3  11   12.11    0.90
   0  -3  11   12.58    0.73
  -1   3 -11   14.08    1.24
  -1   3 -11   12.16    1.20
  -1   3 -11   10.60    0.93
   1  -3  11    9.80    0.88
   1  -3  11   12.52    1.19
   1  -3  11   12.56    1.07
   1  -3  11   11.48    0.86
  -2   3 -11   26.02    1.65
  -2   3 -11   24.08    1.44
  -2   3 -11   25.72    1.57
   2  -3  11   28.17    1.58
   2  -3  11   25.65    1.43
   2  -3  11   28.43    1.80
   2  -3  11   26.80    1.32
  -3   3 -11    8.74    1.07
  -3   3 -11   11.31    1.26
  -3   3 -11    8.59    1.26
   3  -3  11    9.21    1.24
   3  -3  11    8.11    1.37
   3  -3  11    7.27    0.85
   3  -3  11    7.88    1.03
  -4   3 -11    4.14    1.05
  -4   3 -11    6.43    1.16
  -4   3 -11    6.10    1.28
   4  -3  11    6.99    1.19
   4  -3  11    5.28    1.49
  -5   3 -11    3.00    1.13
  -5   3 -11    0.85    1.28
   5  -3  11    0.75    1.28
   5  -3  11    2.65    1.68
  -6   3 -11    0.36    1.77
  -6   3 -11   -0.41    1.56
   6  -3  11    0.57    2.34
   6  -3  11   -1.61    1.54
   8   2 -11    0.93    2.15
  -8  -2  11    1.77    1.09
  -8  -2  11    2.19    1.04
   7   2 -11    0.25    1.41
   7   2 -11    3.42    1.75
  -7  -2  11   -0.56    0.83
  -7  -2  11   -0.87    0.74
   6   2 -11    0.85    1.29
   6   2 -11   -2.25    1.21
  -6  -2  11    0.99    0.75
  -6  -2  11    0.64    0.60
   5   2 -11   -0.26    0.95
   5   2 -11    2.09    1.32
  -5  -2  11    0.90    0.62
  -5  -2  11    0.81    0.49
  -5  -2  11    0.71    0.52
   4   2 -11    1.33    0.62
   4   2 -11    1.81    1.17
   4   2 -11    1.66    0.89
  -4  -2  11    2.14    0.53
  -4  -2  11    0.97    0.37
  -4  -2  11    0.48    0.51
   3   2 -11   16.98    1.53
   3   2 -11   15.93    1.91
   3   2 -11   17.31    0.87
   3   2 -11   18.19    1.53
  -3  -2  11   18.71    0.86
  -3  -2  11   20.56    1.09
  -3  -2  11   18.88    1.04
   2   2 -11   55.56    2.35
   2   2 -11   52.80    2.25
   2   2 -11   43.10    1.47
   2   2 -11   46.11    2.15
  -2  -2  11   48.90    1.76
  -2  -2  11   47.15    1.81
  -2  -2  11   51.37    1.83
   1   2 -11   47.77    2.17
   1   2 -11   48.59    1.60
   1   2 -11   47.23    2.09
  -1  -2  11   48.08    1.76
  -1  -2  11   44.59    1.78
   0   2 -11    4.13    0.83
   0   2 -11    2.34    0.72
   0  -2  11    2.50    0.47
   0  -2  11    2.81    0.60
   0  -2  11    3.12    0.43
  -1   2 -11   20.71    1.47
  -1   2 -11   21.35    1.46
  -1   2 -11   22.06    1.22
   1  -2  11   20.56    1.04
   1  -2  11   23.02    1.47
   1  -2  11   22.04    0.89
   1  -2  11   22.55    1.12
   1  -2  11   20.60    1.30
  -2   2 -11    0.70    0.59
  -2   2 -11    0.00    0.66
  -2   2 -11    0.82    0.74
   2  -2  11    1.27    0.69
   2  -2  11    0.20    1.13
   2  -2  11    0.82    0.61
   2  -2  11    0.67    0.50
  -3   2 -11    1.60    0.99
  -3   2 -11    0.47    0.74
  -3   2 -11    1.21    0.80
   3  -2  11    0.40    0.98
   3  -2  11    0.30    0.61
   3  -2  11    0.97    0.69
   3  -2  11   -0.24    0.85
  -4   2 -11   -0.06    0.97
  -4   2 -11   -0.40    1.03
   4  -2  11    1.32    1.53
   4  -2  11    0.62    0.95
  -5   2 -11    3.30    1.16
  -5   2 -11    6.61    1.65
   5  -2  11    4.45    1.54
   5  -2  11    7.46    1.92
  -6   2 -11    0.99    1.86
  -6   2 -11    3.70    1.72
   6  -2  11   -0.60    2.27
   8   1 -11   -2.20    2.00
  -8  -1  11   -0.45    0.97
  -8  -1  11    0.48    1.02
   7   1 -11   -1.54    1.58
   7   1 -11    2.24    1.74
  -7  -1  11    0.63    0.88
   6   1 -11   12.32    2.09
   6   1 -11   10.06    1.67
  -6  -1  11   11.15    1.12
  -6  -1  11   10.73    1.31
   5   1 -11   11.21    1.62
   5   1 -11   12.23    1.88
  -5  -1  11   12.57    1.11
  -5  -1  11   10.48    0.94
   4   1 -11   27.37    2.27
   4   1 -11   25.51    1.87
   4   1 -11   23.23    1.26
  -4  -1  11   22.48    0.88
  -4  -1  11   21.86    1.24
  -4  -1  11   22.20    1.33
   3   1 -11   23.21    1.41
   3   1 -11   20.75    1.70
   3   1 -11   23.28    2.15
   3   1 -11   20.22    1.55
  -3  -1  11   20.85    1.10
  -3  -1  11   22.07    1.16
  -3  -1  11   20.12    0.86
   2   1 -11   11.10    1.24
   2   1 -11    8.93    1.53
   2   1 -11    8.78    0.50
  -2  -1  11   10.02    0.81
  -2  -1  11    9.18    0.84
   1   1 -11   64.78    2.10
   1   1 -11   63.41    2.63
  -1  -1  11   63.89    2.19
  -1  -1  11   64.11    2.25
   0   1 -11   20.00    1.44
   0   1 -11   19.75    1.47
   0   1 -11   21.20    1.18
   0  -1  11   20.41    1.18
   0  -1  11   20.55    1.24
   0  -1  11   20.78    0.96
   0  -1  11   22.04    1.10
  -1   1 -11    6.09    0.99
  -1   1 -11    5.54    0.73
  -1   1 -11    5.83    0.96
   1  -1  11    5.73    0.54
   1  -1  11    6.55    0.80
   1  -1  11    6.94    0.98
   1  -1  11    4.61    0.78
  -2   1 -11   10.12    1.27
  -2   1 -11    9.96    1.21
  -2   1 -11    9.34    1.14
   2  -1  11    9.93    1.24
   2  -1  11    9.87    1.17
   2  -1  11    9.56    0.96
   2  -1  11    9.07    1.01
  -3   1 -11   12.66    1.71
  -3   1 -11   15.14    1.53
   3  -1  11   11.67    1.20
   3  -1  11   13.74    1.63
   3  -1  11   13.61    1.68
  -4   1 -11    2.73    1.16
  -4   1 -11    1.33    0.94
   4  -1  11    2.58    1.07
   4  -1  11    1.68    1.43
  -5   1 -11    8.58    1.77
  -5   1 -11    8.46    1.34
   5  -1  11    4.86    2.08
   8   0 -11   -1.05    2.23
   8   0 -11    5.66    2.31
  -8   0  11   -0.15    0.94
  -8   0  11    2.28    1.09
  -8   0  11    2.93    1.03
   7   0 -11    4.53    1.86
   7   0 -11    0.22    3.74
  -7   0  11    3.82    0.83
  -7   0  11    4.22    0.98
   6   0 -11    5.64    1.75
   6   0 -11    7.78    2.97
  -6   0  11    4.21    0.73
  -6   0  11    3.13    0.81
   5   0 -11   12.93    1.95
   5   0 -11   11.01    1.71
  -5   0  11   10.75    1.12
  -5   0  11    7.82    0.88
   4   0 -11    0.66    1.25
   4   0 -11   -0.33    0.76
   4   0 -11   -0.13    0.92
  -4   0  11    0.58    0.46
  -4   0  11    0.62    0.50
   3   0 -11    1.31    0.79
   3   0 -11    1.03    1.04
   3   0 -11   -0.36    0.67
  -3   0  11    0.88    0.49
  -3   0  11   -0.50    0.42
   2   0 -11   28.47    1.04
   2   0 -11   27.57    2.19
   2   0 -11   23.73    1.75
  -2   0  11   29.35    1.34
  -2   0  11   29.24    1.31
   1   0 -11   16.55    0.94
   1   0 -11   15.97    1.42
   1   0 -11   20.28    1.66
  -1   0  11   15.48    0.99
  -1   0  11   20.47    0.92
  -1   0  11   17.11    1.08
   0   0 -11   27.11    1.72
   0   0 -11   25.32    1.39
   0   0  11   30.30    1.55
   0   0  11   28.08    1.33
   0   0  11   27.67    1.15
   0   0  11   29.10    1.44
  -1   0 -11   26.63    1.39
  -1   0 -11   25.49    1.68
   1   0  11   29.02    1.44
   1   0  11   25.01    1.57
   1   0  11   23.97    1.47
   1   0  11   27.21    1.12
  -2   0 -11   14.52    1.35
  -2   0 -11   13.35    1.53
   2   0  11   12.85    1.49
   2   0  11   10.86    1.38
   2   0  11   12.38    1.20
  -3   0 -11    4.67    1.23
  -3   0 -11    4.81    1.08
   3   0  11    3.33    1.20
   3   0  11    2.41    0.85
  -4   0 -11   -2.06    1.10
  -4   0 -11    0.15    0.95
   4   0  11    0.25    1.31
   4   0  11   -0.35    1.05
  -5   0 -11   -1.77    1.14
  -5   0 -11    1.15    1.56
   5   0  11    2.32    1.86
   8  -1 -11   -2.38    2.11
   8  -1 -11   -3.67    2.39
  -8   1  11    0.69    1.06
  -8   1  11    0.53    0.99
   7  -1 -11    0.83    1.90
   7  -1 -11   -0.82    1.66
  -7   1  11   -0.88    0.75
  -7   1  11    0.16    0.78
  -7   1  11    0.33    0.85
   6  -1 -11    6.01    1.81
   6  -1 -11    7.57    2.01
  -6   1  11    6.94    0.81
  -6   1  11    6.65    1.01
   5  -1 -11    2.95    1.61
   5  -1 -11    4.57    1.13
   5  -1 -11    2.14    1.13
  -5   1  11    1.67    0.65
  -5   1  11    2.24    0.61
   4  -1 -11   14.19    1.64
   4  -1 -11   16.50    2.16
  -4   1  11   13.20    0.96
  -4   1  11   11.91    1.07
   3  -1 -11   23.99    1.65
   3  -1 -11   20.50    2.04
   3  -1 -11   21.35    2.92
  -3   1  11   25.60    1.33
  -3   1  11   26.09    1.21
  -3   1  11   24.79    1.23
   2  -1 -11   21.54    1.98
   2  -1 -11   19.99    1.62
   2  -1 -11   26.04    1.03
  -2   1  11   25.37    1.16
  -2   1  11   23.84    1.24
  -2   1  11   23.60    1.19
   1  -1 -11   33.60    2.20
   1  -1 -11   30.41    1.41
   1  -1 -11   30.31    1.89
  -1   1  11   34.60    1.53
  -1   1  11   32.90    1.33
  -1   1  11   34.36    1.52
  -1   1  11   33.21    1.48
   0  -1 -11    3.98    0.97
   0  -1 -11    2.83    0.65
   0   1  11    2.93    0.63
   0   1  11    4.68    0.53
   0   1  11    4.03    0.76
   0   1  11    3.91    0.77
  -1  -1 -11    3.09    0.73
  -1  -1 -11    3.88    1.00
   1   1  11    4.19    0.78
   1   1  11    4.09    0.81
   1   1  11    3.79    0.51
   1   1  11    4.27    0.84
  -2  -1 -11    3.22    1.08
  -2  -1 -11    2.00    0.81
   2   1  11    1.80    0.89
   2   1  11    2.89    0.96
   2   1  11    3.15    0.81
  -3  -1 -11    2.28    1.46
  -3  -1 -11    5.60    1.14
   3   1  11    2.60    0.97
   3   1  11    3.32    1.82
  -4  -1 -11    3.96    1.43
  -4  -1 -11    6.26    1.22
   4   1  11    3.22    1.59
  -5  -1 -11    3.96    2.72
  -5  -1 -11    3.09    1.49
  -5  -1 -11    3.27    1.33
   5   1  11    2.07    1.83
   8  -2 -11    3.10    2.42
  -8   2  11    0.14    1.08
  -8   2  11    0.95    1.06
   7  -2 -11   -1.02    2.11
  -7   2  11    4.22    0.97
  -7   2  11    2.07    0.96
   6  -2 -11   18.47    3.74
  -6   2  11   12.45    1.13
  -6   2  11   11.31    1.14
   5  -2 -11    6.61    1.71
   5  -2 -11    7.43    1.35
  -5   2  11    5.70    0.73
  -5   2  11    5.97    0.90
  -5   2  11    5.05    0.83
   4  -2 -11    8.23    1.26
   4  -2 -11    5.70    1.65
  -4   2  11    5.90    0.70
  -4   2  11    5.49    0.72
  -4   2  11    5.71    0.82
   3  -2 -11    0.02    1.13
   3  -2 -11   -0.97    0.85
   3  -2 -11    0.27    0.97
  -3   2  11   -0.78    0.42
  -3   2  11    0.56    0.52
  -3   2  11    0.38    0.47
   2  -2 -11    2.23    0.89
   2  -2 -11    3.74    1.28
   2  -2 -11    3.11    1.06
  -2   2  11    2.44    0.60
  -2   2  11    1.84    0.53
  -2   2  11    2.22    0.58
   1  -2 -11    1.70    1.08
   1  -2 -11    0.10    0.67
   1  -2 -11    0.69    0.83
  -1   2  11   -0.09    0.42
  -1   2  11    0.15    0.54
  -1   2  11    0.33    0.55
  -1   2  11    0.72    0.52
   0  -2 -11    7.49    0.97
   0  -2 -11    6.04    1.46
   0  -2 -11    7.52    1.25
   0   2  11    8.58    1.03
   0   2  11    8.62    1.10
   0   2  11    8.55    0.73
   0   2  11    7.99    1.06
  -1  -2 -11   19.27    1.79
  -1  -2 -11   19.47    1.42
   1   2  11   18.08    1.50
   1   2  11   18.99    1.44
   1   2  11   20.77    1.00
   1   2  11   19.35    1.46
  -2  -2 -11   11.67    1.58
  -2  -2 -11   12.06    1.42
   2   2  11   10.66    1.46
   2   2  11   11.89    1.50
  -3  -2 -11    6.30    1.39
  -3  -2 -11    3.73    1.12
   3   2  11    2.17    1.78
   3   2  11    3.03    1.24
  -4  -2 -11   -0.20    1.02
  -4  -2 -11    0.43    1.05
  -4  -2 -11    0.36    1.47
   4   2  11    1.24    2.59
   4   2  11    2.69    1.35
  -5  -2 -11    2.91    1.94
  -5  -2 -11   -1.98    1.30
  -5  -2 -11    0.44    1.60
   5   2  11   -1.14    2.04
   8  -3 -11    0.09    2.70
  -8   3  11    1.21    1.27
  -8   3  11    0.58    1.15
   7  -3 -11   -1.59    2.15
  -7   3  11    0.89    0.93
  -7   3  11   -0.56    0.83
   6  -3 -11   -3.43    1.54
   6  -3 -11    1.23    1.83
  -6   3  11   -0.36    0.70
  -6   3  11    0.79    0.81
   5  -3 -11    0.59    1.55
   5  -3 -11    2.77    1.42
  -5   3  11    0.22    0.60
  -5   3  11    1.30    0.71
  -5   3  11    1.06    0.72
   4  -3 -11    2.11    1.72
   4  -3 -11    1.97    1.20
  -4   3  11    3.09    0.66
  -4   3  11    2.27    0.56
  -4   3  11    1.62    0.66
   3  -3 -11    8.04    1.55
   3  -3 -11    9.26    1.77
  -3   3  11   11.47    0.94
  -3   3  11   12.83    0.97
  -3   3  11   12.49    1.12
   2  -3 -11   13.89    1.96
   2  -3 -11   17.64    1.79
   2  -3 -11   23.53    2.08
   2  -3 -11   23.17    1.38
  -2   3  11   18.49    1.37
  -2   3  11   22.17    1.23
  -2   3  11   19.82    1.25
   1  -3 -11   12.12    1.62
   1  -3 -11    9.43    1.66
   1  -3 -11   10.50    1.18
  -1   3  11   14.91    0.94
  -1   3  11   14.45    1.15
  -1   3  11   14.08    1.03
  -1   3  11   13.74    1.18
   0  -3 -11    7.24    0.82
   0  -3 -11    6.16    1.23
   0  -3 -11    6.76    0.91
   0  -3 -11    7.40    1.63
   0   3  11    6.62    0.69
   0   3  11    8.27    1.01
   0   3  11    7.61    1.08
   0   3  11    5.55    0.87
  -1  -3 -11    1.03    1.12
  -1  -3 -11    1.35    0.85
  -1  -3 -11    0.21    1.48
  -1  -3 -11    2.51    0.77
   1   3  11    2.13    0.52
   1   3  11    1.55    0.85
   1   3  11    1.20    0.84
  -2  -3 -11    0.40    0.95
  -2  -3 -11   -0.28    0.66
  -2  -3 -11    0.54    1.26
  -2  -3 -11   -0.38    2.85
   2   3  11   -0.42    1.20
   2   3  11    0.94    0.97
  -3  -3 -11    0.46    1.36
  -3  -3 -11    0.01    2.16
  -3  -3 -11   -0.05    0.98
  -3  -3 -11    0.61    0.88
   3   3  11   -0.52    1.16
   3   3  11    0.16    1.29
  -4  -3 -11    4.21    1.74
  -4  -3 -11    2.10    1.14
  -4  -3 -11    0.24    1.27
   4   3  11    1.49    1.80
   4   3  11    1.91    1.55
   7  -4 -11    3.27    2.33
  -7   4  11    3.15    1.03
   6  -4 -11    1.86    2.06
   6  -4 -11    4.10    2.05
  -6   4  11    4.65    1.01
  -6   4  11    2.84    0.88
   5  -4 -11    7.66    1.99
   5  -4 -11    6.03    1.78
  -5   4  11    4.08    0.80
   4  -4 -11    1.67    2.07
   4  -4 -11    0.25    1.62
  -4   4  11    2.31    0.79
  -4   4  11    2.21    0.69
  -4   4  11    1.88    0.61
   3  -4 -11    7.34    1.61
   3  -4 -11    6.51    1.87
  -3   4  11    9.20    1.16
  -3   4  11    6.29    0.78
  -3   4  11    5.45    0.78
   2  -4 -11    2.64    0.75
   2  -4 -11   -0.34    1.30
   2  -4 -11    1.46    1.32
   2  -4 -11   -2.60    0.99
  -2   4  11   -1.31    0.52
  -2   4  11   -0.41    0.58
  -2   4  11    0.51    0.64
   1  -4 -11   -0.11    1.38
   1  -4 -11   -2.19    1.07
   1  -4 -11   -0.77    0.65
  -1   4  11   -0.41    0.68
  -1   4  11   -0.34    0.64
  -1   4  11    0.00    0.50
   0  -4 -11    0.09    1.54
   0  -4 -11   -0.55    1.07
   0  -4 -11    0.22    0.72
   0   4  11    1.08    0.55
   0   4  11   -0.55    0.75
   0   4  11   -0.49    0.78
  -1  -4 -11    3.51    0.78
  -1  -4 -11    4.66    1.81
  -1  -4 -11    4.37    1.67
  -1  -4 -11    2.74    1.00
   1   4  11    4.26    0.65
  -2  -4 -11    2.12    1.01
  -2  -4 -11    2.46    2.13
  -2  -4 -11    3.45    1.54
  -2  -4 -11    0.40    0.78
   2   4  11    1.31    1.12
  -3  -4 -11    1.04    1.12
  -3  -4 -11    1.76    1.06
  -3  -4 -11    2.09    1.61
   3   4  11    4.25    1.34
  -4  -4 -11   -0.89    1.20
  -4  -4 -11    4.16    2.00
  -4  -4 -11    2.08    1.51
   4   4  11    3.09    1.76
   7  -5 -11   -2.19    2.76
  -7   5  11    0.07    1.05
  -7   5  11   -1.11    0.99
   6  -5 -11    4.37    2.59
   6  -5 -11    2.11    2.37
  -6   5  11   -0.13    0.85
  -6   5  11    0.23    0.83
   5  -5 -11    2.76    1.89
   5  -5 -11    3.92    2.22
  -5   5  11    2.64    0.89
  -5   5  11    1.11    0.80
   4  -5 -11   -3.23    1.71
   4  -5 -11   -2.37    1.79
  -4   5  11    0.65    0.67
   3  -5 -11    8.29    1.89
   3  -5 -11    5.37    2.32
  -3   5  11    3.26    0.86
  -3   5  11    4.59    0.76
  -3   5  11    2.15    0.71
   2  -5 -11    0.98    0.89
   2  -5 -11    2.93    1.88
   2  -5 -11    0.79    1.50
  -2   5  11    2.30    0.75
  -2   5  11    2.56    0.84
  -2   5  11    2.92    0.75
   1  -5 -11    4.48    1.03
   1  -5 -11    6.69    2.09
  -1   5  11    5.34    0.96
  -1   5  11    6.28    0.81
   0  -5 -11    2.09    1.48
   0  -5 -11    2.33    2.03
   0  -5 -11    3.18    0.97
   0   5  11    3.69    1.01
   0   5  11    2.18    0.66
  -1  -5 -11    0.89    2.29
  -1  -5 -11    3.22    1.47
   1   5  11    4.15    0.95
   1   5  11    5.61    1.25
  -2  -5 -11    0.81    1.54
  -2  -5 -11    3.40    1.20
   2   5  11   -0.80    1.11
  -3  -5 -11    2.25    1.82
  -3  -5 -11    0.35    1.35
   3   5  11    1.38    1.52
   7  -6 -11    3.65    3.82
  -7   6  11    0.72    1.62
  -7   6  11    0.53    1.24
  -7   6  11   -0.37    1.20
   6  -6 -11   -0.31    2.53
   6  -6 -11    2.30    2.76
  -6   6  11   -1.50    0.99
  -6   6  11   -0.32    0.96
   5  -6 -11   -0.57    2.32
   5  -6 -11    0.23    2.27
  -5   6  11    1.43    0.92
  -5   6  11    2.17    0.85
   4  -6 -11    2.10    3.23
   4  -6 -11    1.76    2.20
  -4   6  11   -0.43    0.81
  -4   6  11   -0.79    0.77
   3  -6 -11    3.56    2.20
   3  -6 -11    1.87    2.22
  -3   6  11    2.32    0.74
  -3   6  11    4.05    0.99
   2  -6 -11    2.37    1.84
   2  -6 -11    1.72    1.03
   2  -6 -11   -1.47    2.00
  -2   6  11    1.54    0.72
  -2   6  11    1.03    0.84
   1  -6 -11    1.03    1.53
   1  -6 -11   -0.06    0.96
  -1   6  11   -0.10    0.88
  -1   6  11    0.47    0.93
   0  -6 -11    0.64    1.02
   0  -6 -11   -0.76    1.53
   0   6  11    0.14    1.05
   0   6  11   -0.67    1.08
  -1  -6 -11    0.50    1.61
  -1  -6 -11   -0.53    1.05
  -1  -6 -11    0.80    3.06
   1   6  11    0.39    0.94
   1   6  11   -0.02    1.14
  -2  -6 -11   -0.15    1.20
  -2  -6 -11    2.91    1.92
   2   6  11   -3.28    1.32
  -3  -6 -11    0.81    2.30
  -3  -6 -11    1.46    1.64
   3   6  11   -2.18    1.89
   6  -7 -11    1.38    3.30
   6  -7 -11   -1.38    3.26
  -6   7  11    2.04    1.25
  -6   7  11    0.13    1.08
   5  -7 -11    1.36    2.50
   5  -7 -11    2.02    2.87
  -5   7  11    1.80    1.03
  -5   7  11    0.15    0.96
   4  -7 -11    2.40    2.37
   4  -7 -11   -1.74    2.58
  -4   7  11   -0.42    1.06
  -4   7  11    2.15    0.83
   3  -7 -11   -1.54    2.03
   3  -7 -11    2.28    2.49
  -3   7  11    1.90    1.07
  -3   7  11   -0.37    0.74
   2  -7 -11    0.52    1.87
   2  -7 -11    3.06    2.60
  -2   7  11    0.41    1.00
  -2   7  11    0.99    0.75
   1  -7 -11    2.27    1.96
   1  -7 -11   -2.43    2.41
  -1   7  11    1.32    0.75
  -1   7  11   -0.38    1.01
   0  -7 -11   -3.50    3.45
   0  -7 -11   -0.96    1.15
   0   7  11   -1.10    1.20
   0   7  11   -0.07    0.78
  -1  -7 -11   -1.09    1.89
  -1  -7 -11   -1.03    1.24
   1   7  11    3.16    1.44
  -2  -7 -11    1.38    2.28
  -2  -7 -11    0.80    1.54
   2   7  11   -1.13    1.77
   5  -8 -11    0.72    3.43
   5  -8 -11   -1.10    3.38
  -5   8  11    2.17    1.64
  -5   8  11   -1.17    1.10
  -5   8  11    0.68    1.28
   4  -8 -11   -1.67    3.01
   4  -8 -11    6.41    2.74
  -4   8  11   -0.58    0.95
  -4   8  11   -0.05    1.10
   3  -8 -11    2.26    3.06
   3  -8 -11    3.47    2.47
  -3   8  11    0.87    1.13
  -3   8  11    1.40    0.88
   2  -8 -11    0.26    2.22
   2  -8 -11   -1.77    2.82
  -2   8  11    2.44    0.86
  -2   8  11    0.06    1.20
   1  -8 -11    3.40    2.12
   1  -8 -11   -2.40    2.88
   1  -8 -11    0.80    1.41
  -1   8  11    1.42    0.88
  -1   8  11    2.07    1.44
   0  -8 -11   -0.52    1.39
   0  -8 -11   -2.80    2.15
   0   8  11   -0.38    1.51
   0   8  11   -1.47    0.89
  -1  -8 -11   -2.58    1.50
   1   8  11    0.59    2.12
   3  -9 -11    0.04    3.85
   3  -9 -11   -1.42    3.29
  -3   9  11    0.14    1.55
  -3   9  11    0.91    1.08
  -3   9  11   -0.53    1.35
   2  -9 -11    6.29    3.62
   2  -9 -11   -0.57    3.34
  -2   9  11    2.00    1.58
  -2   9  11    0.74    1.31
  -2   9  11   -0.69    1.05
   1  -9 -11    5.87    3.08
  -1   9  11    1.43    1.21
  -1   9  11    1.61    1.14
  -1   9  11    3.33    1.84
   3  13 -12   -0.97    1.94
   3  13 -12    1.19    1.97
  -3 -13  12    2.06    1.05
  -3 -13  12    0.20    1.57
   2  13 -12   -1.99    1.44
  -2 -13  12    2.49    1.16
  -2 -13  12   -2.99    1.82
  -2 -13  12   -0.34    0.85
   1  13 -12   -1.53    1.40
  -1 -13  12    0.05    1.03
  -1 -13  12    0.79    1.82
   0  13 -12    1.71    1.42
   0 -13  12   -0.27    1.82
   0 -13  12    1.55    1.15
  -1  13 -12    1.17    1.47
  -1  13 -12    3.99    1.22
   1 -13  12    1.90    1.37
   1 -13  12    1.24    1.16
   1 -13  12    3.29    2.20
  -2  13 -12    1.57    1.62
  -2  13 -12    1.57    1.36
   2 -13  12    3.72    2.18
   2 -13  12   -0.08    1.79
   4  12 -12   -1.86    1.62
  -4 -12  12    2.02    1.18
  -4 -12  12    1.41    1.00
   3  12 -12    2.46    1.67
   3  12 -12    1.34    1.51
  -3 -12  12    0.97    0.89
  -3 -12  12   -0.93    0.92
   2  12 -12    0.52    1.29
  -2 -12  12   -1.05    0.74
  -2 -12  12   -0.73    1.51
  -2 -12  12    0.70    0.96
   1  12 -12    4.74    1.29
  -1 -12  12    1.61    0.97
  -1 -12  12    2.70    0.83
  -1 -12  12    2.31    1.64
   0  12 -12    1.22    1.15
   0  12 -12    0.52    1.05
   0 -12  12    2.31    0.99
   0 -12  12   -0.24    0.96
   0 -12  12   -0.58    1.54
  -1  12 -12    2.83    1.04
  -1  12 -12    0.65    1.20
   1 -12  12    0.51    1.02
   1 -12  12   -1.47    1.69
  -2  12 -12    0.55    1.30
  -2  12 -12    0.99    1.07
   2 -12  12    0.00    1.81
   2 -12  12   -0.28    1.46
  -3  12 -12    1.29    1.52
  -3  12 -12   -0.35    1.31
   3 -12  12   -0.01    1.83
   3 -12  12   -0.36    2.17
   5  11 -12    3.05    2.26
  -5 -11  12    0.33    1.13
  -5 -11  12    1.89    1.06
   4  11 -12    7.47    2.16
   4  11 -12   -2.75    1.77
  -4 -11  12   -0.53    0.94
  -4 -11  12   -0.69    0.82
   3  11 -12    1.58    1.48
   3  11 -12    2.98    1.40
  -3 -11  12    1.28    0.81
  -3 -11  12    2.19    0.89
   2  11 -12    3.84    1.22
   2  11 -12    1.71    1.13
  -2 -11  12   -0.42    0.70
  -2 -11  12    1.44    0.84
  -2 -11  12   -0.59    1.24
   1  11 -12    4.96    1.25
  -1 -11  12    6.32    1.47
  -1 -11  12    4.61    1.03
   0  11 -12    2.36    1.04
   0  11 -12    0.21    0.83
   0 -11  12   -0.94    1.46
   0 -11  12    1.59    0.91
   0 -11  12    0.76    0.74
  -1  11 -12    0.81    0.91
  -1  11 -12    0.11    0.98
   1 -11  12    0.51    1.50
   1 -11  12    1.60    0.95
   1 -11  12    0.27    0.80
  -2  11 -12    1.73    1.02
  -2  11 -12    0.70    1.05
   2 -11  12    0.11    1.50
   2 -11  12    1.38    1.29
  -3  11 -12    2.77    1.16
  -3  11 -12    0.43    1.36
   3 -11  12    1.52    1.95
   3 -11  12    1.53    1.54
  -4  11 -12    2.69    1.53
  -4  11 -12   -0.66    1.58
   4 -11  12    0.45    1.90
   4 -11  12    1.50    2.21
   6  10 -12   -1.37    2.20
  -6 -10  12   -0.50    1.20
  -6 -10  12   -0.05    1.32
   5  10 -12    2.31    1.94
  -5 -10  12    2.96    1.02
  -5 -10  12    2.31    0.91
   4  10 -12   -2.64    1.76
   4  10 -12    0.31    1.51
  -4 -10  12    0.17    0.84
  -4 -10  12   -0.89    0.76
   3  10 -12   -1.07    1.56
   3  10 -12    1.17    2.41
  -3 -10  12    0.86    0.79
  -3 -10  12    0.42    0.75
  -3 -10  12   -0.87    1.21
   2  10 -12    0.89    1.71
  -2 -10  12    0.16    1.00
  -2 -10  12   -0.29    0.76
  -2 -10  12   -1.11    0.71
  -2 -10  12    0.19    0.60
   1  10 -12    2.45    1.32
   1  10 -12    1.98    0.75
  -1 -10  12    2.80    0.57
  -1 -10  12    2.23    0.75
  -1 -10  12    1.11    0.79
  -1 -10  12    2.79    1.12
   0  10 -12    0.13    1.06
   0  10 -12    1.03    0.75
   0 -10  12   -0.75    1.10
   0 -10  12   -0.31    0.80
   0 -10  12    1.69    0.68
  -1  10 -12   -0.30    0.81
  -1  10 -12    1.17    1.03
   1 -10  12   -0.44    0.82
   1 -10  12    1.63    1.37
   1 -10  12    0.42    0.71
  -2  10 -12    2.91    1.05
  -2  10 -12    4.33    1.15
   2 -10  12    7.36    1.52
   2 -10  12    4.38    1.00
   2 -10  12    2.25    1.46
  -3  10 -12    2.85    1.09
  -3  10 -12    0.67    1.18
   3 -10  12    1.27    1.46
   3 -10  12    0.01    1.53
  -4  10 -12    1.47    1.30
  -4  10 -12   -0.73    1.29
   4 -10  12   -1.02    1.93
   4 -10  12   -1.93    1.75
   6   9 -12    3.25    2.07
  -6  -9  12   -2.39    0.93
  -6  -9  12   -0.60    0.98
   5   9 -12   -4.98    2.28
   5   9 -12    0.04    1.58
  -5  -9  12    1.07    0.87
  -5  -9  12   -0.15    0.77
   4   9 -12    3.51    1.48
  -4  -9  12    0.20    0.73
  -4  -9  12    0.37    0.76
  -4  -9  12    1.21    0.81
   3   9 -12    3.83    1.35
   3   9 -12   -2.27    1.19
  -3  -9  12    0.35    0.71
  -3  -9  12    1.74    0.87
   2   9 -12    5.62    1.19
   2   9 -12    4.58    1.30
  -2  -9  12    5.27    0.89
  -2  -9  12    6.08    1.00
  -2  -9  12    5.05    0.89
  -2  -9  12    6.68    0.80
   1   9 -12    4.07    0.75
   1   9 -12    4.12    1.13
  -1  -9  12    3.15    0.90
  -1  -9  12    3.27    0.78
  -1  -9  12    3.21    0.74
  -1  -9  12    3.79    0.59
   0   9 -12    5.57    0.90
   0   9 -12    6.72    1.31
   0  -9  12    5.61    0.94
   0  -9  12    7.78    1.18
   0  -9  12    4.75    0.82
  -1   9 -12   -0.48    0.76
   1  -9  12   -0.21    1.01
   1  -9  12    0.93    0.62
  -2   9 -12    2.33    1.00
  -2   9 -12    0.96    0.93
   2  -9  12    2.24    1.11
   2  -9  12    1.54    0.76
   2  -9  12   -3.11    3.33
  -3   9 -12   -1.17    0.93
  -3   9 -12    0.37    1.03
   3  -9  12    0.34    1.08
   3  -9  12   -1.67    1.34
   3  -9  12   -1.03    1.23
  -4   9 -12    1.23    1.21
  -4   9 -12    1.01    1.16
  -4   9 -12    1.15    1.24
   4  -9  12   -3.60    1.57
   4  -9  12    1.78    1.60
  -5   9 -12    2.59    1.71
  -5   9 -12    0.37    2.01
   5  -9  12    0.42    2.48
   7   8 -12    1.62    2.66
  -7  -8  12    1.51    1.25
  -7  -8  12   -0.13    1.45
  -7  -8  12   -0.06    1.30
   6   8 -12    2.74    1.81
  -6  -8  12    1.46    1.03
  -6  -8  12    1.54    0.91
  -6  -8  12    1.65    0.95
   5   8 -12    2.74    1.51
   5   8 -12    1.40    1.79
  -5  -8  12    2.18    0.90
  -5  -8  12    1.72    0.85
  -5  -8  12    1.14    0.74
   4   8 -12    2.93    1.39
   4   8 -12    4.92    1.52
  -4  -8  12    4.55    0.89
  -4  -8  12    4.26    0.83
  -4  -8  12    5.01    1.10
   3   8 -12   -0.18    0.92
   3   8 -12   -0.32    1.05
  -3  -8  12    1.04    0.69
  -3  -8  12   -0.27    0.60
  -3  -8  12   -0.42    0.58
   2   8 -12    3.48    0.95
   2   8 -12    2.93    0.77
   2   8 -12    2.73    1.08
  -2  -8  12    2.96    0.62
  -2  -8  12    3.69    0.72
  -2  -8  12    2.27    0.71
  -2  -8  12    4.38    0.80
   1   8 -12    0.14    0.86
   1   8 -12   -0.21    0.90
   1   8 -12   -0.61    0.61
  -1  -8  12    0.84    0.77
  -1  -8  12    0.29    0.56
  -1  -8  12   -0.18    0.42
  -1  -8  12    0.10    0.61
   0   8 -12    0.72    0.88
   0   8 -12    1.50    0.69
   0  -8  12    0.96    0.85
   0  -8  12    1.71    0.73
   0  -8  12    2.24    0.70
   0  -8  12    2.36    0.47
  -1   8 -12    1.91    0.96
  -1   8 -12    2.56    0.88
   1  -8  12    0.31    0.83
   1  -8  12    0.83    0.66
   1  -8  12    1.23    0.83
  -2   8 -12    5.00    1.06
  -2   8 -12    2.85    1.13
   2  -8  12    4.82    0.92
   2  -8  12    4.88    1.24
   2  -8  12    3.49    1.97
  -3   8 -12   -0.65    0.86
  -3   8 -12    1.67    1.00
  -3   8 -12    3.21    1.11
   3  -8  12    2.43    1.06
   3  -8  12    1.67    1.33
   3  -8  12    2.17    2.07
  -4   8 -12    2.03    1.13
  -4   8 -12    4.20    1.27
  -4   8 -12    1.29    1.17
   4  -8  12    0.04    1.34
   4  -8  12    2.19    1.46
   4  -8  12    1.41    1.60
  -5   8 -12   -1.01    1.65
  -5   8 -12    0.19    1.39
  -5   8 -12    2.01    1.51
   5  -8  12    0.28    1.71
   5  -8  12   -3.40    2.16
   7   7 -12   -2.22    2.01
  -7  -7  12    0.17    1.11
  -7  -7  12   -1.39    1.20
  -7  -7  12   -0.19    0.99
   6   7 -12    0.06    1.65
  -6  -7  12    2.01    0.87
  -6  -7  12    0.41    0.96
  -6  -7  12    2.90    0.96
   5   7 -12   -0.11    1.35
  -5  -7  12   -1.10    0.66
  -5  -7  12   -0.11    0.77
  -5  -7  12    1.43    0.80
   4   7 -12    5.48    1.33
   4   7 -12    5.03    1.41
   4   7 -12    6.91    1.38
  -4  -7  12    4.55    0.91
  -4  -7  12    5.92    1.14
  -4  -7  12    4.98    0.77
   3   7 -12   -1.05    0.95
   3   7 -12   -0.55    0.84
   3   7 -12   -0.15    1.27
  -3  -7  12   -0.52    0.57
  -3  -7  12    0.35    0.52
  -3  -7  12    0.14    0.53
   2   7 -12    7.63    1.24
   2   7 -12    6.23    1.02
   2   7 -12    7.48    0.93
  -2  -7  12    6.15    0.86
  -2  -7  12    4.96    0.74
  -2  -7  12    5.49    0.76
  -2  -7  12    5.46    0.69
   1   7 -12    5.81    0.86
   1   7 -12    8.31    1.19
  -1  -7  12    7.22    0.77
  -1  -7  12    5.90    0.86
  -1  -7  12    6.63    0.88
  -1  -7  12    5.42    0.77
   0   7 -12    9.95    1.30
   0   7 -12    9.96    1.16
   0  -7  12    8.16    1.03
   0  -7  12   10.81    1.06
   0  -7  12    9.67    0.75
   0  -7  12   11.27    1.20
  -1   7 -12    3.55    0.99
  -1   7 -12    4.60    0.94
   1  -7  12    5.52    0.92
   1  -7  12    5.59    0.88
  -2   7 -12    2.78    0.77
  -2   7 -12    3.09    1.02
  -2   7 -12    2.74    1.06
   2  -7  12    4.92    1.24
   2  -7  12    2.55    0.83
   2  -7  12    3.21    1.03
  -3   7 -12    2.70    1.21
  -3   7 -12   -0.47    1.53
  -3   7 -12    1.86    0.99
   3  -7  12    2.00    1.26
   3  -7  12    1.01    1.00
   3  -7  12    0.81    1.20
  -4   7 -12   -0.98    0.99
  -4   7 -12    0.39    1.15
  -4   7 -12    0.31    1.19
   4  -7  12   -0.33    1.17
   4  -7  12   -0.55    1.49
   4  -7  12   -1.00    1.28
  -5   7 -12   -2.33    1.60
  -5   7 -12    0.52    1.31
   5  -7  12    3.92    2.22
   5  -7  12   -2.01    1.52
   7   6 -12   -1.69    2.04
  -7  -6  12   -0.10    1.19
  -7  -6  12   -1.55    0.89
  -7  -6  12    0.56    0.98
   6   6 -12    0.38    1.65
  -6  -6  12   -0.09    0.87
  -6  -6  12    1.27    0.77
  -6  -6  12    0.55    0.80
   5   6 -12    1.27    1.31
  -5  -6  12    2.90    0.78
  -5  -6  12    0.56    0.86
  -5  -6  12    1.98    0.71
   4   6 -12    9.22    1.59
   4   6 -12    8.24    1.33
   4   6 -12    7.59    1.44
  -4  -6  12    8.20    1.06
  -4  -6  12    7.48    0.91
  -4  -6  12    6.80    0.85
   3   6 -12   10.47    1.71
   3   6 -12   10.10    1.44
   3   6 -12    8.92    1.22
  -3  -6  12    7.90    0.94
  -3  -6  12    8.62    0.92
  -3  -6  12   10.41    0.92
   2   6 -12    7.61    1.11
   2   6 -12    5.94    0.96
   2   6 -12    8.50    1.23
  -2  -6  12    7.18    0.86
  -2  -6  12    6.72    0.87
  -2  -6  12    5.28    0.69
   1   6 -12   14.11    1.22
   1   6 -12   13.15    1.17
   1   6 -12   13.66    1.39
  -1  -6  12   15.39    1.10
  -1  -6  12   14.38    1.35
  -1  -6  12   13.77    1.12
  -1  -6  12   15.61    0.96
   0   6 -12    1.53    0.70
   0   6 -12   -0.11    0.72
   0  -6  12    0.39    0.39
   0  -6  12    0.64    0.55
   0  -6  12    1.26    0.63
   0  -6  12   -0.61    0.61
  -1   6 -12   -0.56    0.79
  -1   6 -12    0.33    0.51
  -1   6 -12    0.63    0.74
   1  -6  12    0.61    0.70
   1  -6  12    0.98    0.67
   1  -6  12    0.67    0.42
  -2   6 -12    2.84    0.76
  -2   6 -12    1.38    0.95
  -2   6 -12    3.34    0.94
   2  -6  12    2.39    0.97
   2  -6  12    1.08    0.81
   2  -6  12    1.75    0.80
  -3   6 -12    0.19    0.84
  -3   6 -12    2.12    1.11
  -3   6 -12    1.19    1.17
   3  -6  12    1.50    1.06
   3  -6  12   -0.39    1.00
   3  -6  12    3.13    2.12
  -4   6 -12    1.04    1.31
  -4   6 -12    2.40    1.04
   4  -6  12    2.68    1.28
   4  -6  12    3.10    1.22
   4  -6  12    1.22    1.48
  -5   6 -12    2.47    1.52
  -5   6 -12    1.92    1.31
   5  -6  12   -0.73    1.96
   5  -6  12    5.46    1.60
   7   5 -12    3.06    1.82
  -7  -5  12   -0.15    1.00
  -7  -5  12   -0.16    0.83
   6   5 -12    4.35    1.67
  -6  -5  12    4.18    0.87
  -6  -5  12    3.96    0.82
  -6  -5  12    5.37    1.16
   5   5 -12    5.68    1.57
   5   5 -12    8.11    1.57
  -5  -5  12    7.57    0.79
  -5  -5  12    7.24    1.04
  -5  -5  12    6.55    0.88
   4   5 -12   -0.73    1.29
   4   5 -12    1.98    1.21
   4   5 -12    2.68    0.98
  -4  -5  12    3.47    0.58
  -4  -5  12    1.66    0.65
  -4  -5  12    3.47    0.64
   3   5 -12    3.37    0.84
   3   5 -12    5.38    1.06
   3   5 -12    5.14    1.15
   3   5 -12    6.50    1.56
  -3  -5  12    4.51    0.49
  -3  -5  12    4.31    0.67
  -3  -5  12    4.85    0.68
  -3  -5  12    4.92    0.67
   2   5 -12    0.21    0.81
   2   5 -12    0.54    0.71
   2   5 -12    0.44    0.78
  -2  -5  12    0.51    0.46
  -2  -5  12   -0.18    0.44
  -2  -5  12    0.41    0.48
  -2  -5  12    0.05    0.36
   1   5 -12    4.89    0.80
   1   5 -12    5.10    0.88
   1   5 -12    5.27    0.91
   1   5 -12    4.66    0.58
  -1  -5  12    4.19    0.69
  -1  -5  12    4.85    0.67
  -1  -5  12    5.57    0.64
  -1  -5  12    5.73    0.78
   0   5 -12   10.78    0.97
   0   5 -12   10.34    1.21
   0   5 -12   10.01    1.24
   0  -5  12   10.90    1.12
   0  -5  12    9.17    0.95
   0  -5  12    9.80    0.76
  -1   5 -12   16.35    1.10
  -1   5 -12   16.87    1.54
  -1   5 -12   16.24    1.44
   1  -5  12   18.90    1.27
   1  -5  12   16.12    0.92
   1  -5  12   17.25    1.27
   1  -5  12   18.55    1.41
  -2   5 -12   14.55    1.49
  -2   5 -12   17.56    1.57
  -2   5 -12   15.25    1.35
   2  -5  12   17.39    1.69
   2  -5  12   19.46    1.48
   2  -5  12   16.91    1.36
  -3   5 -12    0.29    1.03
  -3   5 -12    1.14    0.85
  -3   5 -12    1.04    1.08
   3  -5  12    1.38    0.88
   3  -5  12    0.93    1.01
   3  -5  12    0.48    1.46
  -4   5 -12    2.99    1.10
  -4   5 -12    3.95    1.24
  -4   5 -12    4.62    2.67
   4  -5  12    4.13    1.63
  -5   5 -12    3.13    1.49
  -5   5 -12    0.96    1.22
   5  -5  12    0.15    1.45
   5  -5  12   -1.96    1.94
   8   4 -12    2.12    2.64
  -8  -4  12    0.20    1.37
  -8  -4  12    1.41    1.22
   7   4 -12    0.56    1.83
  -7  -4  12    0.69    0.97
  -7  -4  12    1.74    0.92
   6   4 -12    1.24    1.44
   6   4 -12    3.04    1.47
  -6  -4  12   -0.35    0.80
  -6  -4  12    0.01    0.65
  -6  -4  12   -0.44    0.61
   5   4 -12    3.76    1.44
   5   4 -12    1.76    1.17
  -5  -4  12   -0.59    0.67
  -5  -4  12    0.85    0.63
  -5  -4  12    0.92    0.79
   4   4 -12    2.78    1.06
   4   4 -12    0.74    1.37
  -4  -4  12    2.40    0.60
  -4  -4  12    2.88    0.67
  -4  -4  12    2.93    0.57
   3   4 -12   18.70    1.65
   3   4 -12   25.01    1.74
   3   4 -12   24.36    1.71
  -3  -4  12   22.19    1.23
  -3  -4  12   22.46    1.20
  -3  -4  12   22.47    1.20
   2   4 -12   14.73    1.43
   2   4 -12   14.20    1.35
   2   4 -12   13.66    1.28
  -2  -4  12   13.87    0.97
  -2  -4  12   15.16    1.03
  -2  -4  12   14.33    1.00
   1   4 -12   23.47    1.03
   1   4 -12   26.99    1.68
   1   4 -12   24.50    1.41
   1   4 -12   25.53    1.48
  -1  -4  12   25.00    1.02
  -1  -4  12   27.16    1.31
  -1  -4  12   25.06    1.18
  -1  -4  12   24.22    1.28
   0   4 -12   26.77    1.60
   0   4 -12   26.85    1.68
   0   4 -12   25.88    1.28
   0  -4  12   25.02    1.16
   0  -4  12   24.94    1.15
   0  -4  12   26.78    1.35
  -1   4 -12    1.60    0.84
  -1   4 -12    2.28    0.59
  -1   4 -12    2.72    0.82
   1  -4  12    1.81    0.46
   1  -4  12    1.81    0.68
   1  -4  12    1.54    0.67
   1  -4  12    3.76    0.85
  -2   4 -12    4.05    0.83
  -2   4 -12    2.81    0.94
  -2   4 -12    4.92    1.01
   2  -4  12    3.88    0.64
   2  -4  12    4.76    0.91
   2  -4  12    4.11    1.07
   2  -4  12    4.25    0.79
  -3   4 -12    3.37    1.08
  -3   4 -12    2.78    0.96
  -3   4 -12    1.14    1.32
   3  -4  12    3.43    1.14
   3  -4  12    2.13    1.98
   3  -4  12    3.12    0.92
  -4   4 -12    0.19    0.98
  -4   4 -12    0.86    1.20
  -4   4 -12    2.77    1.28
   4  -4  12    0.05    1.14
   4  -4  12   -0.41    1.36
  -5   4 -12    3.61    1.61
  -5   4 -12    2.16    1.22
   5  -4  12    2.79    1.44
   5  -4  12   -0.55    1.78
   8   3 -12    3.73    2.57
  -8  -3  12   -0.50    1.26
  -8  -3  12    0.19    1.09
   7   3 -12    0.39    1.73
  -7  -3  12    1.83    0.97
  -7  -3  12    3.68    0.93
   6   3 -12    3.87    1.55
   6   3 -12    3.39    1.52
  -6  -3  12    4.13    0.97
   5   3 -12   15.62    1.86
   5   3 -12   16.79    2.33
  -5  -3  12   11.61    1.06
  -5  -3  12   11.19    0.91
  -5  -3  12   12.86    1.30
   4   3 -12    8.62    1.80
   4   3 -12    8.98    1.18
   4   3 -12   12.29    1.65
  -4  -3  12   10.42    1.02
  -4  -3  12   11.61    0.87
  -4  -3  12   13.21    1.00
   3   3 -12    6.71    1.11
   3   3 -12   10.98    1.35
   3   3 -12    5.10    1.43
  -3  -3  12    6.97    0.87
  -3  -3  12    7.48    0.79
  -3  -3  12    8.42    0.86
   2   3 -12    8.10    0.80
   2   3 -12    9.71    1.29
   2   3 -12   11.72    1.31
   2   3 -12   10.68    1.19
  -2  -3  12   10.45    0.89
  -2  -3  12    9.12    0.89
  -2  -3  12    9.26    0.86
   1   3 -12   -0.31    0.62
   1   3 -12    0.45    0.69
   1   3 -12    0.05    0.32
  -1  -3  12   -0.69    0.48
  -1  -3  12    0.30    0.44
   0   3 -12    3.14    1.16
   0   3 -12    3.18    0.89
   0   3 -12    2.88    0.83
   0  -3  12    2.61    0.48
   0  -3  12    2.84    0.62
   0  -3  12    2.50    0.43
  -1   3 -12   19.24    1.52
  -1   3 -12   21.90    1.59
  -1   3 -12   19.10    1.20
   1  -3  12   20.33    1.07
   1  -3  12   20.87    1.21
   1  -3  12   24.31    1.60
   1  -3  12   21.38    1.36
  -2   3 -12   16.15    1.32
  -2   3 -12   14.07    1.49
  -2   3 -12   13.27    1.46
   2  -3  12   12.81    1.17
   2  -3  12   13.70    1.02
   2  -3  12   14.94    1.56
   2  -3  12   15.41    1.46
  -3   3 -12   16.03    1.59
  -3   3 -12   15.79    1.61
  -3   3 -12   15.40    1.96
   3  -3  12   20.10    2.52
   3  -3  12   15.77    2.03
   3  -3  12   15.12    1.44
  -4   3 -12    2.38    1.08
  -4   3 -12    2.76    1.24
   4  -3  12    2.01    1.52
   4  -3  12   -0.14    1.10
  -5   3 -12    2.44    1.25
  -5   3 -12    3.20    1.71
   5  -3  12    1.81    1.52
   5  -3  12   -0.07    1.81
   8   2 -12    2.73    2.65
  -8  -2  12    2.03    1.23
  -8  -2  12    1.36    1.08
   7   2 -12    1.59    1.81
   7   2 -12    2.58    1.89
  -7  -2  12    3.38    0.97
  -7  -2  12    3.91    1.07
   6   2 -12    3.96    1.72
   6   2 -12    5.66    1.73
  -6  -2  12    1.47    0.67
  -6  -2  12    2.86    0.85
   5   2 -12   -0.74    1.18
   5   2 -12    1.51    1.51
  -5  -2  12   -0.37    0.61
  -5  -2  12    1.56    0.62
   4   2 -12    0.49    0.91
   4   2 -12   -0.80    0.96
   4   2 -12    0.79    1.46
  -4  -2  12    0.53    0.54
  -4  -2  12    0.59    0.56
  -4  -2  12    0.54    0.44
   3   2 -12   15.75    1.47
   3   2 -12   10.12    1.76
   3   2 -12   12.71    1.41
  -3  -2  12   15.91    1.06
  -3  -2  12   15.06    1.01
  -3  -2  12   15.25    0.88
   2   2 -12    6.71    1.04
   2   2 -12    6.29    1.44
  -2  -2  12    5.94    0.69
  -2  -2  12    7.02    0.81
   1   2 -12   14.70    0.79
   1   2 -12   14.58    1.30
   1   2 -12   13.78    1.34
  -1  -2  12   14.14    1.02
  -1  -2  12   14.95    0.96
   0   2 -12   26.67    1.70
   0   2 -12   28.53    1.53
   0   2 -12   29.74    1.77
   0  -2  12   29.87    1.46
   0  -2  12   30.88    1.32
  -1   2 -12   25.68    1.74
  -1   2 -12   26.63    1.39
  -1   2 -12   28.67    1.70
   1  -2  12   26.19    1.19
   1  -2  12   26.78    1.11
   1  -2  12   28.22    1.71
   1  -2  12   25.98    1.52
   1  -2  12   27.99    1.32
  -2   2 -12    9.53    1.18
  -2   2 -12    8.67    1.03
  -2   2 -12    7.64    1.23
   2  -2  12    8.39    1.17
   2  -2  12    7.20    0.95
   2  -2  12    9.70    1.34
   2  -2  12    8.83    1.32
  -3   2 -12    0.42    0.84
  -3   2 -12    0.94    0.95
  -3   2 -12    1.52    1.13
   3  -2  12    1.35    1.13
   3  -2  12    0.44    0.71
   3  -2  12   -0.86    0.94
   3  -2  12   -0.13    0.84
  -4   2 -12    0.61    1.00
  -4   2 -12    2.49    1.36
   4  -2  12    0.12    1.43
   4  -2  12    1.41    1.16
  -5   2 -12    2.00    1.65
  -5   2 -12   -1.04    1.24
   5  -2  12   -1.78    1.80
   8   1 -12   -0.20    2.42
  -8  -1  12   -0.11    1.10
  -8  -1  12   -1.28    1.05
   7   1 -12    2.60    2.15
   7   1 -12   -3.04    1.82
  -7  -1  12   -0.35    0.78
  -7  -1  12    1.13    0.89
   6   1 -12    6.73    1.82
   6   1 -12    3.40    1.76
  -6  -1  12    4.95    0.86
  -6  -1  12    4.73    0.97
   5   1 -12    6.30    1.45
   5   1 -12    5.24    1.65
  -5  -1  12    5.92    0.93
  -5  -1  12    5.43    0.75
   4   1 -12   10.34    1.27
   4   1 -12   10.61    1.95
   4   1 -12   10.79    1.53
  -4  -1  12   10.81    0.95
  -4  -1  12    9.63    1.03
   3   1 -12   31.44    1.96
   3   1 -12   39.18    2.17
   3   1 -12   33.90    2.57
   3   1 -12   35.35    1.64
  -3  -1  12   34.81    1.60
  -3  -1  12   37.43    1.58
   2   1 -12   11.87    1.44
   2   1 -12   16.62    1.97
  -2  -1  12   17.42    1.13
  -2  -1  12   16.74    1.07
   1   1 -12    3.45    0.50
   1   1 -12    2.93    0.88
  -1  -1  12    4.26    0.64
  -1  -1  12    3.91    0.65
   0   1 -12    0.58    0.50
   0   1 -12   -0.38    0.77
   0  -1  12   -0.03    0.53
   0  -1  12    0.75    0.37
   0  -1  12    0.92    0.63
   0  -1  12    0.07    0.46
  -1   1 -12    3.41    1.02
  -1   1 -12    3.09    0.66
   1  -1  12    4.18    0.89
   1  -1  12    2.14    0.58
   1  -1  12    2.74    0.83
   1  -1  12    2.89    0.50
  -2   1 -12    4.86    1.12
  -2   1 -12    3.64    0.84
   2  -1  12    3.78    1.04
   2  -1  12    3.79    0.76
   2  -1  12    3.06    1.11
  -3   1 -12    8.24    1.36
  -3   1 -12    8.72    1.42
   3  -1  12    7.61    1.43
   3  -1  12    7.58    1.07
  -4   1 -12   16.39    1.91
  -4   1 -12   16.18    1.88
   4  -1  12   16.34    2.14
  -5   1 -12    1.75    1.45
  -5   1 -12    2.81    1.74
   5  -1  12    3.03    2.06
   8   0 -12   -2.77    2.41
   8   0 -12    0.77    2.86
  -8   0  12    3.00    1.22
  -8   0  12    0.70    1.38
   7   0 -12   -1.34    1.60
   7   0 -12    1.60    2.16
  -7   0  12    1.95    0.91
  -7   0  12    2.11    1.01
   6   0 -12    9.46    2.15
   6   0 -12    7.22    1.74
  -6   0  12   10.06    1.18
  -6   0  12    8.23    1.07
   5   0 -12    4.03    2.00
   5   0 -12    4.14    1.50
  -5   0  12    3.09    0.68
  -5   0  12    3.36    0.85
   4   0 -12   -1.44    1.39
   4   0 -12    1.44    1.02
   4   0 -12    1.26    1.08
  -4   0  12    1.61    0.66
  -4   0  12    0.46    0.53
   3   0 -12    2.01    1.23
   3   0 -12    0.93    0.85
   3   0 -12    1.45    1.22
  -3   0  12    2.08    0.60
  -3   0  12    1.21    0.58
   2   0 -12    5.50    1.33
   2   0 -12    8.05    1.22
  -2   0  12    4.91    0.70
  -2   0  12    5.19    0.69
   1   0 -12    0.20    0.47
   1   0 -12    0.10    0.85
   1   0 -12   -0.48    0.90
  -1   0  12    0.84    0.42
  -1   0  12   -0.50    0.54
  -1   0  12    0.18    0.48
   0   0 -12   22.23    1.29
   0   0 -12   22.45    1.70
   0   0  12   23.14    1.37
   0   0  12   21.69    1.26
   0   0  12   21.61    1.02
   0   0  12   22.66    1.45
  -1   0 -12   11.62    1.12
  -1   0 -12   12.74    1.63
   1   0  12   12.83    0.81
   1   0  12   11.87    1.17
   1   0  12   14.69    1.38
   1   0  12   12.00    1.29
  -2   0 -12   13.43    1.78
  -2   0 -12   18.55    2.35
   2   0  12   14.34    1.51
   2   0  12   16.73    1.38
   2   0  12   16.00    1.73
  -3   0 -12    0.70    0.91
  -3   0 -12    2.38    1.29
   3   0  12    1.12    0.93
   3   0  12   -0.44    1.26
  -4   0 -12    1.06    1.35
  -4   0 -12    0.19    0.99
   4   0  12   -1.19    1.47
  -5   0 -12   -0.80    2.50
  -5   0 -12    2.52    1.90
   5   0  12    0.81    2.00
   8  -1 -12   -0.87    2.65
   8  -1 -12   -4.06    2.67
  -8   1  12    2.03    1.19
  -8   1  12    1.75    1.16
   7  -1 -12    1.74    1.98
   7  -1 -12    0.55    2.21
  -7   1  12   -0.89    0.89
  -7   1  12    0.43    0.90
   6  -1 -12    0.19    1.53
   6  -1 -12    4.50    2.20
  -6   1  12    0.71    0.70
  -6   1  12    0.71    0.82
  -6   1  12    0.69    0.70
   5  -1 -12    3.55    2.02
  -5   1  12    3.25    0.75
  -5   1  12    2.55    0.83
  -5   1  12    3.63    0.73
   4  -1 -12    5.87    1.32
   4  -1 -12    8.64    1.85
  -4   1  12    7.74    0.90
  -4   1  12    5.48    0.81
  -4   1  12    7.32    0.95
   3  -1 -12    8.65    1.29
   3  -1 -12    8.45    1.66
   3  -1 -12    9.71    1.37
  -3   1  12    9.09    0.89
  -3   1  12   10.04    0.95
  -3   1  12   10.57    0.97
   2  -1 -12   47.44    3.03
   2  -1 -12   51.19    2.67
  -2   1  12   57.40    2.02
  -2   1  12   59.07    2.15
  -2   1  12   60.16    2.14
   1  -1 -12    0.23    0.97
   1  -1 -12    0.82    0.66
   1  -1 -12    1.95    1.20
  -1   1  12    0.95    0.46
  -1   1  12    1.52    0.65
  -1   1  12    0.47    0.63
  -1   1  12    0.91    0.54
   0  -1 -12    9.30    1.35
   0  -1 -12    7.25    0.99
   0  -1 -12    9.04    1.66
   0   1  12    6.71    0.71
   0   1  12    8.19    1.05
   0   1  12   10.19    1.16
   0   1  12    8.12    1.11
  -1  -1 -12   -0.20    1.04
  -1  -1 -12    0.43    0.61
   1   1  12    0.05    0.41
   1   1  12   -0.14    0.71
   1   1  12    0.32    0.79
   1   1  12    0.18    0.74
  -2  -1 -12    0.86    1.38
  -2  -1 -12    0.42    0.84
   2   1  12    1.72    1.05
   2   1  12   -1.06    1.53
   2   1  12    0.71    0.83
  -3  -1 -12   -0.17    1.23
  -3  -1 -12   -1.55    0.90
   3   1  12   -0.94    1.54
  -4  -1 -12    9.40    1.81
  -4  -1 -12    8.77    1.48
   4   1  12    8.03    1.64
   4   1  12    9.04    1.96
  -8   2  12    1.58    1.26
  -8   2  12   -0.12    1.16
   7  -2 -12    7.75    2.51
  -7   2  12    3.91    1.23
  -7   2  12    3.78    1.01
   6  -2 -12    8.50    2.35
  -6   2  12    5.78    0.90
  -6   2  12    4.89    1.01
  -6   2  12    5.30    0.94
   5  -2 -12    2.20    1.44
  -5   2  12    1.01    0.65
  -5   2  12    1.62    0.67
   4  -2 -12    4.06    1.79
   4  -2 -12    5.48    1.33
  -4   2  12    5.01    0.73
  -4   2  12    4.90    0.85
  -4   2  12    4.76    0.81
   3  -2 -12    2.74    1.09
   3  -2 -12    3.79    1.43
   3  -2 -12   -0.97    0.99
  -3   2  12    1.12    0.63
  -3   2  12    0.88    0.54
  -3   2  12    0.51    0.54
   2  -2 -12    2.84    1.18
   2  -2 -12    2.28    1.33
   2  -2 -12    0.65    1.05
  -2   2  12    0.94    0.63
  -2   2  12    1.00    0.72
  -2   2  12    1.54    0.64
  -2   2  12    2.25    0.60
   1  -2 -12    1.33    0.68
   1  -2 -12    3.62    1.33
   1  -2 -12    1.27    1.10
  -1   2  12    2.70    0.56
  -1   2  12    2.12    0.71
  -1   2  12    2.88    0.68
  -1   2  12    3.21    0.74
   0  -2 -12    1.97    1.43
   0  -2 -12    1.25    1.08
   0  -2 -12    2.61    0.70
   0   2  12    2.42    0.84
   0   2  12    1.18    0.77
   0   2  12    1.65    0.49
   0   2  12    1.73    0.70
  -1  -2 -12    4.92    0.91
  -1  -2 -12    6.06    1.60
  -1  -2 -12    2.68    1.33
   1   2  12    3.61    1.02
   1   2  12    4.54    0.98
   1   2  12    4.27    0.59
   1   2  12    4.20    1.19
  -2  -2 -12    2.25    0.99
  -2  -2 -12    5.50    1.38
   2   2  12    4.02    1.20
  -3  -2 -12    1.26    1.03
  -3  -2 -12    3.40    1.55
  -3  -2 -12    0.77    1.00
   3   2  12   -0.24    1.06
  -4  -2 -12    4.84    1.75
  -4  -2 -12    1.94    1.34
  -4  -2 -12    1.36    1.12
   4   2  12   -3.11    1.69
   4   2  12    0.24    1.49
   7  -3 -12   -0.21    2.57
  -7   3  12    0.98    0.99
  -7   3  12   -0.54    1.02
   6  -3 -12    1.35    2.23
  -6   3  12    3.33    0.99
  -6   3  12    0.65    0.77
   5  -3 -12    2.73    1.95
   5  -3 -12    1.91    1.62
  -5   3  12    0.82    0.64
  -5   3  12    2.54    0.86
  -5   3  12    1.45    0.69
   4  -3 -12    5.36    1.56
  -4   3  12    3.24    1.16
  -4   3  12    2.65    0.83
  -4   3  12    2.10    0.80
   3  -3 -12    4.17    1.39
   3  -3 -12    5.41    1.95
  -3   3  12    6.44    0.86
  -3   3  12    5.68    0.89
  -3   3  12    4.86    0.79
   2  -3 -12    8.31    2.02
   2  -3 -12   11.19    1.78
   2  -3 -12    7.25    1.39
  -2   3  12    7.17    0.80
  -2   3  12    8.68    0.94
  -2   3  12    7.24    0.94
   1  -3 -12    7.41    0.95
   1  -3 -12    7.66    1.49
   1  -3 -12   11.74    2.14
  -1   3  12    9.50    1.06
  -1   3  12   10.65    1.26
  -1   3  12    9.64    0.89
   0  -3 -12    3.09    1.33
   0  -3 -12    3.93    0.81
   0  -3 -12    5.01    1.84
   0   3  12    4.69    0.63
   0   3  12    4.04    0.95
   0   3  12    3.59    0.88
  -1  -3 -12    9.32    2.17
  -1  -3 -12    5.62    1.54
  -1  -3 -12    9.73    1.36
  -1  -3 -12    6.13    1.05
   1   3  12    5.54    1.12
   1   3  12    6.41    0.72
  -2  -3 -12   -0.87    0.97
  -2  -3 -12    1.34    0.85
  -2  -3 -12   -3.32    2.44
  -2  -3 -12    0.24    1.34
   2   3  12    0.75    1.06
  -3  -3 -12   -0.26    1.03
  -3  -3 -12    0.58    1.64
  -3  -3 -12   -1.69    2.63
  -3  -3 -12   -0.07    1.15
   3   3  12    1.11    1.23
  -4  -3 -12   -0.69    2.08
  -4  -3 -12   -2.98    1.56
  -4  -3 -12    1.21    1.26
   4   3  12   -0.65    1.65
   7  -4 -12    1.11    3.12
  -7   4  12   -0.37    1.06
  -7   4  12    0.20    1.04
   6  -4 -12    1.36    2.67
  -6   4  12   -0.27    0.99
  -6   4  12    1.41    0.86
   5  -4 -12    2.81    2.01
   5  -4 -12    1.10    1.93
  -5   4  12    2.04    0.85
  -5   4  12    3.01    0.79
   4  -4 -12    1.94    1.73
   4  -4 -12    0.52    2.00
  -4   4  12    0.09    0.64
  -4   4  12    0.56    0.78
   3  -4 -12    2.17    1.58
  -3   4  12    1.42    1.05
  -3   4  12    2.85    0.74
   2  -4 -12    0.27    1.54
   2  -4 -12    3.29    1.42
   2  -4 -12    2.46    2.06
  -2   4  12    4.86    0.90
  -2   4  12    5.25    0.78
   1  -4 -12    0.88    0.79
   1  -4 -12   -0.01    1.52
   1  -4 -12    2.06    1.96
  -1   4  12    0.31    0.58
  -1   4  12   -1.56    0.85
  -1   4  12   -0.23    1.03
   0  -4 -12    2.11    1.39
   0  -4 -12    0.67    1.88
   0  -4 -12    1.96    0.84
   0   4  12    1.93    0.63
   0   4  12    4.18    1.00
  -1  -4 -12    2.63    1.49
  -1  -4 -12    1.06    1.47
   1   4  12    0.50    1.01
  -2  -4 -12   -0.56    1.02
  -2  -4 -12    1.95    1.71
  -2  -4 -12   -2.25    2.22
   2   4  12    0.84    1.14
  -3  -4 -12   -1.72    1.81
  -3  -4 -12   -0.12    1.19
   3   4  12   -0.72    1.40
   7  -5 -12   11.02    3.54
  -7   5  12    0.19    1.19
  -7   5  12    1.17    1.27
   6  -5 -12    2.34    2.59
  -6   5  12    1.62    0.99
  -6   5  12    0.75    1.03
   5  -5 -12    6.54    3.25
   5  -5 -12   -1.01    2.10
  -5   5  12    2.36    0.96
  -5   5  12    0.30    0.81
   4  -5 -12    0.59    2.36
  -4   5  12    0.42    0.84
  -4   5  12   -0.32    0.68
   3  -5 -12    1.08    1.93
   3  -5 -12    0.69    1.92
  -3   5  12    1.47    0.84
  -3   5  12   -0.33    0.67
   2  -5 -12   -1.79    2.50
  -2   5  12    0.96    0.97
  -2   5  12    0.12    0.65
  -2   5  12    2.08    0.95
   1  -5 -12    2.20    2.24
   1  -5 -12    1.23    0.93
   1  -5 -12    0.54    1.44
  -1   5  12    0.56    1.00
   0  -5 -12    0.00    1.58
   0  -5 -12    1.80    1.03
   0  -5 -12    3.54    2.16
   0   5  12    3.49    1.11
   0   5  12    2.94    0.74
  -1  -5 -12    2.09    1.11
  -1  -5 -12    3.46    1.76
   1   5  12    4.62    1.23
  -2  -5 -12   -0.12    1.18
  -2  -5 -12    2.63    1.95
   2   5  12    3.56    1.45
   6  -6 -12    0.36    3.19
   6  -6 -12    2.02    3.44
  -6   6  12   -0.94    1.06
  -6   6  12   -0.22    1.15
   5  -6 -12    2.56    2.67
   5  -6 -12   -2.40    2.48
  -5   6  12    1.79    0.88
  -5   6  12    1.39    1.11
   4  -6 -12    3.42    2.66
   4  -6 -12    4.85    2.52
  -4   6  12    0.89    0.83
  -4   6  12    3.10    1.06
   3  -6 -12    1.79    2.52
   3  -6 -12    5.04    2.20
  -3   6  12   -0.19    0.72
  -3   6  12    0.50    1.05
   2  -6 -12   -0.11    2.43
   2  -6 -12    0.45    1.87
  -2   6  12    1.29    0.73
  -2   6  12    2.33    1.08
   1  -6 -12    4.56    1.79
   1  -6 -12    2.02    3.97
   1  -6 -12    0.19    1.43
  -1   6  12    0.52    1.04
  -1   6  12    1.09    0.70
   0  -6 -12    2.32    2.80
   0  -6 -12   -0.33    1.16
   0  -6 -12    0.20    1.73
   0   6  12   -0.37    0.76
   0   6  12   -0.54    1.13
  -1  -6 -12    2.13    2.91
  -1  -6 -12    0.21    1.25
  -1  -6 -12   -1.89    1.90
   1   6  12   -0.07    1.30
  -2  -6 -12    2.54    2.28
  -2  -6 -12   -1.24    1.39
   2   6  12    1.27    1.78
   5  -7 -12    1.24    3.56
   5  -7 -12    4.76    3.39
  -5   7  12    0.54    1.06
  -5   7  12    1.45    1.24
   4  -7 -12    1.48    2.95
   4  -7 -12    5.18    2.88
  -4   7  12    0.56    1.13
  -4   7  12    1.18    0.90
   3  -7 -12   -1.45    2.31
   3  -7 -12   -0.80    2.94
  -3   7  12    1.43    1.15
  -3   7  12    1.46    0.92
   2  -7 -12   -3.73    2.13
   2  -7 -12   -2.10    3.05
  -2   7  12    0.84    1.18
  -2   7  12   -0.87    0.73
   1  -7 -12   -0.01    2.17
   1  -7 -12    2.62    3.10
  -1   7  12   -1.47    0.80
  -1   7  12    0.37    1.28
   0  -7 -12   -3.00    3.23
   0  -7 -12    0.89    1.68
   0   7  12    1.93    1.39
   0   7  12   -1.82    0.84
  -1  -7 -12    2.30    1.43
   1   7  12    0.83    1.83
   4  -8 -12    2.42    3.72
   4  -8 -12    9.41    3.68
  -4   8  12    1.76    1.21
  -4   8  12    3.42    1.49
   3  -8 -12    2.89    3.81
   3  -8 -12    0.07    3.08
  -3   8  12    1.22    1.09
  -3   8  12    3.16    1.51
   2  -8 -12    1.65    3.50
   2  -8 -12    0.98    3.01
  -2   8  12   -1.84    1.45
  -2   8  12   -1.03    0.91
   1  -8 -12    3.73    2.84
  -1   8  12    0.07    0.96
  -1   8  12    0.33    1.56
   2  13 -13    0.60    1.90
  -2 -13  13    1.36    0.99
  -2 -13  13    1.43    2.14
  -2 -13  13    2.73    1.47
   1  13 -13    0.50    1.62
  -1 -13  13    2.97    1.27
  -1 -13  13    1.89    2.05
   0  13 -13    0.65    1.67
   0 -13  13    0.64    1.26
   0 -13  13    8.62    2.17
  -1  13 -13   -1.31    1.26
  -1  13 -13    3.89    1.64
   1 -13  13    0.89    1.44
   1 -13  13   -0.13    1.63
   1 -13  13    0.69    2.34
   4  12 -13    0.14    3.71
  -4 -12  13    2.18    1.35
  -4 -12  13    1.67    1.20
  -4 -12  13   -0.24    1.21
   3  12 -13    1.07    1.88
  -3 -12  13   -1.03    0.87
  -3 -12  13   -1.29    1.47
  -3 -12  13    0.92    1.12
  -3 -12  13    2.46    1.74
   2  12 -13    1.77    1.47
  -2 -12  13    1.10    1.05
  -2 -12  13    0.91    1.67
  -2 -12  13    1.78    0.89
   1  12 -13    1.45    1.27
  -1 -12  13   -0.17    1.68
  -1 -12  13    1.34    1.07
  -1 -12  13    0.92    0.94
   0  12 -13    1.48    1.31
   0 -12  13    0.07    0.96
   0 -12  13    4.64    1.84
   0 -12  13    2.43    1.15
  -1  12 -13    0.75    1.24
  -1  12 -13    1.09    1.17
   1 -12  13    0.34    1.18
   1 -12  13    2.77    1.23
   1 -12  13    1.12    2.00
  -2  12 -13   -1.38    1.43
  -2  12 -13    1.86    1.24
   2 -12  13   -1.24    1.96
   2 -12  13   -2.02    1.59
   5  11 -13   -3.68    2.33
   4  11 -13    1.17    1.99
   4  11 -13   -2.35    1.88
  -4 -11  13    0.55    0.98
  -4 -11  13   -0.20    0.92
  -4 -11  13    1.04    1.06
   3  11 -13    4.55    1.52
   3  11 -13    1.10    1.71
  -3 -11  13    2.27    0.98
  -3 -11  13    0.96    0.80
  -3 -11  13   -2.24    2.24
  -3 -11  13    1.08    0.91
   2  11 -13   -0.74    1.27
  -2 -11  13   -0.78    0.91
  -2 -11  13    0.43    1.07
  -2 -11  13    1.40    0.80
  -2 -11  13    0.77    1.46
   1  11 -13    5.33    1.39
  -1 -11  13    7.21    1.65
  -1 -11  13    6.04    0.96
  -1 -11  13    4.51    1.06
   0  11 -13    0.88    1.25
   0 -11  13    2.28    0.85
   0 -11  13    0.85    0.99
   0 -11  13    1.87    1.52
  -1  11 -13    1.46    1.00
  -1  11 -13    1.00    1.11
   1 -11  13    3.20    1.85
   1 -11  13    0.89    0.93
   1 -11  13    1.42    1.11
  -2  11 -13    0.30    1.35
  -2  11 -13   -1.76    1.03
   2 -11  13   -1.20    1.32
   2 -11  13    0.20    1.71
  -3  11 -13    1.52    1.51
  -3  11 -13    0.95    1.36
   3 -11  13    2.96    1.96
   3 -11  13    0.97    1.78
   5  10 -13   -2.03    1.91
  -5 -10  13   -0.43    1.03
  -5 -10  13   -1.58    0.97
   4  10 -13    2.19    1.73
   4  10 -13    1.88    1.76
  -4 -10  13    0.71    0.99
  -4 -10  13   -1.12    0.87
  -4 -10  13    0.93    0.83
   3  10 -13    0.69    1.38
   3  10 -13   -0.44    1.55
  -3 -10  13    0.15    0.78
  -3 -10  13    1.38    0.81
  -3 -10  13   -1.43    1.33
  -3 -10  13    0.98    0.85
   2  10 -13    0.76    1.27
  -2 -10  13    1.65    1.61
  -2 -10  13    0.98    0.75
  -2 -10  13    0.24    0.87
  -2 -10  13   -0.65    0.69
   1  10 -13    4.68    1.32
   1  10 -13    3.68    0.92
  -1 -10  13    1.27    0.84
  -1 -10  13    1.37    1.17
  -1 -10  13    1.14    0.88
   0  10 -13    2.80    1.31
   0  10 -13    2.20    0.93
   0 -10  13    1.45    0.89
   0 -10  13    3.33    1.40
   0 -10  13    2.47    1.87
  -1  10 -13    1.22    0.94
  -1  10 -13    0.06    1.10
   1 -10  13    0.81    0.90
  -2  10 -13    2.02    1.08
  -2  10 -13   -0.14    1.10
   2 -10  13    1.09    1.61
   2 -10  13    0.96    0.98
   2 -10  13    1.32    1.24
  -3  10 -13    2.27    1.39
  -3  10 -13    1.57    1.25
   3 -10  13    0.74    1.63
   3 -10  13    1.90    1.76
  -4  10 -13    1.62    1.52
  -4  10 -13    4.64    1.72
  -4  10 -13    1.15    1.78
   4 -10  13   -3.16    1.96
   4 -10  13    1.12    2.32
   6   9 -13   -2.80    2.14
  -6  -9  13    0.02    1.14
  -6  -9  13   -1.04    1.07
  -6  -9  13    0.35    1.33
   5   9 -13   -3.68    2.11
   5   9 -13    1.43    1.76
  -5  -9  13   -0.07    0.96
  -5  -9  13   -2.02    0.95
  -5  -9  13   -0.71    0.80
   4   9 -13   -2.02    1.60
   4   9 -13    2.01    1.59
  -4  -9  13    0.43    0.74
  -4  -9  13   -0.37    0.77
   3   9 -13    2.08    1.21
   3   9 -13   -0.92    1.39
  -3  -9  13    1.06    0.80
  -3  -9  13    0.31    0.93
  -3  -9  13    1.22    0.74
  -3  -9  13    1.33    0.74
   2   9 -13    1.94    1.99
   2   9 -13    3.60    1.05
  -2  -9  13    3.45    1.45
  -2  -9  13    3.16    1.00
  -2  -9  13    2.88    0.68
   1   9 -13    2.22    1.10
   1   9 -13    1.45    0.79
  -1  -9  13    1.88    0.58
  -1  -9  13    2.17    0.96
  -1  -9  13    1.56    0.77
   0   9 -13    4.78    1.27
   0   9 -13    4.60    0.93
   0  -9  13    3.77    0.93
   0  -9  13    5.35    1.20
   0  -9  13    4.58    0.93
  -1   9 -13    0.75    1.03
  -1   9 -13   -0.26    1.37
   1  -9  13    1.35    1.15
   1  -9  13    1.66    0.83
  -2   9 -13    1.61    0.95
  -2   9 -13    2.44    1.10
   2  -9  13    2.01    1.02
   2  -9  13    1.09    1.09
  -3   9 -13    0.72    1.24
  -3   9 -13   -0.56    0.95
  -3   9 -13    2.28    1.15
   3  -9  13    0.30    1.54
   3  -9  13   -1.23    1.17
   3  -9  13    0.08    1.36
  -4   9 -13   -1.80    1.43
  -4   9 -13   -0.39    1.47
  -4   9 -13    0.87    1.35
   4  -9  13    1.64    1.76
   4  -9  13    0.20    1.94
   6   8 -13    0.21    1.89
  -6  -8  13   -0.08    1.03
  -6  -8  13   -0.58    1.09
  -6  -8  13    0.21    0.93
   5   8 -13    0.34    1.69
  -5  -8  13    3.12    0.93
  -5  -8  13    2.32    0.94
  -5  -8  13    2.48    0.83
   4   8 -13    0.41    1.36
   4   8 -13   -0.34    1.71
  -4  -8  13    0.99    0.74
  -4  -8  13    0.54    0.81
  -4  -8  13    0.24    1.34
   3   8 -13    2.00    1.40
   3   8 -13    2.44    1.14
   3   8 -13   -0.25    1.65
  -3  -8  13    2.56    1.21
  -3  -8  13    1.77    0.73
  -3  -8  13    3.51    1.37
  -3  -8  13    3.47    0.84
   2   8 -13    3.99    0.87
   2   8 -13    3.74    1.25
   2   8 -13    5.19    1.14
  -2  -8  13    4.31    0.71
  -2  -8  13    5.06    0.93
  -2  -8  13    2.58    0.84
  -2  -8  13    4.41    0.83
   1   8 -13    3.50    1.13
   1   8 -13    3.38    0.87
  -1  -8  13    2.64    0.83
  -1  -8  13    2.56    0.85
  -1  -8  13    2.44    0.55
  -1  -8  13    1.60    0.82
   0   8 -13    3.11    1.23
   0   8 -13    3.39    0.93
   0  -8  13    2.45    0.88
   0  -8  13    2.23    0.79
   0  -8  13    2.97    0.51
   0  -8  13    3.76    0.95
  -1   8 -13    4.31    1.37
  -1   8 -13    3.45    1.69
   1  -8  13    5.48    0.93
   1  -8  13    2.56    1.01
  -2   8 -13    0.56    0.97
  -2   8 -13    0.39    1.47
  -2   8 -13   -0.46    0.95
   2  -8  13   -1.17    1.14
   2  -8  13    0.30    1.05
   2  -8  13   -0.25    1.44
  -3   8 -13    1.60    1.16
  -3   8 -13    4.20    1.33
  -3   8 -13    3.03    0.99
   3  -8  13    1.32    1.47
   3  -8  13    2.38    1.32
   3  -8  13    2.17    1.12
  -4   8 -13    0.68    1.47
  -4   8 -13    2.23    1.54
  -4   8 -13    0.20    1.17
   4  -8  13   -1.34    1.37
   4  -8  13   -0.90    1.69
   4  -8  13    0.97    1.65
   7   7 -13   -2.71    2.31
  -7  -7  13    0.42    1.38
  -7  -7  13    0.47    1.16
   6   7 -13   -1.28    1.75
  -6  -7  13    0.99    1.01
  -6  -7  13    2.15    1.02
  -6  -7  13    1.81    1.07
   5   7 -13    3.99    1.67
  -5  -7  13    4.45    0.96
  -5  -7  13    2.96    0.85
   4   7 -13    0.00    1.39
   4   7 -13    0.10    1.25
   4   7 -13    1.52    1.58
  -4  -7  13    0.48    0.73
  -4  -7  13    0.85    0.72
   3   7 -13   -3.48    1.45
   3   7 -13   -0.19    1.23
   3   7 -13    2.12    1.12
  -3  -7  13   -0.06    0.65
  -3  -7  13    0.80    0.64
  -3  -7  13    0.48    0.65
  -3  -7  13   -0.09    0.70
   2   7 -13    1.28    0.93
   2   7 -13   -0.27    0.76
   2   7 -13    1.45    1.07
  -2  -7  13    1.19    0.58
  -2  -7  13    1.82    0.73
  -2  -7  13    0.32    0.60
  -2  -7  13    0.76    0.62
   1   7 -13    3.12    1.09
   1   7 -13    5.27    0.92
  -1  -7  13    5.03    0.66
  -1  -7  13    5.30    0.92
  -1  -7  13    5.68    0.87
  -1  -7  13    5.82    0.79
   0   7 -13    0.93    1.10
   0   7 -13    2.31    0.85
   0  -7  13    2.51    0.82
   0  -7  13    1.91    0.84
   0  -7  13    1.47    0.74
   0  -7  13    1.47    0.44
  -1   7 -13   15.99    1.23
  -1   7 -13   20.03    1.70
  -1   7 -13   15.86    1.75
   1  -7  13   18.68    2.50
   1  -7  13   18.20    1.45
  -2   7 -13    7.76    1.28
  -2   7 -13    6.06    1.72
  -2   7 -13    6.67    1.03
   2  -7  13    8.04    1.50
   2  -7  13    6.93    1.13
   2  -7  13    7.26    1.18
  -3   7 -13    3.29    1.23
  -3   7 -13    0.67    1.28
  -3   7 -13    2.51    0.98
   3  -7  13   -0.74    1.27
   3  -7  13    2.25    1.06
   3  -7  13    1.65    1.58
  -4   7 -13    0.03    1.10
  -4   7 -13    0.52    1.52
  -4   7 -13   -1.54    1.28
   4  -7  13   -0.34    1.37
   4  -7  13   -3.27    1.28
   4  -7  13   -0.31    1.68
   7   6 -13   -1.33    2.36
  -7  -6  13    0.25    1.21
  -7  -6  13    1.23    1.08
   6   6 -13   -1.17    1.71
  -6  -6  13    1.14    0.81
  -6  -6  13    0.97    1.13
  -6  -6  13    1.71    0.96
   5   6 -13    1.17    1.53
  -5  -6  13    1.86    0.69
  -5  -6  13    1.91    0.74
  -5  -6  13    1.34    0.86
   4   6 -13    0.83    1.37
   4   6 -13    0.90    1.27
   4   6 -13    3.50    1.64
  -4  -6  13    1.20    0.78
  -4  -6  13    1.42    0.60
  -4  -6  13    2.00    0.89
   3   6 -13    9.72    1.55
   3   6 -13    9.68    1.33
   3   6 -13    5.93    1.75
  -3  -6  13    9.65    1.03
  -3  -6  13    9.88    1.14
  -3  -6  13   10.04    1.11
   2   6 -13    9.96    1.39
   2   6 -13   10.37    1.71
   2   6 -13   11.28    1.26
  -2  -6  13    9.47    1.03
  -2  -6  13   10.47    1.05
  -2  -6  13    7.82    1.00
   1   6 -13   10.04    1.34
   1   6 -13    9.18    1.19
   1   6 -13    7.36    1.23
   1   6 -13    8.37    0.93
  -1  -6  13    7.80    1.01
  -1  -6  13    8.82    0.99
  -1  -6  13    7.71    0.85
  -1  -6  13   10.74    1.19
   0   6 -13    5.70    0.68
   0   6 -13    5.56    1.01
   0   6 -13    5.89    1.24
   0  -6  13    5.07    0.79
   0  -6  13    4.51    0.88
   0  -6  13    5.32    0.68
  -1   6 -13    2.06    0.60
  -1   6 -13   -0.05    0.85
  -1   6 -13   -0.21    0.91
   1  -6  13    0.34    0.40
   1  -6  13    0.95    0.76
   1  -6  13    0.22    0.84
   1  -6  13    0.85    0.73
  -2   6 -13   -1.97    1.07
  -2   6 -13   -0.33    0.71
   2  -6  13   -0.55    0.88
   2  -6  13   -0.41    1.04
   2  -6  13    1.30    0.89
  -3   6 -13   -0.61    1.24
  -3   6 -13    2.50    1.17
  -3   6 -13   -0.23    0.88
   3  -6  13   -1.34    1.16
   3  -6  13    1.42    1.20
   3  -6  13   -0.83    1.05
  -4   6 -13    2.10    1.61
  -4   6 -13    3.65    1.73
  -4   6 -13    4.69    1.43
   4  -6  13    0.70    1.65
   4  -6  13    1.31    1.50
  -5   6 -13    2.74    1.61
  -5   6 -13    2.51    2.01
   5  -6  13    3.22    2.41
   5  -6  13   -1.33    2.24
   7   5 -13    0.13    2.30
  -7  -5  13    1.28    1.21
  -7  -5  13    1.39    0.99
   6   5 -13    1.84    1.65
  -6  -5  13    2.42    1.28
  -6  -5  13    1.44    0.82
  -6  -5  13    2.16    0.95
   5   5 -13   12.84    2.02
   5   5 -13   10.64    1.77
  -5  -5  13    6.67    0.91
  -5  -5  13    8.08    1.08
  -5  -5  13    9.34    1.04
   4   5 -13    6.48    1.44
   4   5 -13    9.17    1.85
  -4  -5  13    5.26    0.73
  -4  -5  13    5.74    0.91
  -4  -5  13    4.93    0.82
   3   5 -13    1.81    1.02
   3   5 -13    0.62    1.03
   3   5 -13    3.64    1.52
  -3  -5  13    1.78    0.61
  -3  -5  13    1.26    0.59
  -3  -5  13    1.63    0.62
   2   5 -13    0.26    0.66
   2   5 -13   -0.77    0.91
   2   5 -13   -1.35    0.81
  -2  -5  13   -0.67    0.53
  -2  -5  13   -1.12    0.52
  -2  -5  13   -0.06    0.50
   1   5 -13    2.81    0.93
   1   5 -13    3.33    0.56
   1   5 -13    3.71    0.93
   1   5 -13    3.79    0.89
  -1  -5  13    3.18    0.59
  -1  -5  13    3.84    0.77
  -1  -5  13    3.65    0.72
   0   5 -13    4.29    1.10
   0   5 -13    3.13    0.59
   0   5 -13    2.25    0.96
   0  -5  13    4.42    0.58
   0  -5  13    4.42    0.76
  -1   5 -13   11.88    1.48
  -1   5 -13    9.22    1.05
  -1   5 -13   11.75    1.49
   1  -5  13   10.02    1.23
   1  -5  13    9.48    1.09
   1  -5  13   10.69    1.44
   1  -5  13    8.72    0.79
  -2   5 -13   20.27    2.81
  -2   5 -13   21.19    1.56
  -2   5 -13   17.77    1.83
   2  -5  13   19.64    1.52
   2  -5  13   20.40    1.69
   2  -5  13   20.27    2.49
  -3   5 -13   12.70    2.00
  -3   5 -13    8.25    1.55
  -3   5 -13   11.82    1.53
   3  -5  13    8.71    1.33
   3  -5  13   11.26    1.46
   3  -5  13   10.87    1.75
  -4   5 -13    1.63    1.40
  -4   5 -13    1.84    1.68
  -4   5 -13    4.37    1.19
   4  -5  13    3.75    1.62
   4  -5  13    2.28    1.37
  -5   5 -13    0.69    1.50
  -5   5 -13    2.56    1.91
   5  -5  13   -2.00    1.67
   5  -5  13    2.23    2.22
   7   4 -13    1.48    2.21
  -7  -4  13    0.09    0.91
  -7  -4  13    1.07    1.08
   6   4 -13    0.31    1.81
   6   4 -13    3.35    1.75
  -6  -4  13    1.96    0.79
  -6  -4  13    0.63    0.87
   5   4 -13    0.53    1.42
   5   4 -13    1.39    1.59
  -5  -4  13    0.39    0.75
  -5  -4  13    0.51    0.53
   4   4 -13    1.34    1.49
   4   4 -13   -0.34    1.16
  -4  -4  13    1.77    0.56
  -4  -4  13    1.20    0.66
  -4  -4  13    1.90    0.67
   3   4 -13    2.73    0.97
   3   4 -13    4.58    1.11
   3   4 -13    6.11    1.24
   3   4 -13    5.34    1.78
  -3  -4  13    4.09    0.67
  -3  -4  13    6.00    0.78
  -3  -4  13    6.87    0.75
   2   4 -13   10.84    1.29
   2   4 -13   10.08    1.39
   2   4 -13   11.03    1.48
  -2  -4  13   10.93    0.93
  -2  -4  13   12.20    1.01
  -2  -4  13   12.44    1.06
   1   4 -13   10.45    0.76
   1   4 -13    9.24    1.15
   1   4 -13    7.80    1.19
  -1  -4  13   10.88    0.91
  -1  -4  13    9.29    1.02
   0   4 -13   10.05    1.37
   0   4 -13   12.90    1.46
   0   4 -13   11.06    0.91
   0  -4  13   11.40    1.10
   0  -4  13   12.07    0.85
  -1   4 -13    6.78    1.21
  -1   4 -13    4.57    0.71
  -1   4 -13    4.65    1.05
   1  -4  13    4.85    0.98
   1  -4  13    5.56    0.94
   1  -4  13    5.65    0.72
   1  -4  13    4.60    0.85
  -2   4 -13   -0.20    0.70
  -2   4 -13    0.48    1.05
  -2   4 -13    0.60    1.16
   2  -4  13   -0.05    0.87
   2  -4  13    1.39    0.57
   2  -4  13    0.67    0.98
   2  -4  13    0.48    0.76
  -3   4 -13    1.08    1.25
  -3   4 -13    0.94    0.91
  -3   4 -13    0.45    1.97
   3  -4  13   -0.84    0.95
   3  -4  13    0.86    1.28
   3  -4  13   -0.03    0.97
  -4   4 -13   -0.19    1.05
  -4   4 -13    0.82    1.39
   4  -4  13    1.04    1.33
   4  -4  13   -0.44    1.63
  -5   4 -13    5.33    1.65
  -5   4 -13    1.19    1.96
   5  -4  13    4.94    2.25
   8   3 -13   -4.61    3.07
   7   3 -13   -1.20    1.94
  -7  -3  13    0.50    0.86
  -7  -3  13    0.91    1.06
   6   3 -13    8.21    2.24
   6   3 -13    5.16    1.90
  -6  -3  13    3.87    1.01
  -6  -3  13    3.42    0.87
   5   3 -13    5.30    1.99
   5   3 -13    5.69    1.56
  -5  -3  13    3.55    1.43
  -5  -3  13    4.43    0.82
   4   3 -13   11.35    1.61
   4   3 -13    8.51    1.99
   4   3 -13   11.46    1.35
  -4  -3  13    9.12    1.14
  -4  -3  13    8.47    0.91
  -4  -3  13    8.97    1.03
   3   3 -13   24.20    1.78
   3   3 -13   16.25    2.20
  -3  -3  13   22.10    1.19
  -3  -3  13   21.71    1.34
  -3  -3  13   24.26    1.31
   2   3 -13    2.56    0.88
   2   3 -13    4.36    1.08
   2   3 -13    4.93    1.13
  -2  -3  13    4.14    0.72
  -2  -3  13    3.75    0.68
   1   3 -13    0.12    0.72
   1   3 -13   -1.87    0.73
   1   3 -13    0.31    0.40
  -1  -3  13    0.30    0.49
  -1  -3  13    0.75    0.58
   0   3 -13    5.09    0.66
   0   3 -13    3.82    0.96
   0   3 -13    4.45    1.02
   0  -3  13    5.20    0.86
   0  -3  13    4.11    0.60
  -1   3 -13    3.70    0.70
  -1   3 -13    2.90    1.02
  -1   3 -13    3.67    1.11
   1  -3  13    4.04    0.84
   1  -3  13    5.31    0.68
   1  -3  13    3.87    0.93
   1  -3  13    3.31    0.47
  -2   3 -13    2.54    0.75
  -2   3 -13    3.85    1.13
   2  -3  13    2.55    1.18
   2  -3  13    1.22    1.58
   2  -3  13    1.24    0.63
  -3   3 -13   19.75    2.03
  -3   3 -13   20.28    1.80
  -3   3 -13   17.65    1.88
   3  -3  13   17.58    2.23
   3  -3  13   16.02    1.83
  -4   3 -13    6.12    1.24
  -4   3 -13    9.06    1.77
   4  -3  13    8.37    1.95
  -5   3 -13    2.74    2.04
  -5   3 -13    2.04    1.58
   5  -3  13    4.47    2.18
   8   2 -13    1.69    3.16
  -8  -2  13    0.99    1.36
  -8  -2  13    1.10    1.14
   7   2 -13    6.72    2.18
   7   2 -13    0.43    2.46
  -7  -2  13    0.39    1.04
  -7  -2  13    0.36    0.86
   6   2 -13    0.82    1.80
   6   2 -13    0.82    2.04
  -6  -2  13    1.18    0.80
  -6  -2  13    0.29    0.89
   5   2 -13    1.88    1.95
   5   2 -13    4.14    1.68
  -5  -2  13    2.62    0.80
   4   2 -13   -1.24    1.66
   4   2 -13    3.25    1.06
   4   2 -13    2.01    1.15
  -4  -2  13    2.02    0.66
  -4  -2  13    1.45    0.66
   3   2 -13    0.30    0.98
   3   2 -13   -0.73    0.94
  -3  -2  13    0.34    0.56
  -3  -2  13    0.16    0.58
   2   2 -13    3.04    1.38
   2   2 -13    7.98    1.21
  -2  -2  13    6.86    0.90
  -2  -2  13    7.65    0.94
   1   2 -13    8.45    0.77
   1   2 -13    6.72    1.15
  -1  -2  13    6.65    0.84
  -1  -2  13    8.93    0.90
   0   2 -13    6.14    1.10
   0   2 -13    5.15    1.05
   0   2 -13    5.20    0.70
   0  -2  13    5.56    0.61
   0  -2  13    6.60    0.95
   0  -2  13    6.09    0.83
   0  -2  13    5.40    0.91
  -1   2 -13   15.22    1.28
  -1   2 -13   20.96    1.64
  -1   2 -13   20.39    1.82
   1  -2  13   17.98    1.47
   1  -2  13   20.86    1.22
   1  -2  13   20.82    1.59
   1  -2  13   19.58    0.94
  -2   2 -13    1.23    1.05
  -2   2 -13    0.38    1.15
  -2   2 -13   -0.71    0.72
   2  -2  13   -0.64    1.01
   2  -2  13    0.45    0.93
   2  -2  13   -0.37    0.61
  -3   2 -13   -1.91    1.22
  -3   2 -13   -0.19    0.90
   3  -2  13    0.80    1.07
   3  -2  13   -2.70    1.18
  -4   2 -13    0.16    1.06
  -4   2 -13   -2.11    1.37
   4  -2  13   -0.54    1.68
   8   1 -13    0.69    2.82
  -8  -1  13    2.42    1.31
  -8  -1  13    2.13    1.17
   7   1 -13    5.29    2.49
   7   1 -13    0.96    2.02
  -7  -1  13    0.62    1.01
  -7  -1  13    0.30    0.89
   6   1 -13   -0.49    1.52
   6   1 -13    1.24    2.32
  -6  -1  13    0.37    0.81
  -6  -1  13    1.49    1.39
   5   1 -13    2.81    2.06
   5   1 -13    1.95    1.46
  -5  -1  13    3.44    0.77
  -5  -1  13    2.62    1.52
   4   1 -13    7.12    2.16
   4   1 -13    9.08    1.25
   4   1 -13    7.45    1.45
  -4  -1  13    8.58    1.03
  -4  -1  13    9.93    1.19
   3   1 -13   11.30    1.47
   3   1 -13   13.05    2.29
  -3  -1  13   14.94    1.16
  -3  -1  13   15.26    1.14
   2   1 -13   18.68    2.09
   2   1 -13   16.00    1.72
  -2  -1  13   19.77    1.25
  -2  -1  13   19.94    1.23
   1   1 -13    8.19    1.30
   1   1 -13    7.58    0.86
  -1  -1  13   10.72    1.10
  -1  -1  13    8.90    0.78
  -1  -1  13    8.73    0.98
   0   1 -13   -0.35    0.53
   0   1 -13    0.98    1.01
   0  -1  13    0.23    0.66
   0  -1  13    0.67    0.52
   0  -1  13   -0.65    0.59
   0  -1  13    0.88    0.38
  -1   1 -13    0.55    0.62
  -1   1 -13   -0.51    1.04
   1  -1  13   -0.80    0.83
   1  -1  13   -0.36    0.78
   1  -1  13    0.79    0.61
  -2   1 -13    0.15    0.79
  -2   1 -13    2.54    1.15
   2  -1  13    2.33    0.72
   2  -1  13   -0.09    1.07
   2  -1  13    0.39    0.95
  -3   1 -13   -0.10    0.98
  -3   1 -13    1.10    1.27
   3  -1  13    2.01    1.04
   3  -1  13   -0.54    1.36
  -4   1 -13    6.74    1.79
  -4   1 -13   12.03    1.42
   4  -1  13    8.60    1.87
   7   0 -13   -0.16    1.90
   7   0 -13    9.93    2.66
  -7   0  13    2.15    1.50
  -7   0  13    3.87    1.05
  -7   0  13    4.41    1.14
   6   0 -13    3.81    2.09
   6   0 -13    2.05    1.78
  -6   0  13    3.77    1.00
  -6   0  13    2.89    0.90
   5   0 -13    3.12    2.63
  -5   0  13    1.82    0.77
  -5   0  13    1.22    0.86
   4   0 -13    2.42    1.78
  -4   0  13    2.46    0.80
  -4   0  13    2.36    0.70
   3   0 -13    1.19    1.45
   3   0 -13   -1.07    1.02
   3   0 -13    0.23    1.00
  -3   0  13    0.67    0.58
  -3   0  13    0.54    0.62
   2   0 -13   -0.47    0.93
   2   0 -13   -0.38    1.22
  -2   0  13    0.13    0.46
  -2   0  13    0.18    0.56
  -2   0  13    0.45    0.56
   1   0 -13   11.92    1.80
   1   0 -13    8.94    1.07
   1   0 -13   11.34    1.55
  -1   0  13   11.52    1.19
  -1   0  13    8.39    0.79
  -1   0  13    9.32    1.13
  -1   0  13    8.38    1.01
   0   0 -13    3.48    0.70
   0   0 -13    3.95    1.11
   0   0  13    3.62    0.84
   0   0  13    5.22    0.79
   0   0  13    5.06    0.60
   0   0  13    3.31    0.87
  -1   0 -13    3.40    1.28
  -1   0 -13    4.51    0.82
   1   0  13    4.15    1.07
   1   0  13    4.33    0.85
   1   0  13    4.90    1.54
  -2   0 -13    4.26    1.46
  -2   0 -13    3.75    0.92
   2   0  13    3.75    1.11
   2   0  13    4.29    1.32
   2   0  13    5.20    0.99
  -3   0 -13   -0.73    1.50
  -3   0 -13   -1.18    0.91
   3   0  13    1.85    1.07
   3   0  13    1.32    1.44
  -4   0 -13    2.11    1.80
  -4   0 -13    1.71    1.26
   4   0  13   -1.61    1.68
   7  -1 -13    2.14    2.55
  -7   1  13    0.36    1.02
  -7   1  13    0.40    0.92
   6  -1 -13    3.21    2.32
  -6   1  13    4.22    0.94
  -6   1  13    3.72    1.04
  -6   1  13    3.34    1.02
   5  -1 -13    1.81    2.24
  -5   1  13    0.24    0.79
  -5   1  13    1.19    0.65
  -5   1  13    0.55    0.72
   4  -1 -13    2.00    2.12
  -4   1  13    4.30    0.75
  -4   1  13    4.97    0.84
  -4   1  13    6.34    1.02
   3  -1 -13    5.67    1.30
   3  -1 -13    2.37    2.19
   3  -1 -13    3.36    1.28
  -3   1  13    6.78    0.80
  -3   1  13    4.99    0.82
  -3   1  13    8.99    1.07
   2  -1 -13    0.65    1.16
   2  -1 -13    0.60    1.15
   2  -1 -13    0.43    1.58
  -2   1  13    3.63    0.65
  -2   1  13    1.85    0.68
  -2   1  13    2.32    0.66
   1  -1 -13   12.11    1.29
   1  -1 -13   12.52    1.68
   1  -1 -13   14.37    2.30
  -1   1  13   13.85    1.25
  -1   1  13   13.38    0.93
  -1   1  13   13.00    1.18
  -1   1  13   12.82    1.20
   0  -1 -13   11.11    1.16
   0  -1 -13   13.92    1.78
   0  -1 -13   17.54    2.61
   0   1  13   11.88    1.31
   0   1  13   15.15    1.48
   0   1  13   11.07    1.91
   0   1  13   11.06    0.88
  -1  -1 -13    3.18    1.32
  -1  -1 -13    2.68    0.81
   1   1  13    2.34    0.96
   1   1  13    2.20    1.30
   1   1  13    2.10    0.84
  -2  -1 -13    2.40    1.33
  -2  -1 -13    0.28    1.03
   2   1  13    1.18    0.89
   2   1  13   -0.21    1.46
  -3  -1 -13    0.89    1.51
  -3  -1 -13    3.50    1.08
   3   1  13    1.59    2.51
   3   1  13   -0.53    1.10
  -4  -1 -13    1.25    1.46
  -4  -1 -13    2.83    1.93
  -4  -1 -13    0.41    1.33
   4   1  13    0.43    1.98
   7  -2 -13    5.36    3.00
  -7   2  13    0.45    1.11
  -7   2  13    2.66    1.06
   6  -2 -13    3.89    2.43
  -6   2  13    2.12    0.88
  -6   2  13    2.95    1.00
   5  -2 -13    2.01    2.29
  -5   2  13    0.79    1.14
  -5   2  13    0.64    0.67
  -5   2  13    0.89    0.82
   4  -2 -13    1.50    2.16
   4  -2 -13    1.85    1.42
  -4   2  13    2.92    0.87
  -4   2  13    0.83    0.65
  -4   2  13    0.76    0.64
   3  -2 -13    4.53    1.41
   3  -2 -13    3.45    1.43
   3  -2 -13    5.50    2.49
  -3   2  13    5.96    0.94
  -3   2  13    5.60    0.87
  -3   2  13    5.66    0.79
   2  -2 -13    1.04    1.24
   2  -2 -13    2.69    1.86
   2  -2 -13    5.29    1.47
  -2   2  13    4.41    0.84
  -2   2  13    3.23    0.66
  -2   2  13    2.27    0.79
   1  -2 -13    3.46    1.93
   1  -2 -13    0.52    1.23
  -1   2  13    2.83    0.80
  -1   2  13    1.94    0.58
  -1   2  13    2.87    0.85
   0  -2 -13    0.71    0.73
   0  -2 -13    0.78    1.33
   0  -2 -13    2.85    1.81
   0   2  13    1.82    1.34
   0   2  13   -0.05    0.89
   0   2  13    2.15    0.55
  -1  -2 -13    4.42    2.16
  -1  -2 -13    3.53    1.47
  -1  -2 -13    2.01    0.88
   1   2  13    3.55    1.50
   1   2  13    0.39    0.87
   1   2  13    2.39    1.08
  -2  -2 -13   -1.21    2.30
  -2  -2 -13   -0.35    0.94
  -2  -2 -13    1.26    1.03
  -2  -2 -13    1.23    1.36
   2   2  13   -1.43    0.90
  -3  -2 -13    1.41    1.09
  -3  -2 -13   -3.22    2.61
  -3  -2 -13    2.37    1.76
  -3  -2 -13    0.42    1.15
   3   2  13    1.41    1.25
   7  -3 -13    8.02    3.71
  -7   3  13    2.70    1.20
  -7   3  13    1.94    1.16
   6  -3 -13    2.49    2.72
  -6   3  13    1.78    0.90
  -6   3  13    1.51    1.31
   5  -3 -13    4.15    2.52
  -5   3  13    0.88    0.81
  -5   3  13   -0.06    0.84
   4  -3 -13   -1.99    2.23
   4  -3 -13    2.36    1.71
  -4   3  13    0.09    0.70
  -4   3  13    0.05    0.65
  -4   3  13    0.26    0.75
   3  -3 -13    1.30    2.15
   3  -3 -13    2.37    1.48
  -3   3  13    4.35    0.84
  -3   3  13    5.06    0.93
  -3   3  13    5.01    0.83
   2  -3 -13   -0.23    2.15
   2  -3 -13   -1.78    1.45
  -2   3  13   -0.25    0.74
  -2   3  13    0.46    0.74
  -2   3  13    0.41    0.58
   1  -3 -13    1.59    1.26
   1  -3 -13    6.50    2.42
  -1   3  13    3.76    0.89
  -1   3  13    4.71    1.08
   0  -3 -13    5.68    2.18
   0  -3 -13    6.92    1.05
   0  -3 -13    8.32    1.70
   0   3  13    6.48    0.74
   0   3  13    6.29    1.75
   0   3  13    5.07    0.98
  -1  -3 -13    3.70    2.31
  -1  -3 -13    5.25    1.76
   1   3  13    7.15    1.19
  -2  -3 -13    3.32    1.69
  -2  -3 -13    2.40    3.42
  -2  -3 -13    3.42    1.15
   2   3  13   -0.30    1.09
  -3  -3 -13    3.36    1.38
  -3  -3 -13   -1.15    1.95
   3   3  13    0.59    1.38
   6  -4 -13   -0.64    3.09
  -6   4  13    0.39    0.93
  -6   4  13    1.33    1.03
   5  -4 -13    2.06    2.26
  -5   4  13    3.01    0.96
  -5   4  13    1.02    0.78
   4  -4 -13    3.86    2.22
   4  -4 -13    2.27    2.24
  -4   4  13    1.00    0.85
  -4   4  13    2.98    0.79
   3  -4 -13    8.07    1.92
   3  -4 -13    7.61    2.15
  -3   4  13    4.10    1.01
  -3   4  13    3.80    0.93
  -3   4  13    3.42    0.79
   2  -4 -13    0.17    1.35
   2  -4 -13    0.01    2.02
   2  -4 -13   -0.10    2.36
  -2   4  13    1.14    1.01
  -2   4  13    0.96    0.70
  -2   4  13    2.70    0.91
   1  -4 -13   -0.13    1.54
   1  -4 -13   -2.57    1.88
  -1   4  13    0.03    1.01
  -1   4  13   -0.77    0.86
   0  -4 -13   -1.04    1.54
   0  -4 -13    2.18    2.40
   0  -4 -13   -1.77    0.97
   0   4  13    1.38    0.70
   0   4  13    0.32    0.89
  -1  -4 -13   -2.77    1.04
  -1  -4 -13    0.46    2.64
  -1  -4 -13   -1.03    1.65
   1   4  13    0.98    1.04
  -2  -4 -13    2.49    1.98
  -2  -4 -13    3.25    2.88
  -2  -4 -13    0.84    1.27
   2   4  13    1.20    1.34
   6  -5 -13    7.20    3.78
  -6   5  13   -0.27    1.13
  -6   5  13    0.69    1.14
   5  -5 -13   -0.59    2.75
   5  -5 -13   -0.10    3.01
  -5   5  13    1.25    0.87
  -5   5  13   -0.12    0.99
   4  -5 -13   -0.09    2.24
   4  -5 -13    1.10    2.45
  -4   5  13   -0.08    0.80
  -4   5  13    1.61    0.97
   3  -5 -13    2.64    2.08
   3  -5 -13   -0.54    2.24
  -3   5  13    0.61    0.77
  -3   5  13    0.86    0.92
   2  -5 -13    1.57    1.83
   2  -5 -13    1.31    2.64
  -2   5  13   -0.07    0.94
  -2   5  13    1.01    1.23
  -2   5  13    0.05    0.66
   1  -5 -13   -1.29    1.48
   1  -5 -13    0.27    2.46
   1  -5 -13   -3.86    1.64
  -1   5  13    1.57    1.06
  -1   5  13   -1.21    0.67
   0  -5 -13    0.50    2.65
   0  -5 -13   -0.04    1.75
   0  -5 -13   -0.12    1.16
   0   5  13    1.81    1.14
   0   5  13   -1.27    0.73
  -1  -5 -13    2.78    3.05
  -1  -5 -13   -0.31    1.22
  -1  -5 -13   -0.02    1.97
   1   5  13    1.47    1.31
  -2  -5 -13   -0.25    1.41
   2   5  13    1.60    1.72
   5  -6 -13    3.46    3.23
   5  -6 -13   -1.15    3.14
  -5   6  13   -1.27    1.16
  -5   6  13    1.97    1.11
   4  -6 -13   -2.66    2.85
   4  -6 -13    5.14    2.80
  -4   6  13    0.44    0.89
  -4   6  13    0.71    1.12
   3  -6 -13   -3.76    3.01
   3  -6 -13   -5.12    2.30
  -3   6  13    1.82    1.25
  -3   6  13    0.07    0.80
   2  -6 -13   -2.66    2.90
   2  -6 -13    1.15    2.11
  -2   6  13    0.10    0.79
  -2   6  13   -0.30    1.07
   1  -6 -13    0.96    3.12
   1  -6 -13    2.00    2.25
  -1   6  13    1.34    1.26
   0  -6 -13   -0.09    3.17
   0  -6 -13   -3.13    2.18
   0   6  13   -0.01    0.90
   0   6  13    1.31    1.39
  -1  -6 -13   -2.18    1.34
  -1  -6 -13    7.28    2.81
   1   6  13   -2.60    1.75
   4  -7 -13    7.77    3.46
   4  -7 -13    2.39    3.99
  -4   7  13    2.82    1.38
  -4   7  13   -0.88    1.14
   3  -7 -13   -2.76    3.49
   3  -7 -13   -0.92    3.00
  -3   7  13   -0.56    1.00
  -3   7  13    2.27    1.38
   2  -7 -13   -5.04    3.32
   2  -7 -13   -3.15    2.69
  -2   7  13   -1.94    1.43
  -2   7  13   -0.76    0.91
   1  -7 -13    3.14    2.71
   1  -7 -13    4.53    3.61
  -1   7  13    1.30    1.60
  -1   7  13    0.09    0.91
   3  12 -14   -0.91    1.96
  -3 -12  14    2.20    1.38
  -3 -12  14   -0.47    1.08
   2  12 -14   -1.85    1.75
  -2 -12  14    1.51    1.92
  -2 -12  14   -0.24    1.14
  -2 -12  14    2.17    0.97
   1  12 -14    0.65    1.66
  -1 -12  14   -2.23    1.95
  -1 -12  14    1.71    1.01
  -1 -12  14    0.40    1.15
   0  12 -14   -0.10    1.39
   0 -12  14    2.60    1.32
   0 -12  14    3.75    2.09
   0 -12  14    1.37    1.01
  -1  12 -14   -0.25    1.74
  -1  12 -14    3.73    1.32
   1 -12  14    1.47    2.01
   1 -12  14    2.67    1.60
   4  11 -14    0.50    2.24
   4  11 -14   -0.50    2.06
  -4 -11  14   -0.80    1.06
  -4 -11  14   -0.27    1.08
  -4 -11  14   -0.11    1.04
   3  11 -14    2.84    1.67
  -3 -11  14    0.73    0.98
  -3 -11  14    1.94    1.13
  -3 -11  14    0.72    0.86
   2  11 -14    1.16    1.46
  -2 -11  14    3.07    0.94
  -2 -11  14    0.87    1.04
  -2 -11  14    4.17    1.59
   1  11 -14    1.63    1.42
  -1 -11  14    0.59    0.82
  -1 -11  14    2.14    1.68
  -1 -11  14    1.66    1.09
   0  11 -14    3.92    1.20
   0  11 -14    3.31    1.38
   0 -11  14   -0.21    1.05
   0 -11  14    2.67    2.25
  -1  11 -14    1.70    1.41
  -1  11 -14    0.91    1.13
   1 -11  14    2.38    1.32
   1 -11  14    1.64    2.60
   1 -11  14    1.27    0.99
  -2  11 -14    0.16    1.23
  -2  11 -14    2.19    1.56
   2 -11  14   -3.24    1.91
   2 -11  14    0.15    1.67
   5  10 -14   -0.68    2.19
  -5 -10  14   -0.13    1.07
  -5 -10  14    0.91    1.21
  -5 -10  14    0.40    1.27
   4  10 -14    3.55    1.91
   4  10 -14    1.25    1.93
  -4 -10  14    3.55    1.08
  -4 -10  14   -0.78    0.91
  -4 -10  14    0.20    0.93
   3  10 -14   -2.80    1.47
  -3 -10  14   -0.48    0.85
  -3 -10  14    0.38    0.78
  -3 -10  14    0.56    1.02
   2  10 -14    4.44    1.57
  -2 -10  14    5.53    1.91
  -2 -10  14    3.61    0.96
  -2 -10  14    3.93    0.91
  -2 -10  14    3.92    1.02
   1  10 -14   -0.79    1.23
  -1 -10  14   -0.93    0.78
  -1 -10  14    3.52    2.23
  -1 -10  14    1.35    1.01
   0  10 -14   -2.28    1.21
   0  10 -14    1.99    1.23
   0 -10  14    0.82    1.73
   0 -10  14   -1.59    0.94
   0 -10  14   -0.26    0.77
  -1  10 -14    0.91    1.04
  -1  10 -14    0.19    1.18
   1 -10  14    1.28    0.93
   1 -10  14   -0.16    1.57
   1 -10  14    2.56    1.90
  -2  10 -14   -0.67    1.13
  -2  10 -14    3.16    1.53
   2 -10  14    1.51    1.97
   2 -10  14    2.57    1.42
   2 -10  14    0.75    1.03
  -3  10 -14   -3.00    1.51
  -3  10 -14   -1.57    1.27
  -3  10 -14   -2.75    1.42
   3 -10  14   -2.73    1.70
   3 -10  14   -1.04    1.84
   5   9 -14   -1.87    2.14
   5   9 -14   -0.24    2.01
  -5  -9  14   -0.32    1.05
  -5  -9  14    1.01    1.03
  -5  -9  14    0.46    0.90
   4   9 -14    1.14    1.88
   4   9 -14    1.84    1.71
  -4  -9  14    0.39    0.88
  -4  -9  14    1.36    0.94
  -4  -9  14   -1.08    0.80
   3   9 -14   -1.36    1.47
   3   9 -14    2.91    1.69
  -3  -9  14    0.69    0.74
  -3  -9  14    0.21    0.88
  -3  -9  14    0.21    0.78
   2   9 -14    0.96    1.27
  -2  -9  14    3.94    0.79
  -2  -9  14    3.15    0.98
  -2  -9  14    4.37    0.91
   1   9 -14   -1.22    1.01
   1   9 -14    0.50    1.27
  -1  -9  14    0.94    1.00
  -1  -9  14   -0.29    0.73
  -1  -9  14    0.64    0.61
  -1  -9  14    0.70    0.94
   0   9 -14    7.91    1.19
   0   9 -14    6.23    1.55
   0  -9  14    7.46    1.05
   0  -9  14    9.29    1.38
   0  -9  14    7.67    1.25
  -1   9 -14    4.06    1.21
  -1   9 -14    5.62    1.44
   1  -9  14    4.90    1.87
   1  -9  14    5.80    0.99
   1  -9  14    6.85    1.21
  -2   9 -14    1.08    1.15
  -2   9 -14    0.72    0.96
  -2   9 -14    3.42    1.42
   2  -9  14    1.28    0.95
   2  -9  14    3.42    1.36
   2  -9  14    2.10    1.58
  -3   9 -14    0.04    1.38
  -3   9 -14    2.83    1.51
  -3   9 -14    1.05    1.12
   3  -9  14   -0.95    1.55
   3  -9  14   -0.77    1.70
   3  -9  14    2.20    1.25
   6   8 -14    3.57    3.97
  -6  -8  14    0.16    1.10
  -6  -8  14   -0.13    1.05
  -6  -8  14    0.13    1.29
   5   8 -14    0.44    1.84
  -5  -8  14    1.28    0.94
  -5  -8  14    1.12    0.92
  -5  -8  14   -0.77    0.82
   4   8 -14    0.99    1.79
   4   8 -14    2.87    1.63
  -4  -8  14    1.41    0.87
  -4  -8  14    2.58    1.46
  -4  -8  14    0.87    0.78
   3   8 -14    1.45    1.35
   3   8 -14    3.78    3.34
   3   8 -14    2.77    2.11
  -3  -8  14    2.00    0.82
  -3  -8  14    1.29    1.43
   2   8 -14    7.73    1.50
  -2  -8  14    7.53    0.89
  -2  -8  14    8.57    1.01
  -2  -8  14    6.42    1.11
   1   8 -14    0.44    1.20
   1   8 -14    2.47    0.92
  -1  -8  14    0.70    1.03
  -1  -8  14   -0.63    1.27
  -1  -8  14   -0.58    0.53
   0   8 -14    0.88    1.03
   0   8 -14    1.49    1.19
   0  -8  14    0.95    1.18
   0  -8  14    1.02    0.96
   0  -8  14   -0.31    0.91
  -1   8 -14   -1.66    1.04
  -1   8 -14   -0.52    0.72
  -1   8 -14    0.64    1.07
   1  -8  14    0.56    1.01
   1  -8  14    0.36    0.84
   1  -8  14   -0.79    1.10
  -2   8 -14    1.08    1.12
  -2   8 -14    0.55    1.25
  -2   8 -14    1.06    0.88
   2  -8  14   -0.37    0.84
   2  -8  14   -0.91    1.21
   2  -8  14    0.06    1.48
  -3   8 -14    0.94    1.48
  -3   8 -14    0.62    1.28
  -3   8 -14   -0.32    1.01
   3  -8  14   -0.61    1.11
   3  -8  14    0.65    1.45
   3  -8  14   -0.05    2.22
  -4   8 -14    4.81    2.05
  -4   8 -14    5.77    2.33
   4  -8  14    3.76    2.26
   4  -8  14    1.06    1.80
   6   7 -14   -1.97    2.01
  -6  -7  14   -0.77    1.11
  -6  -7  14    2.12    0.96
  -6  -7  14    1.27    0.99
   5   7 -14    3.57    1.78
  -5  -7  14    3.01    0.95
  -5  -7  14    1.36    0.81
  -5  -7  14    4.31    1.02
   4   7 -14   -3.23    1.43
   4   7 -14   -0.24    1.93
   4   7 -14   -2.68    1.47
  -4  -7  14    0.27    0.73
  -4  -7  14    0.13    0.81
  -4  -7  14   -0.70    0.77
   3   7 -14    0.54    1.84
   3   7 -14   -1.44    2.28
  -3  -7  14    0.38    0.74
  -3  -7  14    0.41    0.78
  -3  -7  14   -0.03    0.72
   2   7 -14    0.73    0.82
   2   7 -14    1.58    1.02
  -2  -7  14    1.16    0.61
  -2  -7  14   -0.37    0.71
   1   7 -14    1.95    0.86
  -1  -7  14    0.52    0.73
  -1  -7  14    1.55    0.59
  -1  -7  14    1.88    0.82
   0   7 -14    4.06    0.70
   0   7 -14    3.85    1.53
   0   7 -14    2.84    1.05
   0  -7  14    3.15    0.51
   0  -7  14    3.70    1.05
  -1   7 -14   14.76    1.34
  -1   7 -14   14.65    1.74
  -1   7 -14   17.56    2.26
   1  -7  14   14.25    1.49
   1  -7  14   16.19    1.50
   1  -7  14   17.34    1.80
  -2   7 -14    5.28    1.32
  -2   7 -14    7.58    1.52
  -2   7 -14    5.48    1.07
   2  -7  14    6.73    1.11
   2  -7  14    8.03    1.52
   2  -7  14    6.27    1.29
  -3   7 -14    1.92    1.44
  -3   7 -14    1.53    1.01
  -3   7 -14    2.55    1.28
   3  -7  14    2.08    1.12
   3  -7  14    2.88    1.41
   3  -7  14    3.48    1.54
  -4   7 -14    3.88    1.41
  -4   7 -14    2.76    1.90
  -4   7 -14   -0.15    1.66
   4  -7  14   -1.41    2.35
   4  -7  14   -0.23    1.94
   7   6 -14    5.14    2.88
  -7  -6  14   -0.38    1.39
  -7  -6  14    1.03    1.29
   6   6 -14   -2.75    1.83
  -6  -6  14    1.29    1.04
  -6  -6  14    0.40    0.84
   5   6 -14    0.49    1.65
  -5  -6  14    0.58    0.79
  -5  -6  14   -0.62    0.83
  -5  -6  14    2.12    1.08
   4   6 -14    3.49    1.92
   4   6 -14    3.60    1.63
  -4  -6  14    2.33    0.77
  -4  -6  14    4.78    0.92
  -4  -6  14    3.64    1.10
   3   6 -14    2.67    1.24
   3   6 -14   -1.74    1.72
   3   6 -14    0.09    1.24
  -3  -6  14    2.38    0.82
  -3  -6  14    2.65    0.74
   2   6 -14    3.72    1.25
   2   6 -14    4.72    0.97
   2   6 -14    4.18    1.20
  -2  -6  14    3.67    0.85
  -2  -6  14    3.91    0.81
  -2  -6  14    4.94    0.79
   1   6 -14    7.30    1.40
   1   6 -14    9.19    1.21
  -1  -6  14   11.02    1.29
  -1  -6  14    8.28    1.01
  -1  -6  14    8.11    0.94
   0   6 -14   -0.76    1.09
   0   6 -14    0.19    0.55
   0   6 -14   -1.05    0.96
   0  -6  14   -0.44    0.67
   0  -6  14    1.22    0.50
  -1   6 -14    0.11    2.00
  -1   6 -14   -1.13    0.61
  -1   6 -14   -0.76    1.80
   1  -6  14   -0.22    0.97
   1  -6  14    0.71    0.98
  -2   6 -14    0.97    1.25
  -2   6 -14    0.18    0.87
  -2   6 -14    1.11    1.14
   2  -6  14    0.99    0.96
   2  -6  14    2.87    1.17
  -3   6 -14    1.89    1.37
  -3   6 -14   -0.71    1.62
  -3   6 -14    0.00    0.92
   3  -6  14   -0.62    1.28
   3  -6  14   -0.82    1.09
  -4   6 -14   -0.87    1.60
  -4   6 -14    0.57    1.27
   4  -6  14    3.00    1.93
   7   5 -14    0.27    2.55
  -7  -5  14   -0.54    1.25
  -7  -5  14    2.08    1.06
   6   5 -14   -0.14    2.00
  -6  -5  14    3.34    0.92
  -6  -5  14    1.24    0.92
   5   5 -14    4.38    2.22
   5   5 -14    1.71    1.70
  -5  -5  14    2.14    0.88
  -5  -5  14    1.10    0.69
  -5  -5  14    1.23    0.74
   4   5 -14    8.00    2.03
   4   5 -14    3.69    1.53
  -4  -5  14    3.01    0.86
  -4  -5  14    4.99    0.78
  -4  -5  14    5.09    1.40
   3   5 -14    4.71    1.07
   3   5 -14    8.76    1.47
   3   5 -14    6.25    1.43
  -3  -5  14    6.10    0.83
  -3  -5  14    6.98    0.96
  -3  -5  14    8.17    0.98
   2   5 -14    3.66    0.92
   2   5 -14    1.99    1.23
   2   5 -14    2.17    1.12
  -2  -5  14    3.69    0.72
  -2  -5  14    2.37    0.75
  -2  -5  14    3.52    0.71
   1   5 -14   -0.63    0.96
   1   5 -14    1.16    0.87
  -1  -5  14   -0.18    0.49
  -1  -5  14   -1.16    0.60
   0   5 -14    3.30    1.17
   0   5 -14    3.72    0.63
   0   5 -14    4.69    1.08
   0  -5  14    3.96    0.86
   0  -5  14    4.24    0.59
  -1   5 -14    3.59    1.31
  -1   5 -14    4.01    1.26
  -1   5 -14    4.31    0.80
   1  -5  14    2.70    0.53
   1  -5  14    3.46    1.48
  -2   5 -14    8.40    1.44
  -2   5 -14    6.52    1.50
  -2   5 -14    8.38    1.11
   2  -5  14    5.64    1.10
   2  -5  14    6.68    1.41
  -3   5 -14    9.05    1.53
  -3   5 -14    5.94    1.57
  -3   5 -14    6.29    1.12
   3  -5  14    6.67    1.56
   3  -5  14    6.34    1.28
  -4   5 -14    3.96    1.26
  -4   5 -14   -0.17    1.64
   4  -5  14    1.87    1.85
   7   4 -14    0.79    2.59
  -7  -4  14    0.78    1.00
  -7  -4  14   -0.60    1.15
   6   4 -14   -2.19    2.02
  -6  -4  14    0.96    0.92
  -6  -4  14    1.45    0.97
   5   4 -14    0.18    1.71
   5   4 -14   -0.74    2.28
  -5  -4  14    0.12    0.71
  -5  -4  14    1.15    0.76
   4   4 -14    4.37    2.08
   4   4 -14   -0.66    1.38
  -4  -4  14    1.53    0.67
  -4  -4  14    2.57    1.26
   3   4 -14    0.46    1.77
   3   4 -14    3.58    1.28
   3   4 -14   -0.17    1.75
  -3  -4  14    1.77    0.93
  -3  -4  14    4.36    0.79
  -3  -4  14    2.93    0.76
   2   4 -14    3.89    1.08
   2   4 -14    4.02    1.30
   2   4 -14    1.34    0.94
  -2  -4  14    1.90    0.71
  -2  -4  14    2.31    0.68
   1   4 -14    3.09    0.98
   1   4 -14    2.50    1.12
  -1  -4  14    4.91    0.67
  -1  -4  14    4.17    0.82
   0   4 -14    7.04    1.24
   0   4 -14    6.78    1.35
   0   4 -14    5.63    0.72
   0  -4  14    7.29    0.83
   0  -4  14    6.96    1.60
  -1   4 -14    4.54    1.41
  -1   4 -14    7.69    2.05
  -1   4 -14    3.48    0.76
   1  -4  14    4.87    1.11
   1  -4  14    1.96    1.27
   1  -4  14    3.88    0.62
  -2   4 -14   -0.71    2.11
  -2   4 -14    0.90    0.84
  -2   4 -14   -0.64    1.08
   2  -4  14    0.89    0.89
   2  -4  14   -0.76    1.08
  -3   4 -14    1.22    1.27
  -3   4 -14    0.72    1.36
  -3   4 -14    0.96    0.97
   3  -4  14    0.91    1.39
   3  -4  14   -0.56    1.11
  -4   4 -14   -2.69    1.60
  -4   4 -14    0.63    1.23
   4  -4  14    0.15    1.84
   7   3 -14   -0.18    2.45
  -7  -3  14    1.81    0.95
  -7  -3  14   -1.26    1.10
   6   3 -14    3.23    3.85
   6   3 -14   -1.91    1.95
  -6  -3  14    2.42    0.86
  -6  -3  14    3.18    1.04
   5   3 -14    1.96    1.82
   5   3 -14    0.86    2.38
  -5  -3  14    2.20    0.86
  -5  -3  14    2.63    0.80
   4   3 -14    4.97    2.25
   4   3 -14    4.29    1.40
  -4  -3  14    3.47    0.82
  -4  -3  14    4.64    1.43
   3   3 -14    7.24    1.29
   3   3 -14    8.32    1.43
   3   3 -14    4.50    1.96
  -3  -3  14    7.45    0.95
  -3  -3  14    7.95    0.97
   2   3 -14   12.04    1.40
   2   3 -14   17.47    2.52
  -2  -3  14   11.35    1.13
  -2  -3  14   11.07    1.19
   1   3 -14    6.89    1.20
   1   3 -14    8.01    1.31
  -1  -3  14    7.93    1.00
  -1  -3  14    8.10    0.95
   0   3 -14   -1.54    0.97
   0   3 -14   -0.97    1.00
   0   3 -14   -0.41    0.53
   0  -3  14    0.52    0.74
   0  -3  14    0.58    0.74
   0  -3  14   -0.10    0.45
  -1   3 -14    0.06    0.64
  -1   3 -14   -0.76    1.05
   1  -3  14    0.41    0.55
   1  -3  14    1.01    1.46
   1  -3  14    0.32    0.83
  -2   3 -14    4.62    1.33
  -2   3 -14    2.12    0.87
  -2   3 -14    1.70    1.32
   2  -3  14    2.54    1.23
   2  -3  14    2.17    1.07
   2  -3  14    2.49    0.72
  -3   3 -14    3.01    1.55
  -3   3 -14    3.68    0.98
   3  -3  14    2.08    1.11
   3  -3  14    5.45    1.66
  -4   3 -14    4.09    1.92
  -4   3 -14    4.95    1.37
   4  -3  14    1.20    1.82
   7   2 -14    4.81    3.04
   7   2 -14    1.78    2.44
  -7  -2  14    0.43    0.97
  -7  -2  14   -0.05    1.10
   6   2 -14    4.15    2.53
   6   2 -14    0.70    1.81
  -6  -2  14    0.77    0.93
  -6  -2  14    2.16    0.88
   5   2 -14    1.63    1.54
  -5  -2  14    2.75    0.83
  -5  -2  14    2.29    0.90
   4   2 -14    2.01    2.03
   4   2 -14    1.39    1.41
   4   2 -14    1.51    1.17
  -4  -2  14    1.84    0.78
   3   2 -14   -0.81    1.10
   3   2 -14   -2.99    1.75
  -3  -2  14    1.05    0.73
  -3  -2  14   -0.06    0.63
   2   2 -14    5.78    1.78
   2   2 -14    5.80    1.14
  -2  -2  14    2.85    0.72
  -2  -2  14    4.93    0.84
   1   2 -14    2.49    1.10
  -1  -2  14    2.28    0.75
  -1  -2  14    2.20    0.65
   0   2 -14    5.51    0.73
   0   2 -14    5.75    1.29
   0  -2  14    7.06    1.16
   0  -2  14    6.87    0.95
   0  -2  14    6.81    0.71
   0  -2  14    6.59    1.05
  -1   2 -14    3.99    1.20
  -1   2 -14    3.47    0.77
   1  -2  14    3.45    1.15
   1  -2  14    5.26    0.79
   1  -2  14    3.79    0.99
  -2   2 -14    3.58    1.30
  -2   2 -14    5.73    1.06
   2  -2  14    5.38    0.87
   2  -2  14    4.88    1.42
   2  -2  14    3.90    1.08
  -3   2 -14   -0.76    0.92
  -3   2 -14    0.33    1.46
   3  -2  14    0.61    1.46
   3  -2  14    1.36    1.18
  -4   2 -14    0.94    1.96
  -4   2 -14   -0.34    1.37
   4  -2  14   -0.26    1.93
   7   1 -14   -0.63    3.20
   7   1 -14    0.15    2.13
  -7  -1  14    1.38    1.00
  -7  -1  14    0.75    1.15
   6   1 -14   -3.11    2.48
   6   1 -14    0.05    1.77
  -6  -1  14    0.65    0.91
  -6  -1  14    0.65    0.90
   5   1 -14   -1.09    2.47
   5   1 -14   -1.28    1.52
  -5  -1  14    1.67    0.90
   4   1 -14    5.86    2.87
   4   1 -14    8.28    1.37
  -4  -1  14    7.55    1.04
  -4  -1  14    6.55    1.00
   3   1 -14   -0.67    1.75
   3   1 -14   -1.08    1.71
  -3  -1  14    0.12    0.66
  -3  -1  14    1.61    0.72
   2   1 -14    9.50    2.03
   2   1 -14    6.96    1.38
  -2  -1  14    8.38    0.98
  -2  -1  14    9.46    1.12
   1   1 -14    8.44    1.83
   1   1 -14    7.44    1.45
  -1  -1  14    8.55    1.09
  -1  -1  14    8.88    0.81
  -1  -1  14    6.83    0.98
  -1  -1  14    9.90    1.18
   0   1 -14   11.45    1.57
   0   1 -14    9.19    1.10
   0  -1  14    8.18    1.09
   0  -1  14   11.16    1.02
   0  -1  14   11.28    1.39
   0  -1  14   10.78    1.36
  -1   1 -14    2.91    0.80
  -1   1 -14    4.43    1.27
   1  -1  14    4.16    1.21
   1  -1  14    1.68    0.74
   1  -1  14    2.48    0.97
  -2   1 -14   -0.96    0.97
  -2   1 -14   -0.06    1.29
   2  -1  14   -0.04    1.08
   2  -1  14   -0.31    0.89
   2  -1  14   -1.27    1.20
  -3   1 -14    2.59    1.56
  -3   1 -14    1.02    1.04
   3  -1  14    0.23    1.52
  -4   1 -14    0.48    2.04
  -4   1 -14   -0.42    1.40
   4  -1  14    0.98    1.94
   7   0 -14    0.97    3.15
   7   0 -14   -0.98    2.20
  -7   0  14    2.61    1.13
  -7   0  14    0.33    1.20
  -7   0  14    0.01    0.97
   6   0 -14    4.92    2.75
  -6   0  14    1.94    0.96
  -6   0  14    3.61    1.03
  -6   0  14    2.87    0.83
   5   0 -14    5.01    2.73
  -5   0  14    1.98    1.49
  -5   0  14    1.61    0.69
  -5   0  14    0.38    0.85
   4   0 -14    6.35    2.60
  -4   0  14    8.25    1.04
  -4   0  14    9.50    1.00
  -4   0  14    8.91    1.13
   3   0 -14   -0.07    1.91
   3   0 -14   -0.72    1.15
  -3   0  14    0.68    0.65
  -3   0  14    2.60    0.78
   2   0 -14   -1.24    1.12
   2   0 -14    0.38    1.15
   2   0 -14   -0.59    1.70
  -2   0  14   -0.09    0.53
  -2   0  14    0.00    0.62
  -2   0  14   -0.64    0.70
   1   0 -14    4.08    1.98
   1   0 -14    1.76    1.27
  -1   0  14    0.61    0.83
  -1   0  14    1.19    0.70
  -1   0  14    1.21    0.77
  -1   0  14    1.33    0.50
   0   0 -14    5.47    0.86
   0   0 -14    5.33    1.56
   0   0 -14    4.00    2.03
   0   0  14    4.49    0.61
   0   0  14    5.14    0.92
   0   0  14    4.02    0.96
  -1   0 -14   -0.10    1.23
  -1   0 -14   -0.12    0.76
   1   0  14   -1.94    1.36
   1   0  14    0.16    0.99
  -2   0 -14    5.19    1.57
  -2   0 -14    1.98    1.03
   2   0  14    3.24    1.23
   2   0  14    3.17    1.48
   2   0  14    2.31    0.95
  -3   0 -14    3.43    1.81
  -3   0 -14    3.21    1.24
   3   0  14    5.02    1.68
   3   0  14    3.29    1.27
   7  -1 -14    3.82    3.54
  -7   1  14    0.41    1.25
  -7   1  14    2.47    1.10
   6  -1 -14    1.19    2.73
  -6   1  14    0.81    0.87
  -6   1  14    2.55    1.04
  -6   1  14    2.64    1.08
   5  -1 -14    5.13    2.79
  -5   1  14   -0.42    0.67
  -5   1  14    0.51    0.97
  -5   1  14    1.08    0.84
   4  -1 -14   -3.47    2.13
  -4   1  14    0.83    0.79
  -4   1  14    0.58    0.78
  -4   1  14    0.26    0.64
   3  -1 -14   -0.15    1.49
   3  -1 -14    1.65    1.38
   3  -1 -14    3.81    2.30
  -3   1  14    2.90    0.86
  -3   1  14    0.23    0.76
   2  -1 -14   -4.00    1.66
   2  -1 -14   -0.64    1.25
   2  -1 -14    1.42    1.36
  -2   1  14   -1.43    0.54
  -2   1  14   -0.06    0.74
  -2   1  14    0.29    0.87
  -2   1  14    0.45    0.78
   1  -1 -14    7.76    2.23
   1  -1 -14    6.42    1.95
  -1   1  14    6.93    0.98
  -1   1  14    5.69    1.10
  -1   1  14    7.19    0.85
  -1   1  14    6.05    1.03
   0  -1 -14    9.55    2.29
   0  -1 -14    8.24    1.66
   0  -1 -14    7.89    0.95
   0   1  14    8.48    1.30
   0   1  14    9.30    1.78
   0   1  14    8.32    1.14
   0   1  14    8.10    0.87
  -1  -1 -14    5.09    1.05
  -1  -1 -14    4.45    1.39
  -1  -1 -14    4.44    2.19
   1   1  14    3.91    1.22
   1   1  14    2.24    1.15
   1   1  14    5.32    1.01
  -2  -1 -14    2.41    1.09
  -2  -1 -14   -0.01    1.53
   2   1  14    0.13    0.99
   2   1  14    2.12    2.41
  -3  -1 -14   -0.74    1.23
  -3  -1 -14   -0.85    1.88
   3   1  14    0.90    1.29
   7  -2 -14    7.90    4.02
  -7   2  14   -0.29    1.22
  -7   2  14    1.18    1.16
   6  -2 -14    7.61    3.11
  -6   2  14    0.91    0.88
  -6   2  14    0.77    1.05
   5  -2 -14    8.79    2.77
  -5   2  14    4.59    1.10
  -5   2  14    5.19    0.87
  -5   2  14    4.63    1.04
   4  -2 -14    3.67    2.53
  -4   2  14    2.24    0.86
  -4   2  14    2.74    0.78
  -4   2  14    3.68    0.92
   3  -2 -14    5.31    2.50
   3  -2 -14    6.19    1.65
   3  -2 -14    6.85    1.87
  -3   2  14   10.00    1.07
  -3   2  14   10.74    1.47
  -3   2  14    9.62    1.16
   2  -2 -14   -0.26    1.46
   2  -2 -14    3.37    2.30
   2  -2 -14    0.24    1.39
  -2   2  14   -1.12    0.88
  -2   2  14    0.62    0.80
  -2   2  14   -0.06    0.85
   1  -2 -14   -0.32    1.81
   1  -2 -14   -1.60    1.19
  -1   2  14    0.83    0.79
  -1   2  14    1.08    1.72
  -1   2  14    1.11    0.58
   0  -2 -14   -0.52    1.35
   0  -2 -14    1.31    2.89
   0   2  14    0.65    0.57
   0   2  14    0.80    0.83
   0   2  14    1.35    0.99
  -1  -2 -14   -1.43    1.51
  -1  -2 -14    0.97    1.03
  -1  -2 -14    1.35    2.21
   1   2  14    0.81    0.90
   1   2  14    1.19    1.22
  -2  -2 -14    1.82    1.81
  -2  -2 -14    1.20    1.14
  -2  -2 -14    1.99    2.64
   2   2  14    1.05    1.14
   6  -3 -14    2.66    3.24
  -6   3  14   -1.14    1.08
  -6   3  14    1.32    0.98
   5  -3 -14    8.14    3.01
  -5   3  14    0.62    0.78
  -5   3  14    1.37    0.97
   4  -3 -14    3.02    2.69
  -4   3  14    1.44    0.87
  -4   3  14    2.00    0.72
  -4   3  14    0.66    1.23
   3  -3 -14   -0.81    1.84
   3  -3 -14    0.39    2.34
  -3   3  14   -0.16    0.68
  -3   3  14    0.17    0.91
  -3   3  14    0.57    0.85
   2  -3 -14   -0.35    1.41
   2  -3 -14   -0.21    2.20
   2  -3 -14   -1.26    1.68
  -2   3  14    2.19    1.66
  -2   3  14    0.96    0.82
  -2   3  14    0.64    0.61
   1  -3 -14    3.31    2.08
   1  -3 -14    1.87    1.53
  -1   3  14    0.63    0.86
  -1   3  14    1.47    0.64
  -1   3  14    1.48    1.01
   0  -3 -14    2.75    1.51
   0  -3 -14    3.64    2.41
   0   3  14    1.43    1.16
   0   3  14    2.36    0.95
   0   3  14    3.60    0.84
  -1  -3 -14    5.77    2.17
  -1  -3 -14    4.61    2.61
  -1  -3 -14    2.89    1.89
   1   3  14    3.89    1.12
  -2  -3 -14    0.04    1.24
  -2  -3 -14    3.15    2.21
  -2  -3 -14   -4.18    2.84
   2   3  14   -0.91    1.32
   6  -4 -14    9.75    4.41
  -6   4  14   -0.56    1.10
   5  -4 -14   -0.77    3.19
  -5   4  14    2.31    1.09
  -5   4  14    1.93    0.87
   4  -4 -14    1.86    2.59
   4  -4 -14    5.91    2.83
  -4   4  14    3.43    0.80
  -4   4  14    3.13    1.07
   3  -4 -14    1.11    2.60
   3  -4 -14    2.17    2.09
  -3   4  14    3.15    1.00
  -3   4  14    0.58    0.68
   2  -4 -14    2.97    2.55
   2  -4 -14   -0.99    1.81
   2  -4 -14    2.23    1.74
  -2   4  14    1.45    1.22
  -2   4  14    0.80    0.69
  -2   4  14    0.73    0.98
   1  -4 -14   -0.36    2.67
   1  -4 -14    1.79    1.71
  -1   4  14    1.92    1.01
  -1   4  14    2.22    0.73
  -1   4  14    0.55    1.16
   0  -4 -14    1.39    1.84
   0  -4 -14   -0.24    2.73
   0   4  14   -1.02    0.98
  -1  -4 -14   -2.47    1.97
  -1  -4 -14    0.44    3.12
  -1  -4 -14   -0.45    1.32
   1   4  14    1.31    1.26
   5  -5 -14    0.97    3.77
  -5   5  14    0.12    1.20
  -5   5  14    1.19    1.01
   4  -5 -14    0.37    2.73
   4  -5 -14    2.70    2.92
  -4   5  14    0.17    0.82
  -4   5  14   -0.47    1.10
   3  -5 -14   -2.80    2.26
   3  -5 -14   -2.09    3.21
  -3   5  14    1.49    0.87
  -3   5  14    2.89    1.17
   2  -5 -14   -1.01    2.10
   2  -5 -14    5.34    2.93
  -2   5  14    0.13    0.70
  -2   5  14    1.86    1.17
   1  -5 -14    1.42    3.07
   1  -5 -14    1.89    1.83
   1  -5 -14    0.54    1.99
  -1   5  14   -0.80    1.07
  -1   5  14    0.62    1.18
   0  -5 -14    2.07    2.20
   0  -5 -14   -0.26    3.24
   0   5  14   -0.41    1.43
   4  -6 -14    4.32    4.49
   4  -6 -14   -5.72    3.11
  -4   6  14    1.77    1.47
  -4   6  14   -0.42    1.08
   3  -6 -14   -4.99    3.51
   3  -6 -14   -4.09    2.72
  -3   6  14    0.72    1.41
  -3   6  14    0.99    0.98
   2  -6 -14   -1.78    2.58
   2  -6 -14    2.82    3.74
  -2   6  14    1.39    0.94
  -2   6  14    0.73    1.38
   1  -6 -14    2.38    2.83
   1  -6 -14    2.03    3.49
  -1   6  14    3.78    1.72
   2  12 -15    2.28    2.13
  -2 -12  15    1.27    1.23
  -2 -12  15    1.98    1.55
   1  12 -15    0.95    2.00
  -1 -12  15    1.33    1.10
  -1 -12  15    0.81    1.45
   0  12 -15    2.44    2.13
   0 -12  15    1.28    1.13
   0 -12  15    1.81    1.62
   3  11 -15   -2.89    1.84
  -3 -11  15    0.17    1.01
  -3 -11  15   -0.56    1.20
  -3 -11  15   -0.11    1.04
   2  11 -15    1.16    1.79
  -2 -11  15    0.27    0.99
  -2 -11  15    2.13    1.23
   1  11 -15    3.08    1.73
  -1 -11  15    1.75    1.30
  -1 -11  15    0.45    0.94
   0  11 -15    4.52    1.84
   0 -11  15    1.91    1.04
   0 -11  15    2.06    1.30
  -1  11 -15    1.28    1.69
  -1  11 -15    2.81    1.45
   1 -11  15    0.46    1.06
   1 -11  15    0.26    1.71
   4  10 -15    3.38    2.05
  -4 -10  15    1.72    1.05
  -4 -10  15   -0.17    1.28
  -4 -10  15   -0.23    1.00
   3  10 -15    1.60    1.62
  -3 -10  15    1.41    1.12
  -3 -10  15   -0.50    0.93
   2  10 -15    4.32    1.60
  -2 -10  15    2.88    1.30
  -2 -10  15    0.11    1.29
   1  10 -15    3.46    1.47
  -1 -10  15    1.50    0.88
  -1 -10  15    2.86    1.16
   0  10 -15    0.88    1.48
   0  10 -15   -0.01    1.18
   0 -10  15    2.08    1.21
   0 -10  15   -1.05    0.84
  -1  10 -15    1.67    1.35
  -1  10 -15    0.43    1.52
   1 -10  15    0.23    0.97
   1 -10  15    0.33    1.28
  -2  10 -15   -1.72    1.15
  -2  10 -15    0.01    1.46
  -2  10 -15    1.71    1.76
   2 -10  15    1.18    1.60
   2 -10  15    1.52    1.10
   5   9 -15   -1.80    2.28
  -5  -9  15   -0.10    1.10
  -5  -9  15   -0.58    1.19
  -5  -9  15   -1.51    1.15
   4   9 -15    0.74    2.07
   4   9 -15   -4.47    1.73
  -4  -9  15    1.80    0.96
  -4  -9  15    0.58    0.86
  -4  -9  15    2.66    1.09
   3   9 -15    2.51    1.52
  -3  -9  15    0.81    0.82
  -3  -9  15    1.98    0.83
  -3  -9  15    0.94    1.02
   2   9 -15    2.35    1.48
  -2  -9  15    1.48    0.97
  -2  -9  15    2.19    0.85
  -2  -9  15    1.37    1.06
   1   9 -15    3.46    2.06
   1   9 -15    4.26    1.53
  -1  -9  15    4.70    1.12
  -1  -9  15    3.82    0.88
   0   9 -15    0.14    1.35
   0   9 -15    2.08    1.26
   0  -9  15    1.89    0.88
  -1   9 -15    3.55    1.58
  -1   9 -15    5.04    1.06
  -1   9 -15    5.81    1.32
   1  -9  15    3.23    1.33
   1  -9  15    3.50    0.96
  -2   9 -15    5.27    1.57
  -2   9 -15    4.31    1.13
  -2   9 -15    1.96    1.66
   2  -9  15    3.12    1.09
   2  -9  15    2.96    1.59
  -3   9 -15    0.73    1.88
  -3   9 -15   -2.39    1.31
   3  -9  15   -0.20    2.12
   5   8 -15    0.49    2.06
  -5  -8  15    0.33    1.04
  -5  -8  15    1.65    1.11
  -5  -8  15    2.21    0.97
   4   8 -15   -2.29    1.62
   4   8 -15    2.25    1.89
  -4  -8  15   -0.33    1.65
  -4  -8  15    1.39    0.89
  -4  -8  15   -0.13    0.92
   3   8 -15    7.37    1.77
   3   8 -15    5.38    2.39
  -3  -8  15    3.50    1.03
  -3  -8  15    5.79    0.93
  -3  -8  15    5.16    0.96
   2   8 -15    0.17    1.32
  -2  -8  15    1.30    0.86
  -2  -8  15    0.65    0.96
  -2  -8  15    1.76    0.81
   1   8 -15    2.04    1.40
   1   8 -15    2.50    1.09
  -1  -8  15    3.45    0.92
  -1  -8  15    1.67    0.63
  -1  -8  15    1.18    1.01
   0   8 -15    0.31    1.20
   0   8 -15    0.81    1.16
   0  -8  15    0.97    0.86
  -1   8 -15    0.83    1.17
  -1   8 -15   -0.41    1.41
   1  -8  15    1.57    1.28
   1  -8  15    2.46    0.96
  -2   8 -15    5.08    1.62
  -2   8 -15   -1.59    1.29
  -2   8 -15    1.94    1.03
   2  -8  15   -0.59    1.28
   2  -8  15    0.38    0.91
  -3   8 -15    3.65    1.82
  -3   8 -15    2.79    1.76
  -3   8 -15    3.30    1.28
   3  -8  15    1.18    1.80
   3  -8  15    3.14    1.29
   6   7 -15    1.25    2.66
  -6  -7  15   -2.63    1.22
  -6  -7  15    1.11    1.11
   5   7 -15    2.40    2.14
  -5  -7  15    1.38    1.04
  -5  -7  15    0.76    0.92
  -5  -7  15   -0.12    0.92
   4   7 -15    0.51    1.56
   4   7 -15    0.40    2.61
   4   7 -15    0.54    2.00
  -4  -7  15    0.76    0.95
  -4  -7  15    1.16    0.87
  -4  -7  15    2.09    0.89
   3   7 -15    0.36    2.24
   3   7 -15    1.14    1.51
   3   7 -15   -0.76    1.39
  -3  -7  15    2.59    1.01
  -3  -7  15    2.33    0.83
  -3  -7  15    2.15    0.82
   2   7 -15    2.01    0.99
   2   7 -15    2.85    1.39
  -2  -7  15    1.14    0.80
  -2  -7  15    2.31    0.95
  -2  -7  15    0.79    0.71
   1   7 -15   -1.27    1.27
   1   7 -15   -1.21    0.94
  -1  -7  15   -0.50    0.58
  -1  -7  15    0.36    0.79
   0   7 -15    2.11    1.26
   0  -7  15    2.61    0.85
  -1   7 -15   -0.16    1.22
  -1   7 -15    1.92    1.34
  -1   7 -15    0.73    0.86
   1  -7  15    1.16    0.89
   1  -7  15    0.97    1.15
  -2   7 -15    5.66    1.42
  -2   7 -15    4.56    1.10
  -2   7 -15    3.63    1.53
   2  -7  15    4.83    1.50
   2  -7  15    3.58    1.04
  -3   7 -15    1.99    1.73
  -3   7 -15   -0.76    1.47
  -3   7 -15   -1.28    1.13
   3  -7  15    0.99    1.62
   3  -7  15    2.23    1.24
   6   6 -15   -0.23    2.34
  -6  -6  15    1.12    1.07
  -6  -6  15    0.22    0.93
   5   6 -15    3.09    1.99
  -5  -6  15    0.42    0.85
  -5  -6  15   -0.94    0.76
   4   6 -15    1.23    2.51
   4   6 -15   -0.06    1.82
  -4  -6  15    2.82    0.94
  -4  -6  15    2.99    0.89
  -4  -6  15    3.61    1.09
   3   6 -15    0.37    2.15
   3   6 -15    6.54    1.64
   3   6 -15    5.01    1.41
  -3  -6  15    2.00    0.96
  -3  -6  15    5.02    0.91
  -3  -6  15    3.15    0.85
   2   6 -15    1.97    1.28
   2   6 -15    1.80    0.96
  -2  -6  15    2.14    0.83
  -2  -6  15    1.99    0.89
  -2  -6  15    1.32    0.71
   1   6 -15    0.06    1.06
   1   6 -15    0.68    0.96
  -1  -6  15    0.92    0.57
  -1  -6  15    0.52    0.79
   0   6 -15    8.27    2.31
   0   6 -15    8.93    1.45
   0  -6  15    6.40    1.01
   0  -6  15    8.77    0.89
  -1   6 -15   -0.17    1.10
  -1   6 -15    0.31    0.79
  -1   6 -15   -0.13    1.28
   1  -6  15    0.89    0.86
   1  -6  15    1.29    1.12
  -2   6 -15   -1.57    1.38
  -2   6 -15   -0.75    1.29
  -2   6 -15   -0.01    0.95
   2  -6  15    0.55    1.22
   2  -6  15    0.10    0.98
  -3   6 -15    2.35    1.18
  -3   6 -15    3.05    1.47
  -3   6 -15    1.05    1.66
   3  -6  15    2.78    1.67
   3  -6  15    2.30    1.24
   6   5 -15    1.36    2.76
  -6  -5  15    0.98    1.02
  -6  -5  15    0.56    1.07
   5   5 -15   -2.44    3.26
   5   5 -15   -0.27    2.15
  -5  -5  15   -1.26    0.83
  -5  -5  15   -0.72    0.79
   4   5 -15    7.54    3.02
   4   5 -15    3.72    1.82
  -4  -5  15    2.99    0.88
  -4  -5  15    3.58    0.79
  -4  -5  15    4.21    0.90
   3   5 -15    6.50    1.43
   3   5 -15    5.63    2.11
   3   5 -15    0.43    2.15
  -3  -5  15    5.46    1.51
  -3  -5  15    5.23    0.91
  -3  -5  15    4.16    0.87
   2   5 -15    6.29    1.15
   2   5 -15    6.24    1.41
  -2  -5  15    6.63    1.02
  -2  -5  15    5.08    0.87
   1   5 -15    0.48    1.32
   1   5 -15    1.46    1.02
  -1  -5  15    0.03    0.57
  -1  -5  15    1.07    0.81
   0   5 -15    1.77    1.26
   0  -5  15   -0.01    0.50
   0  -5  15    0.34    0.80
  -1   5 -15    0.81    0.73
  -1   5 -15    0.52    1.12
  -1   5 -15    0.17    1.28
   1  -5  15    2.07    1.08
   1  -5  15    0.38    0.89
  -2   5 -15    0.32    0.93
  -2   5 -15    1.70    1.19
  -2   5 -15   -0.41    1.35
   2  -5  15    0.92    1.00
   2  -5  15    2.17    1.32
  -3   5 -15    2.66    1.19
  -3   5 -15    6.48    1.58
  -3   5 -15    2.08    1.82
   3  -5  15    4.17    1.72
   3  -5  15    5.38    1.39
   7   4 -15   -0.70    3.02
  -7  -4  15    0.22    1.16
  -7  -4  15   -0.11    1.49
   6   4 -15    3.31    5.42
   6   4 -15    2.93    2.32
  -6  -4  15    4.03    1.10
  -6  -4  15    1.50    0.96
   5   4 -15    7.59    2.92
   5   4 -15   -0.99    1.94
  -5  -4  15   -1.27    0.83
  -5  -4  15    0.22    0.82
   4   4 -15   -1.48    1.80
  -4  -4  15    0.81    0.78
  -4  -4  15    0.44    0.74
   3   4 -15    1.70    1.33
   3   4 -15   -1.35    2.32
   3   4 -15    0.48    1.15
  -3  -4  15   -0.80    0.66
  -3  -4  15    0.99    0.70
  -3  -4  15   -0.70    1.15
   2   4 -15    5.50    2.12
   2   4 -15    4.14    1.33
   2   4 -15    6.08    1.17
  -2  -4  15    5.24    1.46
  -2  -4  15    4.66    0.99
   1   4 -15    1.10    1.28
   1   4 -15    0.65    0.97
  -1  -4  15    1.05    0.75
  -1  -4  15    0.99    0.62
   0   4 -15    5.03    1.46
   0  -4  15    4.25    0.93
   0  -4  15    5.50    0.70
  -1   4 -15    5.94    0.88
  -1   4 -15    6.79    1.38
  -1   4 -15    4.98    1.44
   1  -4  15    4.56    0.73
   1  -4  15    4.68    1.09
   1  -4  15    4.45    1.17
  -2   4 -15    0.92    1.44
  -2   4 -15    3.40    0.99
  -2   4 -15    0.10    1.32
   2  -4  15    2.33    1.35
   2  -4  15    1.96    1.09
  -3   4 -15    1.23    1.57
  -3   4 -15   -0.11    1.68
  -3   4 -15   -0.28    1.06
   3  -4  15    0.90    1.30
   3  -4  15    0.42    1.61
   7   3 -15    0.01    2.74
  -7  -3  15    0.30    1.33
  -7  -3  15    1.39    1.18
   6   3 -15    3.02    2.20
   6   3 -15   -3.81    2.98
  -6  -3  15   -0.72    0.89
  -6  -3  15    0.14    1.00
   5   3 -15    0.92    2.87
   5   3 -15    2.42    1.81
  -5  -3  15    3.16    0.87
  -5  -3  15    2.05    0.89
   4   3 -15    0.40    1.52
   4   3 -15    5.44    2.70
  -4  -3  15    1.50    0.80
  -4  -3  15    1.79    0.79
   3   3 -15    1.74    1.28
  -3  -3  15    4.26    0.90
  -3  -3  15    5.05    1.06
   2   3 -15    6.53    1.26
  -2  -3  15    4.99    1.21
  -2  -3  15    4.88    0.89
   1   3 -15    2.97    1.28
  -1  -3  15    3.39    0.73
  -1  -3  15    4.70    0.97
   0   3 -15    2.09    1.22
   0  -3  15    1.40    0.61
   0  -3  15    2.26    0.92
   0  -3  15    1.40    1.04
   0  -3  15    2.33    0.54
  -1   3 -15    1.47    0.76
  -1   3 -15    1.06    1.11
   1  -3  15   -0.24    1.01
   1  -3  15    0.29    0.73
   1  -3  15   -0.30    0.85
  -2   3 -15    1.06    1.42
  -2   3 -15   -1.14    0.93
   2  -3  15   -0.37    1.24
   2  -3  15   -0.80    1.18
  -3   3 -15   -1.89    1.58
  -3   3 -15    0.75    1.15
   3  -3  15    2.54    1.29
   3  -3  15    1.04    1.63
   7   2 -15    7.37    4.00
   7   2 -15    0.20    2.61
  -7  -2  15    0.94    1.36
  -7  -2  15    2.01    1.19
   6   2 -15    0.36    3.01
   6   2 -15   -0.86    1.92
  -6  -2  15    0.62    0.94
  -6  -2  15    2.10    1.14
   5   2 -15    2.68    1.84
   5   2 -15    7.77    3.15
  -5  -2  15    1.40    0.88
  -5  -2  15    0.98    1.12
   4   2 -15   -0.11    2.64
   4   2 -15    6.53    1.53
  -4  -2  15    4.40    0.92
  -4  -2  15    2.95    0.90
   3   2 -15    1.32    1.30
   3   2 -15   -0.33    2.16
  -3  -2  15    0.82    0.74
  -3  -2  15    0.66    0.81
   2   2 -15   -0.84    1.15
   2   2 -15    1.76    1.82
  -2  -2  15    0.74    1.01
  -2  -2  15   -0.40    0.82
   1   2 -15    0.68    1.16
  -1  -2  15    2.43    0.97
  -1  -2  15    2.35    0.70
  -1  -2  15    3.64    0.62
   0   2 -15    5.44    1.33
   0  -2  15    5.10    0.81
   0  -2  15    5.24    0.64
   0  -2  15    4.38    0.98
   0  -2  15    2.79    1.07
  -1   2 -15    1.46    0.79
  -1   2 -15    0.96    1.30
   1  -2  15    1.29    0.83
   1  -2  15    0.99    1.00
   1  -2  15   -0.61    1.07
  -2   2 -15    4.36    1.51
  -2   2 -15    5.26    1.15
   2  -2  15    5.47    1.35
   2  -2  15    4.93    1.45
  -3   2 -15    1.27    1.83
  -3   2 -15    3.40    1.21
   3  -2  15    5.38    1.85
   7   1 -15    3.93    4.00
   7   1 -15    2.47    2.64
  -7  -1  15    3.67    1.45
  -7  -1  15    0.52    1.22
  -7  -1  15    1.66    1.11
   6   1 -15   -0.67    3.10
   6   1 -15   -1.35    2.05
  -6  -1  15    1.60    1.09
  -6  -1  15    1.18    1.01
   5   1 -15   -2.60    2.94
  -5  -1  15    0.45    0.97
  -5  -1  15    0.39    0.90
   4   1 -15    0.34    2.23
   4   1 -15    1.72    1.47
  -4  -1  15    0.08    0.78
  -4  -1  15    1.95    0.89
   3   1 -15    0.81    1.32
   3   1 -15    0.40    1.85
  -3  -1  15    2.22    0.88
  -3  -1  15    1.38    0.75
   2   1 -15    1.88    2.02
   2   1 -15    5.05    1.51
  -2  -1  15    5.40    1.03
  -2  -1  15    5.07    0.76
  -2  -1  15    4.53    0.86
   1   1 -15    5.62    1.78
   1   1 -15    5.32    1.63
  -1  -1  15    4.09    0.63
  -1  -1  15    4.82    1.54
  -1  -1  15    3.40    0.95
  -1  -1  15    3.71    1.01
   0   1 -15    6.97    1.49
   0  -1  15    7.13    0.86
   0  -1  15    9.30    1.40
   0  -1  15    7.56    0.96
   0  -1  15    7.34    1.47
  -1   1 -15    0.67    1.34
  -1   1 -15   -1.63    0.91
   1  -1  15    1.83    1.25
   1  -1  15    0.55    1.09
   1  -1  15    0.94    0.75
  -2   1 -15   -1.14    1.11
  -2   1 -15    1.88    1.63
   2  -1  15   -0.57    2.04
   2  -1  15   -0.36    0.94
   2  -1  15    0.86    1.18
  -3   1 -15    1.39    1.96
  -3   1 -15    1.34    1.29
   3  -1  15   -0.40    1.82
   6   0 -15    0.95    2.93
  -6   0  15    3.00    0.93
  -6   0  15    1.69    1.13
  -6   0  15    2.35    1.18
   5   0 -15    3.96    3.23
  -5   0  15    3.54    1.06
  -5   0  15    4.74    1.09
  -5   0  15    4.60    0.83
   4   0 -15   -2.89    2.28
  -4   0  15    3.59    0.91
  -4   0  15    3.53    0.81
  -4   0  15    4.73    0.96
   3   0 -15    5.59    2.19
   3   0 -15    3.29    1.53
  -3   0  15    4.71    0.98
  -3   0  15    4.76    0.92
  -3   0  15    3.48    0.77
   2   0 -15    2.73    2.23
   2   0 -15    1.21    1.48
  -2   0  15    2.16    0.76
  -2   0  15    1.95    0.77
  -2   0  15    1.23    0.95
  -2   0  15    1.20    0.88
   1   0 -15    1.49    1.90
   1   0 -15   -0.11    1.28
  -1   0  15   -1.47    0.86
  -1   0  15    0.51    0.86
  -1   0  15    1.30    0.63
  -1   0  15    0.36    0.70
   0   0 -15    1.02    2.01
   0   0 -15   -0.28    1.29
   0   0  15    0.76    1.11
   0   0  15   -0.01    1.07
   0   0  15    0.80    0.82
  -1   0 -15    0.82    1.94
   1   0  15    3.10    1.18
   1   0  15    2.93    0.88
   1   0  15    3.23    1.48
  -2   0 -15   -0.27    1.13
  -2   0 -15    2.34    1.65
   2   0  15    2.61    1.30
   2   0  15    0.88    0.98
   2   0  15   -1.28    1.53
   6  -1 -15    1.40    3.62
  -6   1  15   -0.61    1.19
  -6   1  15    0.02    0.90
   5  -1 -15    5.24    3.31
  -5   1  15   -0.07    0.79
  -5   1  15    0.43    0.97
  -5   1  15    1.40    1.56
   4  -1 -15   -0.31    2.57
  -4   1  15    0.08    0.69
  -4   1  15    0.25    0.85
  -4   1  15    0.22    0.85
   3  -1 -15   -1.44    1.54
   3  -1 -15    0.54    2.15
  -3   1  15    1.39    0.90
  -3   1  15    1.83    0.83
  -3   1  15    1.08    0.61
   2  -1 -15    0.11    2.18
   2  -1 -15    0.98    1.33
   2  -1 -15    3.35    1.62
  -2   1  15    0.94    0.83
  -2   1  15    3.22    1.03
  -2   1  15    2.56    1.05
   1  -1 -15    4.93    1.58
   1  -1 -15    4.21    2.03
  -1   1  15    5.12    1.11
  -1   1  15    4.67    0.78
  -1   1  15    6.05    0.99
   0  -1 -15    4.61    1.52
   0  -1 -15    1.90    2.29
   0   1  15    2.59    1.15
   0   1  15    2.35    0.87
  -1  -1 -15    2.02    2.52
  -1  -1 -15    1.92    1.55
   1   1  15    2.37    0.93
   1   1  15   -0.44    1.13
  -2  -1 -15    2.49    1.29
  -2  -1 -15    0.55    1.91
  -2  -1 -15   -3.25    2.94
   2   1  15    0.44    1.13
   6  -2 -15    7.23    3.79
  -6   2  15    2.37    1.26
  -6   2  15    0.61    1.09
   5  -2 -15    5.40    3.47
  -5   2  15    3.54    0.90
  -5   2  15    2.94    1.11
   4  -2 -15    1.04    2.52
  -4   2  15    1.75    0.91
  -4   2  15    1.90    0.75
  -4   2  15    2.98    1.06
   3  -2 -15   -1.20    1.56
   3  -2 -15   -3.42    2.53
  -3   2  15    0.99    0.66
  -3   2  15    1.78    0.87
  -3   2  15    1.45    0.99
   2  -2 -15    4.75    1.78
   2  -2 -15    2.79    2.52
   2  -2 -15    0.95    1.57
  -2   2  15    2.69    0.68
  -2   2  15    0.81    0.84
  -2   2  15    3.15    1.06
   1  -2 -15    0.58    2.33
   1  -2 -15   -2.45    1.35
  -1   2  15   -0.11    1.11
  -1   2  15    1.62    0.66
  -1   2  15   -0.53    0.84
   0  -2 -15    3.29    2.78
   0  -2 -15    2.76    1.69
   0   2  15    1.32    1.21
   0   2  15   -0.61    0.89
  -1  -2 -15    3.35    2.87
  -1  -2 -15   -1.37    1.86
   1   2  15    0.56    1.00
  -2  -2 -15    8.56    3.46
  -2  -2 -15    0.55    1.42
   2   2  15    1.46    1.40
   5  -3 -15    1.36    3.63
  -5   3  15   -0.29    1.14
  -5   3  15    0.77    0.90
   4  -3 -15    5.74    3.33
  -4   3  15   -0.09    0.99
  -4   3  15    1.38    0.81
   3  -3 -15   -1.06    2.85
  -3   3  15    0.55    1.09
  -3   3  15    1.15    0.98
  -3   3  15   -0.97    0.70
   2  -3 -15    0.58    1.90
   2  -3 -15    2.57    1.64
   2  -3 -15    4.01    2.73
  -2   3  15    0.83    0.95
  -2   3  15    1.12    1.22
  -2   3  15   -0.63    0.64
   1  -3 -15   -3.53    2.61
   1  -3 -15   -1.30    1.62
  -1   3  15    0.09    1.21
  -1   3  15    2.13    0.76
  -1   3  15    0.19    0.95
   0  -3 -15   -1.61    1.76
   0  -3 -15   -2.20    2.67
   0   3  15    5.06    1.20
   0   3  15    0.92    1.33
  -1  -3 -15    2.69    2.27
  -1  -3 -15   -4.98    3.05
   1   3  15    1.86    1.33
   5  -4 -15   -1.17    4.59
  -5   4  15   -0.14    1.13
  -5   4  15   -3.15    1.16
   4  -4 -15   -1.24    3.78
  -4   4  15    2.29    1.22
  -4   4  15    2.34    0.99
   3  -4 -15   -3.29    2.39
   3  -4 -15   -1.06    2.81
  -3   4  15   -1.15    0.80
  -3   4  15    0.59    1.12
   2  -4 -15    3.11    3.15
   2  -4 -15    4.47    2.22
   2  -4 -15    6.04    2.11
  -2   4  15    0.84    0.77
  -2   4  15    1.78    1.15
  -2   4  15    2.39    1.28
   1  -4 -15   -1.64    3.09
   1  -4 -15    1.25    2.00
  -1   4  15    0.90    1.40
  -1   4  15    2.09    1.11
  -1   4  15   -0.11    0.79
   0  -4 -15    0.36    2.36
   0  -4 -15   -0.09    3.43
   0   4  15    3.98    1.52
   3  -5 -15   -1.13    2.75
   3  -5 -15   -1.67    5.59
  -3   5  15   -1.14    1.44
   2  -5 -15    2.80    2.60
   2  -5 -15    4.37    3.70
  -2   5  15    1.67    1.52
  -2   5  15   -0.53    0.95
   2  11 -16    0.68    2.04
  -2 -11  16    1.98    1.24
  -2 -11  16    3.31    1.41
   1  11 -16    0.14    2.00
  -1 -11  16    1.34    1.38
  -1 -11  16    1.21    1.18
   0  11 -16    4.96    2.41
   0 -11  16    2.54    1.20
   3  10 -16   -1.34    2.04
  -3 -10  16   -0.34    0.99
  -3 -10  16    1.58    1.16
  -3 -10  16    0.29    1.28
   2  10 -16    0.62    1.75
  -2 -10  16   -0.88    1.02
  -2 -10  16   -1.99    1.20
   1  10 -16    0.64    1.72
  -1 -10  16    0.91    1.30
  -1 -10  16    1.39    0.97
   0  10 -16    3.58    1.87
   0  10 -16    4.63    2.11
   0 -10  16    2.00    1.01
  -1  10 -16    3.07    1.58
  -1  10 -16    1.48    1.86
   1 -10  16    0.01    1.20
   1 -10  16    0.85    1.64
   4   9 -16    2.38    2.07
  -4  -9  16    1.64    1.15
  -4  -9  16    1.39    1.11
  -4  -9  16    0.49    1.17
   3   9 -16    1.98    1.86
  -3  -9  16   -0.26    0.95
  -3  -9  16    1.11    1.10
  -3  -9  16    0.54    0.99
   2   9 -16    1.94    1.60
  -2  -9  16   -0.13    0.85
  -2  -9  16   -1.20    1.09
  -2  -9  16    1.42    0.98
   1   9 -16    0.11    1.69
  -1  -9  16    0.13    0.92
  -1  -9  16    1.36    1.25
   0   9 -16    1.62    1.70
   0   9 -16   -1.36    1.27
   0  -9  16    1.53    0.96
  -1   9 -16    2.67    1.40
  -1   9 -16    0.34    1.88
   1  -9  16    2.15    1.59
   1  -9  16    2.19    1.07
  -2   9 -16    1.90    1.79
  -2   9 -16    3.49    2.05
   2  -9  16   -2.62    1.20
   2  -9  16    0.99    1.91
   5   8 -16    2.17    2.60
  -5  -8  16   -0.71    1.16
  -5  -8  16   -0.37    1.10
   4   8 -16    2.02    1.80
  -4  -8  16    1.68    1.12
  -4  -8  16   -0.06    0.98
  -4  -8  16    1.54    0.93
   3   8 -16   -0.03    2.70
   3   8 -16    1.84    1.57
  -3  -8  16    2.70    0.95
  -3  -8  16    1.36    0.94
  -3  -8  16    2.68    1.15
   2   8 -16    0.97    1.48
  -2  -8  16   -1.13    0.83
  -2  -8  16    1.17    1.03
  -2  -8  16   -0.97    0.79
   1   8 -16    3.87    1.69
   1   8 -16    6.94    1.30
  -1  -8  16    3.16    0.98
   0   8 -16    3.96    1.69
   0   8 -16    2.41    1.18
   0  -8  16    0.29    0.92
  -1   8 -16    0.63    1.66
  -1   8 -16    3.84    1.43
   1  -8  16    1.18    1.44
   1  -8  16    2.32    0.99
  -2   8 -16   -0.38    1.87
  -2   8 -16    1.92    1.70
  -2   8 -16    1.72    1.84
   2  -8  16   -0.78    1.10
   2  -8  16   -0.40    1.53
   5   7 -16    0.82    2.35
  -5  -7  16    0.64    1.09
  -5  -7  16    1.52    1.04
   4   7 -16    1.38    2.02
   4   7 -16   -4.11    2.97
  -4  -7  16    1.01    0.90
  -4  -7  16    0.34    0.88
  -4  -7  16   -1.13    1.06
   3   7 -16    9.72    1.85
   3   7 -16   11.40    2.96
  -3  -7  16    9.97    1.30
  -3  -7  16    8.85    1.28
  -3  -7  16    7.65    1.12
   2   7 -16   -0.83    1.36
  -2  -7  16   -0.34    0.84
  -2  -7  16    0.85    0.76
  -2  -7  16   -0.87    1.03
   1   7 -16   -1.49    1.37
   1   7 -16    1.28    1.18
  -1  -7  16   -1.22    0.79
  -1  -7  16    0.70    0.67
   0   7 -16    2.50    1.16
   0   7 -16    2.77    1.50
   0  -7  16    0.18    0.92
  -1   7 -16    1.86    1.36
  -1   7 -16    0.26    1.46
   1  -7  16    0.93    0.97
   1  -7  16    0.69    1.26
  -2   7 -16    0.62    1.42
  -2   7 -16    1.88    1.71
  -2   7 -16    0.07    1.12
   2  -7  16    0.06    1.51
   2  -7  16    0.33    1.10
   6   6 -16    2.62    2.77
  -6  -6  16    0.35    1.19
  -6  -6  16   -1.43    1.34
   5   6 -16   -0.40    2.26
  -5  -6  16   -0.25    1.02
  -5  -6  16    0.88    1.00
   4   6 -16    1.34    3.05
   4   6 -16   -0.58    2.13
  -4  -6  16    1.62    0.90
  -4  -6  16    0.24    0.86
   3   6 -16   -0.73    2.41
   3   6 -16   -1.46    1.48
  -3  -6  16    0.48    0.90
  -3  -6  16    0.45    1.02
  -3  -6  16    0.58    0.81
   2   6 -16    3.35    1.25
   2   6 -16    3.57    1.36
  -2  -6  16    2.68    0.83
  -2  -6  16    2.45    0.93
   1   6 -16    5.23    1.35
   1   6 -16    3.97    1.48
  -1  -6  16    3.34    0.75
  -1  -6  16    4.30    1.01
   0   6 -16    6.85    1.65
   0   6 -16    5.44    1.33
   0  -6  16    3.23    1.00
   0  -6  16    4.60    1.26
  -1   6 -16    5.22    1.55
  -1   6 -16    6.40    1.73
   1  -6  16    4.18    1.07
   1  -6  16    4.31    1.37
  -2   6 -16    2.34    1.52
  -2   6 -16    1.15    1.73
  -2   6 -16    0.06    1.10
   2  -6  16   -0.06    1.43
   2  -6  16    2.89    1.21
   6   5 -16   -1.40    2.72
  -6  -5  16   -0.08    1.08
  -6  -5  16    1.01    1.31
   5   5 -16    4.13    3.60
   5   5 -16    0.73    2.13
  -5  -5  16    1.09    1.03
  -5  -5  16   -0.92    0.94
   4   5 -16    1.36    2.10
   4   5 -16   -3.79    2.84
  -4  -5  16    2.68    0.98
  -4  -5  16    1.87    0.86
   3   5 -16    0.51    2.23
  -3  -5  16    3.92    0.93
  -3  -5  16    2.88    0.91
   2   5 -16    1.05    1.37
   2   5 -16    3.70    1.31
  -2  -5  16    1.74    0.88
  -2  -5  16    2.08    0.92
   1   5 -16    0.02    1.26
   1   5 -16    1.25    1.22
  -1  -5  16    0.48    1.10
  -1  -5  16    0.55    0.86
   0   5 -16    1.41    1.27
   0   5 -16    0.35    1.37
   0  -5  16    2.46    1.18
   0  -5  16    2.60    0.68
   0  -5  16    2.68    0.90
  -1   5 -16    0.58    1.28
  -1   5 -16   -1.64    1.40
   1  -5  16   -1.38    1.02
   1  -5  16   -1.81    1.21
  -2   5 -16    1.95    1.14
  -2   5 -16    0.59    1.66
  -2   5 -16    3.69    1.59
   2  -5  16    1.18    1.50
   2  -5  16    0.45    1.17
   6   4 -16    1.47    2.72
  -6  -4  16   -1.27    1.03
  -6  -4  16    2.52    1.21
   5   4 -16   -0.25    1.96
   5   4 -16    6.98    3.61
  -5  -4  16    1.27    0.94
  -5  -4  16   -0.42    0.89
   4   4 -16   -1.30    2.94
   4   4 -16    1.69    1.83
  -4  -4  16    1.12    0.92
  -4  -4  16    0.97    0.84
   3   4 -16   -2.98    1.33
   3   4 -16    1.00    3.39
  -3  -4  16    0.28    0.76
  -3  -4  16   -0.92    0.80
   2   4 -16    5.69    2.06
   2   4 -16   -0.76    1.21
  -2  -4  16   -0.84    0.70
  -2  -4  16    0.25    0.87
   1   4 -16    8.05    1.43
  -1  -4  16    5.57    0.98
  -1  -4  16    9.55    1.25
   0   4 -16    0.61    1.39
   0   4 -16    1.53    1.61
   0  -4  16    3.04    1.22
   0  -4  16    4.42    1.11
  -1   4 -16    3.41    1.39
  -1   4 -16    4.37    1.65
   1  -4  16    5.56    1.36
   1  -4  16    5.56    1.17
  -2   4 -16    5.11    1.72
  -2   4 -16    0.70    1.15
   2  -4  16    3.70    1.25
   2  -4  16    2.46    1.48
   6   3 -16    0.26    2.30
   6   3 -16    1.25    3.74
  -6  -3  16    0.25    1.10
  -6  -3  16    0.46    1.20
   5   3 -16    1.39    3.25
   5   3 -16    3.71    2.03
  -5  -3  16    2.33    1.06
  -5  -3  16    2.12    1.03
   4   3 -16   -4.89    2.88
  -4  -3  16    0.32    0.89
  -4  -3  16    1.52    0.96
   3   3 -16    4.05    2.52
   3   3 -16    4.47    1.57
  -3  -3  16    2.78    0.94
  -3  -3  16    2.58    0.90
   2   3 -16    4.50    2.38
   2   3 -16    3.31    2.03
  -2  -3  16    2.83    0.90
  -2  -3  16    1.97    0.78
   1   3 -16    4.72    1.27
  -1  -3  16    3.39    0.99
  -1  -3  16    1.51    0.94
   0   3 -16    4.73    1.35
   0  -3  16    2.80    1.03
   0  -3  16    4.39    0.78
   0  -3  16    3.50    1.24
  -1   3 -16   -2.17    1.31
   1  -3  16   -1.71    1.04
   1  -3  16   -0.85    1.21
   1  -3  16    1.83    0.80
  -2   3 -16   -0.76    1.57
  -2   3 -16   -2.54    1.41
   2  -3  16    0.73    1.30
   2  -3  16    0.08    1.49
   6   2 -16   -1.47    3.18
   6   2 -16    6.00    3.87
  -6  -2  16    1.41    1.24
  -6  -2  16   -0.98    1.14
   5   2 -16   14.81    3.85
  -5  -2  16    3.69    1.10
  -5  -2  16    2.48    1.17
   4   2 -16    0.00    2.56
  -4  -2  16    4.16    0.96
  -4  -2  16    1.54    0.95
   3   2 -16    0.59    2.40
   3   2 -16   -1.56    1.47
  -3  -2  16    1.28    0.83
  -3  -2  16    1.71    0.92
   2   2 -16    0.15    1.29
   2   2 -16    3.74    2.01
  -2  -2  16    2.49    0.79
  -2  -2  16    0.76    0.89
  -2  -2  16    0.41    0.58
   1   2 -16    0.71    1.26
   1   2 -16    2.49    1.86
  -1  -2  16    1.42    0.73
  -1  -2  16    0.22    0.62
  -1  -2  16    2.52    0.95
   0   2 -16    3.64    1.41
   0  -2  16    1.45    0.75
   0  -2  16    0.21    0.96
   0  -2  16    1.40    1.16
  -1   2 -16    4.50    1.62
   1  -2  16    4.63    0.92
   1  -2  16    1.16    1.37
   1  -2  16    3.82    1.32
  -2   2 -16    1.69    1.94
   2  -2  16    0.54    1.39
   2  -2  16    1.85    1.62
   6   1 -16    7.01    4.12
  -6  -1  16    2.66    1.03
  -6  -1  16    0.77    1.22
  -6  -1  16   -0.01    1.18
   5   1 -16    0.73    3.37
  -5  -1  16    0.66    1.01
  -5  -1  16    1.91    1.03
  -5  -1  16    0.79    0.82
   4   1 -16   -1.24    2.89
  -4  -1  16   -0.43    0.99
  -4  -1  16   -0.30    0.67
  -4  -1  16    1.68    0.91
   3   1 -16   -0.46    2.45
   3   1 -16    2.60    1.50
  -3  -1  16    2.28    0.93
  -3  -1  16    1.10    0.68
  -3  -1  16    2.20    0.89
   2   1 -16    1.00    1.47
   2   1 -16    0.97    1.95
  -2  -1  16    0.91    0.65
  -2  -1  16    1.33    0.97
  -2  -1  16    1.51    0.78
   1   1 -16    6.20    2.35
   1   1 -16    0.68    1.43
  -1  -1  16    6.31    1.31
  -1  -1  16    4.47    1.09
  -1  -1  16    3.72    0.85
   0   1 -16    4.52    1.48
   0   1 -16    5.14    2.43
   0  -1  16    3.16    0.86
   0  -1  16    5.49    1.15
   0  -1  16    2.80    1.31
  -1   1 -16    1.06    1.60
   1  -1  16    2.70    0.85
   1  -1  16    1.35    1.44
   1  -1  16    0.08    1.19
  -2   1 -16    4.40    2.15
   2  -1  16    2.32    1.81
   2  -1  16    2.50    1.49
   6   0 -16    4.22    4.45
  -6   0  16    3.04    1.17
  -6   0  16    2.75    1.29
  -6   0  16   -0.77    1.26
   5   0 -16    3.73    3.85
  -5   0  16    1.67    1.05
  -5   0  16    4.81    1.18
  -5   0  16    1.33    0.89
   4   0 -16    0.59    3.12
  -4   0  16    1.39    0.90
  -4   0  16    2.01    0.99
  -4   0  16    0.47    0.77
   3   0 -16    4.84    1.62
   3   0 -16    3.44    2.56
  -3   0  16    2.74    1.04
  -3   0  16    3.61    0.89
  -3   0  16    1.84    0.73
   2   0 -16   -0.99    2.38
   2   0 -16    4.33    1.48
  -2   0  16    0.63    0.80
  -2   0  16   -0.04    0.98
  -2   0  16    1.33    0.63
   1   0 -16    1.57    2.43
   1   0 -16    1.34    1.38
  -1   0  16    0.09    0.63
  -1   0  16    1.10    1.05
  -1   0  16   -0.22    0.81
   0   0 -16    2.62    1.54
   0   0 -16   -0.63    2.03
   0   0  16    0.30    1.13
   0   0  16    0.19    0.81
  -1   0 -16    0.10    1.75
  -1   0 -16    1.74    2.85
   1   0  16    0.07    1.41
   1   0  16    1.48    0.95
   5  -1 -16   -0.87    4.08
  -5   1  16    2.26    0.97
  -5   1  16    0.88    1.15
  -5   1  16    2.78    1.17
   4  -1 -16   -0.36    3.37
  -4   1  16   -0.22    1.03
  -4   1  16    0.23    0.99
  -4   1  16    1.32    0.78
   3  -1 -16   -0.37    2.44
   3  -1 -16    1.76    1.66
  -3   1  16   -0.35    0.93
  -3   1  16    0.39    0.69
  -3   1  16   -0.14    1.00
   2  -1 -16    5.21    2.73
   2  -1 -16    1.15    1.56
  -2   1  16    0.82    1.09
  -2   1  16   -0.76    0.65
  -2   1  16    1.20    0.81
   1  -1 -16    2.00    2.50
   1  -1 -16   -0.30    1.56
  -1   1  16    2.32    0.90
  -1   1  16    2.74    0.89
  -1   1  16    2.37    1.24
   0  -1 -16    1.71    1.74
   0  -1 -16    3.21    2.67
   0   1  16    1.14    0.90
   0   1  16    1.18    1.26
  -1  -1 -16    0.74    3.18
  -1  -1 -16    0.45    2.17
   1   1  16    4.53    1.51
   5  -2 -16    2.54    3.82
  -5   2  16   -1.89    1.10
  -5   2  16    1.27    1.02
   4  -2 -16    1.75    3.69
  -4   2  16    1.31    0.83
  -4   2  16   -0.73    1.00
  -4   2  16    1.58    1.16
   3  -2 -16   -1.95    1.67
   3  -2 -16    2.87    3.27
  -3   2  16    0.40    0.70
  -3   2  16    1.86    1.14
  -3   2  16   -0.34    0.98
   2  -2 -16    1.19    1.76
   2  -2 -16    3.42    2.97
  -2   2  16    2.58    1.06
  -2   2  16    2.14    1.21
  -2   2  16    2.48    0.76
   1  -2 -16    5.09    2.01
   1  -2 -16    5.56    3.13
  -1   2  16    2.73    1.31
  -1   2  16    1.43    1.02
  -1   2  16   -0.81    0.74
   0  -2 -16    4.06    3.04
   0  -2 -16   -1.99    1.93
   0   2  16    1.14    1.13
   0   2  16   -4.32    2.10
   4  -3 -16    8.81    4.67
  -4   3  16    1.76    1.64
  -4   3  16   -0.53    0.93
   3  -3 -16    2.18    3.72
  -3   3  16   -1.06    0.84
  -3   3  16    0.00    1.20
   2  -3 -16    0.30    1.95
   2  -3 -16   -3.70    3.43
  -2   3  16    4.62    1.44
  -2   3  16    0.85    0.79
  -2   3  16   -0.84    1.23
   1  -3 -16    4.40    2.01
   1  -3 -16   -4.59    3.31
   1  -3 -16    0.07    2.29
  -1   3  16    0.41    1.24
  -1   3  16   -0.40    1.41
   3   9 -17   -0.24    2.03
  -3  -9  17   -0.49    0.98
  -3  -9  17    2.83    1.32
  -3  -9  17    0.49    1.36
   2   9 -17    2.44    2.06
  -2  -9  17    0.59    1.32
  -2  -9  17   -0.34    1.18
   1   9 -17    4.56    2.11
  -1  -9  17    0.89    1.20
   0   9 -17    1.47    1.48
   0   9 -17    0.11    1.91
   0  -9  17    1.60    1.23
  -4  -8  17    0.12    1.23
  -4  -8  17    0.72    1.30
   3   8 -17    0.69    3.33
   3   8 -17    0.56    1.85
  -3  -8  17    0.07    1.21
  -3  -8  17    1.94    0.96
  -3  -8  17   -0.46    1.08
   2   8 -17    1.68    1.83
  -2  -8  17    3.12    0.96
  -2  -8  17    5.60    1.42
  -2  -8  17    4.08    1.17
   1   8 -17    4.22    1.89
  -1  -8  17    1.39    1.06
   0   8 -17    3.69    1.80
   0   8 -17    2.08    1.46
   0  -8  17    0.26    1.38
   0  -8  17    0.92    1.14
  -1   8 -17    3.44    1.76
  -1   8 -17    7.50    2.16
   1  -8  17    0.33    1.33
   1  -8  17    4.18    1.77
  -4  -7  17    1.63    1.14
  -4  -7  17    3.24    1.10
   3   7 -17   -2.73    1.66
   3   7 -17    6.14    3.00
  -3  -7  17   -0.43    1.03
  -3  -7  17    3.39    1.21
  -3  -7  17    1.11    0.95
   2   7 -17   -0.07    1.50
  -2  -7  17    1.21    0.88
  -2  -7  17   -0.73    0.99
   1   7 -17    0.46    1.26
   1   7 -17    2.80    1.68
  -1  -7  17    1.66    1.07
   0   7 -17    0.66    1.68
   0   7 -17    2.20    1.40
   0  -7  17    0.21    1.11
   0  -7  17    0.71    1.39
  -1   7 -17    2.26    1.91
  -1   7 -17    2.74    1.65
   1  -7  17    0.17    1.55
   1  -7  17    0.03    1.23
   5   6 -17    0.16    2.75
  -5  -6  17   -0.85    1.13
  -5  -6  17    0.21    1.26
   4   6 -17   -7.05    3.43
  -4  -6  17    0.16    1.06
  -4  -6  17   -0.31    0.93
   3   6 -17   -1.59    2.72
  -3  -6  17   -1.29    0.80
  -3  -6  17    0.64    0.99
   2   6 -17    2.86    1.59
  -2  -6  17    1.01    0.78
  -2  -6  17    1.85    1.02
   1   6 -17    3.86    1.28
   1   6 -17    2.23    1.72
  -1  -6  17    0.37    0.97
  -1  -6  17    2.25    0.87
   0   6 -17    2.58    1.37
   0   6 -17    5.17    1.82
   0  -6  17    2.97    1.13
   0  -6  17    4.47    1.50
  -1   6 -17    2.56    1.55
  -1   6 -17    1.11    2.43
   1  -6  17    0.06    1.46
   1  -6  17    1.01    1.18
   5   5 -17    3.80    2.44
   5   5 -17    1.45    4.27
  -5  -5  17   -0.69    1.20
  -5  -5  17   -0.37    1.15
   4   5 -17   -1.72    3.28
  -4  -5  17    0.98    1.07
  -4  -5  17    2.94    1.01
   3   5 -17   -0.24    2.52
  -3  -5  17   -0.45    0.82
  -3  -5  17    0.93    1.03
   2   5 -17    4.07    2.34
   2   5 -17    2.17    1.39
  -2  -5  17    2.90    0.84
  -2  -5  17    2.07    1.09
   1   5 -17    1.72    1.30
   1   5 -17    2.61    1.75
  -1  -5  17    0.31    0.74
  -1  -5  17    2.26    1.02
   0   5 -17   -0.53    1.35
   0   5 -17    1.46    1.60
   0  -5  17    0.86    1.09
   0  -5  17    2.91    1.40
  -1   5 -17    1.41    1.58
  -1   5 -17    0.07    1.69
   1  -5  17    0.76    1.39
   1  -5  17    0.34    1.15
   5   4 -17    8.20    4.37
   5   4 -17    1.19    2.36
  -5  -4  17    0.53    1.12
  -5  -4  17    0.26    1.13
   4   4 -17   -2.51    3.13
  -4  -4  17    3.59    1.16
  -4  -4  17   -0.30    0.93
   3   4 -17   -3.50    4.21
  -3  -4  17   -0.65    0.94
  -3  -4  17   -1.14    0.78
   2   4 -17    1.38    1.46
   2   4 -17    1.64    2.23
  -2  -4  17   -0.75    0.89
  -2  -4  17    0.47    0.74
   1   4 -17    0.58    1.25
  -1  -4  17    1.28    1.07
   0   4 -17    0.15    1.32
   0  -4  17    2.75    1.27
   0  -4  17   -0.18    1.10
   0  -4  17   -0.11    0.75
  -1   4 -17   -0.09    1.59
   1  -4  17    0.01    1.20
   1  -4  17    0.01    1.80
   5   3 -17    0.31    4.35
  -5  -3  17   -0.67    1.14
  -5  -3  17    2.68    1.17
   4   3 -17   -2.58    3.25
  -4  -3  17    1.61    0.97
  -4  -3  17    0.13    1.05
   3   3 -17    0.78    1.64
   3   3 -17    4.27    2.91
  -3  -3  17    0.64    0.81
  -3  -3  17    0.61    0.99
   2   3 -17    3.67    2.39
   2   3 -17    2.28    1.45
  -2  -3  17    2.30    1.06
  -2  -3  17    0.81    0.80
   1   3 -17    4.28    1.45
   1   3 -17    7.24    2.56
  -1  -3  17    5.62    0.87
  -1  -3  17    6.49    1.26
  -1  -3  17    6.34    0.85
  -1  -3  17    4.56    1.42
   0   3 -17    2.81    1.44
   0  -3  17    0.71    1.27
   0  -3  17    1.45    1.24
   0  -3  17    0.82    0.79
  -1   3 -17    1.78    1.77
   1  -3  17    4.94    1.45
   1  -3  17   -1.73    1.50
   5   2 -17    9.55    4.73
  -5  -2  17    0.02    1.25
  -5  -2  17    2.62    1.23
   4   2 -17    0.62    3.32
  -4  -2  17    2.02    1.10
  -4  -2  17    2.91    1.14
   3   2 -17   -2.78    2.48
   3   2 -17    1.46    1.75
  -3  -2  17    0.89    0.71
  -3  -2  17    1.58    0.83
  -3  -2  17    1.94    1.02
   2   2 -17    2.75    2.47
   2   2 -17    0.18    1.47
  -2  -2  17    3.03    0.83
  -2  -2  17   -0.12    1.04
  -2  -2  17    1.99    0.67
   1   2 -17   -1.46    1.39
   1   2 -17   -3.27    2.31
  -1  -2  17    2.41    0.85
  -1  -2  17    0.31    0.75
  -1  -2  17   -0.41    1.11
  -1  -2  17    0.59    1.24
   0   2 -17   -0.33    1.50
   0   2 -17    0.62    2.46
   0  -2  17   -1.55    1.14
   0  -2  17   -0.86    1.33
   0  -2  17   -0.08    0.86
  -1   2 -17    2.54    1.95
   1  -2  17    0.18    1.04
   1  -2  17    0.86    1.34
   1  -2  17    1.43    1.57
   5   1 -17   -0.01    4.65
  -5  -1  17    0.59    1.18
  -5  -1  17   -0.31    0.96
  -5  -1  17   -0.10    1.23
   4   1 -17    3.11    3.60
  -4  -1  17   -0.20    1.04
  -4  -1  17   -1.14    0.95
  -4  -1  17    1.13    0.84
   3   1 -17   -1.88    1.62
   3   1 -17   -0.47    2.75
  -3  -1  17   -0.13    0.89
  -3  -1  17    0.21    1.10
  -3  -1  17    0.06    0.72
   2   1 -17    2.69    2.77
   2   1 -17    2.16    1.64
  -2  -1  17   -0.30    1.09
  -2  -1  17   -0.17    0.69
  -2  -1  17    0.70    0.86
   1   1 -17    1.94    1.59
   1   1 -17    4.02    2.76
  -1  -1  17    2.40    1.23
  -1  -1  17    2.89    0.85
   0   1 -17    4.56    1.85
   0   1 -17   -0.59    2.67
   0  -1  17    1.76    0.86
   0  -1  17   -0.18    1.34
  -1   1 -17    1.52    2.28
  -1   1 -17   -0.70    3.39
   1  -1  17    1.88    1.56
   1  -1  17    0.03    0.97
   5   0 -17    2.94    4.94
  -5   0  17    0.93    1.36
  -5   0  17    4.52    1.29
  -5   0  17    2.25    1.08
   4   0 -17   -7.74    3.34
  -4   0  17   -0.04    1.16
  -4   0  17    1.03    1.10
  -4   0  17    1.70    0.86
   3   0 -17   -3.46    3.30
   3   0 -17   -1.14    1.75
  -3   0  17    1.55    1.02
  -3   0  17    2.34    0.74
  -3   0  17    0.30    1.18
   2   0 -17   -1.08    2.80
   2   0 -17    1.27    1.58
  -2   0  17    1.38    0.99
  -2   0  17   -0.27    0.89
  -2   0  17   -0.79    1.20
   1   0 -17    2.97    1.81
   1   0 -17   -5.34    2.77
  -1   0  17    1.35    1.23
  -1   0  17    1.33    1.02
   0   0 -17    1.16    2.06
   0   0 -17   -4.01    2.96
   0   0  17   -0.05    1.41
   0   0  17    2.31    1.05
   4  -1 -17   -5.39    4.32
  -4   1  17   -0.62    1.24
  -4   1  17    1.25    1.34
  -4   1  17    2.68    0.97
   3  -1 -17   -1.91    3.69
   3  -1 -17   -0.75    1.86
  -3   1  17   -1.88    1.26
  -3   1  17   -1.17    1.09
  -3   1  17    1.00    0.85
   2  -1 -17    2.11    1.87
   2  -1 -17    5.46    3.44
  -2   1  17    3.06    1.10
  -2   1  17   -0.35    1.25
   1  -1 -17    5.27    3.30
   1  -1 -17    2.86    2.05
  -1   1  17    1.34    1.10
  -1   1  17   -2.22    1.48
   3  -2 -17   -7.64    3.65
  -3   2  17    0.02    1.41
  -3   2  17   -0.86    0.96
   2  -2 -17   -5.44    3.88
   2  -2 -17    2.66    2.29
  -2   2  17    0.87    1.37
  -2   2  17    3.00    1.56
  -2   2  17    0.95    0.86
   2   8 -18    5.47    2.46
   2   8 -18    5.51    3.32
  -2  -8  18    0.93    1.49
   3   7 -18   -2.78    3.40
  -3  -7  18    1.33    1.04
  -3  -7  18   -1.21    1.30
   2   7 -18   -0.10    2.96
   2   7 -18    2.83    2.09
  -2  -7  18   -1.76    0.89
  -2  -7  18    1.81    1.32
   1   7 -18    5.17    2.07
   1   7 -18    1.58    2.26
  -1  -7  18   -0.38    1.27
   4   6 -18   -8.99    4.17
  -4  -6  18    2.97    1.23
  -4  -6  18   -0.30    1.37
   3   6 -18    7.96    3.31
  -3  -6  18    0.84    0.99
  -3  -6  18    1.55    1.32
   2   6 -18    4.36    2.91
  -2  -6  18    1.54    0.91
  -2  -6  18    0.25    1.25
   1   6 -18    1.66    1.58
   1   6 -18    1.66    1.89
  -1  -6  18    1.01    1.29
   0   6 -18    0.23    1.66
   0   6 -18    2.32    2.12
   0  -6  18    3.65    1.52
   0  -6  18    4.50    1.67
   4   5 -18   -4.49    3.93
  -4  -5  18    0.17    1.29
  -4  -5  18   -0.22    1.15
  -3  -5  18    3.47    1.34
  -3  -5  18    2.62    1.00
   2   5 -18    2.30    2.93
  -2  -5  18    1.92    1.25
  -2  -5  18    1.92    0.91
   1   5 -18    7.26    1.58
  -1  -5  18    2.27    0.87
  -1  -5  18   -1.56    1.41
  -1  -5  18    0.95    1.29
   0   5 -18    3.18    1.76
   0  -5  18    1.88    1.61
   0  -5  18    1.83    1.52
   4   4 -18    2.67    4.41
  -4  -4  18    1.61    1.33
  -4  -4  18    1.48    1.24
   3   4 -18   -0.21    3.45
  -3  -4  18    1.35    0.97
  -3  -4  18    3.07    1.32
   2   4 -18    3.26    2.88
   2   4 -18    1.70    1.63
  -2  -4  18    0.07    1.19
  -2  -4  18    1.12    0.86
   1   4 -18    0.74    3.13
   1   4 -18   -0.08    1.55
  -1  -4  18    3.06    0.89
  -1  -4  18    0.06    1.27
   0   4 -18    1.61    1.80
   0  -4  18   -1.49    1.35
   0  -4  18    0.46    1.48
   4   3 -18   -1.11    4.46
  -4  -3  18    0.94    1.32
   3   3 -18   -1.63    3.58
  -3  -3  18    0.06    0.99
  -3  -3  18    0.89    1.19
   2   3 -18    0.29    3.15
   2   3 -18   -0.30    1.69
  -2  -3  18    0.21    0.89
  -2  -3  18    0.61    0.82
  -2  -3  18   -0.77    1.25
   1   3 -18    3.95    1.73
   1   3 -18   -1.43    3.05
  -1  -3  18    1.93    0.91
  -1  -3  18    2.59    1.48
  -1  -3  18    0.00    1.37
   0   3 -18    5.07    2.00
   0   3 -18    0.94    3.36
   0  -3  18    1.47    2.00
   0  -3  18    0.56    1.03
   0  -3  18   -0.77    2.12
   4   2 -18   -2.81    4.30
  -4  -2  18    2.13    1.32
  -4  -2  18   -0.21    1.20
  -4  -2  18    2.24    1.05
   3   2 -18    3.54    2.16
   3   2 -18    3.25    3.61
  -3  -2  18   -0.25    1.27
  -3  -2  18    0.21    1.01
  -3  -2  18    2.59    0.90
   2   2 -18   -0.61    1.74
   2   2 -18   -3.58    3.22
  -2  -2  18    0.79    0.95
  -2  -2  18    0.84    1.34
  -2  -2  18    0.02    0.78
   1   2 -18   -1.84    1.78
   1   2 -18    2.71    2.75
  -1  -2  18   -0.56    0.94
  -1  -2  18   -0.14    1.40
   3   1 -18    2.57    2.01
   3   1 -18   -4.11    3.61
  -3  -1  18    0.74    0.85
  -3  -1  18   -0.59    1.64
  -3  -1  18   -0.94    1.34
   2   1 -18    0.24    1.88
   2   1 -18   -0.81    3.65
  -2  -1  18    0.92    1.38
  -2  -1  18    0.58    1.08
  -2  -1  18   -0.42    0.78
   1   1 -18    1.31    2.10
   1   1 -18   -1.67    3.68
  -1  -1  18    1.91    1.47
  -1  -1  18   -0.09    1.07
   0   0   0    0.00    0.00
;
_shelx_hkl_checksum              80967
loop_
_space_group_symop_operation_xyz
'x, y, z'
'-x, -y, -z'
loop_
_atom_site_label
_atom_site_type_symbol
_atom_site_fract_x
_atom_site_fract_y
_atom_site_fract_z
_atom_site_U_iso_or_equiv
_atom_site_adp_type
_atom_site_occupancy
_atom_site_site_symmetry_order
_atom_site_calc_flag
_atom_site_refinement_flags_posn
_atom_site_refinement_flags_adp
O1 O 0.9509(3) 1.00413(19) 0.62550(15) 0.0489(4) Uani 1 1 d . .
H1A H 0.8252 0.9843 0.5669 0.073 Uiso 1 1 calc R U
Se1 Se 0.43645(3) 0.79367(2) 0.54711(2) 0.04250(9) Uani 1 1 d . .
C1 C 0.9267(3) 0.9217(2) 0.70663(17) 0.0349(3) Uani 1 1 d . .
C2 C 0.7164(3) 0.8200(2) 0.68777(16) 0.0335(3) Uani 1 1 d . .
C3 C 0.7046(4) 0.7403(2) 0.77631(19) 0.0406(4) Uani 1 1 d . .
H3A H 0.5650 0.6723 0.7650 0.049 Uiso 1 1 calc R U
C4 C 0.9004(4) 0.7636(2) 0.87940(19) 0.0439(4) Uani 1 1 d . .
C5 C 1.1074(4) 0.8624(2) 0.89680(19) 0.0434(4) Uani 1 1 d . .
C6 C 1.1251(4) 0.9418(2) 0.8109(2) 0.0421(4) Uani 1 1 d . .
H6A H 1.2676 1.0077 0.8227 0.051 Uiso 1 1 calc R U
C7 C 0.5727(3) 0.7023(2) 0.40484(18) 0.0349(3) Uani 1 1 d . .
C8 C 0.7742(4) 0.6241(2) 0.41787(19) 0.0404(4) Uani 1 1 d . .
H8A H 0.8478 0.6137 0.4976 0.049 Uiso 1 1 calc R U
C9 C 0.8659(4) 0.5615(3) 0.3126(2) 0.0467(5) Uani 1 1 d . .
H9A H 1.0024 0.5102 0.3219 0.056 Uiso 1 1 calc R U
C10 C 0.7560(5) 0.5747(3) 0.1937(2) 0.0508(5) Uani 1 1 d . .
H10A H 0.8176 0.5324 0.1227 0.061 Uiso 1 1 calc R U
C11 C 0.5543(5) 0.6509(3) 0.1810(2) 0.0529(5) Uani 1 1 d . .
H11A H 0.4786 0.6587 0.1006 0.063 Uiso 1 1 calc R U
C12 C 0.4628(4) 0.7158(3) 0.2850(2) 0.0466(5) Uani 1 1 d . .
H12A H 0.3280 0.7685 0.2753 0.056 Uiso 1 1 calc R U
F1 F 0.8955(3) 0.6880(2) 0.96725(14) 0.0717(5) Uani 1 1 d . .
F2 F 1.2984(3) 0.8797(2) 0.99879(14) 0.0710(4) Uani 1 1 d . .
loop_
_atom_site_aniso_label
_atom_site_aniso_U_11
_atom_site_aniso_U_22
_atom_site_aniso_U_33
_atom_site_aniso_U_23
_atom_site_aniso_U_13
_atom_site_aniso_U_12
O1 0.0461(8) 0.0575(8) 0.0492(8) 0.0318(7) 0.0072(7) -0.0005(7)
Se1 0.02875(11) 0.06049(15) 0.03797(12) 0.01545(9) 0.00653(8) 0.01037(8)
C1 0.0354(9) 0.0398(9) 0.0314(8) 0.0125(7) 0.0096(7) 0.0077(7)
C2 0.0317(8) 0.0408(9) 0.0283(7) 0.0100(7) 0.0090(6) 0.0066(7)
C3 0.0426(10) 0.0445(10) 0.0371(9) 0.0142(8) 0.0144(8) 0.0026(8)
C4 0.0573(12) 0.0476(10) 0.0325(9) 0.0189(8) 0.0133(8) 0.0107(9)
C5 0.0455(11) 0.0495(11) 0.0314(8) 0.0123(8) 0.0012(8) 0.0113(9)
C6 0.0361(9) 0.0470(10) 0.0397(10) 0.0132(8) 0.0041(8) 0.0013(8)
C7 0.0319(8) 0.0394(9) 0.0309(8) 0.0132(6) 0.0020(6) -0.0006(7)
C8 0.0368(9) 0.0502(10) 0.0332(9) 0.0140(8) 0.0043(7) 0.0097(8)
C9 0.0442(11) 0.0541(11) 0.0406(10) 0.0119(9) 0.0111(9) 0.0097(9)
C10 0.0612(14) 0.0542(12) 0.0367(10) 0.0114(9) 0.0168(10) 0.0037(10)
C11 0.0660(15) 0.0606(13) 0.0314(9) 0.0208(9) 0.0038(9) 0.0045(11)
C12 0.0467(11) 0.0533(11) 0.0386(10) 0.0206(9) -0.0001(8) 0.0094(9)
F1 0.0923(13) 0.0848(10) 0.0503(8) 0.0443(8) 0.0150(8) 0.0037(9)
F2 0.0637(10) 0.0896(11) 0.0490(8) 0.0292(8) -0.0150(7) 0.0041(8)
loop_
_atom_type_symbol
_atom_type_description
_atom_type_scat_dispersion_real
_atom_type_scat_dispersion_imag
_atom_type_scat_source
C C 0.0033 0.0016 'International Tables Vol C Tables 4.2.6.8 and 6.1.1.4'
H H 0.0000 0.0000 'International Tables Vol C Tables 4.2.6.8 and 6.1.1.4'
O O 0.0106 0.0060 'International Tables Vol C Tables 4.2.6.8 and 6.1.1.4'
F F 0.0171 0.0103 'International Tables Vol C Tables 4.2.6.8 and 6.1.1.4'
Se Se -0.0929 2.2259 'International Tables Vol C Tables 4.2.6.8 and 6.1.1.4'
loop_
_geom_angle_atom_site_label_1
_geom_angle_atom_site_label_2
_geom_angle_atom_site_label_3
_geom_angle
C2 Se1 C7 99.94(7)
O1 C1 C6 116.55(18)
O1 C1 C2 123.01(17)
C6 C1 C2 120.44(17)
C1 C2 C3 119.60(17)
C1 C2 Se1 121.36(13)
C3 C2 Se1 118.98(14)
C4 C3 C2 119.07(18)
F1 C4 C3 120.7(2)
F1 C4 C5 118.20(19)
C3 C4 C5 121.12(18)
F2 C5 C4 119.13(19)
F2 C5 C6 119.7(2)
C4 C5 C6 121.19(19)
C5 C6 C1 118.57(19)
C8 C7 C12 119.44(19)
C8 C7 Se1 122.45(14)
C12 C7 Se1 118.11(16)
C9 C8 C7 120.09(18)
C10 C9 C8 120.3(2)
C11 C10 C9 119.3(2)
C12 C11 C10 121.13(19)
C11 C12 C7 119.7(2)
loop_
_geom_bond_atom_site_label_1
_geom_bond_atom_site_label_2
_geom_bond_distance
O1 C1 1.356(2)
Se1 C2 1.9095(18)
Se1 C7 1.922(2)
C1 C6 1.382(3)
C1 C2 1.391(3)
C2 C3 1.396(3)
C3 C4 1.361(3)
C4 F1 1.356(2)
C4 C5 1.366(3)
C5 F2 1.346(2)
C5 C6 1.375(3)
C7 C8 1.385(3)
C7 C12 1.388(3)
C8 C9 1.382(3)
C9 C10 1.378(3)
C10 C11 1.375(4)
C11 C12 1.374(3)
