#------------------------------------------------------------------------------
#$Date: 2019-11-10 07:21:30 +0200 (Sun, 10 Nov 2019) $
#$Revision: 225836 $
#$URL: file:///home/coder/svn-repositories/cod/cif/4/51/57/4515702.cif $
#------------------------------------------------------------------------------
#
# This file is available in the Crystallography Open Database (COD),
# http://www.crystallography.net/
#
# All data on this site have been placed in the public domain by the
# contributors.
#
data_4515702
loop_
_publ_author_name
'Tamang, Sem Raj'
'Singh, Arpita'
'Unruh, Daniel K.'
'Findlater, Michael'
_publ_section_title
;
 Nickel-Catalyzed Regioselective 1,4-Hydroboration of N-Heteroarenes
;
_journal_issue                   7
_journal_name_full               'ACS Catalysis'
_journal_page_first              6186
_journal_paper_doi               10.1021/acscatal.8b01166
_journal_volume                  8
_journal_year                    2018
_chemical_formula_moiety         'C24 H28 N2 Ni O8'
_chemical_formula_sum            'C24 H28 N2 Ni O8'
_chemical_formula_weight         531.19
_space_group_crystal_system      triclinic
_space_group_IT_number           2
_space_group_name_Hall           '-P 1'
_space_group_name_H-M_alt        'P -1'
_atom_sites_solution_hydrogens   geom
_audit_creation_method           SHELXL-2013
_cell_angle_alpha                101.952(14)
_cell_angle_beta                 99.095(8)
_cell_angle_gamma                99.806(9)
_cell_formula_units_Z            1
_cell_length_a                   6.736(3)
_cell_length_b                   8.129(3)
_cell_length_c                   11.969(5)
_cell_measurement_reflns_used    7304
_cell_measurement_temperature    100(2)
_cell_measurement_theta_max      27.16
_cell_measurement_theta_min      2.61
_cell_volume                     619.0(4)
_computing_cell_refinement       'Bruker SAINT'
_computing_data_collection       'Bruker APEX2'
_computing_data_reduction        'Bruker SAINT'
_computing_molecular_graphics    'Bruker SHELXTL'
_computing_publication_material  'Bruker SHELXTL'
_computing_structure_refinement  'SHELXL-2014 (Sheldrick 2014)'
_computing_structure_solution    'SHELXS-97 (Sheldrick 2008)'
_diffrn_ambient_temperature      100(2)
_diffrn_measured_fraction_theta_full 1.000
_diffrn_measured_fraction_theta_max 0.995
_diffrn_measurement_device_type  'Bruker APEX-II CCD'
_diffrn_measurement_method       '\f and \w scans'
_diffrn_radiation_type           MoK\a
_diffrn_radiation_wavelength     0.71073
_diffrn_reflns_av_R_equivalents  0.0251
_diffrn_reflns_av_unetI/netI     0.0194
_diffrn_reflns_Laue_measured_fraction_full 1.000
_diffrn_reflns_Laue_measured_fraction_max 0.995
_diffrn_reflns_limit_h_max       8
_diffrn_reflns_limit_h_min       -8
_diffrn_reflns_limit_k_max       10
_diffrn_reflns_limit_k_min       -10
_diffrn_reflns_limit_l_max       15
_diffrn_reflns_limit_l_min       -15
_diffrn_reflns_number            13805
_diffrn_reflns_point_group_measured_fraction_full 1.000
_diffrn_reflns_point_group_measured_fraction_max 0.995
_diffrn_reflns_theta_full        25.242
_diffrn_reflns_theta_max         27.270
_diffrn_reflns_theta_min         1.775
_exptl_absorpt_coefficient_mu    0.834
_exptl_absorpt_correction_T_max  0.924
_exptl_absorpt_correction_T_min  0.835
_exptl_absorpt_correction_type   multi-scan
_exptl_absorpt_process_details   SADABS
_exptl_crystal_colour            purple
_exptl_crystal_density_diffrn    1.425
_exptl_crystal_description       blade
_exptl_crystal_F_000             278
_exptl_crystal_size_max          0.485
_exptl_crystal_size_mid          0.180
_exptl_crystal_size_min          0.095
_refine_diff_density_max         0.359
_refine_diff_density_min         -0.334
_refine_diff_density_rms         0.050
_refine_ls_extinction_method     none
_refine_ls_goodness_of_fit_ref   1.066
_refine_ls_hydrogen_treatment    constr
_refine_ls_matrix_type           full
_refine_ls_number_parameters     163
_refine_ls_number_reflns         2780
_refine_ls_number_restraints     0
_refine_ls_restrained_S_all      1.066
_refine_ls_R_factor_all          0.0273
_refine_ls_R_factor_gt           0.0243
_refine_ls_shift/su_max          0.000
_refine_ls_shift/su_mean         0.000
_refine_ls_structure_factor_coef Fsqd
_refine_ls_weighting_details
'w=1/[\s^2^(Fo^2^)+(0.0275P)^2^+0.3187P] where P=(Fo^2^+2Fc^2^)/3'
_refine_ls_weighting_scheme      calc
_refine_ls_wR_factor_gt          0.0614
_refine_ls_wR_factor_ref         0.0626
_reflns_Friedel_coverage         0.000
_reflns_number_gt                2598
_reflns_number_total             2780
_reflns_threshold_expression     'I > 2\s(I)'
_cod_data_source_file            cs8b01166_si_002.cif
_cod_data_source_block           shelx
_cod_database_code               4515702
_shelx_space_group_comment
;
The symmetry employed for this shelxl refinement is uniquely defined
by the following loop, which should always be used as a source of
symmetry information in preference to the above space-group names.
They are only intended as comments.
;
_shelx_estimated_absorpt_t_min   0.688
_shelx_estimated_absorpt_t_max   0.925
_shelxl_version_number           2013-4
_shelx_res_file
;
TITL fin18_01_a.res in P-1
CELL  0.71073   6.7359   8.1292  11.9687  101.952   99.095   99.806
ZERR     1.00   0.0027   0.0031   0.0049    0.014    0.008    0.009
LATT   1
SFAC  C    H    N    NI   O
UNIT  24 28 2 1 8
MERG   2
FMAP   2
PLAN   20
SIZE     0.095   0.180   0.485
ACTA
BOND   $H
LIST   4
L.S.  10
TEMP  -173.15
WGHT    0.027500    0.318700
FVAR       0.73883
NI1   4    0.500000    0.500000    0.500000    10.50000    0.00955    0.01392 =
         0.01418    0.00378    0.00143    0.00406
O1    5    0.733500    0.661504    0.622153    11.00000    0.01135    0.01746 =
         0.01844    0.00456    0.00181    0.00328
O2    5    0.336244    0.685069    0.498044    11.00000    0.01311    0.01567 =
         0.01672    0.00352    0.00203    0.00541
O3    5    0.505359    0.739837    0.007043    11.00000    0.02194    0.03083 =
         0.01863    0.01233    0.00525    0.00763
O4    5    0.244282    0.685559    0.097661    11.00000    0.01667    0.04452 =
         0.02518    0.01697    0.00372    0.00991
N1    3    0.630571    0.569019    0.362544    11.00000    0.01159    0.01403 =
         0.01655    0.00357    0.00281    0.00394
C1    1    0.715342    0.802087    0.683947    11.00000    0.01400    0.01745 =
         0.01516    0.00652    0.00404   -0.00058
C2    1    0.552058    0.886025    0.663928    11.00000    0.01828    0.01501 =
         0.01812    0.00198    0.00455    0.00379
AFIX  43
H2    2    0.560015    0.992871    0.716706    11.00000   -1.20000
AFIX   0
C3    1    0.377883    0.826749    0.573083    11.00000    0.01492    0.01526 =
         0.01700    0.00796    0.00789    0.00459
C4    1    0.884813    0.883482    0.789990    11.00000    0.01903    0.02415 =
         0.02202    0.00263   -0.00051    0.00195
AFIX 137
H4A   2    0.867515    0.998977    0.824997    11.00000   -1.50000
H4B   2    1.018560    0.891419    0.766712    11.00000   -1.50000
H4C   2    0.878148    0.812778    0.846954    11.00000   -1.50000
AFIX   0
C5    1    0.223400    0.939900    0.561932    11.00000    0.01998    0.01907 =
         0.02334    0.00522    0.00572    0.00904
AFIX 137
H5A   2    0.263589    1.042254    0.627005    11.00000   -1.50000
H5B   2    0.087025    0.875980    0.563392    11.00000   -1.50000
H5C   2    0.219318    0.974908    0.488161    11.00000   -1.50000
AFIX   0
C6    1    0.506652    0.600466    0.274415    11.00000    0.01067    0.01672 =
         0.01758    0.00353    0.00270    0.00443
AFIX  43
H6    2    0.363751    0.584820    0.274761    11.00000   -1.20000
AFIX   0
C7    1    0.576181    0.654884    0.182298    11.00000    0.01449    0.01380 =
         0.01604    0.00207    0.00303    0.00365
C8    1    0.785474    0.676541    0.181227    11.00000    0.01684    0.01940 =
         0.02007    0.00513    0.00796    0.00361
AFIX  43
H8    2    0.838384    0.711829    0.118955    11.00000   -1.20000
AFIX   0
C9    1    0.914403    0.645421    0.273031    11.00000    0.01047    0.02333 =
         0.02657    0.00648    0.00515    0.00455
AFIX  43
H9    2    1.058097    0.660747    0.275247    11.00000   -1.20000
AFIX   0
C10   1    0.832329    0.591821    0.361530    11.00000    0.01223    0.01746 =
         0.02010    0.00399    0.00077    0.00467
AFIX  43
H10   2    0.922134    0.570314    0.423988    11.00000   -1.20000
AFIX   0
C11   1    0.422257    0.692900    0.092723    11.00000    0.01808    0.01584 =
         0.01594    0.00267    0.00324    0.00295
C12   1    0.363627    0.785138   -0.080201    11.00000    0.03001    0.03334 =
         0.02069    0.01360    0.00195    0.00872
AFIX 137
H12A  2    0.432395    0.807038   -0.143569    11.00000   -1.50000
H12B  2    0.318943    0.888814   -0.044638    11.00000   -1.50000
H12C  2    0.243723    0.690189   -0.111376    11.00000   -1.50000
AFIX   0
HKLF    4

REM  fin18_01_a.res in P-1
REM R1 =  0.0243 for    2598 Fo > 4sig(Fo)  and  0.0273 for all    2780 data
REM    163 parameters refined using      0 restraints

END

WGHT      0.0275      0.3185

REM Highest difference peak  0.359,  deepest hole -0.334,  1-sigma level  0.050
Q1    1   0.5136  0.3942  0.4378  11.00000  0.05    0.36
Q2    1   0.6332  0.8435  0.6604  11.00000  0.05    0.33
Q3    1   0.4698  0.4817  0.4008  11.00000  0.05    0.33
Q4    1   0.5423  0.6190  0.2193  11.00000  0.05    0.33
Q5    1   0.5947  0.5382  0.4181  11.00000  0.05    0.31
Q6    1   0.5036  0.6644  0.1387  11.00000  0.05    0.30
Q7    1   0.6695  0.6605  0.1801  11.00000  0.05    0.30
Q8    1   0.4495  0.8368  0.6345  11.00000  0.05    0.30
Q9    1   0.6424  0.6148  0.5843  11.00000  0.05    0.29
Q10   1   0.3085  0.8820  0.5701  11.00000  0.05    0.28
Q11   1   0.7975  0.8440  0.7347  11.00000  0.05    0.25
Q12   1   0.6472  0.6128  0.1648  11.00000  0.05    0.25
Q13   1   0.6966  0.7207  0.6508  11.00000  0.05    0.25
Q14   1   0.2919  0.6294  0.0605  11.00000  0.05    0.23
Q15   1   0.8578  0.6881  0.2343  11.00000  0.05    0.23
Q16   1   0.8735  0.6389  0.3202  11.00000  0.05    0.23
Q17   1   0.8624  0.5701  0.2940  11.00000  0.05    0.22
Q18   1   0.5892  0.6067  0.3166  11.00000  0.05    0.19
Q19   1   0.3834  0.6281  0.4963  11.00000  0.05    0.18
Q20   1   0.5723  0.9519  0.6780  11.00000  0.05    0.18
;
_shelx_res_checksum              50923
_shelx_hkl_file
;
  -1   0   0 4323.57   78.79
  -1   0   0 4368.06   78.89
   1   0   0 4459.65   80.89
   1   0   0 4290.97   78.69
   1   0   0 4355.96   80.29
  -2   0   0   22.10    1.40
  -2   0   0   19.60    1.30
   2   0   0   17.40    1.40
   2   0   0   20.10    1.30
  -3   0   0  436.96    9.90
  -3   0   0  448.96    9.60
  -3   0   0  436.46    9.90
   3   0   0  446.26   10.30
   3   0   0  440.86   10.10
  -4   0   0  264.77    7.30
  -4   0   0  267.97    7.30
  -4   0   0  264.17    6.80
   4   0   0  266.17    7.40
   4   0   0  266.47    7.70
  -5   0   0  175.78    5.60
  -5   0   0  186.68    6.30
  -5   0   0  187.68    6.30
   5   0   0  186.48    6.30
   5   0   0  174.18    6.50
  -6   0   0   34.60    3.60
  -6   0   0   26.20    3.30
   6   0   0   28.60    3.40
   6   0   0   27.40    3.40
  -7   0   0  149.79    6.90
  -7   0   0  153.18    7.00
   7   0   0  157.48    6.90
   7   0   0  162.58    7.50
  -8   0   0  138.89    7.00
  -8   0   0  122.99    6.90
   8   0   0  116.49    8.40
   8   0   0  138.49    7.80
   8  -1   0   31.00    4.40
   8  -1   0   29.40    4.10
  -8   1   0   31.00    4.10
  -8   1   0   29.60    3.80
   7  -1   0  105.69    5.80
   7  -1   0  121.29    6.50
  -7   1   0  115.69    5.70
  -7   1   0  111.29    5.90
   6  -1   0  413.06   11.70
   6  -1   0  403.16   11.90
  -6   1   0  428.56   11.60
  -6   1   0  419.46   11.20
   5  -1   0  366.56   10.30
   5  -1   0  366.26   10.00
  -5   1   0  356.46    9.40
  -5   1   0  355.56    9.80
   4  -1   0  302.77    8.10
   4  -1   0  300.27    8.30
  -4   1   0  294.77    7.90
  -4   1   0  289.77    7.50
  -4   1   0  288.07    7.20
   3  -1   0  218.28    6.00
   3  -1   0  219.98    6.00
  -3   1   0  217.28    5.50
  -3   1   0  218.48    5.50
  -3   1   0  215.68    5.80
   2  -1   0   50.09    2.10
   2  -1   0   50.39    2.10
  -2   1   0   51.39    2.10
  -2   1   0   51.69    1.70
  -2   1   0   50.99    2.00
  -2   1   0   49.60    1.80
  -2   1   0   51.79    1.60
   1  -1   0 1199.08   21.70
   1  -1   0 1151.28   21.70
  -1   1   0 1154.98   21.60
  -1   1   0 1160.88   21.30
  -1   1   0 1127.69   21.30
  -1   1   0 1155.58   21.60
  -1   1   0 1168.58   21.40
   0   1   0 1820.52   32.10
   0   1   0 1703.43   31.90
   0   1   0 1753.32   31.90
   0   1   0 1736.93   32.00
   0   1   0 1753.42   31.90
   0   1   0 1735.13   32.00
   0   1   0 1827.12   32.20
   0   1   0 1740.73   31.90
  -1  -1   0  556.34   10.80
  -1  -1   0  566.14   11.10
   1   1   0  570.84   11.10
   1   1   0  558.84   11.20
   1   1   0  577.94   11.30
  -2  -1   0 1259.57   24.90
  -2  -1   0 1285.57   24.70
   2   1   0 1309.67   25.00
   2   1   0 1354.56   25.40
  -3  -1   0  162.88    5.00
  -3  -1   0  165.88    4.90
  -3  -1   0  173.08    4.90
   3   1   0  170.98    5.00
   3   1   0  171.98    5.30
  -4  -1   0   88.59    3.80
  -4  -1   0   86.29    3.80
  -4  -1   0   86.29    3.90
   4   1   0   91.79    4.10
   4   1   0   91.79    3.90
  -5  -1   0   13.90    2.30
  -5  -1   0   20.60    2.60
  -5  -1   0   15.00    2.10
   5   1   0   12.50    2.20
   5   1   0   17.20    2.70
  -6  -1   0    4.60    1.90
  -6  -1   0    5.20    1.80
  -6  -1   0    2.40    2.00
   6   1   0    3.50    1.80
   6   1   0    5.20    2.00
  -7  -1   0   77.89    5.30
  -7  -1   0   77.69    5.60
   7   1   0   84.29    5.30
   7   1   0   80.89    5.70
  -8  -1   0   74.89    5.70
  -8  -1   0   69.39    6.10
   8   1   0   61.49    5.80
   8  -2   0   25.60    4.00
   8  -2   0   24.80    4.10
  -8   2   0   23.50    3.40
  -8   2   0   29.30    4.20
   7  -2   0   23.10    3.50
   7  -2   0   20.80    3.50
  -7   2   0   24.70    3.40
  -7   2   0   22.20    2.80
   6  -2   0    9.00    2.40
   6  -2   0    9.70    2.40
  -6   2   0   11.10    2.00
  -6   2   0    9.30    2.00
  -6   2   0   10.10    2.30
   5  -2   0   35.90    3.10
   5  -2   0   31.40    2.10
   5  -2   0   30.80    2.10
   5  -2   0   33.60    3.10
  -5   2   0   35.90    2.90
  -5   2   0   34.00    2.70
  -5   2   0   30.20    2.50
   4  -2   0  116.69    4.60
   4  -2   0  125.89    4.80
  -4   2   0  125.49    4.50
  -4   2   0  115.39    4.00
  -4   2   0  120.39    4.20
   3  -2   0  503.15   11.20
   3  -2   0  488.35   11.10
  -3   2   0  490.75   10.70
  -3   2   0  476.65   10.00
  -3   2   0  474.95   10.20
  -3   2   0  479.45   10.00
  -3   2   0  484.65   10.80
   2  -2   0  363.56    8.20
   2  -2   0  356.06    8.20
  -2   2   0  357.46    7.50
  -2   2   0  357.26    8.00
  -2   2   0  357.76    7.50
  -2   2   0  364.96    7.90
  -2   2   0  359.46    7.40
   1  -2   0  166.28    4.10
  -1   2   0  163.48    4.10
  -1   2   0  162.58    3.80
  -1   2   0  161.68    3.80
  -1   2   0  159.78    3.80
  -1   2   0  157.58    4.00
   0   2   0  383.26    7.50
   0   2   0  365.76    7.50
   0   2   0  371.86    7.80
   0   2   0  389.56    8.00
   0   2   0  382.46    7.50
   0   2   0  376.76    7.90
   0   2   0  376.66    7.50
  -1  -2   0  233.28    5.40
  -1  -2   0  231.88    5.10
   1   2   0  237.08    5.50
   1   2   0  230.48    5.60
   1   2   0  234.78    5.60
  -2  -2   0  419.86    9.10
  -2  -2   0  435.86    9.60
   2   2   0  437.76    9.90
   2   2   0  441.96    9.60
  -3  -2   0  256.17    6.90
  -3  -2   0  257.27    7.10
  -3  -2   0  249.88    6.60
   3   2   0  261.87    7.30
   3   2   0  264.67    6.90
  -4  -2   0   13.50    2.00
  -4  -2   0   12.10    1.90
  -4  -2   0    7.30    1.80
   4   2   0   12.00    1.90
   4   2   0    9.90    1.90
  -5  -2   0   49.90    3.80
  -5  -2   0   46.20    3.50
  -5  -2   0   50.09    3.70
   5   2   0   49.20    3.50
   5   2   0   48.50    3.60
  -6  -2   0  296.87    9.40
  -6  -2   0  306.77    9.90
  -6  -2   0  291.77    9.40
   6   2   0  297.47    9.50
   6   2   0  295.07   10.00
  -7  -2   0   71.39    5.30
  -7  -2   0   85.59    5.50
  -7  -2   0   70.79    5.70
   7   2   0   83.69    5.80
   8  -3   0   91.79    6.50
   8  -3   0   95.89    6.70
  -8   3   0   81.99    5.90
   7  -3   0   30.50    4.20
   7  -3   0   33.10    4.40
  -7   3   0   26.50    3.00
  -7   3   0   31.00    3.40
  -7   3   0   34.70    4.00
   6  -3   0  248.18    6.90
   6  -3   0  251.87    8.90
   6  -3   0  259.37    9.00
   6  -3   0  254.17    7.00
  -6   3   0  246.68    7.90
  -6   3   0  238.68    7.40
  -6   3   0  245.68    8.40
   5  -3   0   35.60    3.30
   5  -3   0   35.70    3.30
  -5   3   0   29.80    2.50
  -5   3   0   29.60    2.80
  -5   3   0   37.00    3.20
   4  -3   0    0.90    1.10
   4  -3   0    1.20    1.10
  -4   3   0    3.10    1.30
  -4   3   0    4.40    1.10
  -4   3   0    3.80    1.30
  -4   3   0    4.40    1.10
  -4   3   0    4.00    1.00
   3  -3   0  606.64   13.70
   3  -3   0  607.74   13.80
  -3   3   0  614.24   12.70
  -3   3   0  625.24   12.70
  -3   3   0  597.74   12.30
  -3   3   0  610.34   13.30
  -3   3   0  608.44   13.10
   2  -3   0 1477.15   28.80
   2  -3   0 1507.25   28.70
  -2   3   0 1459.05   27.80
  -2   3   0 1451.55   27.80
  -2   3   0 1442.06   28.40
  -2   3   0 1488.55   28.10
   1  -3   0  915.51   18.20
  -1   3   0  906.01   18.00
  -1   3   0  910.81   17.70
  -1   3   0  906.81   17.60
  -1   3   0  903.41   17.60
  -1   3   0  942.31   18.30
   0   3   0  227.68    5.60
   0   3   0  222.88    5.00
   0   3   0  226.38    5.00
   0   3   0  220.78    5.10
   0   3   0  231.38    5.70
   0   3   0  210.08    5.00
  -1  -3   0    1.80    0.80
  -1  -3   0    1.40    0.60
   1   3   0    2.50    0.90
   1   3   0    2.10    0.60
   1   3   0    1.60    0.80
  -2  -3   0  296.17    7.10
  -2  -3   0  312.67    8.10
  -2  -3   0  318.17    7.80
   2   3   0  325.37    7.80
   2   3   0  319.17    8.00
  -3  -3   0   27.80    2.10
  -3  -3   0   29.70    2.60
  -3  -3   0   27.40    2.40
   3   3   0   30.80    2.20
   3   3   0   28.40    2.40
  -4  -3   0    3.10    1.50
  -4  -3   0    4.50    1.60
  -4  -3   0    2.40    1.70
   4   3   0    2.10    1.20
   4   3   0    3.10    1.50
  -5  -3   0  174.28    6.30
  -5  -3   0  165.18    6.70
  -5  -3   0  167.58    6.80
   5   3   0  162.08    6.20
   5   3   0  166.48    6.90
  -6  -3   0  145.99    6.90
  -6  -3   0  140.49    6.30
  -6  -3   0  134.19    6.80
   6   3   0  138.49    6.30
   6   3   0  147.39    7.10
  -7  -3   0   28.10    4.30
  -7  -3   0   19.80    3.70
   7   3   0   25.00    4.00
   8  -4   0   62.19    6.10
   8  -4   0   66.09    6.00
  -8   4   0   64.49    5.70
   7  -4   0  138.69    7.40
   7  -4   0  158.98    7.60
  -7   4   0  145.19    7.00
  -7   4   0  153.48    6.70
   6  -4   0  162.78    5.70
   6  -4   0  161.98    5.60
   6  -4   0  166.08    7.30
   6  -4   0  174.28    7.40
  -6   4   0  156.48    6.50
  -6   4   0  166.98    6.70
   5  -4   0   49.20    3.90
   5  -4   0   53.69    4.00
  -5   4   0   50.89    3.70
  -5   4   0   44.30    2.90
  -5   4   0   50.29    3.00
  -5   4   0   52.69    3.70
  -5   4   0   49.60    2.80
   4  -4   0  192.58    6.60
   4  -4   0  171.98    6.40
  -4   4   0  190.38    5.10
  -4   4   0  190.58    5.50
  -4   4   0  184.18    6.20
  -4   4   0  180.78    5.40
  -4   4   0  182.18    6.00
   3  -4   0   25.60    2.60
   3  -4   0   24.90    2.30
  -3   4   0   21.60    1.90
  -3   4   0   22.00    1.90
  -3   4   0   21.00    2.20
  -3   4   0   24.10    2.10
   2  -4   0  310.57    8.10
   2  -4   0  304.97    8.10
  -2   4   0  308.67    7.30
  -2   4   0  313.07    7.40
  -2   4   0  312.87    7.30
  -2   4   0  309.97    7.90
   1  -4   0  881.11   18.30
  -1   4   0  881.91   17.50
  -1   4   0  863.91   17.30
  -1   4   0  894.71   18.20
  -1   4   0  883.81   17.50
  -1   4   0  897.31   17.90
   0  -4   0   21.80    1.90
   0   4   0   24.40    1.90
   0   4   0   25.50    1.60
   0   4   0   26.20    2.00
   0   4   0   21.60    1.70
   0   4   0   22.30    1.60
  -1  -4   0   45.20    2.10
  -1  -4   0   46.30    2.50
  -1  -4   0   45.90    2.70
   1   4   0   50.19    2.00
   1   4   0   47.40    2.00
   1   4   0   49.30    2.60
   1   4   0   45.70    2.60
  -2  -4   0   80.89    4.00
  -2  -4   0   79.89    3.60
  -2  -4   0   77.79    3.00
   2   4   0   81.49    3.70
   2   4   0   82.49    3.50
  -3  -4   0  138.09    5.20
  -3  -4   0  144.59    5.80
  -3  -4   0  134.49    4.60
   3   4   0  143.89    5.10
   3   4   0  138.39    5.40
  -4  -4   0  177.98    5.90
  -4  -4   0  166.38    6.50
  -4  -4   0  177.58    7.00
   4   4   0  168.38    6.60
   4   4   0  167.48    6.10
  -5  -4   0   78.99    5.30
  -5  -4   0   83.69    5.40
   5   4   0   80.59    4.70
   5   4   0   84.79    5.20
  -6  -4   0   83.89    6.10
  -6  -4   0   99.79    6.40
   6   4   0   92.69    6.10
  -7  -4   0   17.80    4.10
   8  -5   0    6.30    3.30
   8  -5   0    4.60    3.00
  -8   5   0    1.60    2.60
  -8   5   0   -0.90    2.70
   7  -5   0   56.29    4.10
   7  -5   0   53.19    4.10
   7  -5   0   64.79    5.60
   7  -5   0   56.49    5.30
  -7   5   0   67.09    5.30
  -7   5   0   51.29    4.70
   6  -5   0    2.50    2.10
   6  -5   0    4.30    2.30
  -6   5   0    3.20    2.10
  -6   5   0    2.80    2.00
   5  -5   0   -0.80    1.60
   5  -5   0    1.50    1.80
  -5   5   0   -0.70    1.30
  -5   5   0    0.50    1.70
  -5   5   0   -2.60    1.50
  -5   5   0    1.40    1.50
   4  -5   0  185.18    6.90
   4  -5   0  176.78    6.90
  -4   5   0  185.98    6.60
  -4   5   0  188.18    5.80
  -4   5   0  190.18    5.90
  -4   5   0  194.38    6.30
   3  -5   0  266.47    8.10
   3  -5   0  253.57    7.90
  -3   5   0  267.37    7.00
  -3   5   0  257.57    7.00
  -3   5   0  257.57    7.60
  -3   5   0  253.57    6.90
   2  -5   0  232.58    7.20
  -2   5   0  242.08    6.90
  -2   5   0  246.78    6.40
  -2   5   0  241.68    7.10
  -2   5   0  231.88    6.20
  -2   5   0  237.18    6.30
   1  -5   0   39.50    2.80
  -1   5   0   47.00    2.40
  -1   5   0   43.30    2.70
  -1   5   0   47.70    2.80
  -1   5   0   43.90    2.40
  -1   5   0   41.00    2.00
  -1   5   0   44.00    2.30
   0  -5   0  339.17    8.10
   0  -5   0  335.17    8.70
   0   5   0  351.96    9.00
   0   5   0  356.16    9.10
   0   5   0  355.26    8.00
   0   5   0  347.37    8.00
  -1  -5   0  255.17    6.90
  -1  -5   0  267.47    7.70
  -1  -5   0  249.88    6.40
   1   5   0  262.67    6.20
   1   5   0  258.37    7.50
   1   5   0  257.67    6.20
   1   5   0  249.97    7.20
  -2  -5   0    4.10    1.20
  -2  -5   0    5.70    1.90
  -2  -5   0    3.10    1.50
   2   5   0    6.50    1.60
   2   5   0    5.50    1.60
  -3  -5   0   70.39    4.20
  -3  -5   0   87.49    5.00
   3   5   0   74.39    4.00
   3   5   0   78.79    4.50
  -4  -5   0  145.79    6.50
  -4  -5   0  155.88    7.10
   4   5   0  162.38    6.20
   4   5   0  155.18    6.70
  -5  -5   0  168.78    7.70
  -5  -5   0  167.88    7.90
   5   5   0  170.58    7.70
  -6  -5   0    9.80    3.40
  -6  -5   0   11.40    3.70
   6   5   0   12.60    3.40
   7  -6   0    4.90    3.00
   7  -6   0    5.90    2.90
   7  -6   0    3.80    2.20
   7  -6   0    6.20    2.40
  -7   6   0    4.20    2.70
  -7   6   0    4.70    2.60
   6  -6   0   37.30    4.70
   6  -6   0   47.20    4.90
  -6   6   0   47.00    4.20
  -6   6   0   48.20    3.80
  -6   6   0   43.20    3.60
  -6   6   0   41.70    4.20
   5  -6   0    8.20    2.50
   5  -6   0   12.00    2.90
  -5   6   0    8.40    2.40
  -5   6   0    7.80    2.00
  -5   6   0    2.50    2.10
  -5   6   0    8.70    2.20
   4  -6   0  168.28    6.90
   4  -6   0  176.38    7.30
  -4   6   0  179.48    6.80
  -4   6   0  174.28    6.20
  -4   6   0  170.58    5.90
  -4   6   0  181.98    6.00
   3  -6   0   12.10    2.30
   3  -6   0   13.10    2.40
  -3   6   0   11.90    2.00
  -3   6   0   10.30    1.80
  -3   6   0   11.80    1.90
  -3   6   0   11.20    2.30
   2  -6   0    1.30    1.40
  -2   6   0    1.40    1.20
  -2   6   0    2.00    1.30
  -2   6   0    2.00    1.60
  -2   6   0    0.60    1.20
  -2   6   0    0.40    1.30
   1  -6   0   53.49    3.60
   1  -6   0   49.60    3.10
  -1   6   0   51.19    3.40
  -1   6   0   49.30    3.20
  -1   6   0   48.10    2.90
  -1   6   0   44.70    2.30
  -1   6   0   52.69    3.00
   0  -6   0  286.47    8.20
   0  -6   0  278.67    7.30
   0   6   0  284.87    7.30
   0   6   0  288.07    7.30
   0   6   0  287.77    8.50
   0   6   0  288.77    8.30
  -1  -6   0  125.79    4.80
  -1  -6   0  118.89    5.50
   1   6   0  124.59    4.20
   1   6   0  127.39    5.10
   1   6   0  133.19    5.50
   1   6   0  126.19    4.20
  -2  -6   0    4.60    1.90
  -2  -6   0    3.70    2.20
   2   6   0    4.70    1.80
   2   6   0    6.20    1.90
  -3  -6   0    1.40    2.20
  -3  -6   0    6.10    2.20
   3   6   0    2.40    1.90
   3   6   0    2.30    1.70
  -4  -6   0   10.70    3.00
  -4  -6   0   13.00    3.10
   4   6   0   14.10    3.00
   4   6   0   12.40    2.60
  -5  -6   0   53.09    5.60
  -5  -6   0   37.50    4.80
   5   6   0   45.50    5.20
   7  -7   0   10.30    2.90
   7  -7   0    9.40    2.80
   7  -7   0    8.50    3.50
   7  -7   0    9.00    3.50
  -7   7   0    9.70    3.10
  -7   7   0    7.80    3.20
   6  -7   0   -2.00    2.40
   6  -7   0    0.10    2.40
  -6   7   0    2.00    2.30
  -6   7   0   -0.10    1.90
  -6   7   0   -0.80    1.90
  -6   7   0    1.00    2.40
   5  -7   0  124.99    7.20
   5  -7   0  127.59    7.00
  -5   7   0  134.39    6.70
  -5   7   0  129.99    5.60
  -5   7   0  119.89    5.60
  -5   7   0  134.49    6.20
   4  -7   0   80.59    5.40
   4  -7   0   76.79    5.30
  -4   7   0   69.89    4.40
  -4   7   0   79.39    4.40
  -4   7   0   67.89    5.00
  -4   7   0   78.69    4.40
   3  -7   0    1.40    1.90
   3  -7   0    1.30    1.90
  -3   7   0   -2.90    1.50
  -3   7   0   -0.20    1.60
  -3   7   0   -0.80    1.70
  -3   7   0    2.30    1.70
   2  -7   0    1.50    1.70
  -2   7   0    3.00    1.50
  -2   7   0    2.50    1.80
  -2   7   0    3.10    1.70
  -2   7   0    1.40    1.70
  -2   7   0    2.90    1.60
   1  -7   0    1.60    1.80
  -1   7   0   -0.30    1.40
  -1   7   0    2.30    1.70
  -1   7   0   -0.20    1.30
  -1   7   0    0.90    1.80
   0  -7   0   77.59    4.60
   0   7   0   74.79    4.30
   0   7   0   74.89    3.70
   0   7   0   83.09    4.80
   0   7   0   74.09    3.70
  -1  -7   0   78.59    5.00
  -1  -7   0   80.19    4.30
   1   7   0   80.29    3.90
   1   7   0   81.59    3.90
   1   7   0   84.39    5.10
   1   7   0   81.09    4.70
  -2  -7   0   35.30    3.60
  -2  -7   0   33.30    4.10
   2   7   0   38.70    3.70
   2   7   0   32.70    3.80
  -3  -7   0  125.49    6.20
  -3  -7   0  109.69    6.70
   3   7   0  111.09    5.70
   3   7   0  110.49    6.10
  -4  -7   0  134.19    7.20
  -4  -7   0  128.99    7.50
   4   7   0  119.09    7.00
   6  -8   0  101.79    7.20
   6  -8   0  114.49    7.70
  -6   8   0  118.09    6.60
  -6   8   0  101.89    5.80
  -6   8   0  103.59    5.90
  -6   8   0  114.79    7.10
   5  -8   0  406.06   13.70
   5  -8   0  407.46   13.50
  -5   8   0  414.76   12.80
  -5   8   0  427.26   11.70
  -5   8   0  413.96   11.90
  -5   8   0  413.06   11.70
   4  -8   0   68.69    5.60
   4  -8   0   68.69    5.60
  -4   8   0   73.39    4.70
  -4   8   0   66.29    5.30
  -4   8   0   69.79    4.70
  -4   8   0   70.09    4.70
   3  -8   0  264.67    9.70
   3  -8   0  236.38    9.40
  -3   8   0  259.57    8.20
  -3   8   0  261.57    8.20
  -3   8   0  249.18    8.80
   2  -8   0  391.66   12.30
  -2   8   0  407.06   11.40
  -2   8   0  429.26   11.00
  -2   8   0  409.76   12.00
  -2   8   0  417.76   10.90
   1  -8   0   62.99    4.90
  -1   8   0   72.29    5.00
  -1   8   0   76.79    4.30
  -1   8   0   65.09    4.60
  -1   8   0   72.39    4.20
   0  -8   0    1.20    2.10
   0   8   0   -1.90    1.60
   0   8   0   -2.20    1.50
   0   8   0   -0.10    2.10
   0   8   0    0.50    2.00
  -1  -8   0    1.60    2.30
   1   8   0    0.00    1.90
   1   8   0    2.20    2.40
  -2  -8   0  207.58    8.70
   2   8   0  185.38    7.70
   2   8   0  179.48    8.10
  -3  -8   0  117.69    7.50
  -3  -8   0  118.19    7.50
   3   8   0  117.49    7.20
   5  -9   0   60.99    6.40
   5  -9   0   44.60    5.40
  -5   9   0   60.09    4.90
  -5   9   0   55.99    5.60
  -5   9   0   60.79    4.90
   4  -9   0   58.29    5.90
   4  -9   0   57.19    5.90
  -4   9   0   63.19    4.90
  -4   9   0   70.69    6.00
  -4   9   0   66.59    5.00
   3  -9   0  185.38    8.90
   3  -9   0  191.78    9.10
  -3   9   0  196.58    7.60
  -3   9   0  207.78    8.40
  -3   9   0  192.38    7.60
   2  -9   0  140.19    7.50
  -2   9   0  139.19    6.20
  -2   9   0  134.79    6.20
  -2   9   0  132.19    6.70
  -2   9   0  133.69    7.10
   1  -9   0   58.99    5.40
  -1   9   0   56.89    4.30
  -1   9   0   55.89    4.30
  -1   9   0   57.49    5.10
   0   9   0    0.40    2.40
   0   9   0    1.30    2.70
  -1  -9   0   14.00    3.60
   1   9   0   14.40    3.10
   1   9   0   13.00    3.50
  -2  -9   0   24.50    4.60
   2   9   0   18.60    3.90
   3 -10   0   25.60    4.60
   3 -10   0   26.20    4.80
  -3  10   0   26.30    3.90
  -3  10   0   25.30    4.10
  -3  10   0   26.90    3.80
   2 -10   0   31.20    4.70
   2 -10   0   32.80    5.00
  -2  10   0   36.50    4.00
  -2  10   0   31.00    3.90
   1 -10   0   11.50    3.80
  -1  10   0   12.00    3.20
  -1  10   0   15.00    3.10
  -1  10   0    8.50    3.40
   0 -10   0   47.90    5.70
   0  10   0   39.70    4.90
   0  10  -1   44.70    5.00
   0 -10   1   34.30    5.10
  -1  10  -1   12.80    3.50
  -1  10  -1    4.00    2.70
  -1  10  -1    7.70    2.90
   1 -10   1    7.00    3.20
  -2  10  -1   -0.90    2.80
  -2  10  -1    4.30    2.70
  -2  10  -1    0.40    2.50
   2 -10   1    5.20    3.00
  -3  10  -1    2.10    2.70
  -3  10  -1    4.00    2.70
  -3  10  -1    3.10    3.00
   3 -10   1    2.30    3.10
   3 -10   1   -0.20    3.00
   2   9  -1   23.00    4.10
   2   9  -1   25.40    4.00
  -2  -9   1   40.70    5.00
   1   9  -1   27.40    3.90
   1   9  -1   25.40    4.10
  -1  -9   1   23.50    4.00
   0   9  -1   78.79    5.90
   0   9  -1   84.29    4.80
   0   9  -1   80.59    4.70
   0   9  -1   71.99    5.30
  -1   9  -1   53.19    5.10
  -1   9  -1   55.79    4.30
  -1   9  -1   63.29    4.50
   1  -9   1   47.30    5.00
  -2   9  -1   12.20    2.70
  -2   9  -1   13.90    2.80
  -2   9  -1   12.20    3.10
  -2   9  -1   13.20    3.00
   2  -9   1   13.90    3.40
  -3   9  -1   57.79    5.30
  -3   9  -1   67.49    4.70
  -3   9  -1   58.99    4.60
   3  -9   1   58.69    5.70
   3  -9   1   54.79    5.60
  -4   9  -1    4.30    2.90
  -4   9  -1    9.40    2.70
  -4   9  -1    9.70    2.70
   4  -9   1    5.90    3.20
   4  -9   1    4.40    2.90
  -5   9  -1   -3.60    2.30
  -5   9  -1    1.80    3.10
  -5   9  -1    3.10    2.60
   5  -9   1   -1.00    2.80
   5  -9   1   -1.50    2.70
   4   8  -1  143.19    8.10
  -4  -8   1  150.28    9.20
  -4  -8   1  162.58    8.70
   3   8  -1  156.98    8.00
   3   8  -1  163.38    7.40
  -3  -8   1  165.88    8.40
   2   8  -1   23.10    3.50
   2   8  -1   21.40    3.70
  -2  -8   1   24.60    3.90
   1   8  -1   49.60    4.40
   1   8  -1   41.50    4.30
  -1  -8   1   45.30    4.40
   0   8  -1   35.70    4.10
   0   8  -1   36.10    3.30
   0   8  -1   35.30    3.20
   0   8  -1   32.30    3.60
   0  -8   1   37.70    3.80
  -1   8  -1   59.79    4.40
  -1   8  -1   66.19    4.10
  -1   8  -1   58.19    4.70
  -1   8  -1   60.49    4.00
   1  -8   1   54.99    4.70
  -2   8  -1  125.99    5.40
  -2   8  -1  122.59    5.30
  -2   8  -1  122.29    6.20
  -2   8  -1  116.19    5.80
   2  -8   1  114.49    6.30
  -3   8  -1   70.79    4.60
  -3   8  -1   78.49    4.70
  -3   8  -1   75.39    5.10
   3  -8   1   72.09    5.50
   3  -8   1   66.49    5.40
  -4   8  -1   43.10    3.80
  -4   8  -1   36.70    4.20
  -4   8  -1   37.60    3.70
   4  -8   1   42.20    4.90
   4  -8   1   36.30    4.50
  -5   8  -1  140.79    6.30
  -5   8  -1  137.79    6.30
  -5   8  -1  140.09    6.50
  -5   8  -1  138.99    7.30
   5  -8   1  122.59    7.40
   5  -8   1  127.09    7.60
  -6   8  -1   73.39    5.70
  -6   8  -1   63.99    5.00
  -6   8  -1   63.29    5.80
  -6   8  -1   67.99    5.00
   6  -8   1   81.19    6.60
   6  -8   1   68.09    6.60
   5   7  -1   14.30    3.50
  -5  -7   1   12.80    3.70
  -5  -7   1   13.60    3.80
   4   7  -1  141.99    7.40
   4   7  -1  155.88    7.20
  -4  -7   1  145.59    7.80
  -4  -7   1  169.08    7.70
   3   7  -1   30.10    3.80
   3   7  -1   24.60    3.30
  -3  -7   1   28.90    4.00
  -3  -7   1   33.20    3.80
   2   7  -1   60.79    4.20
   2   7  -1   63.19    4.70
  -2  -7   1   67.69    4.20
  -2  -7   1   62.69    4.90
   1   7  -1   99.89    4.20
   1   7  -1  101.79    5.40
   1   7  -1  115.49    4.30
   1   7  -1  109.79    5.30
  -1  -7   1  109.69    5.50
  -1  -7   1  114.99    6.30
   0   7  -1   63.89    3.50
   0   7  -1   62.59    3.50
   0   7  -1   62.09    4.10
   0   7  -1   61.19    4.20
   0  -7   1   60.99    4.10
  -1   7  -1   28.30    2.70
  -1   7  -1   23.20    2.70
  -1   7  -1   30.50    3.40
  -1   7  -1   30.30    2.80
   1  -7   1   24.80    3.20
  -2   7  -1    1.90    1.80
  -2   7  -1    0.10    1.80
  -2   7  -1    1.00    1.60
  -2   7  -1    1.70    1.70
   2  -7   1    0.30    1.60
  -3   7  -1  201.08    7.40
  -3   7  -1  198.88    6.50
  -3   7  -1  208.08    6.70
  -3   7  -1  200.68    6.60
   3  -7   1  196.18    7.90
   3  -7   1  210.08    8.00
  -4   7  -1  374.16   10.20
  -4   7  -1  387.26   10.40
  -4   7  -1  384.16   11.30
  -4   7  -1  389.16   10.30
   4  -7   1  388.06   12.00
   4  -7   1  365.46   11.80
  -5   7  -1  463.65   13.20
  -5   7  -1  455.75   11.90
  -5   7  -1  465.75   11.90
  -5   7  -1  459.85   12.30
   5  -7   1  437.06   13.80
   5  -7   1  442.26   13.90
  -6   7  -1  128.59    6.60
  -6   7  -1  140.59    6.10
  -6   7  -1  130.99    6.00
  -6   7  -1  138.79    7.30
   6  -7   1  142.89    7.80
   6  -7   1  134.79    7.50
  -7   7  -1    2.50    2.70
  -7   7  -1   -1.00    2.60
   7  -7   1    6.70    3.10
   7  -7   1    0.80    2.80
   5   6  -1   90.09    6.30
   5   6  -1   86.19    5.70
  -5  -6   1   87.49    6.50
  -5  -6   1   83.79    6.20
   4   6  -1    0.00    1.80
   4   6  -1   -1.00    1.80
  -4  -6   1    0.20    2.10
  -4  -6   1    0.00    2.10
   3   6  -1    9.30    2.30
   3   6  -1    7.10    2.00
  -3  -6   1   14.30    2.90
  -3  -6   1   11.90    2.60
   2   6  -1  317.37    9.70
   2   6  -1  325.77    9.50
  -2  -6   1  343.27    9.10
  -2  -6   1  340.67   10.00
   1   6  -1  251.07    6.60
   1   6  -1  262.97    6.70
   1   6  -1  258.17    8.10
   1   6  -1  258.97    7.80
  -1  -6   1  246.98    7.90
  -1  -6   1  263.17    7.20
   0   6  -1  149.49    5.70
   0   6  -1  152.18    5.80
   0   6  -1  155.58    4.90
   0   6  -1  150.78    4.80
   0  -6   1  154.98    5.50
   0  -6   1  152.68    4.70
  -1   6  -1   74.39    3.40
  -1   6  -1   73.69    3.30
  -1   6  -1   75.29    3.90
  -1   6  -1   72.69    3.70
   1  -6   1   68.59    3.30
   1  -6   1   72.99    4.00
  -2   6  -1  402.86    9.90
  -2   6  -1  421.26    9.90
  -2   6  -1  397.26    9.50
  -2   6  -1  410.26   10.90
  -2   6  -1  413.96   10.50
   2  -6   1  409.66   11.10
  -3   6  -1  305.27    8.00
  -3   6  -1  299.47    8.80
  -3   6  -1  299.57    7.90
  -3   6  -1  284.27    7.80
   3  -6   1  290.47    9.20
   3  -6   1  286.47    9.10
  -4   6  -1  225.38    7.00
  -4   6  -1  234.08    8.00
  -4   6  -1  244.68    7.40
  -4   6  -1  241.38    7.10
   4  -6   1  244.88    8.60
   4  -6   1  229.58    8.40
  -5   6  -1  683.23   16.00
  -5   6  -1  647.54   15.30
  -5   6  -1  681.83   16.80
  -5   6  -1  662.13   15.30
   5  -6   1  679.23   17.50
   5  -6   1  658.43   17.50
  -6   6  -1   92.69    4.80
  -6   6  -1  106.99    6.20
  -6   6  -1   98.49    4.90
  -6   6  -1  106.19    5.80
   6  -6   1   97.79    6.30
   6  -6   1   90.69    6.20
  -7   6  -1   27.10    3.80
  -7   6  -1   24.10    3.70
   7  -6   1   25.50    4.50
   7  -6   1   29.60    4.50
   6   5  -1   71.49    5.80
  -6  -5   1   69.59    6.00
  -6  -5   1   73.89    6.10
   5   5  -1  158.28    6.70
   5   5  -1  162.18    7.40
  -5  -5   1  166.98    7.50
  -5  -5   1  153.78    7.40
   4   5  -1  145.19    6.40
   4   5  -1  132.39    5.80
  -4  -5   1  144.59    6.60
  -4  -5   1  140.79    6.30
   3   5  -1   48.10    3.40
   3   5  -1   45.40    3.60
  -3  -5   1   44.90    3.70
  -3  -5   1   46.20    3.60
   2   5  -1   78.29    4.00
   2   5  -1   70.99    3.70
   2   5  -1   73.19    2.80
  -2  -5   1   76.39    4.10
  -2  -5   1   71.69    3.70
   1   5  -1  185.98    4.90
   1   5  -1  193.08    6.00
   1   5  -1  181.58    6.10
   1   5  -1  192.48    5.00
  -1  -5   1  189.88    6.10
  -1  -5   1  185.38    5.50
   0   5  -1   30.40    2.00
   0   5  -1   32.90    2.50
   0   5  -1   29.80    2.00
   0   5  -1   32.60    2.50
   0  -5   1   28.10    2.30
   0  -5   1   27.10    1.90
  -1   5  -1   18.20    2.00
  -1   5  -1   13.90    1.60
  -1   5  -1   11.70    1.60
  -1   5  -1   14.20    1.40
  -1   5  -1   13.00    1.50
   1  -5   1   15.00    2.00
  -2   5  -1  357.76    8.60
  -2   5  -1  363.46    9.20
  -2   5  -1  360.16    8.40
  -2   5  -1  362.46    8.60
  -2   5  -1  360.76    9.40
   2  -5   1  360.06    9.60
  -3   5  -1   90.69    3.60
  -3   5  -1   87.69    4.20
  -3   5  -1   86.09    3.70
  -3   5  -1   86.39    3.60
   3  -5   1   90.99    4.40
   3  -5   1   80.59    4.30
  -4   5  -1   16.90    2.30
  -4   5  -1   16.50    2.00
  -4   5  -1   17.50    2.10
  -4   5  -1   15.70    2.30
   4  -5   1   16.60    2.70
   4  -5   1   12.20    2.20
  -5   5  -1    7.80    1.90
  -5   5  -1    9.60    2.30
  -5   5  -1    7.60    2.10
  -5   5  -1    9.60    1.90
   5  -5   1   12.10    2.70
   5  -5   1    9.90    2.50
  -6   5  -1    8.80    2.00
  -6   5  -1   12.50    2.10
  -6   5  -1    9.80    2.50
  -6   5  -1    8.90    2.50
   6  -5   1   13.70    2.90
   6  -5   1   13.00    3.10
  -7   5  -1  140.19    7.10
  -7   5  -1  149.49    7.10
   7  -5   1  143.19    7.60
   7  -5   1  147.09    7.80
  -8   5  -1   -0.50    2.70
  -8   5  -1   -0.70    2.40
   8  -5   1    0.10    2.70
   8  -5   1    0.20    2.80
   7   4  -1    1.60    2.30
  -7  -4   1    0.70    2.90
  -7  -4   1    0.50    2.70
   6   4  -1    0.20    1.80
   6   4  -1    1.70    1.90
  -6  -4   1   -3.50    2.10
  -6  -4   1   -3.90    2.10
   5   4  -1  103.99    5.60
   5   4  -1   98.79    5.20
  -5  -4   1  117.39    6.00
  -5  -4   1  105.19    5.80
   4   4  -1  114.39    5.10
   4   4  -1  112.39    5.20
  -4  -4   1  117.49    4.60
  -4  -4   1  116.09    5.30
  -4  -4   1  111.89    5.50
   3   4  -1   57.79    3.40
   3   4  -1   52.89    3.20
  -3  -4   1   51.29    2.70
  -3  -4   1   49.50    3.60
  -3  -4   1   58.29    3.50
   2   4  -1   12.20    1.80
   2   4  -1   15.10    1.90
  -2  -4   1   12.30    1.70
  -2  -4   1   12.10    1.90
   1   4  -1    1.60    0.90
   1   4  -1    1.10    0.90
   1   4  -1    2.40    0.70
   1   4  -1    0.90    0.70
  -1  -4   1    0.30    1.00
  -1  -4   1    0.90    0.90
   0   4  -1   19.60    1.80
   0   4  -1   19.30    1.50
   0   4  -1   20.40    1.80
   0   4  -1   19.20    1.50
   0  -4   1   20.40    1.80
   0  -4   1   19.00    1.40
  -1   4  -1  115.69    3.80
  -1   4  -1  113.49    3.40
  -1   4  -1  113.99    4.00
  -1   4  -1  115.89    3.50
  -1   4  -1  109.09    3.20
   1  -4   1  112.79    4.00
  -2   4  -1   87.69    3.20
  -2   4  -1   86.79    3.60
  -2   4  -1   86.49    3.10
  -2   4  -1   86.99    3.10
  -2   4  -1   94.99    3.70
   2  -4   1   83.69    3.70
  -3   4  -1   34.30    2.20
  -3   4  -1   36.60    2.20
  -3   4  -1   34.90    2.40
  -3   4  -1   33.10    2.70
   3  -4   1   34.80    2.60
   3  -4   1   34.40    2.60
  -4   4  -1   37.20    2.90
  -4   4  -1   38.50    3.00
  -4   4  -1   40.40    2.50
  -4   4  -1   42.30    2.60
   4  -4   1   41.80    3.20
   4  -4   1   38.10    3.10
  -5   4  -1   14.20    2.30
  -5   4  -1   15.50    2.00
  -5   4  -1    9.60    2.20
  -5   4  -1   14.90    1.90
   5  -4   1   18.40    2.80
   5  -4   1   14.00    2.40
  -6   4  -1    0.10    1.70
  -6   4  -1    5.00    2.30
   6  -4   1    2.70    1.90
   6  -4   1    3.80    2.20
  -7   4  -1   61.79    5.50
  -7   4  -1   77.39    5.10
   7  -4   1   75.59    5.80
   7  -4   1   63.89    5.50
  -8   4  -1   31.60    4.50
   8  -4   1   43.10    5.50
   8  -4   1   33.20    4.90
   7   3  -1    5.00    2.40
   7   3  -1    2.60    2.20
  -7  -3   1    2.80    2.70
  -7  -3   1    3.00    2.60
   6   3  -1    3.60    2.00
   6   3  -1    1.70    1.80
  -6  -3   1    1.80    1.90
  -6  -3   1    1.00    2.10
  -6  -3   1    3.30    2.40
   5   3  -1   58.69    4.10
   5   3  -1   49.50    3.70
  -5  -3   1   60.89    4.20
  -5  -3   1   57.79    3.70
  -5  -3   1   58.99    4.20
   4   3  -1  258.27    8.00
   4   3  -1  257.57    7.70
  -4  -3   1  247.48    7.70
  -4  -3   1  262.87    8.00
  -4  -3   1  246.28    7.00
   3   3  -1  435.46   10.90
   3   3  -1  450.05   10.70
  -3  -3   1  447.56   11.00
  -3  -3   1  455.65   10.80
  -3  -3   1  426.56    9.80
   2   3  -1   87.59    3.40
   2   3  -1   87.19    3.50
  -2  -3   1   88.79    3.30
  -2  -3   1   86.09    3.60
   1   3  -1  298.17    6.30
   1   3  -1  294.07    7.20
   1   3  -1  301.37    7.30
   1   3  -1  300.27    6.30
  -1  -3   1  295.47    6.80
  -1  -3   1  299.17    7.30
   0   3  -1  134.19    3.90
   0   3  -1  130.99    3.40
   0   3  -1  137.69    3.90
   0   3  -1  132.09    3.40
   0  -3   1  132.89    3.70
   0  -3   1  123.19    3.20
  -1   3  -1  159.28    4.30
  -1   3  -1  160.78    4.40
  -1   3  -1  156.98    4.00
  -1   3  -1  156.98    3.80
  -1   3  -1  152.58    3.90
   1  -3   1  158.88    4.50
  -2   3  -1 1218.78   23.50
  -2   3  -1 1219.28   23.30
  -2   3  -1 1191.38   23.90
  -2   3  -1 1222.68   23.30
   2  -3   1 1233.68   24.30
   2  -3   1 1229.48   24.20
  -3   3  -1  587.14   12.90
  -3   3  -1  604.14   13.10
  -3   3  -1  596.64   12.20
  -3   3  -1  569.84   11.80
  -3   3  -1  594.74   12.30
   3  -3   1  596.84   13.50
   3  -3   1  594.24   13.30
  -4   3  -1  198.68    5.30
  -4   3  -1  185.88    5.30
  -4   3  -1  197.98    5.30
  -4   3  -1  190.88    6.10
  -4   3  -1  199.98    6.20
   4  -3   1  204.68    6.50
   4  -3   1  192.88    6.50
  -5   3  -1    4.10    1.70
  -5   3  -1    3.80    1.40
  -5   3  -1    5.70    1.30
  -5   3  -1    3.70    1.60
  -5   3  -1    3.50    1.30
   5  -3   1    4.90    1.90
   5  -3   1    5.50    1.80
  -6   3  -1    8.40    2.00
  -6   3  -1    7.10    2.30
  -6   3  -1    7.20    1.80
   6  -3   1   11.00    2.40
   6  -3   1   10.50    2.60
  -7   3  -1   21.50    3.40
  -7   3  -1   21.40    2.90
   7  -3   1   24.90    3.80
   7  -3   1   21.60    3.60
  -8   3  -1    4.20    2.80
   8  -3   1    7.60    3.00
   8  -3   1   10.60    3.40
   7   2  -1  177.48    7.70
   7   2  -1  181.88    8.20
  -7  -2   1  179.38    7.60
  -7  -2   1  184.48    7.60
  -7  -2   1  170.48    8.00
   6   2  -1   94.39    5.40
   6   2  -1   96.99    5.30
  -6  -2   1   95.19    4.90
  -6  -2   1   94.39    5.10
  -6  -2   1   88.89    5.40
   5   2  -1    6.10    1.80
   5   2  -1    6.00    1.80
  -5  -2   1    7.30    1.90
  -5  -2   1    3.20    1.70
  -5  -2   1    5.20    1.70
   4   2  -1  495.65   12.30
   4   2  -1  509.55   12.20
  -4  -2   1  498.65   12.10
  -4  -2   1  479.85   11.40
  -4  -2   1  491.65   12.00
   3   2  -1  872.71   18.00
   3   2  -1  860.21   18.20
  -3  -2   1  849.91   18.00
  -3  -2   1  848.92   17.30
  -3  -2   1  845.82   17.90
   2   2  -1  317.47    7.60
   2   2  -1  309.67    7.40
  -2  -2   1  321.37    7.60
  -2  -2   1  303.17    6.80
  -2  -2   1  306.67    7.30
   1   2  -1    9.10    1.10
   1   2  -1   10.90    0.80
   1   2  -1    9.90    0.80
   1   2  -1   11.50    1.30
  -1  -2   1    9.80    1.00
  -1  -2   1    9.40    1.10
   0   2  -1  260.97    5.40
   0   2  -1  256.07    5.40
   0   2  -1  264.37    5.80
   0   2  -1  266.17    5.90
   0  -2   1  255.17    5.60
  -1   2  -1 2069.79   37.60
  -1   2  -1 2017.90   37.10
  -1   2  -1 1976.40   37.20
  -1   2  -1 2019.40   37.10
  -1   2  -1 1998.90   37.50
   1  -2   1 2054.49   37.80
  -2   2  -1   33.10    1.90
  -2   2  -1   33.90    1.80
  -2   2  -1   36.40    1.60
  -2   2  -1   37.10    1.60
   2  -2   1   36.90    2.00
   2  -2   1   34.80    1.80
  -3   2  -1   40.20    2.40
  -3   2  -1   40.60    1.80
  -3   2  -1   41.60    1.90
  -3   2  -1   38.20    1.90
  -3   2  -1   39.40    2.40
   3  -2   1   40.20    2.50
   3  -2   1   41.00    2.40
  -4   2  -1  690.63   14.50
  -4   2  -1  651.63   13.80
  -4   2  -1  696.53   14.90
  -4   2  -1  673.03   13.80
  -4   2  -1  692.43   15.20
   4  -2   1  694.13   15.80
   4  -2   1  708.63   15.50
  -5   2  -1  201.88    6.20
  -5   2  -1  199.58    6.30
  -5   2  -1  198.38    6.80
   5  -2   1  206.68    6.90
   5  -2   1  194.88    5.30
   5  -2   1  197.68    5.40
   5  -2   1  215.38    7.40
  -6   2  -1   95.09    4.60
  -6   2  -1   91.09    5.10
  -6   2  -1   91.39    4.40
   6  -2   1   91.49    5.10
   6  -2   1   94.29    5.40
  -7   2  -1    4.80    2.20
  -7   2  -1    1.80    1.60
   7  -2   1    6.30    2.50
   7  -2   1    1.10    2.00
  -8   2  -1   15.10    3.40
  -8   2  -1    9.10    2.50
   8  -2   1   15.60    3.40
   8  -2   1   16.10    3.70
   8   1  -1  121.09    6.90
   8   1  -1  114.49    7.00
  -8  -1   1  120.19    6.60
  -8  -1   1  132.59    7.30
   7   1  -1   26.40    3.60
   7   1  -1   24.50    3.80
  -7  -1   1   28.00    3.90
  -7  -1   1   30.90    3.80
   6   1  -1   89.89    5.10
   6   1  -1   83.49    4.80
  -6  -1   1   79.39    4.80
  -6  -1   1   80.19    4.40
  -6  -1   1   79.69    4.60
   5   1  -1  202.68    6.90
   5   1  -1  212.48    7.30
  -5  -1   1  195.78    6.40
  -5  -1   1  189.18    6.70
  -5  -1   1  197.78    6.50
   4   1  -1   -1.80    0.80
   4   1  -1    0.10    1.00
  -4  -1   1    2.40    1.20
  -4  -1   1    1.80    0.90
  -4  -1   1    2.60    1.20
   3   1  -1   92.59    3.60
   3   1  -1   93.89    3.60
  -3  -1   1   90.69    3.50
  -3  -1   1   92.59    3.30
  -3  -1   1   89.49    3.30
   2   1  -1  197.78    5.10
   2   1  -1  206.78    5.20
  -2  -1   1  188.88    4.90
  -2  -1   1  195.18    4.70
  -2  -1   1  197.68    5.00
   1   1  -1   41.30    1.20
   1   1  -1   42.20    1.60
   1   1  -1   43.00    1.20
  -1  -1   1   43.30    1.60
  -1  -1   1   41.30    1.50
   0   1  -1  110.39    2.40
   0   1  -1  116.69    2.60
   0   1  -1  109.79    2.40
   0   1  -1  113.69    2.60
   0   1  -1  108.29    2.40
   0  -1   1  106.09    2.50
  -1   1  -1 1487.05   27.50
  -1   1  -1 1490.65   27.10
  -1   1  -1 1490.45   27.10
   1  -1   1 1480.55   27.40
   1  -1   1 1456.05   27.60
  -2   1  -1   60.09    1.80
  -2   1  -1   61.79    1.80
  -2   1  -1   56.29    2.30
  -2   1  -1   60.59    2.00
  -2   1  -1   60.99    2.20
   2  -1   1   59.39    2.40
   2  -1   1   58.59    2.20
  -3   1  -1   41.60    2.10
  -3   1  -1   42.90    2.40
  -3   1  -1   42.50    2.20
   3  -1   1   43.70    2.30
   3  -1   1   41.60    2.40
  -4   1  -1  122.89    4.60
  -4   1  -1  124.99    4.20
  -4   1  -1  127.09    4.40
   4  -1   1  127.89    4.90
   4  -1   1  124.89    4.60
  -5   1  -1  649.04   14.90
  -5   1  -1  665.93   15.40
  -5   1  -1  650.73   14.40
   5  -1   1  652.93   15.90
   5  -1   1  639.54   15.20
  -6   1  -1  402.76   10.90
  -6   1  -1  398.56   11.30
   6  -1   1  391.16   11.70
   6  -1   1  388.56   11.10
  -7   1  -1    2.90    2.30
  -7   1  -1    1.50    2.10
   7  -1   1    2.30    1.90
   7  -1   1    0.90    2.00
  -8   1  -1   44.80    4.60
  -8   1  -1   43.00    4.90
   8  -1   1   43.10    5.00
   8   0  -1    6.80    2.70
   8   0  -1    4.90    2.50
  -8   0   1    4.20    2.50
  -8   0   1    5.50    2.50
   7   0  -1   41.70    4.30
   7   0  -1   44.00    4.60
  -7   0   1   46.50    4.50
  -7   0   1   44.60    4.00
   6   0  -1  494.05   13.40
   6   0  -1  496.65   13.50
  -6   0   1  496.35   13.00
  -6   0   1  515.15   13.10
  -6   0   1  513.05   13.50
   5   0  -1  344.57    9.90
   5   0  -1  361.86    9.90
  -5   0   1  349.87    9.50
  -5   0   1  350.06    9.50
  -5   0   1  356.16    8.90
   4   0  -1    1.50    1.10
   4   0  -1    1.00    0.90
  -4   0   1    1.30    0.80
  -4   0   1    0.10    0.90
  -4   0   1   -0.20    0.90
   3   0  -1  182.58    5.30
   3   0  -1  182.98    5.40
  -3   0   1  184.38    5.10
  -3   0   1  192.18    4.80
  -3   0   1  184.58    5.10
   2   0  -1    5.60    0.90
   2   0  -1    6.10    1.00
   2   0  -1    8.00    0.80
   2   0  -1    8.00    0.80
  -2   0   1    6.50    0.80
  -2   0   1    6.20    0.90
  -2   0   1    8.30    1.00
   1   0  -1  115.39    2.60
   1   0  -1  113.29    2.60
   1   0  -1  112.69    2.90
   1   0  -1  117.89    2.70
  -1   0   1  118.59    2.70
  -1   0   1  117.29    2.80
  -1   0   1  119.69    2.70
   0   0  -1 1082.89   19.90
   0   0  -1 1093.59   19.90
   0   0  -1 1090.09   20.00
   0   0   1 1106.99   20.00
   0   0   1 1053.79   20.00
   0   0   1 1137.79   20.00
  -1   0  -1  261.47    5.60
  -1   0  -1  268.47    5.50
  -1   0  -1  262.67    5.40
   1   0   1  270.47    5.80
   1   0   1  268.77    5.40
   1   0   1  268.67    5.50
  -2   0  -1    2.30    0.70
  -2   0  -1    1.20    0.70
   2   0   1    2.00    0.70
   2   0   1    2.00    0.60
   2   0   1    1.50    0.60
  -3   0  -1  108.39    3.80
  -3   0  -1  109.69    3.70
   3   0   1  108.19    4.00
   3   0   1  102.09    3.40
   3   0   1  106.29    3.60
  -4   0  -1  105.19    4.30
  -4   0  -1  104.69    4.10
   4   0   1  106.89    4.50
   4   0   1  105.69    4.10
  -5   0  -1   10.90    1.80
  -5   0  -1   11.40    2.00
  -5   0  -1    8.10    2.00
   5   0   1    9.80    2.00
   5   0   1   11.00    2.00
  -6   0  -1   -0.10    1.80
  -6   0  -1    1.40    1.70
   6   0   1    3.40    1.70
   6   0   1   -0.90    1.50
  -7   0  -1   90.99    5.80
  -7   0  -1   94.29    5.80
   7   0   1   99.09    5.70
   7   0   1   84.49    5.80
  -8   0  -1   77.09    6.10
  -8   0  -1   83.09    6.30
   8   0   1   93.09    6.90
   8  -1  -1    3.10    2.20
   8  -1  -1   -2.80    2.00
  -8   1   1   -0.10    2.20
  -8   1   1   -2.00    1.80
   7  -1  -1   49.70    4.40
   7  -1  -1   56.89    4.70
  -7   1   1   63.69    4.50
  -7   1   1   58.89    4.20
   6  -1  -1  200.38    7.60
   6  -1  -1  206.08    7.60
  -6   1   1  203.58    7.00
  -6   1   1  213.88    7.30
   5  -1  -1  427.76    9.50
   5  -1  -1  439.26   11.50
   5  -1  -1  414.46    9.40
   5  -1  -1  455.05   11.60
  -5   1   1  441.86   11.00
  -5   1   1  418.06   10.60
   4  -1  -1   11.60    1.80
   4  -1  -1   10.80    1.20
   4  -1  -1    9.90    1.80
   4  -1  -1    8.70    1.10
  -4   1   1    9.90    1.50
  -4   1   1   10.40    1.60
   3  -1  -1   24.00    1.80
   3  -1  -1   21.10    1.40
   3  -1  -1   23.10    1.40
   3  -1  -1   20.30    1.80
  -3   1   1   20.30    1.60
  -3   1   1   19.80    1.60
  -3   1   1   21.70    1.70
   2  -1  -1  991.40   19.30
   2  -1  -1  982.80   19.50
   2  -1  -1  998.20   18.80
   2  -1  -1  990.00   18.80
  -2   1   1 1008.00   19.20
  -2   1   1  988.80   19.00
  -2   1   1  996.50   19.00
   1  -1  -1  206.28    4.40
   1  -1  -1  192.58    4.60
  -1   1   1  205.58    4.40
  -1   1   1  198.58    4.30
  -1   1   1  200.38    4.30
  -1   1   1  202.08    4.30
  -1   1   1  206.08    4.50
   0   1   1  715.43   13.10
   0   1   1  706.73   13.30
   0   1   1  681.63   13.30
   0   1   1  697.53   13.00
   0   1   1  726.03   13.30
   0   1   1  692.03   13.00
   0   1   1  691.13   13.20
   0   1   1  698.73   13.20
  -1  -1  -1  287.47    6.10
  -1  -1  -1  287.27    6.20
   1   1   1  288.87    5.90
   1   1   1  294.47    6.30
   1   1   1  287.97    6.40
  -2  -1  -1  336.37    7.60
  -2  -1  -1  335.27    7.70
   2   1   1  349.77    7.50
   2   1   1  342.77    8.00
   2   1   1  338.57    7.70
  -3  -1  -1 1300.57   26.00
  -3  -1  -1 1334.07   26.00
   3   1   1 1321.07   26.60
   3   1   1 1321.97   25.80
   3   1   1 1323.17   26.00
  -4  -1  -1   49.80    3.00
  -4  -1  -1   48.50    3.00
   4   1   1   48.60    3.10
   4   1   1   45.50    2.80
  -5  -1  -1   -0.20    1.40
  -5  -1  -1    2.20    1.60
  -5  -1  -1   -0.50    1.10
   5   1   1    0.10    1.40
   5   1   1    0.80    1.30
  -6  -1  -1  141.79    6.50
  -6  -1  -1  138.59    6.30
  -6  -1  -1  136.89    5.90
   6   1   1  146.39    6.10
   6   1   1  150.18    6.90
  -7  -1  -1  243.58    9.30
  -7  -1  -1  232.58    8.90
   7   1   1  246.98    9.80
  -8  -1  -1   92.49    6.60
  -8  -1  -1   96.19    6.90
   8   1   1   95.59    7.00
   8  -2  -1   88.19    6.00
   8  -2  -1   87.19    6.30
  -8   2   1   77.89    5.10
  -8   2   1   94.49    6.00
   7  -2  -1   75.09    5.40
   7  -2  -1   79.79    5.40
  -7   2   1   76.09    4.50
  -7   2   1   79.89    5.20
   6  -2  -1    3.70    1.90
   6  -2  -1    2.80    1.80
   6  -2  -1    1.90    1.30
   6  -2  -1    5.00    1.30
  -6   2   1    4.40    1.60
  -6   2   1    1.90    1.50
  -6   2   1    3.40    1.80
   5  -2  -1   58.99    2.70
   5  -2  -1   57.09    3.70
   5  -2  -1   54.99    3.60
   5  -2  -1   57.49    2.70
  -5   2   1   58.39    3.20
  -5   2   1   56.19    3.30
  -5   2   1   62.79    3.60
   4  -2  -1  397.46   10.20
   4  -2  -1  396.06    8.90
   4  -2  -1  401.26    9.00
   4  -2  -1  395.96   10.00
  -4   2   1  392.26    9.80
  -4   2   1  398.56    9.50
  -4   2   1  409.66    9.40
   3  -2  -1 1919.01   37.50
   3  -2  -1 1949.90   37.20
  -3   2   1 1944.41   36.90
  -3   2   1 1945.41   36.50
  -3   2   1 1944.61   37.00
   2  -2  -1  467.45   10.50
   2  -2  -1  485.55   10.30
  -2   2   1  488.95    9.90
  -2   2   1  481.75   10.30
  -2   2   1  490.65    9.80
  -2   2   1  481.35    9.90
  -2   2   1  486.45   10.20
   1  -2  -1 1971.90   36.10
   1  -2  -1 1941.61   36.30
  -1   2   1 1955.90   36.20
  -1   2   1 1909.01   35.80
  -1   2   1 1912.11   35.90
  -1   2   1 1983.30   35.80
  -1   2   1 1931.71   35.80
   0   2   1 9715.43  175.08
   0   2   1 9755.02  175.28
   0   2   1 9371.66  175.48
   0   2   1 9804.22  175.98
   0   2   1 9999.00  176.78
   0   2   1 9730.83  175.78
   0   2   1 9689.43  176.18
   0   2   1 9716.63  175.08
  -1  -2  -1  841.92   16.60
  -1  -2  -1  828.22   16.40
   1   2   1  850.91   16.80
   1   2   1  820.92   16.70
   1   2   1  876.61   16.40
  -2  -2  -1 1306.77   25.60
  -2  -2  -1 1313.87   25.40
   2   2   1 1310.07   25.30
   2   2   1 1319.27   25.90
   2   2   1 1335.57   26.00
  -3  -2  -1  819.62   17.50
  -3  -2  -1  836.22   17.90
   3   2   1  856.01   18.10
   3   2   1  868.31   17.50
   3   2   1  868.71   18.30
  -4  -2  -1   42.90    3.00
  -4  -2  -1   46.90    3.00
   4   2   1   51.79    3.40
   4   2   1   44.60    2.80
  -5  -2  -1   27.10    3.10
  -5  -2  -1   31.00    3.30
  -5  -2  -1   25.30    3.00
   5   2   1   27.70    2.90
   5   2   1   26.50    3.30
  -6  -2  -1   67.49    4.80
  -6  -2  -1   67.99    4.80
  -6  -2  -1   78.29    5.30
   6   2   1   80.89    5.30
  -7  -2  -1  233.78    9.40
  -7  -2  -1  235.48    9.10
  -7  -2  -1  219.88    8.90
   7   2   1  245.08    9.80
   8  -3  -1  131.79    7.50
   8  -3  -1  128.09    7.50
  -8   3   1  133.39    6.90
   7  -3  -1  223.08    9.00
   7  -3  -1  215.08    8.80
  -7   3   1  231.88    7.80
  -7   3   1  218.68    8.30
   6  -3  -1  152.68    6.70
   6  -3  -1  152.78    5.20
   6  -3  -1  156.18    5.20
   6  -3  -1  156.58    6.90
  -6   3   1  153.68    6.30
  -6   3   1  156.88    5.70
  -6   3   1  147.09    5.90
   5  -3  -1    3.80    1.30
   5  -3  -1    7.00    2.00
   5  -3  -1    5.90    1.40
   5  -3  -1    6.10    1.70
  -5   3   1    5.60    1.60
  -5   3   1    6.30    1.40
  -5   3   1    7.10    1.70
   4  -3  -1  154.68    5.50
   4  -3  -1  151.78    5.60
  -4   3   1  158.48    4.70
  -4   3   1  156.48    5.30
  -4   3   1  152.68    5.20
   3  -3  -1  877.71   18.20
   3  -3  -1  854.31   18.50
  -3   3   1  875.31   18.00
  -3   3   1  877.31   17.40
  -3   3   1  854.91   17.10
  -3   3   1  874.21   17.40
  -3   3   1  866.11   17.90
   2  -3  -1  277.97    6.90
   2  -3  -1  274.07    7.10
  -2   3   1  269.57    6.40
  -2   3   1  268.67    6.80
  -2   3   1  276.97    6.60
  -2   3   1  272.87    6.10
  -2   3   1  275.87    6.40
   1  -3  -1  907.71   18.00
  -1   3   1  905.41   18.00
  -1   3   1  901.11   17.50
  -1   3   1  899.81   17.50
  -1   3   1  904.91   17.60
  -1   3   1  892.01   17.50
  -1   3   1  925.41   18.00
   0   3   1  688.03   13.80
   0   3   1  713.53   14.30
   0   3   1  696.13   14.20
   0   3   1  673.63   13.60
   0   3   1  736.13   14.30
   0   3   1  691.53   14.00
   0   3   1  682.13   13.60
   0   3   1  703.93   13.90
  -1  -3  -1  557.84   11.60
  -1  -3  -1  536.65   11.40
   1   3   1  538.75   11.90
   1   3   1  554.54   11.90
   1   3   1  546.45   11.60
  -2  -3  -1  610.44   13.30
  -2  -3  -1  582.24   12.80
   2   3   1  617.24   13.60
   2   3   1  623.54   13.10
   2   3   1  623.34   13.60
  -3  -3  -1   38.40    2.50
  -3  -3  -1   38.80    2.80
   3   3   1   36.90    2.40
   3   3   1   33.50    2.70
   3   3   1   47.30    3.00
  -4  -3  -1   47.30    3.40
  -4  -3  -1   46.60    3.30
  -4  -3  -1   45.30    3.60
   4   3   1   49.20    3.00
   4   3   1   53.99    3.70
  -5  -3  -1   41.30    3.70
  -5  -3  -1   39.10    3.90
  -5  -3  -1   37.50    4.00
   5   3   1   41.20    4.20
   5   3   1   36.40    3.10
  -6  -3  -1   16.20    3.10
  -6  -3  -1   27.70    3.90
  -6  -3  -1   17.40    3.10
   6   3   1   16.50    3.40
  -7  -3  -1    5.00    3.70
  -7  -3  -1   10.60    3.10
  -7  -3  -1    7.00    3.10
   7   3   1    7.90    3.10
   8  -4  -1  133.69    7.80
   8  -4  -1  110.39    7.50
  -8   4   1  125.09    7.00
   7  -4  -1  164.48    7.70
   7  -4  -1  148.69    6.10
   7  -4  -1  151.98    6.00
   7  -4  -1  150.48    7.70
  -7   4   1  155.18    7.20
  -7   4   1  160.98    6.80
   6  -4  -1   32.30    2.90
   6  -4  -1   37.90    3.90
   6  -4  -1   28.30    3.70
   6  -4  -1   32.00    2.80
  -6   4   1   29.70    2.80
  -6   4   1   31.40    3.30
  -6   4   1   31.50    3.40
   5  -4  -1    0.70    1.50
   5  -4  -1    3.00    1.70
  -5   4   1    0.10    1.50
  -5   4   1    0.10    1.20
  -5   4   1    0.40    1.40
   4  -4  -1   52.39    3.60
   4  -4  -1   49.40    3.40
  -4   4   1   50.39    2.60
  -4   4   1   56.49    3.30
  -4   4   1   50.79    2.80
  -4   4   1   50.39    3.30
  -4   4   1   58.39    3.00
   3  -4  -1  236.18    7.00
   3  -4  -1  238.38    7.20
  -3   4   1  248.18    6.30
  -3   4   1  240.48    6.50
  -3   4   1  232.18    6.80
  -3   4   1  229.58    5.80
  -3   4   1  230.58    6.20
   2  -4  -1  148.39    5.00
   2  -4  -1  134.19    4.60
  -2   4   1  139.39    4.20
  -2   4   1  139.99    4.60
  -2   4   1  142.09    4.20
  -2   4   1  140.59    4.30
  -2   4   1  135.69    3.90
  -1   4   1  137.39    4.40
  -1   4   1  136.29    4.00
  -1   4   1  134.19    3.90
  -1   4   1  136.69    4.00
  -1   4   1  142.99    4.00
  -1   4   1  145.59    4.60
  -1   4   1  139.99    4.50
   0   4   1   29.30    2.00
   0   4   1   31.30    2.20
   0   4   1   29.40    2.00
   0   4   1   32.80    2.10
   0   4   1   35.90    1.80
   0   4   1   27.70    2.10
   0   4   1   29.40    1.80
   0   4   1   33.30    1.80
  -1  -4  -1    0.50    0.90
  -1  -4  -1    3.00    1.00
   1   4   1    1.50    1.10
   1   4   1    1.10    0.80
   1   4   1    1.30    0.90
  -2  -4  -1   81.69    3.70
  -2  -4  -1   74.39    3.20
   2   4   1   75.29    3.30
   2   4   1   80.89    3.80
   2   4   1   80.39    3.70
  -3  -4  -1   46.20    2.90
  -3  -4  -1   44.50    3.30
   3   4   1   49.70    3.00
   3   4   1   45.90    3.20
  -4  -4  -1   57.89    4.00
  -4  -4  -1   53.79    4.30
  -4  -4  -1   58.39    3.70
   4   4   1   66.99    4.30
   4   4   1   59.59    3.60
  -5  -4  -1  174.48    7.50
  -5  -4  -1  180.98    7.80
  -5  -4  -1  176.88    6.80
   5   4   1  175.48    7.50
  -6  -4  -1  158.28    8.10
  -6  -4  -1  168.28    8.00
   6   4   1  181.08    8.30
   8  -5  -1   65.09    6.10
   8  -5  -1   78.79    6.90
  -8   5   1   66.79    5.60
  -8   5   1   62.69    5.70
   7  -5  -1   44.40    3.80
   7  -5  -1   36.20    4.30
   7  -5  -1   44.10    3.80
   7  -5  -1   45.20    5.10
  -7   5   1   47.40    4.30
  -7   5   1   38.40    4.10
   6  -5  -1  157.18    7.20
   6  -5  -1  154.98    5.90
   6  -5  -1  152.88    7.40
   6  -5  -1  153.08    5.90
  -6   5   1  137.59    6.40
  -6   5   1  142.49    6.40
   5  -5  -1   25.60    3.30
   5  -5  -1   25.80    3.40
  -5   5   1   20.10    2.60
  -5   5   1   23.70    2.60
  -5   5   1   26.30    2.70
  -5   5   1   22.90    2.90
   4  -5  -1   71.49    4.50
   4  -5  -1   73.99    4.30
  -4   5   1   81.99    3.70
  -4   5   1   78.09    4.20
  -4   5   1   73.39    3.60
  -4   5   1   74.99    4.00
  -4   5   1   75.19    3.30
   3  -5  -1  319.67    9.20
   3  -5  -1  310.37    9.00
  -3   5   1  333.37    8.40
  -3   5   1  305.47    7.50
  -3   5   1  325.97    8.80
  -3   5   1  315.07    8.10
  -3   5   1  327.87    8.20
   2  -5  -1  299.87    8.40
   2  -5  -1  291.77    8.20
  -2   5   1  294.87    8.00
  -2   5   1  285.37    7.40
  -2   5   1  288.37    7.40
  -2   5   1  292.87    7.40
  -1   5   1  370.06    9.30
  -1   5   1  364.96    9.10
  -1   5   1  357.26    8.80
  -1   5   1  354.16    8.30
  -1   5   1  337.67    8.10
  -1   5   1  352.06    8.40
  -1   5   1  349.47    8.30
   0   5   1   46.80    2.30
   0   5   1   49.50    2.80
   0   5   1   44.90    2.30
   0   5   1   40.80    2.30
   0   5   1   43.90    2.80
   0   5   1   43.60    2.90
   0   5   1   43.50    2.70
  -1  -5  -1   67.89    3.40
  -1  -5  -1   66.99    3.20
   1   5   1   77.79    2.90
   1   5   1   74.79    2.80
   1   5   1   80.39    3.90
   1   5   1   72.59    3.40
   1   5   1   77.19    3.80
  -2  -5  -1    4.70    1.70
  -2  -5  -1    5.50    1.40
   2   5   1    3.20    1.40
   2   5   1    3.50    1.50
  -3  -5  -1  106.59    5.50
  -3  -5  -1  101.09    5.10
  -3  -5  -1  105.29    4.50
   3   5   1  102.09    4.60
   3   5   1  102.29    5.10
  -4  -5  -1   15.00    3.30
  -4  -5  -1   15.70    3.00
   4   5   1   12.70    2.70
  -5  -5  -1  283.97   10.10
  -5  -5  -1  266.37   10.30
   5   5   1  275.47   10.20
  -6  -5  -1  137.59    7.90
  -6  -5  -1  132.59    7.90
   6   5   1  123.09    7.30
   7  -6  -1   38.70    5.00
   7  -6  -1   35.00    3.70
   7  -6  -1   33.90    4.50
   7  -6  -1   35.40    3.80
  -7   6   1   31.90    4.10
  -7   6   1   33.00    4.10
   6  -6  -1   95.39    5.10
   6  -6  -1   93.69    6.00
   6  -6  -1   88.99    6.20
   6  -6  -1  101.79    5.20
  -6   6   1   83.09    5.50
  -6   6   1   94.49    5.60
   5  -6  -1  228.28    9.10
   5  -6  -1  235.48    8.80
  -5   6   1  242.98    8.00
  -5   6   1  241.88    7.50
  -5   6   1  234.48    8.30
  -5   6   1  234.78    7.50
   4  -6  -1  236.78    8.30
   4  -6  -1  251.17    8.70
  -4   6   1  235.48    7.20
  -4   6   1  239.98    7.30
  -4   6   1  239.28    7.60
  -4   6   1  243.28    8.10
   3  -6  -1   35.10    3.40
   3  -6  -1   38.40    3.60
  -3   6   1   35.20    3.30
  -3   6   1   40.40    3.00
  -3   6   1   37.30    3.00
  -3   6   1   38.60    3.10
   2  -6  -1   27.10    2.90
  -2   6   1   25.60    2.40
  -2   6   1   30.10    2.50
  -2   6   1   26.20    2.40
  -2   6   1   29.40    2.90
   1  -6  -1  408.96   10.00
  -1   6   1  405.66   10.50
  -1   6   1  375.66    9.20
  -1   6   1  390.66   10.50
  -1   6   1  383.76    9.60
  -1   6   1  412.26   10.10
  -1   6   1  402.06    9.50
  -1   6   1  402.56    9.60
   0  -6  -1  122.49    5.10
   0  -6  -1  127.49    4.60
   0   6   1  121.99    4.20
   0   6   1  127.59    5.00
   0   6   1  115.89    4.60
   0   6   1  125.29    4.30
   0   6   1  122.59    5.20
   0   6   1  121.49    4.70
  -1  -6  -1  131.69    5.10
  -1  -6  -1  126.09    5.60
  -1  -6  -1  114.79    4.60
   1   6   1  130.59    4.20
   1   6   1  127.39    5.10
   1   6   1  136.09    4.30
   1   6   1  131.79    5.60
  -2  -6  -1    1.90    1.90
  -2  -6  -1    3.00    2.00
   2   6   1    1.80    1.40
   2   6   1    2.50    1.60
  -3  -6  -1    5.20    2.40
  -3  -6  -1    8.30    2.80
   3   6   1    5.80    2.20
   3   6   1    4.50    1.80
  -4  -6  -1   30.20    4.20
  -4  -6  -1   28.70    3.80
   4   6   1   29.60    4.00
  -5  -6  -1   30.00    4.60
  -5  -6  -1   31.10    4.50
   5   6   1   31.10    4.40
   7  -7  -1    2.50    2.50
   7  -7  -1   -3.30    2.80
   7  -7  -1    3.00    3.00
   7  -7  -1    0.40    2.60
  -7   7   1    3.50    2.70
  -7   7   1    2.00    2.90
   6  -7  -1    3.00    2.50
   6  -7  -1    2.80    2.90
  -6   7   1    6.10    2.70
  -6   7   1    4.30    2.70
   5  -7  -1   69.49    5.70
   5  -7  -1   71.19    5.40
  -5   7   1   78.39    4.70
  -5   7   1   79.49    5.10
  -5   7   1   81.59    5.60
  -5   7   1   74.09    4.60
   4  -7  -1  104.69    5.90
   4  -7  -1  108.49    6.20
  -4   7   1   96.19    5.70
  -4   7   1  106.89    5.10
  -4   7   1   97.99    4.90
  -4   7   1  108.89    5.30
   3  -7  -1   27.60    3.50
   3  -7  -1   29.60    3.70
  -3   7   1   29.00    3.30
  -3   7   1   28.00    2.90
  -3   7   1   29.50    3.00
  -3   7   1   28.80    2.90
   2  -7  -1   41.00    3.90
  -2   7   1   49.70    3.50
  -2   7   1   48.90    3.40
  -2   7   1   54.39    4.10
  -2   7   1   46.50    3.50
   1  -7  -1   19.60    3.00
   1  -7  -1   20.00    2.60
  -1   7   1   18.40    2.50
  -1   7   1   19.00    2.30
  -1   7   1   13.00    2.20
  -1   7   1   16.60    2.60
  -1   7   1   19.80    2.40
   0  -7  -1  107.29    5.40
   0  -7  -1  104.09    4.50
   0   7   1   99.99    4.20
   0   7   1  101.79    5.30
   0   7   1   99.59    4.20
   0   7   1   96.79    4.80
  -1  -7  -1   43.10    4.20
  -1  -7  -1   40.00    3.60
   1   7   1   39.10    3.60
   1   7   1   44.70    4.20
  -2  -7  -1   62.19    4.70
  -2  -7  -1   67.49    5.40
   2   7   1   58.69    4.60
   2   7   1   60.39    4.30
  -3  -7  -1  254.97   10.00
  -3  -7  -1  268.97    9.40
   3   7   1  249.68    9.40
  -4  -7  -1  116.99    6.80
  -4  -7  -1  104.19    7.10
   4   7   1  101.29    6.60
   6  -8  -1   19.80    4.30
   6  -8  -1   23.10    4.10
  -6   8   1   23.20    3.70
  -6   8   1   20.70    3.90
   5  -8  -1    0.10    2.60
   5  -8  -1    1.40    2.60
  -5   8   1    1.60    2.50
  -5   8   1    1.30    2.20
  -5   8   1    2.20    2.30
  -5   8   1   -0.50    2.60
   4  -8  -1   46.20    5.00
   4  -8  -1   44.70    4.90
  -4   8   1   47.40    4.40
  -4   8   1   39.40    3.80
  -4   8   1   49.40    4.70
  -4   8   1   48.10    4.10
   3  -8  -1  106.29    6.30
   3  -8  -1  101.49    6.30
  -3   8   1   94.79    5.80
  -3   8   1   80.19    5.20
  -3   8   1   99.59    5.30
  -3   8   1   98.39    5.20
   2  -8  -1  174.38    7.70
  -2   8   1  185.58    6.60
  -2   8   1  169.88    7.20
  -2   8   1  182.98    6.60
   1  -8  -1   41.60    4.40
  -1   8   1   46.30    3.70
  -1   8   1   38.50    3.90
  -1   8   1   38.40    3.30
  -1   8   1   39.30    3.60
   0  -8  -1    3.00    2.40
   0   8   1    3.40    1.80
   0   8   1    3.40    1.80
   0   8   1    2.80    2.10
   0   8   1    1.80    2.20
  -1  -8  -1   -2.90    2.40
   1   8   1    1.10    2.00
   1   8   1   -1.20    2.10
  -2  -8  -1   56.29    6.10
  -2  -8  -1   54.99    5.50
   2   8   1   48.70    5.00
  -3  -8  -1   30.50    4.40
  -3  -8  -1   35.20    4.90
   3   8   1   21.30    3.90
   5  -9  -1    0.90    3.00
   5  -9  -1   -1.60    2.70
  -5   9   1   -1.30    2.80
  -5   9   1    0.40    2.40
  -5   9   1    2.10    2.60
   4  -9  -1    2.50    3.00
   4  -9  -1    1.30    2.80
  -4   9   1    3.40    3.00
  -4   9   1    0.80    2.50
  -4   9   1   -0.20    2.30
   3  -9  -1   18.70    3.90
   3  -9  -1   18.00    3.60
  -3   9   1   21.00    3.30
  -3   9   1   17.70    3.20
  -3   9   1   22.30    3.80
   2  -9  -1   39.50    4.80
   2  -9  -1   41.20    4.90
  -2   9   1   40.50    3.90
  -2   9   1   38.50    3.80
  -2   9   1   37.20    4.10
   1  -9  -1    2.60    2.70
  -1   9   1    2.60    2.30
  -1   9   1    2.70    2.50
  -1   9   1    1.30    2.10
   0   9   1   20.20    3.80
   0   9   1   29.00    4.10
  -1  -9  -1   31.80    4.60
   1   9   1   21.60    4.00
  -2  -9  -1   11.20    3.80
   2   9   1   13.70    3.70
   2 -10  -1   79.39    6.80
   2 -10  -1   82.99    6.80
  -2  10   1   78.79    5.70
  -2  10   1   77.39    5.60
   1 -10  -1   21.70    4.40
  -1  10   1   17.80    3.80
   0  10  -2   21.50    3.80
   0 -10   2   21.40    4.20
  -1  10  -2   60.59    4.70
  -1  10  -2   54.59    4.50
  -1  10  -2   50.69    5.40
   1 -10   2   55.59    6.00
  -2  10  -2   32.80    3.90
  -2  10  -2   27.10    4.50
  -2  10  -2   26.80    3.80
   2 -10   2   27.60    4.80
  -3  10  -2   -2.50    2.50
  -3  10  -2    0.20    2.50
  -3  10  -2    1.90    2.90
   3 -10   2   -1.00    3.10
   3 -10   2    1.10    3.10
   2   9  -2   -0.80    2.60
   2   9  -2    1.10    2.60
  -2  -9   2    2.90    3.10
   1   9  -2    1.70    2.50
   1   9  -2    3.70    2.70
  -1  -9   2    4.00    2.80
   0   9  -2   99.09    6.30
   0   9  -2  102.39    5.20
   0   9  -2   91.19    5.10
   0   9  -2   95.59    6.00
  -1   9  -2  260.37    8.30
  -1   9  -2  247.48    8.20
  -1   9  -2  248.38    9.60
   1  -9   2  237.38    9.80
  -2   9  -2  210.78    7.50
  -2   9  -2  200.58    7.50
  -2   9  -2  193.08    8.50
   2  -9   2  197.68    8.80
  -3   9  -2   22.60    3.70
  -3   9  -2   32.70    3.60
  -3   9  -2   26.60    3.50
   3  -9   2   27.40    4.50
   3  -9   2   30.50    4.40
  -4   9  -2   38.10    4.50
  -4   9  -2   37.40    3.90
  -4   9  -2   37.90    3.90
   4  -9   2   43.40    5.20
   4  -9   2   35.60    4.90
  -5   9  -2   26.40    3.50
  -5   9  -2   28.70    3.70
  -5   9  -2   24.50    4.30
   5  -9   2   22.10    4.40
   5  -9   2   25.70    4.60
   4   8  -2  201.28    8.80
   4   8  -2  205.88    9.40
  -4  -8   2  203.48    9.80
   3   8  -2  206.98    9.00
   3   8  -2  210.88    8.50
  -3  -8   2  205.58    9.30
   2   8  -2   76.59    5.60
   2   8  -2   72.49    5.10
  -2  -8   2   75.59    5.80
   1   8  -2  170.48    5.80
   1   8  -2  159.38    7.20
   1   8  -2  171.28    7.20
   1   8  -2  152.48    5.70
  -1  -8   2  169.78    7.40
   0   8  -2   70.59    5.20
   0   8  -2   66.19    3.90
   0   8  -2   68.29    4.00
   0   8  -2   62.89    4.70
   0  -8   2   67.29    4.50
  -1   8  -2   12.30    2.30
  -1   8  -2   13.70    2.80
  -1   8  -2   12.40    2.30
  -1   8  -2   10.10    2.40
   1  -8   2    9.20    2.60
  -2   8  -2   -0.60    2.00
  -2   8  -2    1.20    1.80
  -2   8  -2   -1.90    1.90
  -2   8  -2    0.10    1.80
   2  -8   2    2.10    2.10
  -3   8  -2   52.69    4.00
  -3   8  -2   52.99    4.60
  -3   8  -2   53.89    4.10
   3  -8   2   50.99    5.20
   3  -8   2   51.59    5.30
  -4   8  -2  138.69    6.00
  -4   8  -2  140.49    6.10
  -4   8  -2  147.39    7.20
   4  -8   2  138.59    7.40
   4  -8   2  139.79    7.40
  -5   8  -2   27.90    3.30
  -5   8  -2   28.40    3.40
  -5   8  -2   30.90    4.10
   5  -8   2   24.40    4.10
   5  -8   2   25.80    4.10
  -6   8  -2   66.69    5.00
  -6   8  -2   67.09    6.00
  -6   8  -2   71.19    5.00
  -6   8  -2   74.39    5.60
   6  -8   2   74.69    6.70
   6  -8   2   75.19    6.60
   5   7  -2    2.50    2.50
   5   7  -2   -1.00    2.30
  -5  -7   2   -1.20    3.10
  -5  -7   2   -0.90    2.80
   4   7  -2   48.30    5.00
   4   7  -2   54.99    4.70
  -4  -7   2   52.19    5.00
  -4  -7   2   44.70    5.10
   3   7  -2   71.39    5.00
   3   7  -2   72.29    4.90
  -3  -7   2   75.19    5.60
  -3  -7   2   71.69    4.90
   2   7  -2  102.69    5.40
   2   7  -2   98.29    5.50
  -2  -7   2  108.99    5.80
  -2  -7   2  114.19    5.30
   1   7  -2  482.55   11.20
   1   7  -2  473.95   12.80
   1   7  -2  479.35   11.20
   1   7  -2  473.55   12.90
  -1  -7   2  486.65   12.70
   0   7  -2  327.67   10.10
   0   7  -2  355.66    8.80
   0   7  -2  351.26    8.80
   0   7  -2  337.97   10.20
   0  -7   2  335.37    9.50
  -1   7  -2   33.00    3.30
  -1   7  -2   29.80    2.80
  -1   7  -2   34.00    2.80
  -1   7  -2   26.50    2.80
   1  -7   2   32.80    2.90
   1  -7   2   36.90    3.50
  -2   7  -2  157.38    6.20
  -2   7  -2  157.98    5.60
  -2   7  -2  156.98    6.50
  -2   7  -2  147.19    5.50
   2  -7   2  153.58    6.60
  -3   7  -2  124.69    5.00
  -3   7  -2  116.29    4.70
  -3   7  -2  120.59    5.70
  -3   7  -2  119.89    5.00
   3  -7   2  111.49    5.90
   3  -7   2  116.49    6.00
  -4   7  -2  119.99    6.20
  -4   7  -2  120.59    5.20
  -4   7  -2  113.89    5.20
  -4   7  -2  113.09    5.10
   4  -7   2  120.99    6.40
   4  -7   2  116.59    6.40
  -5   7  -2   18.30    2.60
  -5   7  -2   15.60    2.60
  -5   7  -2   18.30    3.30
  -5   7  -2   15.40    2.50
   5  -7   2   14.80    3.30
   5  -7   2   14.50    3.40
  -6   7  -2   89.39    6.30
  -6   7  -2   79.39    4.90
  -6   7  -2   86.69    5.50
  -6   7  -2   86.59    5.00
   6  -7   2   76.89    6.30
   6  -7   2   90.89    6.50
  -7   7  -2   71.59    6.30
  -7   7  -2   80.09    5.20
  -7   7  -2   77.39    5.10
  -7   7  -2   94.39    6.20
   7  -7   2   84.19    7.00
   7  -7   2   78.39    6.80
   6   6  -2   60.29    6.90
   6   6  -2   71.99    6.20
  -6  -6   2   71.79    6.50
  -6  -6   2   64.59    6.50
   5   6  -2    5.00    2.50
   5   6  -2    7.90    2.60
  -5  -6   2    7.50    3.30
  -5  -6   2    5.10    2.90
   4   6  -2   41.60    4.40
   4   6  -2   40.30    4.30
  -4  -6   2   25.40    3.70
  -4  -6   2   43.00    4.40
   3   6  -2   19.00    3.00
   3   6  -2   19.80    2.90
  -3  -6   2   24.30    3.00
  -3  -6   2   22.70    3.20
   2   6  -2  107.19    3.80
   2   6  -2  103.79    5.00
   2   6  -2  105.29    5.10
   2   6  -2  104.89    3.80
  -2  -6   2  100.29    4.60
  -2  -6   2  104.39    5.30
   1   6  -2  494.25   11.00
   1   6  -2  493.45   12.40
   1   6  -2  486.65   10.90
   1   6  -2  488.05   12.60
  -1  -6   2  495.85   11.30
  -1  -6   2  490.85   12.30
   0   6  -2  176.98    6.20
   0   6  -2  165.18    5.10
   0   6  -2  172.08    6.20
   0   6  -2  174.88    5.10
   0  -6   2  158.18    5.70
  -1   6  -2   54.29    3.00
  -1   6  -2   58.19    3.10
  -1   6  -2   58.09    3.40
  -1   6  -2   67.39    3.80
   1  -6   2   56.19    3.50
  -2   6  -2  155.48    5.10
  -2   6  -2  153.58    5.00
  -2   6  -2  150.88    4.70
  -2   6  -2  153.08    5.90
  -2   6  -2  157.78    5.70
   2  -6   2  152.18    6.00
  -3   6  -2  136.79    4.90
  -3   6  -2  130.69    4.80
  -3   6  -2  137.09    4.90
  -3   6  -2  137.39    5.70
   3  -6   2  133.99    5.90
   3  -6   2  136.59    5.90
  -4   6  -2   19.50    2.30
  -4   6  -2   22.60    2.60
  -4   6  -2   23.30    3.00
  -4   6  -2   23.50    2.50
   4  -6   2   20.40    3.00
   4  -6   2   25.30    3.30
  -5   6  -2   88.39    4.40
  -5   6  -2   87.99    5.40
  -5   6  -2   88.59    4.40
  -5   6  -2   89.59    5.00
   5  -6   2   96.59    5.90
   5  -6   2   87.99    5.70
  -6   6  -2   91.09    5.90
  -6   6  -2   78.79    4.50
  -6   6  -2   72.49    4.50
  -6   6  -2   88.39    5.60
   6  -6   2   89.99    6.20
   6  -6   2   89.49    6.10
  -7   6  -2   22.70    3.70
  -7   6  -2   18.40    3.50
   7  -6   2   17.60    3.70
   7  -6   2   23.30    4.20
   6   5  -2   75.49    5.80
   6   5  -2   63.89    5.10
  -6  -5   2   73.19    6.10
  -6  -5   2   63.79    5.80
   5   5  -2  127.89    6.40
   5   5  -2  128.69    6.20
  -5  -5   2  119.49    6.60
  -5  -5   2  130.89    6.60
   4   5  -2  279.77    9.30
   4   5  -2  291.77    9.10
  -4  -5   2  283.77    9.10
  -4  -5   2  291.27    9.60
   3   5  -2   64.29    3.90
   3   5  -2   73.29    4.20
  -3  -5   2   72.29    4.10
  -3  -5   2   66.79    4.30
   2   5  -2  123.19    5.00
   2   5  -2  119.69    4.90
   2   5  -2  116.19    3.70
   2   5  -2  119.39    3.70
  -2  -5   2  121.09    5.10
  -2  -5   2  127.69    4.70
   1   5  -2   24.60    2.40
   1   5  -2   27.30    1.80
   1   5  -2   24.40    2.60
   1   5  -2   26.10    1.80
  -1  -5   2   26.90    2.60
  -1  -5   2   25.10    2.10
   0   5  -2   27.00    2.40
   0   5  -2   29.60    2.00
   0   5  -2   24.90    1.90
   0   5  -2   24.20    2.20
   0  -5   2   25.30    2.20
  -1   5  -2  250.27    6.30
  -1   5  -2  250.67    7.20
  -1   5  -2  249.88    6.70
  -1   5  -2  247.88    6.30
   1  -5   2  249.18    7.30
  -2   5  -2  380.56    8.80
  -2   5  -2  386.76    9.80
  -2   5  -2  389.96   10.00
  -2   5  -2  387.46    9.10
  -2   5  -2  394.76    9.10
   2  -5   2  394.66   10.30
  -3   5  -2  380.96    9.10
  -3   5  -2  375.46   10.00
  -3   5  -2  375.96    9.20
  -3   5  -2  381.26    9.10
   3  -5   2  375.36   10.40
   3  -5   2  366.06   10.20
  -4   5  -2  130.59    4.70
  -4   5  -2  139.59    5.20
  -4   5  -2  129.09    4.70
  -4   5  -2  139.49    5.70
   4  -5   2  135.39    5.90
   4  -5   2  131.69    5.90
  -5   5  -2  509.55   12.90
  -5   5  -2  517.15   13.20
  -5   5  -2  488.95   11.70
  -5   5  -2  485.95   11.70
   5  -5   2  496.55   13.70
   5  -5   2  501.85   13.90
  -6   5  -2  322.47   10.30
  -6   5  -2  336.47    9.00
  -6   5  -2  334.07   10.40
  -6   5  -2  322.77    9.00
   6  -5   2  346.57   11.30
   6  -5   2  337.97   11.50
  -7   5  -2   42.10    4.40
  -7   5  -2   40.20    4.50
   7  -5   2   29.00    4.20
   7  -5   2   34.40    4.80
   7   4  -2   38.00    4.80
   7   4  -2   43.10    4.90
  -7  -4   2   46.30    5.30
  -7  -4   2   49.40    5.30
   6   4  -2   90.39    5.40
   6   4  -2   76.89    5.40
  -6  -4   2   79.79    5.70
  -6  -4   2   80.89    5.70
   5   4  -2  104.79    5.60
   5   4  -2  111.89    5.50
  -5  -4   2  115.09    5.80
  -5  -4   2  106.09    5.80
   4   4  -2   23.50    2.90
   4   4  -2   22.90    2.80
  -4  -4   2   21.30    2.90
  -4  -4   2   27.90    3.20
   3   4  -2  331.77    9.10
   3   4  -2  322.07    9.10
  -3  -4   2  329.27    9.30
  -3  -4   2  333.37    8.90
   2   4  -2  697.43   13.80
   2   4  -2  681.53   13.80
   2   4  -2  697.63   15.50
   2   4  -2  693.53   15.40
  -2  -4   2  710.03   15.60
  -2  -4   2  700.53   14.90
   1   4  -2   16.10    1.30
   1   4  -2   15.70    1.40
   1   4  -2   16.30    1.80
   1   4  -2   17.40    1.90
  -1  -4   2   15.90    1.80
  -1  -4   2   15.50    1.50
   0   4  -2   40.70    1.90
   0   4  -2   37.80    2.30
   0   4  -2   37.00    1.90
   0   4  -2   37.30    2.30
   0  -4   2   36.30    2.20
  -1   4  -2  540.55   11.80
  -1   4  -2  548.05   11.30
  -1   4  -2  546.95   12.10
  -1   4  -2  540.15   11.30
   1  -4   2  534.05   12.20
  -2   4  -2 1652.03   31.40
  -2   4  -2 1674.73   32.30
  -2   4  -2 1609.54   31.30
  -2   4  -2 1632.44   31.30
  -2   4  -2 1629.44   32.10
   2  -4   2 1692.43   32.80
  -3   4  -2  226.28    6.00
  -3   4  -2  235.78    6.90
  -3   4  -2  229.38    6.00
  -3   4  -2  234.28    6.40
   3  -4   2  225.18    7.10
   3  -4   2  227.28    6.90
  -4   4  -2  210.48    6.50
  -4   4  -2  207.18    6.70
  -4   4  -2  189.78    5.60
  -4   4  -2  195.78    5.60
   4  -4   2  201.08    7.00
   4  -4   2  205.08    6.90
  -5   4  -2 1024.60   21.00
  -5   4  -2 1004.50   22.40
  -5   4  -2 1013.20   20.90
  -5   4  -2 1048.70   22.50
   5  -4   2 1043.60   23.60
   5  -4   2 1045.20   23.10
  -6   4  -2  222.68    6.60
  -6   4  -2  221.48    8.20
  -6   4  -2  211.88    7.80
  -6   4  -2  223.48    6.60
   6  -4   2  222.48    8.80
   6  -4   2  217.08    8.40
  -7   4  -2  102.89    6.50
  -7   4  -2  102.19    5.80
   7  -4   2  103.49    6.60
   7  -4   2   93.89    6.20
  -8   4  -2   93.99    7.20
   8  -4   2  102.39    7.00
   8  -4   2  104.19    7.20
   7   3  -2  102.59    6.40
   7   3  -2   93.69    5.90
  -7  -3   2   97.79    6.40
  -7  -3   2   95.29    6.00
   6   3  -2   44.00    4.20
   6   3  -2   42.50    4.00
  -6  -3   2   46.50    4.60
  -6  -3   2   43.90    4.40
   5   3  -2  100.99    5.20
   5   3  -2   95.39    4.90
  -5  -3   2   96.59    4.40
  -5  -3   2  102.99    5.10
  -5  -3   2   99.99    5.20
   4   3  -2  261.07    8.20
   4   3  -2  261.77    8.00
  -4  -3   2  268.97    7.90
  -4  -3   2  265.27    7.10
  -4  -3   2  261.17    8.00
   3   3  -2  349.77    9.10
  -3  -3   2  357.46    9.00
  -3  -3   2  346.07    9.10
   2   3  -2  301.07    7.70
   2   3  -2  287.87    6.40
   2   3  -2  309.47    7.80
  -2  -3   2  295.97    7.70
  -2  -3   2  307.27    7.40
   1   3  -2  169.48    4.90
   1   3  -2  167.48    4.00
   1   3  -2  169.88    4.80
   1   3  -2  167.88    4.00
  -1  -3   2  166.48    4.40
  -1  -3   2  169.48    4.80
   0   3  -2    1.60    0.60
   0   3  -2    0.80    0.60
   0   3  -2    0.90    0.50
   0   3  -2    1.20    0.70
   0   3  -2    1.80    0.70
   0  -3   2    1.50    0.70
  -1   3  -2  218.18    5.60
  -1   3  -2  214.48    5.10
  -1   3  -2  219.28    5.10
  -1   3  -2  213.28    4.90
  -1   3  -2  219.98    5.50
   1  -3   2  219.38    5.70
  -2   3  -2 1381.16   25.90
  -2   3  -2 1361.76   26.70
  -2   3  -2 1347.77   25.90
  -2   3  -2 1367.06   26.20
   2  -3   2 1371.26   27.10
  -3   3  -2  179.88    4.70
  -3   3  -2  177.48    5.50
  -3   3  -2  186.58    5.40
  -3   3  -2  173.48    4.70
   3  -3   2  173.38    5.50
   3  -3   2  174.68    5.70
  -4   3  -2   52.29    2.50
  -4   3  -2   48.70    3.10
  -4   3  -2   50.19    3.30
  -4   3  -2   47.10    2.40
  -4   3  -2   49.20    2.40
   4  -3   2   52.89    3.20
   4  -3   2   52.29    3.30
  -5   3  -2    1.90    1.20
  -5   3  -2    2.90    1.20
  -5   3  -2    2.00    1.20
  -5   3  -2    1.80    1.70
  -5   3  -2    1.50    1.50
   5  -3   2    2.90    1.80
   5  -3   2    2.60    1.70
  -6   3  -2   -0.20    1.60
  -6   3  -2    1.30    1.50
  -6   3  -2   -3.80    1.60
   6  -3   2    1.10    1.80
   6  -3   2    1.00    1.70
  -7   3  -2   71.19    4.80
  -7   3  -2   66.69    5.50
   7  -3   2   74.39    5.30
   7  -3   2   66.29    5.50
  -8   3  -2    4.50    2.70
   8  -3   2    1.90    2.70
   8   2  -2   29.60    4.40
   8   2  -2   37.60    4.70
  -8  -2   2   32.80    4.70
   7   2  -2    5.00    2.40
   7   2  -2    2.80    2.10
  -7  -2   2    6.40    2.30
  -7  -2   2    1.90    2.40
  -7  -2   2    5.50    2.10
   6   2  -2   24.80    3.40
   6   2  -2   24.50    3.50
  -6  -2   2   32.00    3.80
  -6  -2   2   21.20    3.00
  -6  -2   2   20.90    2.80
   5   2  -2  108.29    5.10
   5   2  -2  115.99    5.30
  -5  -2   2  114.99    5.00
  -5  -2   2  112.69    5.10
  -5  -2   2  110.59    4.60
   4   2  -2  506.35   12.40
   4   2  -2  515.15   12.50
  -4  -2   2  506.25   12.10
  -4  -2   2  511.55   12.30
  -4  -2   2  494.35   11.50
   3   2  -2  343.27    8.60
   3   2  -2  334.07    8.50
  -3  -2   2  335.07    8.30
  -3  -2   2  318.77    7.60
  -3  -2   2  328.17    8.30
   2   2  -2   12.80    1.00
   2   2  -2   15.70    1.40
   2   2  -2   13.90    1.00
   2   2  -2   15.70    1.50
  -2  -2   2   14.60    1.50
  -2  -2   2   15.00    1.50
   1   2  -2  375.66    7.50
   1   2  -2  368.36    7.50
   1   2  -2  371.66    8.20
   1   2  -2  371.26    8.00
  -1  -2   2  372.46    8.10
  -1  -2   2  355.66    7.70
   0   2  -2    4.30    0.60
   0   2  -2    5.20    0.90
   0   2  -2    4.40    0.70
   0   2  -2    5.10    0.60
   0   2  -2    5.80    0.80
   0  -2   2    4.70    0.70
  -1   2  -2   53.19    2.00
  -1   2  -2   53.89    1.90
  -1   2  -2   52.49    2.10
  -1   2  -2   52.19    1.80
  -1   2  -2   52.29    1.80
   1  -2   2   51.99    2.10
  -2   2  -2   61.99    2.50
  -2   2  -2   65.69    2.10
  -2   2  -2   66.49    2.70
  -2   2  -2   66.49    2.10
   2  -2   2   61.19    2.70
   2  -2   2   64.79    2.50
  -3   2  -2   89.09    3.50
  -3   2  -2   84.19    3.40
  -3   2  -2   82.99    2.90
  -3   2  -2   82.89    2.70
  -3   2  -2   81.19    2.60
   3  -2   2   83.49    3.60
   3  -2   2   90.19    3.40
  -4   2  -2  421.86    9.80
  -4   2  -2  433.66   10.60
  -4   2  -2  415.86   10.20
   4  -2   2  425.06   10.50
   4  -2   2  422.96   11.00
  -5   2  -2   16.80    2.30
  -5   2  -2   11.60    2.00
  -5   2  -2   14.00    2.50
   5  -2   2   17.00    2.60
   5  -2   2   15.50    2.30
  -6   2  -2   21.40    3.10
  -6   2  -2   21.10    2.80
  -6   2  -2   21.60    2.60
   6  -2   2   23.50    3.10
   6  -2   2   22.10    3.20
  -7   2  -2    0.20    2.20
  -7   2  -2    1.10    1.90
   7  -2   2    2.20    2.20
   7  -2   2    1.90    2.10
  -8   2  -2    6.40    2.80
   8  -2   2   -0.60    2.40
   8   1  -2   67.69    5.40
   8   1  -2   61.79    5.40
  -8  -1   2   60.89    5.40
  -8  -1   2   73.49    5.40
   7   1  -2   35.70    4.20
   7   1  -2   41.30    4.40
  -7  -1   2   28.80    3.40
  -7  -1   2   33.30    4.00
   6   1  -2    2.50    1.80
   6   1  -2   -1.10    1.40
  -6  -1   2   -0.30    1.20
  -6  -1   2    1.20    1.70
  -6  -1   2    2.60    1.60
   5   1  -2  171.58    6.40
   5   1  -2  162.38    6.20
  -5  -1   2  166.18    5.60
  -5  -1   2  166.08    6.10
  -5  -1   2  167.48    5.80
   4   1  -2  416.16   10.50
   4   1  -2  418.76   10.60
  -4  -1   2  419.16    9.90
  -4  -1   2  401.16    9.70
  -4  -1   2  411.86   10.20
   3   1  -2   83.59    3.40
   3   1  -2   80.29    3.30
   3   1  -2   79.49    2.50
   3   1  -2   81.39    2.50
  -3  -1   2   83.79    3.00
  -3  -1   2   83.99    3.10
  -3  -1   2   87.19    3.30
   2   1  -2   21.10    1.20
   2   1  -2   21.20    1.20
   2   1  -2   21.60    1.50
   2   1  -2   24.60    1.50
  -2  -1   2   22.50    1.50
  -2  -1   2   22.70    1.20
  -2  -1   2   21.80    1.50
   1   1  -2 4410.36   79.89
   1   1  -2 4387.16   79.79
   1   1  -2 4480.55   80.09
   1   1  -2 4328.07   80.39
  -1  -1   2 4455.85   80.29
  -1  -1   2 4418.86   80.09
   0   1  -2 1594.54   29.80
   0   1  -2 1603.24   29.70
   0   1  -2 1619.54   29.70
   0   1  -2 1649.83   29.90
   0  -1   2 1661.23   29.90
   0  -1   2 1610.44   29.90
  -1   1  -2   28.70    1.40
  -1   1  -2   27.10    1.00
  -1   1  -2   29.40    1.10
  -1   1  -2   28.20    1.40
  -1   1  -2   30.40    1.10
   1  -1   2   26.80    1.40
   1  -1   2   30.10    1.20
  -2   1  -2    1.00    0.60
  -2   1  -2    1.00    0.70
  -2   1  -2    1.90    0.70
   2  -1   2    1.60    0.60
   2  -1   2    0.90    0.70
  -3   1  -2  205.98    5.50
  -3   1  -2  201.78    5.80
  -3   1  -2  204.88    5.40
   3  -1   2  205.78    5.60
   3  -1   2  210.88    6.10
  -4   1  -2  772.02   16.60
  -4   1  -2  812.32   17.40
  -4   1  -2  810.12   16.80
   4  -1   2  786.62   17.10
   4  -1   2  796.02   17.80
  -5   1  -2   64.99    3.50
  -5   1  -2   61.49    3.90
  -5   1  -2   65.79    3.80
   5  -1   2   68.79    3.70
   5  -1   2   67.39    4.30
  -6   1  -2    0.40    1.70
  -6   1  -2   -1.30    1.70
   6  -1   2   -0.40    1.60
   6  -1   2    0.60    1.40
  -7   1  -2    7.50    2.70
  -7   1  -2    9.10    2.70
   7  -1   2    7.30    2.70
  -8   1  -2   -2.00    2.50
  -8   1  -2    0.60    2.70
   8  -1   2    4.00    2.60
   8   0  -2   52.39    5.10
   8   0  -2   54.89    5.10
  -8   0   2   54.09    4.90
  -8   0   2   62.29    5.50
   7   0  -2  237.18    9.00
   7   0  -2  240.98    9.10
  -7   0   2  245.78    8.60
  -7   0   2  237.38    8.50
   6   0  -2  482.65   13.20
   6   0  -2  480.15   13.00
  -6   0   2  475.75   12.70
  -6   0   2  480.15   12.60
  -6   0   2  488.85   12.50
   5   0  -2  225.68    5.70
   5   0  -2  221.78    5.70
   5   0  -2  229.38    7.40
   5   0  -2  221.38    7.20
  -5   0   2  225.98    6.30
  -5   0   2  221.68    6.90
  -5   0   2  227.48    6.90
   4   0  -2  140.29    5.10
   4   0  -2  143.79    5.00
   4   0  -2  139.29    3.90
   4   0  -2  141.09    3.90
  -4   0   2  143.89    4.30
  -4   0   2  144.49    4.70
  -4   0   2  149.09    4.80
   3   0  -2   13.10    1.20
   3   0  -2   14.00    1.60
   3   0  -2   14.40    1.70
   3   0  -2   13.10    1.20
  -3   0   2   10.80    1.40
  -3   0   2   10.80    1.20
  -3   0   2   14.10    1.50
   2   0  -2  326.67    7.50
   2   0  -2  322.47    6.80
   2   0  -2  328.47    7.20
   2   0  -2  325.87    6.80
  -2   0   2  332.37    7.20
  -2   0   2  321.57    7.00
  -2   0   2  333.27    7.10
   1   0  -2  930.51   17.90
   1   0  -2  983.80   18.10
   1   0  -2  964.30   18.10
  -1   0   2  982.80   18.20
  -1   0   2  975.00   18.20
  -1   0   2  962.10   18.00
   0   0  -2  299.27    6.10
   0   0  -2  299.97    5.80
   0   0  -2  293.57    5.80
   0   0   2  316.07    6.10
   0   0   2  311.07    6.10
   0   0   2  267.07    5.70
  -1   0  -2 1791.02   33.20
  -1   0  -2 1815.62   33.30
   1   0   2 1821.42   33.20
   1   0   2 1731.03   33.40
   1   0   2 1823.22   33.30
  -2   0  -2   15.90    1.30
  -2   0  -2   15.40    1.40
  -2   0  -2   15.30    1.30
   2   0   2   13.80    1.20
   2   0   2   19.40    1.50
   2   0   2   14.10    1.10
  -3   0  -2  156.58    4.70
  -3   0  -2  160.58    4.90
   3   0   2  157.28    4.60
   3   0   2  154.58    4.50
   3   0   2  168.88    5.30
  -4   0  -2  277.77    7.50
  -4   0  -2  278.67    7.70
   4   0   2  268.97    7.30
   4   0   2  272.47    8.10
   4   0   2  271.77    7.20
  -5   0  -2    0.80    1.50
  -5   0  -2    1.70    1.70
   5   0   2    1.30    1.30
   5   0   2   -0.60    1.30
  -6   0  -2   53.89    4.50
  -6   0  -2   54.69    4.30
   6   0   2   59.69    4.60
   6   0   2   59.19    4.00
  -7   0  -2   71.59    5.40
  -7   0  -2   54.49    5.00
   7   0   2   60.29    5.30
  -8   0  -2   96.59    6.70
  -8   0  -2   77.49    6.20
   8   0   2   81.09    6.80
   8  -1  -2   12.70    3.00
   8  -1  -2    7.90    3.00
  -8   1   2   12.10    2.70
  -8   1   2    9.40    2.70
   7  -1  -2   40.10    4.10
   7  -1  -2   48.30    4.40
  -7   1   2   47.70    4.40
  -7   1   2   46.80    3.90
   6  -1  -2  437.06   12.10
   6  -1  -2  446.46   12.40
  -6   1   2  451.25   11.70
  -6   1   2  426.56   11.70
   5  -1  -2  419.16   11.00
   5  -1  -2  408.66    9.40
   5  -1  -2  427.26   11.30
   5  -1  -2  411.46    9.40
  -5   1   2  418.56   10.50
  -5   1   2  421.86   10.70
   4  -1  -2   20.00    1.60
   4  -1  -2   24.70    2.50
   4  -1  -2   24.80    2.40
   4  -1  -2   24.50    1.70
  -4   1   2   22.30    2.00
  -4   1   2   22.90    2.00
  -4   1   2   21.20    1.80
   3  -1  -2   28.70    1.60
   3  -1  -2   31.50    1.70
   3  -1  -2   29.60    2.20
   3  -1  -2   30.10    2.00
  -3   1   2   29.50    1.80
  -3   1   2   32.00    1.90
  -3   1   2   32.00    1.90
   2  -1  -2  179.88    4.30
   2  -1  -2  182.18    4.90
   2  -1  -2  180.28    4.40
   2  -1  -2  181.18    4.40
  -2   1   2  184.88    4.50
  -2   1   2  180.98    4.50
  -2   1   2  180.18    4.50
   1  -1  -2 1216.48   23.70
   1  -1  -2 1198.28   23.20
   1  -1  -2 1276.67   23.50
   1  -1  -2 1272.07   23.50
  -1   1   2 1264.57   23.40
  -1   1   2 1247.38   23.60
  -1   1   2 1300.17   23.70
  -1   1   2 1306.27   23.60
   0  -1  -2  315.97    6.20
   0  -1  -2  310.37    6.20
   0  -1  -2  297.87    6.50
   0   1   2  310.77    6.60
   0   1   2  309.47    6.60
   0   1   2  313.07    6.70
  -1  -1  -2 1200.38   23.00
   1   1   2 1200.08   23.10
   1   1   2 1198.78   23.10
   1   1   2 1232.08   23.00
  -2  -1  -2 1749.12   32.90
  -2  -1  -2 1763.72   33.00
   2   1   2 1689.03   32.30
   2   1   2 1752.72   33.10
   2   1   2 1711.73   33.30
  -3  -1  -2  423.76   10.10
  -3  -1  -2  437.66   10.20
   3   1   2  436.26   10.20
   3   1   2  442.86   10.70
   3   1   2  439.16    9.70
  -4  -1  -2    7.40    1.70
  -4  -1  -2   12.30    1.90
   4   1   2    9.60    1.90
   4   1   2    5.90    1.40
   4   1   2   10.60    1.90
  -5  -1  -2  108.89    5.20
  -5  -1  -2  122.99    5.40
   5   1   2  117.09    4.80
   5   1   2  113.19    5.50
  -6  -1  -2  267.17    9.20
  -6  -1  -2  267.77    9.30
  -6  -1  -2  262.27    8.70
   6   1   2  289.07   10.10
  -7  -1  -2   67.39    5.70
  -7  -1  -2   63.09    5.40
   7   1   2   71.59    5.90
   8  -2  -2    1.10    2.20
   8  -2  -2    1.10    2.20
  -8   2   2    2.90    2.20
  -8   2   2   -1.80    1.80
   7  -2  -2   26.00    3.70
   7  -2  -2   24.90    3.60
  -7   2   2   23.70    3.00
  -7   2   2   27.30    3.40
   6  -2  -2  165.18    6.80
   6  -2  -2  167.88    7.10
   6  -2  -2  164.38    5.30
   6  -2  -2  168.08    5.30
  -6   2   2  163.88    5.80
  -6   2   2  170.48    6.40
  -6   2   2  163.08    6.00
   5  -2  -2   73.99    4.00
   5  -2  -2   63.69    3.00
   5  -2  -2   67.39    3.00
   5  -2  -2   77.89    4.30
  -5   2   2   67.99    3.40
  -5   2   2   66.99    3.60
  -5   2   2   62.69    3.40
   4  -2  -2   55.79    2.60
   4  -2  -2   54.69    2.60
   4  -2  -2   52.99    3.00
   4  -2  -2   56.19    3.30
  -4   2   2   54.99    3.00
  -4   2   2   60.59    2.80
  -4   2   2   49.20    2.80
   3  -2  -2  299.07    7.20
   3  -2  -2  303.67    7.60
   3  -2  -2  303.07    8.00
   3  -2  -2  314.17    7.20
  -3   2   2  320.87    7.60
  -3   2   2  319.07    7.30
  -3   2   2  310.07    7.50
   2  -2  -2  107.79    3.20
   2  -2  -2  106.49    3.20
   2  -2  -2  111.09    3.70
   2  -2  -2  112.99    3.30
  -2   2   2  110.59    3.40
  -2   2   2  109.79    3.50
  -2   2   2  112.69    3.20
   1  -2  -2  327.17    6.90
   1  -2  -2  319.87    7.30
  -1   2   2  326.77    7.00
  -1   2   2  332.77    7.20
  -1   2   2  335.77    7.20
  -1   2   2  328.57    7.00
  -1   2   2  336.97    7.30
  -1   2   2  317.27    6.80
   0   2   2    1.90    0.50
   0   2   2    1.80    0.60
   0   2   2    1.50    0.70
   0   2   2    1.40    0.50
   0   2   2    2.00    0.70
   0   2   2    2.10    0.60
   0   2   2    1.80    0.50
   0   2   2    1.90    0.80
  -1  -2  -2  262.07    6.40
   1   2   2  262.07    6.60
   1   2   2  263.87    6.40
   1   2   2  284.57    6.00
   1   2   2  275.37    6.40
  -2  -2  -2  308.37    7.40
  -2  -2  -2  306.47    7.50
   2   2   2  299.47    6.90
   2   2   2  296.97    7.70
   2   2   2  309.17    7.70
  -3  -2  -2  105.89    4.20
  -3  -2  -2  105.59    4.00
   3   2   2  105.89    3.60
   3   2   2  108.09    4.20
   3   2   2  103.89    4.30
  -4  -2  -2   10.90    2.00
  -4  -2  -2   11.90    2.00
   4   2   2   11.30    2.10
   4   2   2   18.60    2.50
   4   2   2   11.70    1.70
  -5  -2  -2   20.20    2.90
  -5  -2  -2   23.10    2.90
   5   2   2   20.90    3.00
  -6  -2  -2   45.20    4.40
  -6  -2  -2   31.30    3.70
  -6  -2  -2   44.10    4.50
   6   2   2   46.00    4.40
  -7  -2  -2   68.49    5.60
  -7  -2  -2   67.19    5.70
  -7  -2  -2   64.09    5.90
   7   2   2   67.39    5.90
   8  -3  -2   60.19    6.20
   8  -3  -2   54.99    5.50
  -8   3   2   47.90    4.30
  -8   3   2   56.09    5.10
   7  -3  -2  147.09    7.20
   7  -3  -2  144.09    7.40
  -7   3   2  139.49    5.90
  -7   3   2  145.59    6.10
  -7   3   2  147.79    6.70
   6  -3  -2   56.69    3.40
   6  -3  -2   50.19    3.30
   6  -3  -2   53.59    4.20
   6  -3  -2   56.09    4.50
  -6   3   2   52.79    3.70
  -6   3   2   58.39    3.60
  -6   3   2   58.99    4.10
   5  -3  -2   43.40    2.80
   5  -3  -2   48.20    2.80
   5  -3  -2   45.80    3.60
   5  -3  -2   39.90    3.30
  -5   3   2   48.20    3.40
  -5   3   2   44.50    3.20
  -5   3   2   44.70    2.90
   4  -3  -2    1.80    1.10
   4  -3  -2    0.00    1.00
   4  -3  -2    0.30    1.10
   4  -3  -2    2.40    1.20
  -4   3   2    1.80    1.10
  -4   3   2    3.00    1.00
  -4   3   2    2.90    1.30
   3  -3  -2  208.58    5.90
   3  -3  -2  219.68    6.50
  -3   3   2  205.08    5.30
  -3   3   2  205.58    5.80
  -3   3   2  194.48    5.90
   2  -3  -2  708.13   15.00
   2  -3  -2  742.43   15.50
  -2   3   2  722.33   14.70
  -2   3   2  745.93   15.00
  -2   3   2  736.03   15.20
  -2   3   2  721.23   14.70
  -2   3   2  724.43   14.60
  -1   3   2   34.80    1.80
  -1   3   2   31.50    2.00
  -1   3   2   34.00    1.70
  -1   3   2   33.50    1.90
  -1   3   2   30.70    1.70
  -1   3   2   31.40    1.60
   0   3   2  505.75   10.60
   0   3   2  496.05   10.20
   0   3   2  501.25   10.20
   0   3   2  494.15   10.90
   0   3   2  507.95   10.80
   0   3   2  509.35   10.80
   0   3   2  511.35   10.60
   0   3   2  517.05   11.00
  -1  -3  -2  159.08    4.90
   1   3   2  167.18    4.50
   1   3   2  177.88    4.90
   1   3   2  174.58    5.10
   1   3   2  174.68    5.00
  -2  -3  -2  113.59    4.10
  -2  -3  -2  119.89    4.30
   2   3   2  119.29    4.40
   2   3   2  121.59    3.80
   2   3   2  123.39    4.40
  -3  -3  -2  320.87    8.40
  -3  -3  -2  310.87    8.60
   3   3   2  303.97    7.80
   3   3   2  324.67    8.90
   3   3   2  328.07    9.00
  -4  -3  -2   45.10    3.40
  -4  -3  -2   46.20    3.50
   4   3   2   41.20    3.40
   4   3   2   45.70    2.90
   4   3   2   49.40    3.70
  -5  -3  -2   20.90    3.20
  -5  -3  -2   33.60    3.50
  -5  -3  -2   36.00    3.90
   5   3   2   33.90    3.90
  -6  -3  -2   30.10    3.80
  -6  -3  -2   34.10    4.30
  -6  -3  -2   36.30    4.10
   6   3   2   36.00    4.70
  -7  -3  -2   34.90    4.50
  -7  -3  -2   31.50    4.70
  -7  -3  -2   30.50    4.50
   7   3   2   22.90    4.10
   8  -4  -2  228.48    9.80
   8  -4  -2  220.68   10.10
  -8   4   2  215.48    8.90
   7  -4  -2  147.99    6.00
   7  -4  -2  164.78    8.10
   7  -4  -2  148.89    7.30
   7  -4  -2  158.88    6.00
  -7   4   2  147.69    6.80
  -7   4   2  155.48    6.70
   6  -4  -2    2.60    1.70
   6  -4  -2    3.20    2.20
   6  -4  -2    0.30    1.80
   6  -4  -2    0.80    1.40
  -6   4   2    0.90    1.80
  -6   4   2    0.60    1.40
  -6   4   2    0.30    1.70
   5  -4  -2    8.40    2.00
   5  -4  -2   11.00    1.90
   5  -4  -2    8.00    2.10
   5  -4  -2   10.30    1.90
  -5   4   2    7.70    1.90
  -5   4   2    7.10    1.60
  -5   4   2    6.70    1.80
   4  -4  -2  249.28    8.00
   4  -4  -2  242.88    7.50
  -4   4   2  238.28    6.50
  -4   4   2  241.28    7.30
  -4   4   2  244.08    7.20
   3  -4  -2  803.72   17.70
   3  -4  -2  786.92   17.10
  -3   4   2  782.32   16.20
  -3   4   2  789.52   16.80
  -3   4   2  796.22   16.50
  -3   4   2  787.42   17.10
  -3   4   2  788.72   16.40
   2  -4  -2  111.89    4.10
   2  -4  -2  129.29    4.60
  -2   4   2  122.39    4.10
  -2   4   2  120.39    3.90
  -2   4   2  121.39    3.90
  -2   4   2  120.39    4.30
  -2   4   2  110.89    3.70
  -1   4   2 1157.08   23.20
  -1   4   2 1214.78   23.70
  -1   4   2 1166.38   23.20
  -1   4   2 1189.48   23.40
  -1   4   2 1219.08   23.80
  -1   4   2 1189.08   23.10
  -1   4   2 1201.58   23.60
  -1   4   2 1184.28   23.10
   0   4   2 2795.52   53.19
   0   4   2 2845.02   52.59
   0   4   2 2863.31   53.59
   0   4   2 2838.22   52.99
   0   4   2 2885.71   53.29
   0   4   2 2869.01   53.59
   0   4   2 2819.22   52.59
   0   4   2 2865.11   53.49
  -1  -4  -2  212.88    6.00
  -1  -4  -2  196.28    5.90
   1   4   2  213.68    5.80
   1   4   2  213.48    6.20
   1   4   2  211.38    6.30
  -2  -4  -2  328.17    8.60
  -2  -4  -2  303.27    8.10
   2   4   2  318.27    8.00
   2   4   2  325.57    8.80
   2   4   2  319.27    8.90
  -3  -4  -2  343.17    9.40
  -3  -4  -2  327.37    8.90
   3   4   2  341.97    9.70
   3   4   2  330.07    9.60
   3   4   2  329.27    8.60
  -4  -4  -2  152.58    6.40
  -4  -4  -2  149.09    6.00
   4   4   2  163.48    6.70
  -5  -4  -2   83.29    5.50
  -5  -4  -2   82.99    5.70
  -5  -4  -2   76.59    5.10
   5   4   2   82.99    5.50
  -6  -4  -2   35.10    4.50
  -6  -4  -2   33.50    4.60
   6   4   2   41.00    4.80
   8  -5  -2  106.39    7.80
   8  -5  -2  108.19    7.10
  -8   5   2   99.69    6.60
  -8   5   2  110.39    6.60
   7  -5  -2   87.19    5.00
   7  -5  -2   95.49    5.10
   7  -5  -2   90.39    6.00
   7  -5  -2   97.39    6.90
  -7   5   2   96.89    5.80
  -7   5   2   92.29    5.80
   6  -5  -2   76.19    4.40
   6  -5  -2   80.49    5.90
   6  -5  -2   84.49    5.50
   6  -5  -2   79.59    4.50
  -6   5   2   83.69    5.10
  -6   5   2   85.79    5.10
   5  -5  -2   60.19    4.30
   5  -5  -2   63.99    4.00
   5  -5  -2   59.89    4.60
   5  -5  -2   56.09    3.70
  -5   5   2   56.09    3.60
  -5   5   2   60.99    4.20
  -5   5   2   55.29    4.00
   4  -5  -2  254.47    8.20
   4  -5  -2  257.37    8.60
  -4   5   2  254.47    8.00
  -4   5   2  255.17    7.30
  -4   5   2  251.17    6.90
  -4   5   2  269.07    7.40
  -4   5   2  266.57    7.80
   3  -5  -2  207.88    6.80
   3  -5  -2  210.68    7.20
  -3   5   2  218.88    6.30
  -3   5   2  207.58    6.90
  -3   5   2  216.38    6.50
  -3   5   2  218.18    6.20
  -3   5   2  201.68    5.90
   2  -5  -2   42.70    2.90
   2  -5  -2   39.50    3.10
  -2   5   2   32.50    2.60
  -2   5   2   42.90    2.60
  -2   5   2   37.60    2.50
  -2   5   2   36.20    3.00
  -2   5   2   35.50    2.40
  -1   5   2 1081.89   21.60
  -1   5   2 1090.69   22.40
  -1   5   2 1086.59   21.90
  -1   5   2 1080.89   22.20
  -1   5   2 1092.29   22.00
  -1   5   2 1100.79   22.60
  -1   5   2 1073.39   21.60
  -1   5   2 1079.09   21.80
   0   5   2 1049.00   21.40
   0   5   2 1042.30   21.60
   0   5   2 1057.69   21.90
   0   5   2 1050.99   20.80
   0   5   2 1074.39   22.10
   0   5   2 1039.20   20.80
   0   5   2 1047.80   21.20
   0   5   2 1067.29   21.60
  -1  -5  -2  300.27    8.20
  -1  -5  -2  280.07    8.00
   1   5   2  300.37    7.10
   1   5   2  306.77    8.10
   1   5   2  304.87    8.60
   1   5   2  327.07    8.70
   1   5   2  310.97    7.10
  -2  -5  -2   31.30    3.00
  -2  -5  -2   35.40    2.90
   2   5   2   30.30    3.10
   2   5   2   36.40    2.70
   2   5   2   36.30    3.30
  -3  -5  -2    5.90    1.90
  -3  -5  -2    6.80    2.30
   3   5   2    1.20    1.70
  -4  -5  -2   56.59    5.10
  -4  -5  -2   58.79    4.80
  -4  -5  -2   63.29    5.00
   4   5   2   63.69    4.70
  -5  -5  -2   49.70    5.30
  -5  -5  -2   61.39    5.50
   5   5   2   66.39    5.50
   7  -6  -2   29.50    3.50
   7  -6  -2   29.60    3.50
   7  -6  -2   29.80    4.30
   7  -6  -2   39.60    5.20
  -7   6   2   30.20    4.00
  -7   6   2   25.90    3.80
   6  -6  -2   88.19    5.20
   6  -6  -2   84.09    6.20
   6  -6  -2   86.59    5.10
   6  -6  -2   94.39    5.90
  -6   6   2   91.39    5.60
  -6   6   2   80.59    5.60
   5  -6  -2  149.19    6.70
   5  -6  -2  141.39    7.10
  -5   6   2  142.79    6.20
  -5   6   2  133.19    6.50
   4  -6  -2   32.70    3.40
   4  -6  -2   30.50    3.70
  -4   6   2   29.90    3.20
  -4   6   2   29.00    2.90
  -4   6   2   31.10    2.90
  -4   6   2   25.40    3.20
   3  -6  -2   19.20    2.80
   3  -6  -2   13.90    2.60
  -3   6   2   17.50    2.30
  -3   6   2   19.10    2.70
  -3   6   2   16.80    2.20
  -3   6   2   20.50    2.50
  -3   6   2   16.70    2.30
   2  -6  -2    9.70    2.00
   2  -6  -2    9.50    2.20
  -2   6   2    5.00    1.90
  -2   6   2   10.20    1.90
  -2   6   2    6.70    1.60
  -2   6   2    7.20    1.50
  -2   6   2    9.80    1.80
  -1   6   2  259.37    7.20
  -1   6   2  275.37    7.30
  -1   6   2  269.87    7.80
  -1   6   2  271.27    7.90
  -1   6   2  275.67    7.30
  -1   6   2  264.27    7.50
  -1   6   2  256.07    8.00
  -1   6   2  265.37    7.50
   0   6   2   47.90    3.60
   0   6   2   51.09    3.10
   0   6   2   46.70    3.20
   0   6   2   48.50    3.40
   0   6   2   52.09    2.80
   0   6   2   48.80    3.30
   0   6   2   54.49    3.70
   0   6   2   47.70    2.80
  -1  -6  -2   10.20    2.00
  -1  -6  -2    5.80    1.80
   1   6   2   10.40    2.30
   1   6   2    9.40    2.00
   1   6   2    9.10    2.10
  -2  -6  -2   38.20    3.70
  -2  -6  -2   43.60    3.70
   2   6   2   36.80    3.70
   2   6   2   35.20    3.20
  -3  -6  -2   37.90    4.20
  -3  -6  -2   30.90    4.00
   3   6   2   36.00    3.80
  -4  -6  -2    8.60    2.90
  -4  -6  -2    7.50    3.10
   4   6   2    8.80    2.80
  -5  -6  -2   31.40    4.70
  -5  -6  -2   23.50    4.50
   5   6   2   32.50    4.70
   7  -7  -2   28.00    5.00
   7  -7  -2   31.40    4.00
   7  -7  -2   27.60    3.80
  -7   7   2   28.90    4.30
  -7   7   2   27.10    4.10
   6  -7  -2  216.38    8.30
   6  -7  -2  213.88    8.20
   6  -7  -2  215.98    9.80
   6  -7  -2  213.28    9.10
  -6   7   2  223.68    9.00
  -6   7   2  219.88    8.60
   5  -7  -2   48.20    5.20
   5  -7  -2   40.10    4.40
  -5   7   2   41.80    4.10
  -5   7   2   41.90    4.30
   4  -7  -2   56.19    4.70
   4  -7  -2   54.79    4.90
  -4   7   2   62.89    4.20
  -4   7   2   56.49    4.90
  -4   7   2   57.49    4.30
  -4   7   2   49.99    3.90
   3  -7  -2  151.58    6.80
   3  -7  -2  160.48    7.10
  -3   7   2  161.98    6.10
  -3   7   2  160.98    6.10
  -3   7   2  154.88    6.00
  -3   7   2  160.68    6.70
   2  -7  -2  181.68    7.30
   2  -7  -2  174.58    7.00
  -2   7   2  186.68    6.30
  -2   7   2  174.48    6.30
  -2   7   2  189.68    6.90
  -2   7   2  182.38    6.30
   1  -7  -2   69.89    4.60
  -1   7   2   78.49    4.50
  -1   7   2   70.09    3.80
  -1   7   2   68.49    4.20
  -1   7   2   69.89    4.70
  -1   7   2   69.59    3.90
  -1   7   2   73.79    4.40
   0  -7  -2   19.40    2.60
   0   7   2   23.00    2.40
   0   7   2   15.80    2.70
   0   7   2   21.10    3.00
   0   7   2   17.70    2.20
  -1  -7  -2   27.60    3.20
  -1  -7  -2   19.20    3.20
   1   7   2   25.50    3.50
   1   7   2   24.60    3.00
  -2  -7  -2   99.09    6.30
  -2  -7  -2  105.29    5.80
   2   7   2  108.39    6.00
  -3  -7  -2   12.30    3.60
  -3  -7  -2   11.70    3.20
   3   7   2   10.70    2.80
  -4  -7  -2   10.80    3.40
  -4  -7  -2   10.50    3.70
   4   7   2   12.10    3.40
   6  -8  -2   13.80    3.50
   6  -8  -2    7.90    3.00
   6  -8  -2   10.00    3.60
  -6   8   2   16.80    3.60
  -6   8   2   13.90    3.50
   5  -8  -2   32.80    4.80
   5  -8  -2   34.30    5.30
  -5   8   2   35.00    3.90
  -5   8   2   39.70    4.70
   4  -8  -2  125.29    6.80
   4  -8  -2  113.29    7.00
  -4   8   2  132.29    6.10
  -4   8   2  137.19    6.20
  -4   8   2  116.59    6.10
  -4   8   2  123.69    6.80
   3  -8  -2   58.49    5.20
   3  -8  -2   69.99    5.40
  -3   8   2   64.09    4.50
  -3   8   2   61.89    4.60
  -3   8   2   56.99    4.40
  -3   8   2   59.39    5.20
   2  -8  -2  215.78    8.70
   2  -8  -2  223.58    8.70
  -2   8   2  239.58    7.70
  -2   8   2  224.18    8.20
  -2   8   2  231.48    7.60
   1  -8  -2   29.50    3.80
  -1   8   2   31.10    3.10
  -1   8   2   31.10    3.00
  -1   8   2   27.60    3.30
  -1   8   2   36.00    3.80
   0  -8  -2    7.90    2.90
   0   8   2    4.10    2.30
   0   8   2    4.70    2.50
  -1  -8  -2   31.40    4.30
  -1  -8  -2   21.80    5.40
   1   8   2   21.10    3.50
  -2  -8  -2    8.50    3.10
  -2  -8  -2   10.60    3.50
   2   8   2   12.50    3.30
  -3  -8  -2    7.40    3.70
  -3  -8  -2    6.60    3.20
   3   8   2    8.20    3.10
   5  -9  -2    3.80    3.30
  -5   9   2   -2.50    3.00
  -5   9   2    1.10    3.00
   4  -9  -2   15.80    3.90
  -4   9   2    9.30    3.40
  -4   9   2   14.80    3.30
  -4   9   2   10.90    3.10
   3  -9  -2   47.10    5.30
  -3   9   2   41.40    4.10
  -3   9   2   36.60    4.30
  -3   9   2   40.60    4.20
   2  -9  -2   38.70    4.80
   2  -9  -2   38.90    4.80
  -2   9   2   45.30    4.20
  -2   9   2   41.30    4.00
  -2   9   2   31.90    4.00
   1  -9  -2   10.30    3.10
  -1   9   2    5.10    2.90
  -1   9   2    8.80    2.80
  -1   9   2   13.00    3.00
   0   9   2   79.39    6.30
  -1  -9  -2   26.30    4.70
   1   9   2   28.50    4.40
   1  10  -3    5.10    3.10
   1  10  -3    4.60    3.30
   0  10  -3   51.19    5.50
   0  10  -3   63.79    4.90
   0  10  -3   62.99    4.80
   0 -10   3   47.90    5.70
  -1  10  -3   48.30    4.40
  -1  10  -3   43.80    4.20
  -1  10  -3   52.49    5.90
   1 -10   3   41.30    5.30
  -2  10  -3   44.30    5.20
  -2  10  -3   53.29    4.70
  -2  10  -3   50.59    4.70
   2 -10   3   45.80    5.60
  -3  10  -3   26.10    3.70
  -3  10  -3   22.40    3.90
  -3  10  -3   21.50    3.60
   3 -10   3   26.00    4.60
   3 -10   3   18.30    4.10
   3   9  -3   21.00    3.70
   3   9  -3    9.70    3.40
  -3  -9   3   12.00    3.80
   2   9  -3   -3.90    2.20
   2   9  -3    0.70    2.50
  -2  -9   3    1.40    2.70
   1   9  -3    1.60    2.40
   1   9  -3    0.70    3.50
   1   9  -3   -1.00    2.50
   1   9  -3    1.30    3.30
  -1  -9   3    0.10    2.40
   0   9  -3   80.29    5.70
   0   9  -3   83.19    4.80
   0   9  -3   74.89    4.50
   0  -9   3   76.39    5.90
  -1   9  -3  214.48    7.50
  -1   9  -3  224.78    7.60
  -1   9  -3  216.38    8.80
   1  -9   3  201.28    8.90
  -2   9  -3   64.59    5.40
  -2   9  -3   56.69    4.60
  -2   9  -3   63.69    4.80
  -2   9  -3   61.89    5.10
   2  -9   3   62.69    5.50
  -3   9  -3   -0.30    2.20
  -3   9  -3   -1.10    2.60
  -3   9  -3    1.10    2.20
   3  -9   3   -2.20    2.40
   3  -9   3   -1.30    2.40
  -4   9  -3   47.10    4.30
  -4   9  -3   53.89    4.40
  -4   9  -3   43.10    4.80
   4  -9   3   51.89    5.80
   4  -9   3   39.00    5.00
  -5   9  -3   27.00    3.60
  -5   9  -3   25.70    3.60
  -5   9  -3   25.30    4.30
   5  -9   3   21.20    4.50
   5  -9   3   23.10    4.30
   4   8  -3    2.70    2.80
   4   8  -3    8.40    3.10
  -4  -8   3    7.00    3.50
   3   8  -3   -0.60    2.40
   3   8  -3   -0.30    2.20
  -3  -8   3    0.60    2.80
   2   8  -3   23.70    3.40
   2   8  -3   20.30    3.60
  -2  -8   3   21.70    3.70
   1   8  -3    4.40    2.30
   1   8  -3    2.80    2.30
   1   8  -3    6.10    2.00
   1   8  -3    5.30    1.90
  -1  -8   3    7.80    2.70
   0   8  -3   41.40    4.40
   0   8  -3   36.70    3.30
   0   8  -3   38.90    4.10
   0   8  -3   40.10    3.40
   0  -8   3   47.50    4.00
  -1   8  -3   10.30    2.20
  -1   8  -3    6.00    2.30
  -1   8  -3    8.00    2.10
  -1   8  -3   11.40    2.80
   1  -8   3    9.90    2.70
  -2   8  -3    1.30    1.80
  -2   8  -3    1.30    1.90
  -2   8  -3    2.70    2.30
  -2   8  -3    2.20    2.30
   2  -8   3    3.40    2.30
  -3   8  -3   23.60    3.00
  -3   8  -3   28.40    3.60
  -3   8  -3   26.60    3.10
   3  -8   3   25.10    3.90
  -4   8  -3   65.09    5.50
  -4   8  -3   64.99    4.40
  -4   8  -3   62.59    4.40
   4  -8   3   57.79    5.50
   4  -8   3   65.99    5.60
  -5   8  -3   35.60    3.70
  -5   8  -3   29.80    4.30
  -5   8  -3   28.90    3.40
   5  -8   3   46.50    5.40
   5  -8   3   30.20    4.50
  -6   8  -3    6.80    2.60
  -6   8  -3    7.00    3.30
  -6   8  -3    4.60    2.50
   6  -8   3    6.40    3.30
   6  -8   3    0.80    2.80
   5   7  -3    7.80    2.80
   5   7  -3    4.40    2.80
  -5  -7   3    5.30    3.30
  -5  -7   3    5.00    3.10
   4   7  -3   40.60    4.40
   4   7  -3   44.20    4.60
  -4  -7   3   44.90    5.10
  -4  -7   3   54.89    4.90
   3   7  -3   78.69    5.20
   3   7  -3   81.79    5.20
  -3  -7   3   70.39    5.40
  -3  -7   3   83.09    5.00
   2   7  -3   88.09    5.20
   2   7  -3   91.69    4.00
   2   7  -3   84.49    5.10
   2   7  -3   90.39    3.90
  -2  -7   3   83.79    5.20
   1   7  -3  191.78    5.90
   1   7  -3  177.38    7.10
   1   7  -3  190.88    5.90
   1   7  -3  185.38    7.10
  -1  -7   3  191.38    7.00
   0   7  -3  171.78    5.50
   0   7  -3  163.18    6.70
   0   7  -3  160.78    6.70
   0   7  -3  169.38    5.50
   0  -7   3  159.68    6.00
  -1   7  -3   39.60    3.10
  -1   7  -3   41.50    3.70
  -1   7  -3   37.50    3.40
  -1   7  -3   42.10    3.10
   1  -7   3   42.10    3.60
  -2   7  -3  102.99    4.50
  -2   7  -3  102.59    5.30
  -2   7  -3  100.59    4.50
  -2   7  -3   98.19    5.00
   2  -7   3  104.99    5.40
  -3   7  -3  131.89    6.10
  -3   7  -3  144.49    5.50
  -3   7  -3  139.79    5.40
   3  -7   3  141.29    6.60
  -4   7  -3  198.38    7.70
  -4   7  -3  180.58    6.40
  -4   7  -3  178.68    6.40
   4  -7   3  178.18    7.80
   4  -7   3  183.88    8.00
  -5   7  -3   21.20    3.10
  -5   7  -3   25.00    2.90
  -5   7  -3   22.40    3.60
  -5   7  -3   23.70    2.90
   5  -7   3   23.90    3.70
   5  -7   3   20.30    3.70
  -6   7  -3   37.40    4.10
  -6   7  -3   44.70    3.90
  -6   7  -3   42.50    4.80
  -6   7  -3   40.20    3.70
   6  -7   3   39.30    5.00
   6  -7   3   37.10    5.20
  -7   7  -3   96.69    6.80
  -7   7  -3  120.09    7.40
  -7   7  -3  136.19    7.20
  -7   7  -3  117.79    7.40
   7  -7   3  120.29    8.20
   7  -7   3  124.29    8.00
   6   6  -3  121.49    7.00
   6   6  -3  112.29    7.10
  -6  -6   3  120.49    7.70
  -6  -6   3  127.49    7.60
   5   6  -3   32.60    4.00
   5   6  -3   32.40    4.20
  -5  -6   3   45.50    4.80
  -5  -6   3   39.80    4.90
   4   6  -3   87.19    5.40
   4   6  -3   91.79    5.30
  -4  -6   3   92.19    5.50
  -4  -6   3   91.19    5.70
   3   6  -3  168.28    6.80
   3   6  -3  168.48    6.90
  -3  -6   3  177.38    6.50
  -3  -6   3  174.18    7.10
   2   6  -3  282.47    8.90
   2   6  -3  284.37    7.20
   2   6  -3  288.97    8.90
   2   6  -3  282.97    7.20
  -2  -6   3  277.37    8.80
  -2  -6   3  304.87    8.20
   1   6  -3  577.34   12.50
   1   6  -3  567.54   12.50
   1   6  -3  577.94   14.10
   1   6  -3  571.24   14.10
  -1  -6   3  566.94   13.70
  -1  -6   3  586.24   12.60
   0   6  -3  115.59    5.10
   0   6  -3  118.39    4.20
   0   6  -3  119.59    5.10
   0   6  -3  117.99    4.20
   0  -6   3  120.59    4.70
  -1   6  -3   81.69    3.90
  -1   6  -3   76.19    3.40
  -1   6  -3   81.29    3.50
  -1   6  -3   83.49    4.20
   1  -6   3   77.19    4.10
  -2   6  -3   70.59    4.10
  -2   6  -3   65.99    3.90
  -2   6  -3   59.19    3.20
  -2   6  -3   58.09    3.20
   2  -6   3   62.19    3.90
  -3   6  -3  125.19    4.60
  -3   6  -3  123.69    4.60
  -3   6  -3  119.79    4.60
  -3   6  -3  124.69    5.50
   3  -6   3  117.69    5.60
   3  -6   3  121.39    5.60
  -4   6  -3   37.60    3.70
  -4   6  -3   39.70    3.20
  -4   6  -3   38.00    3.10
  -4   6  -3   36.70    3.40
   4  -6   3   35.90    3.90
   4  -6   3   34.80    3.90
  -5   6  -3    9.90    2.40
  -5   6  -3    8.10    2.00
  -5   6  -3    6.50    2.40
  -5   6  -3    9.20    2.10
   5  -6   3    9.90    2.70
   5  -6   3    5.10    2.30
  -6   6  -3  285.57   10.00
  -6   6  -3  291.77    9.70
  -6   6  -3  288.07    8.60
  -6   6  -3  280.07    8.50
   6  -6   3  307.77   11.10
   6  -6   3  279.87   10.50
  -7   6  -3   49.40    5.00
  -7   6  -3   51.19    5.10
   7  -6   3   52.79    5.80
   7  -6   3   56.19    6.10
   6   5  -3   22.10    3.60
   6   5  -3   19.70    3.50
  -6  -5   3   18.90    3.80
  -6  -5   3   25.20    4.10
   5   5  -3   33.50    3.90
   5   5  -3   38.40    4.30
  -5  -5   3   35.70    4.20
  -5  -5   3   33.30    4.10
   4   5  -3  234.08    8.10
   4   5  -3  226.98    8.20
  -4  -5   3  233.98    8.40
  -4  -5   3  221.68    7.80
   3   5  -3  145.19    4.30
   3   5  -3  137.49    4.20
   3   5  -3  141.49    5.80
   3   5  -3  148.89    5.90
  -3  -5   3  147.59    5.60
  -3  -5   3  139.89    5.90
   2   5  -3   75.89    2.90
   2   5  -3   74.59    3.80
   2   5  -3   72.79    2.90
   2   5  -3   76.69    4.00
  -2  -5   3   73.09    4.00
  -2  -5   3   74.09    3.60
   1   5  -3  448.16   11.10
   1   5  -3  436.86    9.60
   1   5  -3  435.36    9.60
   1   5  -3  439.76   11.00
  -1  -5   3  421.26    9.70
  -1  -5   3  433.16   10.70
   0   5  -3  400.86    9.00
   0   5  -3  394.66    9.00
   0   5  -3  402.16   10.10
   0   5  -3  401.36   10.10
   0  -5   3  385.06    9.50
  -1   5  -3    4.30    1.20
  -1   5  -3    4.40    1.30
  -1   5  -3    7.00    1.30
  -1   5  -3    2.70    1.30
   1  -5   3    3.00    1.20
  -2   5  -3  102.79    4.40
  -2   5  -3   95.79    3.50
  -2   5  -3   97.79    4.20
  -2   5  -3   94.69    3.60
  -2   5  -3   94.29    3.60
   2  -5   3   94.89    4.40
  -3   5  -3   60.29    3.80
  -3   5  -3   58.79    3.00
  -3   5  -3   60.79    3.00
  -3   5  -3   57.79    3.30
   3  -5   3   62.79    3.70
   3  -5   3   59.39    3.70
  -4   5  -3    0.10    1.20
  -4   5  -3    1.20    1.60
  -4   5  -3    1.50    1.30
  -4   5  -3   -0.80    1.50
   4  -5   3    2.10    1.60
   4  -5   3   -1.20    1.30
  -5   5  -3   55.39    3.30
  -5   5  -3   51.79    3.30
  -5   5  -3   47.90    4.10
  -5   5  -3   48.20    4.20
   5  -5   3   49.40    4.20
   5  -5   3   45.90    4.30
  -6   5  -3  336.17   10.80
  -6   5  -3  342.17    9.20
  -6   5  -3  349.77   10.90
  -6   5  -3  334.57    9.10
   6  -5   3  329.97   11.10
   6  -5   3  357.16   11.90
  -7   5  -3  130.69    7.30
  -7   5  -3  121.69    6.80
   7  -5   3  120.89    7.20
   7  -5   3  132.79    7.20
   7   4  -3   21.00    3.70
   7   4  -3   25.10    4.00
  -7  -4   3   29.00    4.30
  -7  -4   3   27.20    4.30
   6   4  -3   18.40    3.30
   6   4  -3   19.00    3.20
  -6  -4   3   25.80    3.70
  -6  -4   3   26.50    4.00
   5   4  -3    0.50    1.50
   5   4  -3    0.00    1.30
  -5  -4   3    0.60    1.80
  -5  -4   3   -0.10    1.90
   4   4  -3  160.98    6.30
   4   4  -3  160.48    6.30
  -4  -4   3  163.08    6.40
  -4  -4   3  160.38    6.20
   3   4  -3  163.18    5.80
   3   4  -3  163.18    5.90
   3   4  -3  161.28    4.40
   3   4  -3  161.18    4.30
  -3  -4   3  155.68    5.90
  -3  -4   3  162.98    5.60
   2   4  -3  112.69    3.40
   2   4  -3  117.29    3.40
   2   4  -3  108.69    4.40
   2   4  -3  113.49    4.40
  -2  -4   3  114.79    4.10
  -2  -4   3  118.59    4.50
   1   4  -3  292.37    6.80
   1   4  -3  304.67    7.80
   1   4  -3  303.47    7.90
   1   4  -3  291.27    6.80
  -1  -4   3  289.47    6.90
  -1  -4   3  306.47    7.70
   0   4  -3  255.07    6.30
   0   4  -3  251.87    6.10
   0   4  -3  257.57    6.90
   0   4  -3  266.57    6.90
   0   4  -3  246.28    6.00
   0  -4   3  252.17    6.40
  -1   4  -3  527.05   11.10
  -1   4  -3  549.35   12.00
  -1   4  -3  520.75   11.60
  -1   4  -3  529.95   11.20
   1  -4   3  525.65   12.10
  -2   4  -3  362.46    8.30
  -2   4  -3  376.16    9.10
  -2   4  -3  369.36    9.10
  -2   4  -3  348.17    8.30
  -2   4  -3  366.66    8.30
   2  -4   3  365.16    9.40
  -3   4  -3   20.80    1.80
  -3   4  -3   19.90    2.10
  -3   4  -3   22.40    2.40
  -3   4  -3   20.50    1.90
   3  -4   3   25.50    2.70
   3  -4   3   22.80    2.50
  -4   4  -3    1.70    1.40
  -4   4  -3    0.90    1.10
  -4   4  -3    1.70    1.20
  -4   4  -3    2.50    1.50
   4  -4   3   -0.70    1.10
   4  -4   3    1.20    1.30
  -5   4  -3  138.49    6.10
  -5   4  -3  151.78    4.90
  -5   4  -3  146.89    4.90
  -5   4  -3  142.89    6.10
   5  -4   3  154.68    6.70
   5  -4   3  145.29    6.20
  -6   4  -3   89.79    5.60
  -6   4  -3   92.49    5.30
   6  -4   3  100.59    5.60
   6  -4   3   91.29    5.80
  -7   4  -3   49.20    4.50
  -7   4  -3   42.30    4.70
   7  -4   3   42.20    4.80
   7  -4   3   38.50    4.50
  -8   4  -3  132.29    8.10
   8  -4   3  125.39    8.10
   7   3  -3  196.28    8.70
   7   3  -3  210.18    8.80
  -7  -3   3  210.38    8.40
  -7  -3   3  210.18    8.80
   6   3  -3    5.60    2.30
   6   3  -3    3.60    2.00
  -6  -3   3    4.80    2.10
  -6  -3   3    4.20    2.50
   5   3  -3  126.89    5.90
   5   3  -3  132.89    5.90
  -5  -3   3  137.19    5.80
  -5  -3   3  141.99    6.00
   4   3  -3  759.42   17.50
   4   3  -3  778.72   17.70
  -4  -3   3  796.12   17.40
  -4  -3   3  767.62   16.10
  -4  -3   3  768.82   17.50
   3   3  -3  441.46    9.30
   3   3  -3  439.06   10.80
   3   3  -3  434.06   10.90
   3   3  -3  448.16    9.40
  -3  -3   3  446.36   10.90
  -3  -3   3  451.45   10.70
   2   3  -3  163.78    5.00
   2   3  -3  157.38    4.00
   2   3  -3  158.38    5.00
   2   3  -3  157.78    4.00
  -2  -3   3  150.18    4.60
  -2  -3   3  153.08    4.90
   1   3  -3  106.59    3.70
   1   3  -3  100.69    3.50
   1   3  -3   98.99    2.90
   1   3  -3  101.39    2.90
  -1  -3   3   97.09    3.00
  -1  -3   3  101.59    3.50
   0   3  -3   26.10    1.70
   0   3  -3   25.60    1.70
   0   3  -3   23.70    1.80
   0   3  -3   25.70    1.40
   0   3  -3   22.10    1.40
   0  -3   3   23.00    1.60
  -1   3  -3  809.32   15.80
  -1   3  -3  819.12   15.90
  -1   3  -3  799.22   16.40
  -1   3  -3  801.22   16.40
   1  -3   3  822.42   16.70
  -2   3  -3 1064.79   20.70
  -2   3  -3 1104.99   20.80
  -2   3  -3 1065.59   21.20
  -2   3  -3 1071.29   21.40
  -2   3  -3 1065.99   21.60
   2  -3   3 1084.59   22.00
  -3   3  -3  652.83   14.30
  -3   3  -3  637.94   13.10
  -3   3  -3  635.34   13.20
  -3   3  -3  645.34   14.10
   3  -3   3  642.14   14.70
   3  -3   3  658.03   14.30
  -4   3  -3  263.27    7.70
  -4   3  -3  259.07    6.40
  -4   3  -3  252.27    6.40
  -4   3  -3  261.37    7.60
  -4   3  -3  248.38    6.50
   4  -3   3  261.87    8.20
   4  -3   3  260.47    7.60
  -5   3  -3  490.25   12.60
  -5   3  -3  482.35   12.30
  -5   3  -3  475.35   11.30
   5  -3   3  494.95   13.30
   5  -3   3  483.25   12.50
  -6   3  -3   65.79    5.10
  -6   3  -3   76.49    4.60
   6  -3   3   77.49    5.20
   6  -3   3   70.09    4.60
  -7   3  -3   -0.10    2.50
  -7   3  -3    1.50    2.00
   7  -3   3    0.40    2.00
  -8   3  -3   73.99    6.60
   8  -3   3   81.89    6.80
   8   2  -3   48.20    5.30
   8   2  -3   60.09    6.00
  -8  -2   3   60.79    5.90
   7   2  -3   28.50    3.80
   7   2  -3   33.90    4.30
  -7  -2   3   31.70    3.90
  -7  -2   3   31.30    4.00
   6   2  -3   43.50    4.00
   6   2  -3   39.20    3.80
  -6  -2   3   46.90    3.40
  -6  -2   3   42.90    4.10
  -6  -2   3   41.70    3.60
   5   2  -3  194.48    7.10
   5   2  -3  184.98    6.70
  -5  -2   3  184.68    6.70
  -5  -2   3  186.38    6.50
  -5  -2   3  195.68    6.10
   4   2  -3  183.08    6.10
   4   2  -3  176.98    4.70
   4   2  -3  190.98    6.40
   4   2  -3  182.48    4.70
  -4  -2   3  176.78    5.20
  -4  -2   3  190.08    6.10
  -4  -2   3  180.38    5.90
   3   2  -3  827.32   17.10
   3   2  -3  797.32   15.70
   3   2  -3  795.22   17.30
   3   2  -3  799.62   15.70
  -3  -2   3  805.12   17.00
  -3  -2   3  763.92   15.90
  -3  -2   3  836.22   17.00
   2   2  -3  824.52   16.10
   2   2  -3  845.02   16.90
   2   2  -3  834.12   16.10
   2   2  -3  828.72   17.10
  -2  -2   3  808.92   16.70
  -2  -2   3  839.42   17.00
   1   2  -3   17.70    1.30
   1   2  -3   17.90    1.20
   1   2  -3   17.60    1.40
   1   2  -3   19.00    1.20
  -1  -2   3   17.90    1.20
  -1  -2   3   19.20    1.50
   0   2  -3   93.89    2.90
   0   2  -3   86.49    2.70
   0   2  -3   89.19    2.50
   0   2  -3   91.49    2.60
   0   2  -3   94.09    2.80
   0  -2   3   93.69    2.80
  -1   2  -3   77.29    2.30
  -1   2  -3   75.89    2.50
  -1   2  -3   76.59    2.30
  -1   2  -3   72.89    2.60
  -1   2  -3   73.99    2.40
   1  -2   3   75.79    2.30
   1  -2   3   74.69    2.70
  -2   2  -3  831.12   16.60
  -2   2  -3  822.02   15.90
  -2   2  -3  822.72   15.90
  -2   2  -3  821.12   16.80
   2  -2   3  844.52   16.60
   2  -2   3  817.22   17.10
  -3   2  -3  419.26    9.80
  -3   2  -3  436.06    9.80
  -3   2  -3  397.46    8.90
  -3   2  -3  396.86    8.60
  -3   2  -3  404.16    8.60
   3  -2   3  405.96    9.50
   3  -2   3  425.86   10.30
  -4   2  -3 1469.35   29.60
  -4   2  -3 1529.25   30.00
  -4   2  -3 1491.35   29.00
   4  -2   3 1481.05   29.70
   4  -2   3 1452.85   30.50
  -5   2  -3 1847.72   37.00
  -5   2  -3 1818.82   36.20
  -5   2  -3 1853.91   35.90
   5  -2   3 1780.62   36.40
   5  -2   3 1824.72   37.70
  -6   2  -3   67.29    4.20
  -6   2  -3   72.49    5.00
  -6   2  -3   65.39    4.20
   6  -2   3   63.79    4.30
   6  -2   3   63.19    4.90
  -7   2  -3   15.00    3.30
  -7   2  -3   14.00    3.30
   7  -2   3   19.40    3.70
  -8   2  -3   52.99    5.50
   8  -2   3   49.90    5.70
   8   1  -3   30.50    4.40
   8   1  -3   20.50    3.60
  -8  -1   3   30.20    4.20
  -8  -1   3   27.40    3.80
   7   1  -3   53.79    4.70
   7   1  -3   48.10    4.30
  -7  -1   3   54.09    4.20
  -7  -1   3   48.70    4.40
   6   1  -3  145.69    6.50
   6   1  -3  146.99    6.30
  -6  -1   3  145.49    5.60
  -6  -1   3  147.39    6.20
  -6  -1   3  149.88    5.80
   5   1  -3  304.37    9.20
   5   1  -3  294.47    7.10
   5   1  -3  294.67    8.80
  -5  -1   3  314.07    8.80
  -5  -1   3  293.27    8.20
  -5  -1   3  304.27    8.30
   4   1  -3   40.90    2.70
   4   1  -3   41.20    2.10
   4   1  -3   41.80    2.10
   4   1  -3   43.10    2.90
  -4  -1   3   41.90    2.40
  -4  -1   3   39.60    2.70
  -4  -1   3   45.80    2.60
   3   1  -3    0.90    0.80
   3   1  -3    2.70    0.80
   3   1  -3    4.30    1.20
   3   1  -3    0.80    0.70
  -3  -1   3    2.90    0.90
  -3  -1   3    1.80    0.80
  -3  -1   3    2.60    0.80
   2   1  -3 1201.98   23.40
   2   1  -3 1216.28   23.10
   2   1  -3 1222.48   23.10
   2   1  -3 1230.48   24.00
  -2  -1   3 1218.18   23.00
  -2  -1   3 1224.28   23.60
  -2  -1   3 1240.68   23.60
   1   1  -3 4978.80   91.79
   1   1  -3 5186.18   91.79
   1   1  -3 4934.91   92.19
   1   1  -3 4993.40   91.79
  -1  -1   3 5165.18   92.19
  -1  -1   3 5147.58   91.99
   0   1  -3  339.27    7.00
   0   1  -3  349.87    7.00
   0   1  -3  338.07    7.00
   0   1  -3  352.06    7.20
   0   1  -3  351.56    7.30
   0  -1   3  352.66    7.00
   0  -1   3  355.86    7.10
   0  -1   3  356.36    7.40
  -1   1  -3   19.70    1.00
  -1   1  -3   20.90    1.40
  -1   1  -3   18.90    1.30
  -1   1  -3   20.00    1.00
  -1   1  -3   19.10    1.00
   1  -1   3   19.50    1.20
   1  -1   3   19.20    1.00
   1  -1   3   18.10    1.30
  -2   1  -3   56.59    2.10
  -2   1  -3   54.09    2.40
  -2   1  -3   55.29    2.40
   2  -1   3   57.89    2.10
   2  -1   3   55.39    2.10
   2  -1   3   52.99    2.50
  -3   1  -3  133.79    4.10
  -3   1  -3  130.19    4.30
  -3   1  -3  144.99    4.60
   3  -1   3  129.89    4.10
   3  -1   3  144.29    4.80
   3  -1   3  123.49    3.90
  -4   1  -3  346.77    8.70
  -4   1  -3  354.26    9.30
  -4   1  -3  346.77    8.80
   4  -1   3  359.56    8.90
   4  -1   3  343.37    9.70
  -5   1  -3   17.50    2.40
  -5   1  -3   20.70    2.90
  -5   1  -3   16.70    2.20
   5  -1   3   19.70    3.00
   5  -1   3   12.10    2.10
  -6   1  -3   15.10    2.60
  -6   1  -3   13.40    2.90
   6  -1   3   14.60    3.00
  -7   1  -3  115.29    6.30
  -7   1  -3  124.09    6.70
   7  -1   3  123.99    7.20
  -8   1  -3    3.00    2.90
  -8   1  -3    7.80    3.20
   8  -1   3    0.20    2.80
   8   0  -3   10.50    2.90
   8   0  -3    9.50    2.90
  -8   0   3    8.40    2.70
  -8   0   3    8.60    2.60
   7   0  -3   64.49    4.70
   7   0  -3   60.19    4.90
  -7   0   3   61.59    4.60
  -7   0   3   66.69    4.40
   6   0  -3  142.29    6.00
   6   0  -3  137.39    6.40
  -6   0   3  143.19    5.90
  -6   0   3  138.39    5.60
  -6   0   3  146.99    5.30
   5   0  -3  271.97    8.10
   5   0  -3  286.77    8.70
   5   0  -3  281.67    6.90
   5   0  -3  282.37    6.90
  -5   0   3  283.47    8.10
  -5   0   3  269.87    7.80
  -5   0   3  270.87    7.30
   4   0  -3   22.10    2.10
   4   0  -3   21.40    1.70
   4   0  -3   22.10    2.60
   4   0  -3   20.90    1.70
  -4   0   3   19.80    2.10
  -4   0   3   17.30    1.70
  -4   0   3   21.00    2.00
   3   0  -3    1.40    0.90
   3   0  -3    2.90    0.80
   3   0  -3    1.70    0.80
   3   0  -3    1.70    0.70
  -3   0   3    1.00    0.70
  -3   0   3    2.30    0.70
  -3   0   3    3.20    0.90
   2   0  -3    1.60    0.60
   2   0  -3    0.30    0.50
   2   0  -3    1.90    0.70
   2   0  -3    0.70    0.60
  -2   0   3    1.40    0.60
  -2   0   3    1.00    0.60
  -2   0   3    1.80    0.60
  -2   0   3    1.20    0.60
   1   0  -3   15.10    1.10
   1   0  -3   12.60    1.10
   1   0  -3   13.10    1.10
   1   0  -3   14.00    0.60
   1   0  -3   15.00    1.10
  -1   0   3   15.40    1.10
  -1   0   3   15.00    1.00
  -1   0   3   15.70    1.10
   0   0  -3   54.79    2.00
   0   0  -3   57.59    1.70
   0   0  -3   57.09    1.70
   0   0   3   54.89    1.90
   0   0   3   46.50    1.50
   0   0   3   56.19    1.90
  -1   0  -3   47.90    2.00
  -1   0  -3   49.20    2.00
   1   0   3   44.60    1.90
   1   0   3   49.50    2.00
   1   0   3   47.50    1.80
  -2   0  -3   85.09    3.20
  -2   0  -3   83.29    3.00
  -2   0  -3   90.19    3.00
   2   0   3   94.09    3.40
   2   0   3   88.59    3.00
  -3   0  -3  240.48    6.40
  -3   0  -3  233.78    6.00
  -3   0  -3  236.38    6.50
   3   0   3  227.18    5.80
   3   0   3  240.28    6.30
   3   0   3  241.18    7.00
  -4   0  -3    9.60    1.50
  -4   0  -3    7.80    1.70
  -4   0  -3    5.10    1.50
   4   0   3    6.70    1.70
   4   0   3    8.10    1.60
   4   0   3    6.30    1.30
  -5   0  -3   93.19    5.00
  -5   0  -3   97.69    4.80
   5   0   3  107.29    4.90
   5   0   3   95.19    4.40
   5   0   3   95.89    5.20
  -6   0  -3    3.50    2.20
  -6   0  -3    0.30    2.20
   6   0   3   -2.20    1.80
  -7   0  -3   78.99    5.70
  -7   0  -3   74.39    5.80
   7   0   3   81.19    6.10
   8  -1  -3    7.50    2.70
   8  -1  -3    5.80    2.80
  -8   1   3    8.30    2.70
  -8   1   3   11.30    2.80
   7  -1  -3   34.20    3.90
   7  -1  -3   52.29    5.10
  -7   1   3   31.40    3.60
  -7   1   3   37.30    3.80
   6  -1  -3   24.70    3.40
   6  -1  -3   20.30    2.20
   6  -1  -3   17.00    2.00
   6  -1  -3   17.60    2.70
  -6   1   3   16.40    2.50
  -6   1   3   14.90    2.30
   5  -1  -3  222.98    6.00
   5  -1  -3  225.48    7.10
   5  -1  -3  221.78    6.00
   5  -1  -3  220.48    7.50
  -5   1   3  229.28    6.90
  -5   1   3  221.38    6.80
   4  -1  -3  802.02   17.60
   4  -1  -3  780.62   16.00
   4  -1  -3  780.92   16.00
   4  -1  -3  784.92   16.80
  -4   1   3  790.72   16.70
  -4   1   3  766.72   16.20
  -4   1   3  801.22   16.70
   3  -1  -3  336.77    7.80
   3  -1  -3  340.57    8.60
   3  -1  -3  335.97    7.60
   3  -1  -3  322.87    7.50
  -3   1   3  329.17    7.90
  -3   1   3  341.27    7.80
  -3   1   3  336.27    7.90
   2  -1  -3    2.20    0.90
   2  -1  -3    3.20    0.80
   2  -1  -3    1.50    0.50
   2  -1  -3    4.20    0.80
  -2   1   3    2.90    0.80
  -2   1   3    2.70    0.70
  -2   1   3    2.80    0.70
  -2   1   3    2.50    0.70
   1  -1  -3  402.56    8.30
   1  -1  -3  389.06    8.40
   1  -1  -3  406.46    8.30
  -1   1   3  414.06    8.50
  -1   1   3  402.26    8.40
  -1   1   3  401.56    8.40
   0  -1  -3    4.70    0.70
   0  -1  -3    5.10    0.90
   0  -1  -3    3.90    0.60
   0   1   3    5.80    0.90
   0   1   3    3.60    0.80
   0   1   3    6.50    1.00
   0   1   3    3.20    0.50
  -1  -1  -3  508.55   10.80
  -1  -1  -3  517.45   10.60
   1   1   3  529.45   10.70
   1   1   3  524.55   10.80
   1   1   3  460.85   10.50
  -2  -1  -3  727.13   15.00
  -2  -1  -3  700.53   14.40
  -2  -1  -3  714.43   14.80
   2   1   3  713.43   15.10
   2   1   3  723.33   15.00
  -3  -1  -3  167.18    5.30
  -3  -1  -3  168.18    5.20
   3   1   3  170.38    5.60
   3   1   3  166.58    5.30
   3   1   3  154.18    4.40
  -4  -1  -3   94.59    4.40
  -4  -1  -3   93.19    4.20
   4   1   3   91.39    4.50
   4   1   3   89.29    4.10
   4   1   3   90.59    3.60
  -5  -1  -3    3.30    1.90
  -5  -1  -3    4.00    1.90
   5   1   3    2.10    1.90
   5   1   3    1.60    1.60
  -6  -1  -3   53.49    4.80
  -6  -1  -3   49.20    4.60
   6   1   3   49.30    5.10
  -7  -1  -3   25.70    3.90
  -7  -1  -3   27.50    4.20
   7   1   3   26.10    4.40
   8  -2  -3   65.49    5.70
   8  -2  -3   62.29    5.30
  -8   2   3   67.99    5.20
  -8   2   3   68.19    4.80
   7  -2  -3  130.29    6.40
   7  -2  -3  129.09    6.90
  -7   2   3  128.39    5.80
  -7   2   3  134.09    6.20
   6  -2  -3   70.59    3.60
   6  -2  -3   72.29    3.60
   6  -2  -3   75.99    5.00
   6  -2  -3   76.39    4.50
  -6   2   3   71.89    3.90
  -6   2   3   69.39    4.00
  -6   2   3   83.79    4.50
   5  -2  -3   85.29    4.20
   5  -2  -3   82.89    3.50
   5  -2  -3   86.69    4.70
   5  -2  -3   83.59    3.60
  -5   2   3   86.29    3.90
  -5   2   3   82.49    4.10
  -5   2   3   79.29    3.80
   4  -2  -3  564.04   12.20
   4  -2  -3  573.44   13.60
   4  -2  -3  543.85   12.60
   4  -2  -3  556.94   12.20
  -4   2   3  547.15   12.50
  -4   2   3  564.24   12.50
  -4   2   3  578.94   12.80
   3  -2  -3  522.95   12.10
   3  -2  -3  517.85   11.20
   3  -2  -3  496.95   11.20
   3  -2  -3  522.05   11.20
  -3   2   3  528.55   11.50
  -3   2   3  527.85   11.50
  -3   2   3  523.65   11.30
   2  -2  -3  391.46    8.60
   2  -2  -3  417.16    9.50
   2  -2  -3  414.76    8.90
   2  -2  -3  402.76    8.90
  -2   2   3  418.36    9.10
  -2   2   3  417.96    9.20
  -2   2   3  413.36    9.00
   1  -2  -3    7.20    0.80
   1  -2  -3    9.20    1.10
   1  -2  -3    7.80    1.00
   1  -2  -3    7.60    1.00
  -1   2   3    7.10    1.10
  -1   2   3    8.40    1.10
  -1   2   3    7.30    1.00
  -1   2   3    9.40    1.20
   0  -2  -3  163.88    4.40
   0  -2  -3  165.28    4.00
   0  -2  -3  159.98    3.90
   0   2   3  153.88    4.40
   0   2   3  159.78    4.00
   0   2   3  164.38    4.60
   0   2   3  169.18    4.50
   0   2   3  163.78    3.90
  -1  -2  -3 1381.66   27.00
  -1  -2  -3 1383.36   26.50
   1   2   3 1465.75   27.00
   1   2   3 1385.76   27.00
   1   2   3 1311.17   26.60
  -2  -2  -3   35.70    2.30
  -2  -2  -3   35.60    2.40
   2   2   3   34.30    1.70
   2   2   3   37.40    2.40
   2   2   3   34.40    2.30
  -3  -2  -3   79.69    3.70
  -3  -2  -3   81.99    3.80
   3   2   3   81.99    3.80
   3   2   3   75.19    2.90
   3   2   3   77.29    3.80
  -4  -2  -3   81.19    4.30
  -4  -2  -3   87.29    4.40
   4   2   3   89.29    4.70
   4   2   3   85.99    4.30
  -5  -2  -3   13.20    2.70
  -5  -2  -3    9.60    2.50
   5   2   3   11.20    2.60
   5   2   3   15.70    2.70
  -6  -2  -3   48.60    4.90
  -6  -2  -3   36.00    4.00
  -6  -2  -3   56.69    5.00
   6   2   3   47.00    5.00
  -7  -2  -3    9.00    3.30
  -7  -2  -3    5.20    3.40
  -7  -2  -3    9.90    3.50
   7   2   3    5.30    2.90
   8  -3  -3  104.49    6.50
   8  -3  -3   97.29    7.10
  -8   3   3  101.19    6.10
  -8   3   3   95.29    5.50
   7  -3  -3  130.49    6.60
   7  -3  -3  121.89    5.20
   7  -3  -3  135.39    7.30
   7  -3  -3  127.99    5.30
  -7   3   3  128.19    5.80
  -7   3   3  133.99    5.80
  -7   3   3  137.69    6.30
   6  -3  -3  213.38    8.40
   6  -3  -3  217.38    6.70
   6  -3  -3  217.78    7.70
   6  -3  -3  204.48    6.60
  -6   3   3  203.88    7.00
  -6   3   3  209.38    6.90
  -6   3   3  215.58    7.50
   5  -3  -3   77.99    4.60
   5  -3  -3   75.09    4.10
   5  -3  -3   78.79    3.70
   5  -3  -3   77.99    3.60
  -5   3   3   74.09    4.00
  -5   3   3   78.79    4.00
  -5   3   3   76.49    3.70
   4  -3  -3   11.60    2.00
   4  -3  -3   12.00    1.80
   4  -3  -3   14.00    1.70
   4  -3  -3   13.00    1.70
  -4   3   3    9.80    1.70
  -4   3   3   10.10    1.60
  -4   3   3   11.80    1.80
   3  -3  -3   41.70    2.40
   3  -3  -3   38.40    2.30
   3  -3  -3   41.10    2.90
   3  -3  -3   41.70    2.40
  -3   3   3   42.70    2.30
  -3   3   3   38.80    2.70
  -3   3   3   34.50    2.40
   2  -3  -3  145.19    4.40
   2  -3  -3  137.39    4.10
   2  -3  -3  150.68    4.80
   2  -3  -3  144.59    4.30
  -2   3   3  139.39    4.60
  -2   3   3  146.59    4.30
  -2   3   3  141.29    4.40
   1  -3  -3  598.04   12.80
   1  -3  -3  600.54   12.40
   1  -3  -3  604.64   12.40
  -1   3   3  600.04   12.80
  -1   3   3  599.44   12.80
  -1   3   3  595.44   12.50
  -1   3   3  607.54   12.40
  -1   3   3  607.64   12.70
   0  -3  -3    7.40    1.10
   0  -3  -3    8.10    1.10
   0  -3  -3    6.40    1.20
   0   3   3    7.70    1.10
   0   3   3    7.30    1.30
   0   3   3    9.80    1.20
   0   3   3    6.20    1.10
   0   3   3   10.30    1.60
  -1  -3  -3  411.46    9.40
  -1  -3  -3  416.16   10.00
   1   3   3  417.66    9.00
   1   3   3  432.16    9.90
   1   3   3  419.06    9.70
   1   3   3  430.66   10.10
  -2  -3  -3  400.06    9.80
  -2  -3  -3  397.86    9.80
   2   3   3  405.36    9.90
   2   3   3  383.16    8.80
   2   3   3  405.66   10.10
  -3  -3  -3  194.18    6.40
  -3  -3  -3  186.88    6.30
   3   3   3  190.38    7.40
   3   3   3  187.58    6.50
   3   3   3  199.98    6.60
  -4  -3  -3   31.50    3.30
  -4  -3  -3   28.40    3.20
   4   3   3   29.20    3.40
   4   3   3   29.60    3.50
  -5  -3  -3  138.89    6.50
  -5  -3  -3  124.49    6.40
   5   3   3  143.99    6.90
  -6  -3  -3   32.80    4.50
  -6  -3  -3   25.60    3.90
  -6  -3  -3   26.50    3.80
   6   3   3   27.60    4.30
   8  -4  -3   13.50    3.50
   8  -4  -3   19.20    4.40
  -8   4   3   11.70    3.00
   7  -4  -3   44.70    3.70
   7  -4  -3   48.70    3.90
   7  -4  -3   53.89    4.80
   7  -4  -3   57.29    6.00
  -7   4   3   50.09    4.50
  -7   4   3   45.50    4.20
  -7   4   3   44.80    3.90
   6  -4  -3   82.69    4.40
   6  -4  -3   92.29    5.80
   6  -4  -3   84.99    4.40
   6  -4  -3   83.19    5.00
  -6   4   3   74.29    4.60
  -6   4   3   84.69    4.40
  -6   4   3   83.29    4.90
   5  -4  -3   56.49    4.30
   5  -4  -3   49.70    3.40
   5  -4  -3   57.29    3.50
   5  -4  -3   57.09    3.90
  -5   4   3   52.69    3.80
  -5   4   3   48.00    3.20
  -5   4   3   50.39    3.60
   4  -4  -3   80.09    3.80
   4  -4  -3   73.79    4.30
   4  -4  -3   76.19    3.80
   4  -4  -3   72.19    3.80
  -4   4   3   69.89    3.40
  -4   4   3   77.49    4.10
  -4   4   3   72.59    3.80
   3  -4  -3   84.29    3.70
   3  -4  -3   95.99    3.80
   3  -4  -3   93.59    3.80
   3  -4  -3   95.29    4.40
  -3   4   3   88.49    3.50
  -3   4   3   82.79    4.10
  -3   4   3   85.69    3.80
   2  -4  -3    4.20    1.40
   2  -4  -3    2.00    0.90
  -2   4   3    2.80    1.30
  -2   4   3    2.50    1.20
  -2   4   3    2.70    1.10
   1  -4  -3    2.60    1.20
  -1   4   3    4.60    1.10
  -1   4   3    3.00    1.00
  -1   4   3    4.40    1.10
  -1   4   3    4.10    1.10
  -1   4   3    2.60    1.20
  -1   4   3    1.40    0.90
  -1   4   3    3.60    1.20
   0   4   3  104.79    3.40
   0   4   3  112.89    4.10
   0   4   3  106.99    3.90
   0   4   3  113.49    4.30
   0   4   3  103.69    3.90
   0   4   3  110.39    3.80
   0   4   3  105.99    3.40
  -1  -4  -3   25.60    2.50
   1   4   3   26.50    2.20
   1   4   3   22.10    2.10
   1   4   3   23.30    2.40
   1   4   3   22.80    1.90
  -2  -4  -3   15.00    2.10
  -2  -4  -3   12.70    2.10
   2   4   3   14.50    2.10
   2   4   3   11.40    1.60
   2   4   3   14.30    2.20
  -3  -4  -3  104.39    4.80
  -3  -4  -3   91.49    4.70
   3   4   3   90.79    4.80
   3   4   3   95.09    4.80
  -4  -4  -3  150.38    6.30
  -4  -4  -3  154.68    6.70
   4   4   3  159.28    6.70
   4   4   3  141.49    6.50
  -5  -4  -3   75.79    5.30
  -5  -4  -3   64.39    5.30
  -5  -4  -3   76.89    5.60
   5   4   3   77.59    5.50
  -6  -4  -3   13.70    3.70
  -6  -4  -3   15.00    3.70
  -6  -4  -3   18.40    3.90
   6   4   3   15.00    3.60
   8  -5  -3    7.50    2.90
   8  -5  -3   18.70    4.40
   8  -5  -3   11.10    3.00
  -8   5   3   21.30    3.60
  -8   5   3   19.20    3.60
   7  -5  -3   56.39    6.00
   7  -5  -3   54.79    4.40
   7  -5  -3   53.29    4.30
   7  -5  -3   57.59    5.30
  -7   5   3   47.60    4.60
  -7   5   3   50.59    4.60
   6  -5  -3   98.39    5.70
   6  -5  -3   88.19    4.90
   6  -5  -3   84.39    4.80
   6  -5  -3   94.49    6.20
  -6   5   3   87.49    5.20
  -6   5   3   90.29    5.30
   5  -5  -3  150.18    6.90
   5  -5  -3  140.89    5.80
   5  -5  -3  148.69    5.90
   5  -5  -3  156.98    6.30
  -5   5   3  152.18    6.20
  -5   5   3  142.49    5.50
  -5   5   3  152.78    6.20
   4  -5  -3    3.00    1.60
   4  -5  -3    1.40    1.80
   4  -5  -3   -0.50    1.50
   4  -5  -3    0.30    1.50
  -4   5   3    1.10    1.70
  -4   5   3    2.80    1.40
  -4   5   3    3.30    1.80
   3  -5  -3    5.50    1.60
   3  -5  -3    6.00    1.90
  -3   5   3    5.20    1.40
  -3   5   3    3.90    1.80
  -3   5   3    6.80    1.70
   2  -5  -3  168.08    6.00
   2  -5  -3  168.08    5.60
  -2   5   3  178.58    5.90
  -2   5   3  169.78    5.30
  -2   5   3  169.88    5.60
  -2   5   3  168.78    5.40
  -2   5   3  173.28    5.40
  -1   5   3  370.36    8.80
  -1   5   3  358.26    9.40
  -1   5   3  367.26    9.30
  -1   5   3  368.16    8.80
  -1   5   3  370.56    9.10
  -1   5   3  367.46    9.20
  -1   5   3  364.66    9.30
  -1   5   3  385.16    9.50
   0   5   3  725.83   16.10
   0   5   3  728.83   15.70
   0   5   3  715.63   16.10
   0   5   3  736.93   16.20
   0   5   3  714.63   14.90
   0   5   3  731.33   15.80
   0   5   3  715.03   14.90
  -1  -5  -3   17.00    2.40
  -1  -5  -3   13.90    2.10
   1   5   3   16.10    2.20
   1   5   3   15.30    2.30
   1   5   3   12.80    1.80
  -2  -5  -3    6.00    2.10
  -2  -5  -3   10.00    2.20
   2   5   3    5.80    2.00
   2   5   3    7.90    2.00
  -3  -5  -3   42.30    4.00
  -3  -5  -3   40.20    3.70
   3   5   3   37.20    4.00
   3   5   3   45.60    4.00
  -4  -5  -3   29.30    3.50
  -4  -5  -3   30.30    4.00
   4   5   3   29.40    3.80
  -5  -5  -3   34.30    4.60
  -5  -5  -3   28.30    4.50
   5   5   3   39.40    4.70
   7  -6  -3   73.29    5.30
   7  -6  -3   82.49    6.80
   7  -6  -3   82.59    5.40
  -7   6   3   82.29    6.00
  -7   6   3   68.99    5.60
   6  -6  -3   95.59    6.50
   6  -6  -3   99.49    5.50
   6  -6  -3  103.89    7.80
   6  -6  -3   95.79    5.40
  -6   6   3   94.89    5.80
  -6   6   3   94.19    5.80
   5  -6  -3   63.79    4.50
   5  -6  -3   71.29    4.80
   5  -6  -3   64.59    5.30
   5  -6  -3   75.39    4.70
  -5   6   3   71.39    4.80
  -5   6   3   64.39    5.00
   4  -6  -3   19.00    2.70
   4  -6  -3   18.40    3.10
   4  -6  -3   18.50    2.80
  -4   6   3   14.80    2.70
  -4   6   3   15.30    2.60
   3  -6  -3   35.00    3.30
   3  -6  -3   35.70    3.70
  -3   6   3   30.90    3.30
  -3   6   3   27.10    2.50
  -3   6   3   35.10    3.30
  -3   6   3   27.40    2.80
  -3   6   3   35.10    3.00
   2  -6  -3   24.30    2.80
   2  -6  -3   25.10    3.10
  -2   6   3   20.90    2.30
  -2   6   3   22.60    2.70
  -2   6   3   25.40    2.50
  -2   6   3   28.60    2.60
  -2   6   3   30.40    3.00
  -1   6   3  853.11   17.80
  -1   6   3  851.91   18.60
  -1   6   3  863.91   18.40
  -1   6   3  820.52   18.70
  -1   6   3  860.21   17.90
  -1   6   3  859.21   18.70
  -1   6   3  864.51   18.50
  -1   6   3  793.72   18.00
   0   6   3  880.21   18.40
   0   6   3  897.61   19.40
   0   6   3  890.91   19.30
   0   6   3  926.51   19.90
   0   6   3  889.11   19.80
   0   6   3  879.31   18.40
  -1  -6  -3   86.89    4.70
  -1  -6  -3   91.59    4.70
   1   6   3  102.99    5.30
   1   6   3   93.59    4.80
   1   6   3   95.79    5.40
  -2  -6  -3  334.47   10.30
  -2  -6  -3  347.87   10.00
   2   6   3  349.27   10.50
   2   6   3  375.46   11.10
  -3  -6  -3  197.98    8.10
   3   6   3  207.58    8.10
  -4  -6  -3    8.70    3.20
  -4  -6  -3    7.70    3.10
   4   6   3   15.70    3.40
   7  -7  -3   75.99    5.80
   7  -7  -3   68.29    7.00
   7  -7  -3   80.39    5.80
  -7   7   3   72.59    6.00
  -7   7   3   72.09    6.20
   6  -7  -3   77.89    6.70
   6  -7  -3   93.19    5.80
   6  -7  -3   78.59    5.50
  -6   7   3   85.69    6.00
  -6   7   3   85.49    6.00
   5  -7  -3   29.90    3.60
   5  -7  -3   36.10    4.70
   5  -7  -3   34.80    3.80
  -5   7   3   29.10    3.90
  -5   7   3   30.20    3.70
   4  -7  -3  231.38    9.20
   4  -7  -3  225.28   10.60
  -4   7   3  232.68    8.20
  -4   7   3  225.38    8.60
   3  -7  -3  295.57    9.50
   3  -7  -3  280.87    9.80
  -3   7   3  269.27    8.80
  -3   7   3  278.47    9.20
  -3   7   3  280.57    8.50
  -3   7   3  300.07    8.70
   2  -7  -3  109.89    5.80
   2  -7  -3   94.69    5.20
  -2   7   3  102.19    4.70
  -2   7   3   87.09    4.90
  -2   7   3   99.89    4.70
  -2   7   3   93.09    5.30
   1  -7  -3  162.08    6.80
  -1   7   3  169.48    6.50
  -1   7   3  163.38    6.30
  -1   7   3  150.48    5.80
  -1   7   3  169.08    5.80
  -1   7   3  153.38    6.30
  -1   7   3  163.08    5.80
  -1   7   3  159.28    6.40
   0  -7  -3   54.69    4.20
   0   7   3   66.49    4.60
   0   7   3   63.89    4.50
   0   7   3   67.09    4.40
  -1  -7  -3  225.38    8.00
   1   7   3  233.08    8.60
   1   7   3  236.98    8.50
  -2  -7  -3  233.88    8.70
   2   7   3  217.48    8.50
  -3  -7  -3   26.30    4.50
  -3  -7  -3   25.20    4.00
   3   7   3   25.10    3.90
   6  -8  -3    4.10    3.30
   6  -8  -3    2.30    2.90
   6  -8  -3    3.10    3.00
  -6   8   3    0.40    2.70
  -6   8   3    0.20    2.90
   5  -8  -3    8.50    3.80
   5  -8  -3    9.10    2.90
   5  -8  -3    7.60    2.90
  -5   8   3    6.30    3.20
  -5   8   3    5.70    3.00
   4  -8  -3   68.09    5.90
  -4   8   3   56.39    5.10
  -4   8   3   57.69    4.90
   3  -8  -3   59.39    5.40
  -3   8   3   65.29    5.30
  -3   8   3   67.79    4.70
  -3   8   3   59.79    4.90
  -3   8   3   71.69    4.90
   2  -8  -3   69.89    5.60
  -2   8   3   70.69    4.60
  -2   8   3   67.29    5.10
  -2   8   3   68.09    4.60
  -2   8   3   63.99    4.90
   1  -8  -3   37.40    4.50
  -1   8   3   41.00    3.40
  -1   8   3   35.80    3.40
  -1   8   3   40.60    3.80
   0  -8  -3    4.10    2.50
   0   8   3    0.30    2.30
  -1  -8  -3    8.70    3.10
  -1  -8  -3    9.80    3.30
   1   8   3   10.10    2.90
  -2  -8  -3   20.50    3.80
  -2  -8  -3   26.30    4.50
   2   8   3   25.00    4.00
   4  -9  -3   16.70    4.00
   4  -9  -3   20.70    3.80
   4  -9  -3   20.50    3.70
  -4   9   3   17.60    3.90
   3  -9  -3   53.29    5.70
  -3   9   3   46.50    4.70
   2  -9  -3   75.89    6.40
  -2   9   3   84.19    5.30
  -2   9   3   82.59    5.30
  -2   9   3   72.89    5.80
   1  10  -4   20.30    4.00
   1  10  -4   22.70    4.10
   0  10  -4   61.09    5.90
   0  10  -4   65.89    4.90
   0  10  -4   63.39    5.10
   0 -10   4   68.89    6.00
  -1  10  -4  157.28    7.10
  -1  10  -4  173.58    7.30
  -1  10  -4  166.68    8.60
   1 -10   4  156.28    8.50
  -2  10  -4   47.90    4.50
  -2  10  -4   48.80    4.50
  -2  10  -4   52.49    5.70
   2 -10   4   45.90    5.40
  -3  10  -4    8.80    3.00
  -3  10  -4    4.70    3.10
  -3  10  -4    7.80    3.00
   3 -10   4    5.10    3.40
   3   9  -4    4.90    2.90
   3   9  -4    6.30    3.10
  -3  -9   4    5.10    3.50
   2   9  -4   17.50    3.50
   2   9  -4   18.30    3.70
  -2  -9   4   19.00    3.80
   1   9  -4   10.60    3.00
   1   9  -4   16.30    2.70
   1   9  -4   11.30    3.10
   1   9  -4   13.50    2.60
  -1  -9   4   19.00    3.60
   0   9  -4   75.19    5.60
   0   9  -4   88.79    4.90
   0   9  -4  100.29    5.10
   0  -9   4   78.09    5.90
  -1   9  -4  134.89    7.00
  -1   9  -4  141.29    6.10
  -1   9  -4  140.69    6.00
   1  -9   4  119.79    7.00
  -2   9  -4   16.80    3.20
  -2   9  -4   14.90    3.50
  -2   9  -4   22.50    3.10
  -2   9  -4   18.90    2.90
   2  -9   4   12.70    3.30
  -3   9  -4   66.19    5.80
  -3   9  -4   67.99    4.90
  -3   9  -4   63.99    5.70
  -3   9  -4   72.89    5.00
   3  -9   4   62.99    5.90
  -4   9  -4   36.40    3.90
  -4   9  -4   37.70    4.70
  -4   9  -4   35.10    3.90
   4  -9   4   32.50    4.70
   4  -9   4   31.90    4.80
  -5   9  -4    1.40    3.10
  -5   9  -4    0.00    2.40
  -5   9  -4    3.40    2.70
   5  -9   4   -2.60    2.70
   5  -9   4    1.00    2.80
   4   8  -4   38.20    4.80
   4   8  -4   34.60    4.70
  -4  -8   4   34.30    4.80
   3   8  -4   12.40    3.00
   3   8  -4   16.30    3.30
  -3  -8   4   11.50    3.40
   2   8  -4   88.29    5.70
   2   8  -4   79.79    5.40
  -2  -8   4   92.99    6.00
   1   8  -4   93.79    4.40
   1   8  -4   87.39    5.50
   1   8  -4   74.19    5.20
   1   8  -4   84.29    4.30
  -1  -8   4   88.99    5.50
   0   8  -4   38.90    3.20
   0   8  -4   33.90    3.80
   0   8  -4   34.90    4.10
   0   8  -4   43.70    3.40
   0  -8   4   42.10    3.80
  -1   8  -4   20.30    2.70
  -1   8  -4   19.30    2.60
  -1   8  -4   19.40    3.00
  -1   8  -4   15.40    2.90
   1  -8   4   17.40    3.10
  -2   8  -4   37.00    4.10
  -2   8  -4   40.80    3.60
  -2   8  -4   39.00    3.90
  -2   8  -4   47.40    3.70
   2  -8   4   40.90    4.50
  -3   8  -4  246.98    9.30
  -3   8  -4  248.98    8.00
  -3   8  -4  246.18    7.90
  -3   8  -4  254.87    9.00
   3  -8   4  248.88    9.60
  -4   8  -4   60.99    4.50
  -4   8  -4   64.69    4.50
  -4   8  -4   65.79    5.50
   4  -8   4   79.79    6.00
   4  -8   4   65.29    5.60
  -5   8  -4    7.40    2.50
  -5   8  -4   10.20    3.30
  -5   8  -4   10.20    2.60
   5  -8   4    7.10    3.00
   5  -8   4    5.30    3.00
  -6   8  -4    1.70    2.90
  -6   8  -4    8.20    2.70
  -6   8  -4    8.00    2.60
   6  -8   4    4.50    3.10
   6  -8   4    3.70    3.10
   5   7  -4    2.30    2.70
   5   7  -4    3.70    2.60
  -5  -7   4    1.80    2.90
  -5  -7   4    6.30    3.30
   4   7  -4   19.70    3.30
   4   7  -4   17.70    3.30
  -4  -7   4   21.80    3.90
  -4  -7   4   25.90    3.60
   3   7  -4   27.80    3.70
   3   7  -4   29.60    4.00
  -3  -7   4   33.00    4.10
   2   7  -4  137.49    6.40
   2   7  -4  133.69    4.90
   2   7  -4  144.49    6.50
   2   7  -4  146.49    4.90
  -2  -7   4  136.39    6.30
   1   7  -4   72.49    4.50
   1   7  -4   73.49    3.70
   1   7  -4   75.09    3.70
   1   7  -4   74.99    4.60
  -1  -7   4   65.89    4.50
   0   7  -4   83.89    4.00
   0   7  -4   90.09    4.90
   0   7  -4   88.89    5.00
   0   7  -4   89.89    4.10
   0  -7   4   90.79    4.60
  -1   7  -4  104.79    4.40
  -1   7  -4   99.99    5.10
  -1   7  -4   97.49    4.30
  -1   7  -4   94.39    4.70
   1  -7   4   92.29    5.00
  -2   7  -4   55.49    3.60
  -2   7  -4   51.79    4.10
  -2   7  -4   60.59    4.30
  -2   7  -4   54.89    3.60
   2  -7   4   57.39    4.30
  -3   7  -4   22.90    3.10
  -3   7  -4   20.60    2.50
  -3   7  -4   17.40    2.40
  -3   7  -4   19.40    3.10
   3  -7   4   16.20    3.00
  -4   7  -4   83.29    5.60
  -4   7  -4   78.49    4.40
  -4   7  -4   86.29    4.50
   4  -7   4   86.99    5.60
   4  -7   4   84.19    5.70
  -5   7  -4   13.90    2.50
  -5   7  -4   15.20    2.80
  -5   7  -4   11.80    3.10
  -5   7  -4    9.90    2.50
   5  -7   4    9.60    2.90
   5  -7   4   10.20    3.30
  -6   7  -4    0.80    2.40
  -6   7  -4    5.30    2.20
  -6   7  -4   -2.00    2.60
  -6   7  -4    2.30    2.10
   6  -7   4    1.60    2.50
   6  -7   4    4.70    2.90
   6   6  -4   43.50    5.00
   6   6  -4   44.00    5.00
  -6  -6   4   50.49    5.70
  -6  -6   4   57.29    5.80
   5   6  -4   10.10    2.70
   5   6  -4    4.90    2.30
  -5  -6   4   12.20    3.40
  -5  -6   4   10.20    3.20
   4   6  -4   91.59    5.50
   4   6  -4   93.99    5.50
  -4  -6   4  102.59    5.50
  -4  -6   4   93.59    5.70
   3   6  -4    1.60    1.30
   3   6  -4    1.70    1.30
   3   6  -4    1.60    1.70
   3   6  -4    2.70    1.70
  -3  -6   4    2.00    2.00
  -3  -6   4    2.30    1.80
   2   6  -4   32.20    2.40
   2   6  -4   25.00    2.90
   2   6  -4   27.90    2.30
   2   6  -4   24.30    2.90
  -2  -6   4   27.10    3.20
  -2  -6   4   25.40    2.70
   1   6  -4   -0.90    1.00
   1   6  -4    1.60    1.10
   1   6  -4    1.30    1.40
   1   6  -4    2.20    1.40
  -1  -6   4    0.20    1.50
   0   6  -4   96.59    3.80
   0   6  -4   98.09    3.80
   0   6  -4   99.29    4.70
   0   6  -4   96.99    4.70
   0  -6   4   95.99    4.30
  -1   6  -4  194.78    5.70
  -1   6  -4  190.58    6.60
  -1   6  -4  188.28    6.20
  -1   6  -4  183.78    5.70
   1  -6   4  193.08    5.70
   1  -6   4  189.28    6.70
  -2   6  -4   65.89    4.10
  -2   6  -4   67.09    4.10
  -2   6  -4   70.19    3.40
  -2   6  -4   61.29    3.30
   2  -6   4   74.39    4.30
  -3   6  -4    5.30    1.70
  -3   6  -4    5.40    1.60
  -3   6  -4    4.00    1.50
  -3   6  -4    8.30    2.30
   3  -6   4    4.60    1.90
  -4   6  -4    1.80    2.00
  -4   6  -4    0.30    1.40
  -4   6  -4   -0.50    1.50
  -4   6  -4   -0.80    1.50
   4  -6   4    3.20    2.00
   4  -6   4    0.60    1.70
  -5   6  -4   71.89    4.10
  -5   6  -4   70.89    4.00
  -5   6  -4   69.99    4.80
  -5   6  -4   74.89    5.20
   5  -6   4   71.79    5.40
   5  -6   4   72.39    5.30
  -6   6  -4   88.29    5.80
  -6   6  -4   77.49    4.50
  -6   6  -4   83.49    4.60
  -6   6  -4   81.19    5.90
   6  -6   4   88.59    6.50
   6  -6   4   81.29    5.80
  -7   6  -4    1.30    2.70
  -7   6  -4    1.30    2.90
   7  -6   4    0.50    2.50
   7  -6   4    3.10    3.00
   6   5  -4  122.79    6.80
   6   5  -4  125.49    6.90
  -6  -5   4  118.99    7.00
  -6  -5   4  113.49    6.90
   5   5  -4    6.00    2.20
   5   5  -4    2.40    1.90
  -5  -5   4    6.60    2.50
  -5  -5   4    2.80    2.40
   4   5  -4    4.90    1.90
   4   5  -4    5.10    2.00
  -4  -5   4    5.00    2.10
  -4  -5   4    6.90    2.30
   3   5  -4  153.68    4.60
   3   5  -4  154.28    6.00
   3   5  -4  152.98    6.10
   3   5  -4  155.48    4.60
  -3  -5   4  165.58    5.80
  -3  -5   4  155.88    6.10
   2   5  -4    7.30    1.20
   2   5  -4    8.10    1.70
   2   5  -4    8.30    1.70
   2   5  -4    5.40    1.10
  -2  -5   4    7.80    1.60
  -2  -5   4    7.70    1.90
   1   5  -4   80.69    3.10
   1   5  -4   79.39    3.10
   1   5  -4   85.19    3.90
   1   5  -4   82.09    4.00
  -1  -5   4   83.99    3.90
  -1  -5   4   78.69    3.10
   0   5  -4  275.27    6.80
   0   5  -4  287.17    7.90
   0   5  -4  268.87    7.80
   0   5  -4  264.77    6.80
   0  -5   4  275.77    7.30
  -1   5  -4  363.36    9.10
  -1   5  -4  360.66    8.60
  -1   5  -4  372.76    9.60
  -1   5  -4  358.36    8.60
   1  -5   4  372.06    9.70
  -2   5  -4  174.78    5.20
  -2   5  -4  179.38    6.10
  -2   5  -4  178.98    6.00
  -2   5  -4  179.18    5.30
   2  -5   4  179.88    6.30
  -3   5  -4   24.20    2.40
  -3   5  -4   28.70    2.40
  -3   5  -4   26.50    2.30
  -3   5  -4   25.60    2.80
   3  -5   4   21.60    2.60
   3  -5   4   26.40    2.80
  -4   5  -4  113.99    4.40
  -4   5  -4  109.19    5.40
  -4   5  -4  115.99    5.00
  -4   5  -4  109.19    4.30
   4  -5   4  114.89    5.40
   4  -5   4  110.39    5.50
  -5   5  -4  106.99    4.50
  -5   5  -4  114.29    4.60
  -5   5  -4  118.29    5.70
  -5   5  -4  114.29    5.80
   5  -5   4  114.29    5.80
   5  -5   4  114.29    6.20
  -6   5  -4  212.28    8.30
  -6   5  -4  197.08    8.20
   6  -5   4  223.98    9.30
   6  -5   4  217.98    8.60
  -7   5  -4  126.19    7.30
  -7   5  -4  117.89    6.90
   7  -5   4  127.49    7.50
   7  -5   4  122.09    9.10
   7   4  -4   28.90    4.00
   7   4  -4   23.20    3.60
  -7  -4   4   25.20    4.00
  -7  -4   4   28.10    4.20
   6   4  -4   52.99    4.60
   6   4  -4   58.09    4.50
  -6  -4   4   57.89    5.00
  -6  -4   4   59.29    4.90
   5   4  -4   26.10    3.50
   5   4  -4   31.50    3.60
  -5  -4   4   23.40    3.30
  -5  -4   4   25.70    3.40
   4   4  -4  344.87   10.10
   4   4  -4  325.97    7.90
   4   4  -4  348.37    8.00
   4   4  -4  329.67    9.70
  -4  -4   4  345.77    9.90
  -4  -4   4  342.37    9.70
   3   4  -4  494.25   12.00
   3   4  -4  481.15   12.20
   3   4  -4  474.35   10.30
   3   4  -4  478.35   10.40
  -3  -4   4  479.55   12.00
  -3  -4   4  470.35   11.60
   2   4  -4  379.36    9.90
   2   4  -4  394.96    9.80
   2   4  -4  386.96    8.60
   2   4  -4  381.96    8.50
  -2  -4   4  386.36    9.80
  -2  -4   4  382.56    9.10
   1   4  -4  660.63   13.60
   1   4  -4  689.63   15.00
   1   4  -4  688.13   14.70
   1   4  -4  677.03   13.70
  -1  -4   4  673.83   14.60
  -1  -4   4  637.24   13.50
   0   4  -4  246.88    6.90
   0   4  -4  249.18    6.30
   0   4  -4  247.18    6.00
   0   4  -4  238.48    6.00
   0   4  -4  253.17    6.80
   0  -4   4  245.88    6.40
  -1   4  -4  659.03   14.20
  -1   4  -4  676.83   14.60
  -1   4  -4  667.33   13.60
  -1   4  -4  655.53   13.60
   1  -4   4  654.83   14.60
  -2   4  -4  228.88    5.80
  -2   4  -4  223.58    6.40
  -2   4  -4  222.08    5.90
  -2   4  -4  219.68    6.50
  -2   4  -4  223.78    5.70
   2  -4   4  220.88    6.80
  -3   4  -4  134.59    4.20
  -3   4  -4  129.69    5.10
  -3   4  -4  134.39    4.30
  -3   4  -4  139.39    4.80
   3  -4   4  138.39    5.10
   3  -4   4  123.89    5.20
  -4   4  -4    3.80    1.30
  -4   4  -4    3.50    1.70
  -4   4  -4    4.30    1.30
  -4   4  -4    6.20    1.90
   4  -4   4    4.10    1.60
   4  -4   4    3.50    1.60
  -5   4  -4    2.00    1.30
  -5   4  -4    1.20    1.90
  -5   4  -4    4.20    1.40
  -5   4  -4    3.80    2.20
   5  -4   4    7.50    2.40
   5  -4   4    2.70    1.80
  -6   4  -4  293.57    9.70
  -6   4  -4  301.67   10.10
   6  -4   4  287.67    9.70
   6  -4   4  292.57   10.50
  -7   4  -4   58.09    5.10
  -7   4  -4   63.29    5.80
   7  -4   4   68.49    5.90
   7   3  -4    7.30    2.70
   7   3  -4    8.00    2.60
  -7  -3   4   12.80    3.00
  -7  -3   4   10.20    2.80
   6   3  -4    1.10    1.70
   6   3  -4    4.90    2.40
  -6  -3   4    1.90    1.90
  -6  -3   4    1.40    2.00
   5   3  -4  102.99    5.00
   5   3  -4  103.59    5.40
  -5  -3   4  112.19    5.20
  -5  -3   4  102.59    5.20
   4   3  -4  903.91   20.20
   4   3  -4  902.51   19.80
   4   3  -4  896.81   17.90
   4   3  -4  894.21   17.90
  -4  -3   4  894.71   19.80
  -4  -3   4  896.51   19.60
   3   3  -4  244.78    5.90
   3   3  -4  238.38    7.20
   3   3  -4  248.88    7.00
   3   3  -4  243.88    5.90
  -3  -3   4  236.48    6.80
  -3  -3   4  244.98    7.10
   2   3  -4    0.60    0.90
   2   3  -4    0.80    0.90
   2   3  -4    1.60    0.80
   2   3  -4    2.70    0.80
  -2  -3   4    1.80    1.10
  -2  -3   4    2.20    0.90
   1   3  -4  411.16    9.50
   1   3  -4  418.36    8.90
   1   3  -4  423.66    8.90
   1   3  -4  424.16    9.80
  -1  -3   4  420.66    8.90
  -1  -3   4  417.86    9.60
   0   3  -4  611.34   12.50
   0   3  -4  640.44   13.30
   0   3  -4  614.14   12.50
   0   3  -4  613.64   12.70
   0  -3   4  615.84   12.90
  -1   3  -4  157.78    4.70
  -1   3  -4  161.08    4.20
  -1   3  -4  162.78    4.20
  -1   3  -4  162.08    4.70
   1  -3   4  160.38    4.30
   1  -3   4  166.48    4.90
  -2   3  -4  154.78    4.20
  -2   3  -4  156.28    4.20
  -2   3  -4  151.88    4.60
  -2   3  -4  150.58    4.90
  -2   3  -4  149.69    4.60
   2  -3   4  155.18    5.10
  -3   3  -4  275.87    6.60
  -3   3  -4  284.87    6.70
  -3   3  -4  290.87    7.90
  -3   3  -4  291.07    7.60
   3  -3   4  284.47    7.50
   3  -3   4  280.47    8.10
  -4   3  -4   32.40    3.10
  -4   3  -4   37.90    2.30
  -4   3  -4   31.20    2.90
  -4   3  -4   34.10    2.30
  -4   3  -4   34.20    2.40
   4  -3   4   36.20    3.20
   4  -3   4   36.70    2.80
  -5   3  -4   34.70    3.30
  -5   3  -4   31.30    3.50
   5  -3   4   32.70    3.10
   5  -3   4   30.80    3.60
  -6   3  -4   67.89    5.30
  -6   3  -4   77.89    5.00
   6  -3   4   78.39    5.40
  -7   3  -4   36.60    4.10
  -7   3  -4   40.40    4.90
   7  -3   4   41.10    5.00
   8   2  -4    0.30    2.50
   8   2  -4    3.90    2.60
  -8  -2   4   -1.90    2.40
   7   2  -4    0.10    2.10
   7   2  -4    0.10    1.90
  -7  -2   4   -0.20    1.90
  -7  -2   4    0.60    1.90
   6   2  -4    2.40    2.00
   6   2  -4    1.60    1.70
  -6  -2   4    2.10    1.50
  -6  -2   4    3.50    1.90
  -6  -2   4    4.30    1.80
   5   2  -4   27.60    2.10
   5   2  -4   25.40    2.00
   5   2  -4   29.60    3.60
   5   2  -4   27.20    3.00
  -5  -2   4   33.10    3.30
  -5  -2   4   26.80    2.90
  -5  -2   4   27.10    2.40
   4   2  -4  297.07    7.20
   4   2  -4  327.17    8.60
   4   2  -4  313.87    7.30
   4   2  -4  301.27    8.90
  -4  -2   4  309.37    8.40
  -4  -2   4  301.17    7.50
  -4  -2   4  312.37    8.50
   3   2  -4   54.99    2.20
   3   2  -4   52.09    3.00
   3   2  -4   53.29    2.70
   3   2  -4   54.39    2.30
  -3  -2   4   51.49    2.80
  -3  -2   4   52.79    2.80
   2   2  -4  330.97    7.30
   2   2  -4  332.67    7.70
   2   2  -4  329.67    7.30
   2   2  -4  324.47    8.10
  -2  -2   4  331.57    8.00
  -2  -2   4  330.87    7.70
   1   2  -4 1550.14   29.20
   1   2  -4 1548.45   29.80
   1   2  -4 1538.85   29.20
   1   2  -4 1548.55   29.40
  -1  -2   4 1561.44   29.20
  -1  -2   4 1584.54   29.80
   0   2  -4  266.77    6.30
   0   2  -4  272.07    6.00
   0   2  -4  266.67    6.00
   0   2  -4  272.67    6.40
   0  -2   4  277.77    6.30
   0  -2   4  275.17    6.40
  -1   2  -4   17.70    1.40
  -1   2  -4   17.90    1.30
  -1   2  -4   18.90    1.30
  -1   2  -4   17.60    1.60
  -1   2  -4   18.40    1.30
   1  -2   4   18.30    1.40
   1  -2   4   19.00    1.50
  -2   2  -4    3.60    1.10
  -2   2  -4    2.50    1.10
  -2   2  -4    1.70    0.70
  -2   2  -4    4.30    0.80
  -2   2  -4    3.90    0.90
   2  -2   4    3.30    1.00
   2  -2   4    3.10    0.80
   2  -2   4    2.90    0.80
  -3   2  -4  190.48    5.70
  -3   2  -4  188.88    5.60
  -3   2  -4  181.88    4.50
  -3   2  -4  177.08    4.90
   3  -2   4  179.78    5.20
   3  -2   4  180.68    5.90
  -4   2  -4  413.46   10.70
  -4   2  -4  423.86    9.80
  -4   2  -4  400.36   10.40
   4  -2   4  436.76   11.30
   4  -2   4  405.16   10.10
  -5   2  -4  294.17    8.20
  -5   2  -4  290.37    8.60
  -5   2  -4  300.47    9.20
   5  -2   4  290.17    8.40
   5  -2   4  290.37    9.50
  -6   2  -4   10.10    2.30
  -6   2  -4   12.40    2.50
  -6   2  -4    7.60    2.70
   6  -2   4    6.90    2.60
  -7   2  -4   10.40    3.30
   7  -2   4    9.00    3.10
   8   1  -4   56.99    5.10
   8   1  -4   58.39    5.50
  -8  -1   4   66.89    5.50
   7   1  -4  317.97   10.50
   7   1  -4  324.17   11.20
  -7  -1   4  334.27    9.90
  -7  -1   4  330.87   10.70
   6   1  -4   83.09    4.60
   6   1  -4   77.59    5.00
  -6  -1   4   87.49    4.30
  -6  -1   4   83.99    4.20
  -6  -1   4   87.59    4.80
   5   1  -4  151.18    6.10
   5   1  -4  155.08    4.70
   5   1  -4  155.18    5.70
   5   1  -4  143.79    4.60
  -5  -1   4  152.58    5.20
  -5  -1   4  156.58    5.40
  -5  -1   4  156.58    5.80
   4   1  -4   55.49    2.50
   4   1  -4   55.39    3.30
   4   1  -4   61.29    3.10
   4   1  -4   50.99    2.50
  -4  -1   4   52.69    2.80
  -4  -1   4   54.69    2.70
  -4  -1   4   55.49    3.10
   3   1  -4  130.39    4.60
   3   1  -4  129.39    3.80
   3   1  -4  133.29    3.80
   3   1  -4  132.19    4.10
  -3  -1   4  126.49    4.30
  -3  -1   4  131.79    4.20
  -3  -1   4  127.99    3.80
   2   1  -4 1748.23   33.00
   2   1  -4 1772.62   33.00
   2   1  -4 1761.82   33.00
   2   1  -4 1779.32   33.80
  -2  -1   4 1764.62   33.30
  -2  -1   4 1753.02   32.70
  -2  -1   4 1749.92   33.50
   1   1  -4  652.73   13.10
   1   1  -4  656.03   12.70
   1   1  -4  643.24   13.00
   1   1  -4  671.63   13.30
   1   1  -4  646.04   13.00
  -1  -1   4  671.43   13.40
  -1  -1   4  669.93   13.10
  -1  -1   4  661.83   12.80
   0   1  -4  172.88    4.10
   0   1  -4  170.68    4.50
   0   1  -4  171.58    4.10
   0   1  -4  172.08    4.10
   0   1  -4  179.88    4.30
   0  -1   4  179.18    4.20
   0  -1   4  178.08    4.10
   0  -1   4  174.08    4.50
  -1   1  -4   21.90    1.20
  -1   1  -4   22.70    1.30
  -1   1  -4   22.60    1.70
  -1   1  -4   20.90    1.60
   1  -1   4   22.80    1.30
   1  -1   4   22.20    1.50
   1  -1   4   19.80    1.40
  -2   1  -4  431.16    9.70
  -2   1  -4  443.26    9.80
  -2   1  -4  445.76    9.30
   2  -1   4  414.06    9.00
   2  -1   4  433.76    9.60
   2  -1   4  450.85   10.20
  -3   1  -4  577.94   12.80
  -3   1  -4  581.74   13.10
  -3   1  -4  601.44   12.60
   3  -1   4  601.74   13.60
   3  -1   4  566.64   12.50
   3  -1   4  561.94   12.20
  -4   1  -4  206.78    6.40
  -4   1  -4  209.58    6.80
  -4   1  -4  209.68    6.30
   4  -1   4  210.38    6.10
   4  -1   4  201.28    6.10
   4  -1   4  214.68    7.20
  -5   1  -4  370.56    9.90
  -5   1  -4  369.86   10.70
  -5   1  -4  375.16   10.10
   5  -1   4  379.46   11.30
   5  -1   4  374.06    9.70
  -6   1  -4   96.39    5.90
  -6   1  -4   96.39    5.30
   6  -1   4   96.19    5.90
  -7   1  -4   52.29    5.20
  -7   1  -4   50.99    4.80
   7  -1   4   56.59    5.70
   8   0  -4   55.09    5.00
   8   0  -4   40.20    4.90
  -8   0   4   56.49    4.60
  -8   0   4   56.49    5.40
   7   0  -4  258.37    9.80
   7   0  -4  276.27    9.50
  -7   0   4  263.47    8.80
  -7   0   4  263.67    9.10
   6   0  -4  386.66    9.40
   6   0  -4  403.06   11.70
   6   0  -4  379.76    9.40
   6   0  -4  409.46   11.30
  -6   0   4  380.76   10.20
  -6   0   4  397.96   10.60
  -6   0   4  384.86   10.90
   5   0  -4  123.49    4.20
   5   0  -4  126.99    4.30
   5   0  -4  124.49    5.50
   5   0  -4  134.09    5.20
  -5   0   4  127.09    4.50
  -5   0   4  130.99    5.10
  -5   0   4  122.99    4.70
   4   0  -4    3.30    1.00
   4   0  -4    3.50    1.10
   4   0  -4    0.00    0.80
   4   0  -4    2.70    1.30
  -4   0   4    3.20    1.00
  -4   0   4    3.20    1.10
  -4   0   4    2.60    1.20
   3   0  -4  637.04   13.10
   3   0  -4  651.33   14.20
   3   0  -4  644.44   13.20
   3   0  -4  629.34   13.30
  -3   0   4  638.24   13.60
  -3   0   4  629.94   13.30
  -3   0   4  645.54   13.40
   2   0  -4  715.33   14.10
   2   0  -4  721.43   14.10
   2   0  -4  697.33   14.10
   2   0  -4  704.73   14.70
   2   0  -4  673.93   13.70
  -2   0   4  733.13   14.30
  -2   0   4  716.53   14.40
  -2   0   4  700.63   14.10
   1   0  -4    9.60    1.00
   1   0  -4    8.30    1.00
   1   0  -4    9.70    1.00
   1   0  -4   11.10    1.20
  -1   0   4    9.20    1.10
  -1   0   4   10.40    1.00
  -1   0   4   10.70    1.10
   0   0  -4   30.40    1.40
   0   0  -4   28.00    1.70
   0   0  -4   28.40    1.40
   0   0  -4   27.80    1.70
   0   0   4   29.10    1.60
   0   0   4   30.10    1.60
   0   0   4   23.90    1.10
  -1   0  -4  944.11   19.00
  -1   0  -4  959.50   19.10
   1   0   4  971.90   19.10
   1   0   4  970.90   18.90
   1   0   4  979.40   18.90
  -2   0  -4 2205.28   41.80
  -2   0  -4 2213.08   41.50
  -2   0  -4 2150.48   41.50
   2   0   4 2244.98   41.80
   2   0   4 2205.28   42.10
  -3   0  -4  113.59    4.30
  -3   0  -4  108.29    3.90
  -3   0  -4  106.69    4.00
   3   0   4  108.39    4.00
   3   0   4  116.49    4.60
   3   0   4  104.59    3.30
  -4   0  -4  385.76    9.60
  -4   0  -4  394.76   10.40
  -4   0  -4  395.96   10.10
   4   0   4  408.56   11.00
   4   0   4  388.66   10.00
  -5   0  -4  969.50   21.80
  -5   0  -4  990.00   21.40
   5   0   4  969.10   22.60
   5   0   4  969.20   21.10
  -6   0  -4  192.28    7.70
  -6   0  -4  198.88    8.10
   6   0   4  180.48    8.10
  -7   0  -4  130.09    7.40
  -7   0  -4  128.99    7.10
   7   0   4  131.99    7.60
   8  -1  -4    4.30    2.40
   8  -1  -4    4.20    2.70
  -8   1   4    5.10    2.30
  -8   1   4    7.90    2.50
   7  -1  -4   15.30    3.10
   7  -1  -4   25.20    3.30
  -7   1   4   20.40    2.90
  -7   1   4   18.40    2.80
   6  -1  -4  118.29    4.40
   6  -1  -4  114.39    4.40
   6  -1  -4  127.99    5.50
   6  -1  -4  109.69    5.80
  -6   1   4  105.29    5.00
  -6   1   4  101.99    4.90
   5  -1  -4  406.16    9.60
   5  -1  -4  432.26   11.50
   5  -1  -4  400.76    9.60
   5  -1  -4  409.86   10.50
  -5   1   4  403.46   10.40
  -5   1   4  396.16   10.30
   4  -1  -4  408.36   10.60
   4  -1  -4  396.46    9.70
   4  -1  -4  403.46    9.40
   4  -1  -4  408.16    9.30
  -4   1   4  413.36    9.60
  -4   1   4  416.46    9.90
  -4   1   4  413.86    9.80
   3  -1  -4  222.38    6.50
   3  -1  -4  231.38    5.70
   3  -1  -4  221.98    5.70
   3  -1  -4  216.08    5.50
  -3   1   4  226.28    5.90
  -3   1   4  223.58    6.00
  -3   1   4  215.58    5.80
   2  -1  -4  395.26    8.50
   2  -1  -4  382.56    8.40
   2  -1  -4  360.66    7.80
   2  -1  -4  385.16    9.00
  -2   1   4  386.16    8.60
  -2   1   4  397.16    8.70
  -2   1   4  396.76    8.60
  -2   1   4  391.76    8.50
   1  -1  -4  407.66    8.70
   1  -1  -4  401.46    8.70
   1  -1  -4  418.16    9.10
   1  -1  -4  410.86    8.60
  -1   1   4  412.86    8.90
  -1   1   4  418.66    9.00
  -1   1   4  405.76    8.90
   0  -1  -4   15.90    1.20
   0  -1  -4   16.10    1.20
   0  -1  -4   14.30    1.50
   0   1   4   11.20    0.80
   0   1   4   15.30    1.50
   0   1   4   17.80    1.60
   0   1   4   15.40    1.40
  -1  -1  -4  764.52   16.00
  -1  -1  -4  775.22   15.80
   1   1   4  801.22   16.10
   1   1   4  798.82   15.90
   1   1   4  754.42   15.60
  -2  -1  -4  463.45   10.40
  -2  -1  -4  478.45   10.70
  -2  -1  -4  483.95   10.90
   2   1   4  460.65   10.80
   2   1   4  478.35   10.90
  -3  -1  -4   32.80    2.70
  -3  -1  -4   29.10    2.50
   3   1   4   29.80    2.50
   3   1   4   29.80    2.50
  -4  -1  -4  104.49    4.80
  -4  -1  -4  105.89    4.90
   4   1   4   98.79    4.60
   4   1   4  113.49    5.20
  -5  -1  -4   52.29    4.20
  -5  -1  -4   47.80    4.20
   5   1   4   48.20    3.70
   5   1   4   47.20    4.30
  -6  -1  -4  109.09    6.40
  -6  -1  -4  112.49    6.30
   6   1   4  117.29    6.80
   6   1   4  114.49    5.90
  -7  -1  -4   54.89    5.50
  -7  -1  -4   61.39    5.70
   7   1   4   47.80    5.60
   8  -2  -4   44.70    5.10
   8  -2  -4   56.29    5.00
  -8   2   4   52.99    4.70
  -8   2   4   51.39    4.50
   7  -2  -4    8.10    2.00
   7  -2  -4    8.70    2.30
   7  -2  -4    6.50    1.80
   7  -2  -4    7.10    2.70
  -7   2   4    8.10    2.20
  -7   2   4    9.70    2.40
   6  -2  -4    9.60    2.00
   6  -2  -4    6.30    2.30
   6  -2  -4    5.80    1.60
   6  -2  -4    7.80    1.70
  -6   2   4    7.10    1.90
  -6   2   4    8.70    1.80
  -6   2   4    6.70    1.80
   5  -2  -4  148.59    5.00
   5  -2  -4  144.49    6.20
   5  -2  -4  149.88    5.00
   5  -2  -4  155.08    5.70
  -5   2   4  142.59    5.30
  -5   2   4  151.68    5.50
  -5   2   4  144.09    5.20
   4  -2  -4  279.37    7.40
   4  -2  -4  283.47    7.30
   4  -2  -4  297.07    8.50
   4  -2  -4  283.97    7.40
  -4   2   4  290.57    7.70
  -4   2   4  279.47    7.50
  -4   2   4  280.77    7.60
   3  -2  -4  247.28    6.30
   3  -2  -4  248.58    6.40
   3  -2  -4  225.28    6.00
   3  -2  -4  251.77    7.10
  -3   2   4  247.38    6.60
  -3   2   4  252.07    6.70
  -3   2   4  246.08    6.40
   2  -2  -4    0.60    0.50
   2  -2  -4    1.40    0.90
   2  -2  -4    0.70    1.00
   2  -2  -4    0.30    0.80
  -2   2   4    1.10    0.80
  -2   2   4    0.40    0.80
  -2   2   4    0.40    0.60
  -2   2   4    0.20    0.90
   1  -2  -4    9.50    1.20
   1  -2  -4    5.90    0.70
   1  -2  -4    5.50    1.00
   1  -2  -4    5.70    1.10
  -1   2   4    7.10    1.20
  -1   2   4    9.20    1.40
  -1   2   4    8.80    1.20
   0  -2  -4   86.69    2.70
   0  -2  -4   87.89    3.30
   0  -2  -4   85.19    2.70
   0   2   4   87.29    3.20
   0   2   4   79.19    2.60
   0   2   4   87.99    3.40
   0   2   4   84.89    3.20
  -1  -2  -4   78.39    3.10
  -1  -2  -4   69.89    3.30
   1   2   4   73.99    3.10
   1   2   4   76.59    3.20
   1   2   4   74.69    2.90
  -2  -2  -4   35.90    2.50
  -2  -2  -4   34.20    2.70
   2   2   4   32.60    2.30
   2   2   4   36.20    2.50
  -3  -2  -4  101.09    4.50
  -3  -2  -4   89.69    4.20
   3   2   4   92.79    4.30
   3   2   4   95.19    4.40
  -4  -2  -4   24.70    2.90
  -4  -2  -4   19.20    2.70
   4   2   4   23.70    3.10
   4   2   4   21.80    3.00
  -5  -2  -4   51.99    4.50
  -5  -2  -4   56.29    4.70
   5   2   4   50.59    4.40
   5   2   4   43.60    4.30
  -6  -2  -4    6.80    2.80
  -6  -2  -4    9.50    3.10
   6   2   4   12.90    3.10
   8  -3  -4   71.09    6.50
  -8   3   4   76.89    5.30
  -8   3   4   67.29    5.30
   7  -3  -4   19.60    3.20
   7  -3  -4   17.00    3.80
   7  -3  -4   23.10    2.80
   7  -3  -4   18.10    2.60
  -7   3   4   19.80    2.90
  -7   3   4   15.20    2.80
  -7   3   4   18.60    2.90
   6  -3  -4    2.10    1.50
   6  -3  -4    1.70    1.70
   6  -3  -4    0.90    1.50
   6  -3  -4    0.10    2.00
  -6   3   4    0.80    1.60
  -6   3   4    1.50    1.50
  -6   3   4   -1.00    1.60
   5  -3  -4   91.69    5.10
   5  -3  -4   94.99    4.10
   5  -3  -4   97.29    4.50
   5  -3  -4   83.39    4.00
  -5   3   4   89.19    4.40
  -5   3   4   83.69    4.10
  -5   3   4   88.59    4.40
   4  -3  -4  585.94   13.10
   4  -3  -4  580.24   13.00
   4  -3  -4  587.94   14.30
   4  -3  -4  574.44   13.10
  -4   3   4  583.84   13.40
  -4   3   4  582.14   13.10
  -4   3   4  573.74   13.40
   3  -3  -4  196.78    6.40
   3  -3  -4  183.38    5.30
   3  -3  -4  194.98    5.70
   3  -3  -4  194.48    5.70
  -3   3   4  194.28    5.90
  -3   3   4  201.28    5.80
  -3   3   4  204.58    6.10
   2  -3  -4    7.40    1.30
   2  -3  -4    6.20    1.20
   2  -3  -4    8.50    1.50
   2  -3  -4    5.20    1.00
  -2   3   4    5.50    1.10
  -2   3   4    9.80    1.40
  -2   3   4    7.10    1.30
  -2   3   4    7.90    1.50
   1  -3  -4  110.09    3.80
   1  -3  -4  120.39    3.70
   1  -3  -4  111.69    3.60
  -1   3   4  110.49    3.40
  -1   3   4  112.89    4.10
  -1   3   4  111.99    3.90
  -1   3   4  113.49    4.00
  -1   3   4  108.69    3.80
   0  -3  -4   17.70    1.50
   0  -3  -4   17.90    1.90
   0  -3  -4   19.50    1.60
   0   3   4   18.70    1.90
   0   3   4   18.40    2.00
   0   3   4   22.60    2.10
   0   3   4   15.40    1.50
  -1  -3  -4  171.08    5.60
  -1  -3  -4  168.78    5.10
   1   3   4  164.78    4.30
   1   3   4  182.08    5.50
   1   3   4  176.38    5.60
   1   3   4  174.48    5.20
  -2  -3  -4  165.28    5.80
  -2  -3  -4  171.78    5.70
   2   3   4  162.98    5.80
   2   3   4  166.28    5.50
  -3  -3  -4  217.28    7.10
  -3  -3  -4  215.58    7.10
   3   3   4  214.38    7.30
   3   3   4  211.48    7.10
  -4  -3  -4  179.98    7.00
  -4  -3  -4  163.58    6.70
   4   3   4  179.78    7.20
   4   3   4  175.58    7.00
  -5  -3  -4   -0.20    2.30
  -5  -3  -4    2.70    2.50
   5   3   4   -1.10    2.10
   5   3   4    2.30    2.20
  -6  -3  -4   -0.80    2.80
  -6  -3  -4    3.20    2.80
  -6  -3  -4    0.80    2.50
   6   3   4   -5.70    2.10
   8  -4  -4   52.69    6.00
   8  -4  -4   50.59    5.20
   8  -4  -4   63.09    5.70
  -8   4   4   58.59    5.30
   7  -4  -4   52.59    4.20
   7  -4  -4   59.19    4.40
   7  -4  -4   59.89    5.90
  -7   4   4   50.09    4.50
  -7   4   4   43.90    4.10
  -7   4   4   52.99    4.20
   6  -4  -4   42.00    3.90
   6  -4  -4   34.20    3.20
   6  -4  -4   39.80    3.40
   6  -4  -4   39.20    4.60
  -6   4   4   34.80    3.50
  -6   4   4   34.20    3.30
  -6   4   4   33.60    3.40
   5  -4  -4  153.78    5.90
   5  -4  -4  163.88    7.00
   5  -4  -4  164.08    5.90
   5  -4  -4  174.88    6.30
  -5   4   4  166.78    5.80
  -5   4   4  160.48    6.20
  -5   4   4  155.28    6.20
   4  -4  -4  366.36   10.80
   4  -4  -4  373.66    9.80
   4  -4  -4  385.86    9.80
   4  -4  -4  383.16    9.80
  -4   4   4  394.56   10.20
  -4   4   4  390.86    9.80
  -4   4   4  389.86   10.20
   3  -4  -4  115.19    4.40
   3  -4  -4  116.49    4.40
   3  -4  -4  112.99    4.20
   3  -4  -4  120.99    5.10
  -3   4   4  114.79    4.30
  -3   4   4  108.59    4.60
  -3   4   4  118.29    4.60
   2  -4  -4  254.77    6.80
   2  -4  -4  266.47    7.10
   2  -4  -4  272.47    7.20
   2  -4  -4  264.37    7.60
  -2   4   4  273.17    7.40
  -2   4   4  278.07    7.60
  -2   4   4  267.17    7.20
   1  -4  -4  256.77    7.00
   1  -4  -4  254.37    6.70
   1  -4  -4  267.17    6.80
  -1   4   4  268.37    7.00
  -1   4   4  249.08    6.70
  -1   4   4  258.47    7.10
  -1   4   4  270.77    7.30
  -1   4   4  266.67    7.20
   0  -4  -4  292.97    7.80
   0  -4  -4  307.57    7.20
   0  -4  -4  297.07    7.20
   0   4   4  290.47    8.20
   0   4   4  293.27    7.70
   0   4   4  308.17    8.00
   0   4   4  299.17    7.30
   0   4   4  304.27    8.10
  -1  -4  -4  135.79    4.80
  -1  -4  -4  134.99    5.30
   1   4   4  136.69    5.20
   1   4   4  138.99    4.90
   1   4   4  135.99    5.10
   1   4   4  136.79    4.30
  -2  -4  -4   29.20    2.90
  -2  -4  -4   33.20    3.20
   2   4   4   32.80    3.00
   2   4   4   29.00    2.80
  -3  -4  -4  103.39    5.20
  -3  -4  -4  102.19    5.10
   3   4   4  103.89    5.30
   3   4   4  111.69    5.30
  -4  -4  -4  192.98    7.40
  -4  -4  -4  171.68    7.40
   4   4   4  183.88    7.70
   4   4   4  175.58    7.30
  -5  -4  -4   37.50    4.60
  -5  -4  -4   35.30    4.30
   5   4   4   39.70    4.90
   5   4   4   43.50    4.60
  -6  -4  -4    7.00    3.30
  -6  -4  -4    8.70    3.70
  -6  -4  -4   12.40    3.70
   6   4   4   17.70    3.90
   8  -5  -4   14.60    3.10
   8  -5  -4   19.30    4.60
   8  -5  -4   19.40    3.30
  -8   5   4   15.50    3.60
   7  -5  -4   87.09    5.50
   7  -5  -4  100.69    5.60
   7  -5  -4   98.39    7.10
  -7   5   4   83.59    5.70
  -7   5   4   87.69    5.90
   6  -5  -4  423.76   11.50
   6  -5  -4  425.36   11.60
   6  -5  -4  438.66   13.60
  -6   5   4  409.96   11.30
  -6   5   4  395.06   12.00
  -6   5   4  427.86   12.10
   5  -5  -4  123.59    5.50
   5  -5  -4  123.29    5.40
   5  -5  -4  131.49    6.60
  -5   5   4  126.89    5.90
  -5   5   4  115.59    5.10
  -5   5   4  119.19    5.70
   4  -5  -4  143.59    5.60
   4  -5  -4  154.78    5.80
   4  -5  -4  144.89    6.50
   4  -5  -4  153.28    5.90
  -4   5   4  148.19    5.40
  -4   5   4  156.48    6.00
  -4   5   4  147.79    6.00
   3  -5  -4   22.20    2.90
   3  -5  -4   24.40    2.60
   3  -5  -4   22.90    2.40
   3  -5  -4   17.60    2.40
  -3   5   4   21.90    2.40
  -3   5   4   21.80    2.60
  -3   5   4   21.10    2.60
   2  -5  -4  124.69    5.20
   2  -5  -4  112.89    4.60
   2  -5  -4  119.29    4.60
   2  -5  -4  119.09    4.60
  -2   5   4  123.59    5.00
  -2   5   4  111.09    4.50
  -2   5   4  113.09    5.00
   1  -5  -4    1.60    1.40
   1  -5  -4    3.20    1.70
   1  -5  -4    0.50    1.30
  -1   5   4    3.80    1.60
  -1   5   4    5.30    1.60
  -1   5   4    5.70    1.70
  -1   5   4    4.60    1.50
  -1   5   4    2.60    1.60
   0  -5  -4   89.79    3.70
   0  -5  -4   76.99    4.00
   0  -5  -4   91.89    3.70
   0   5   4   77.79    4.30
   0   5   4   81.39    4.00
   0   5   4   86.09    4.30
   0   5   4   88.69    4.20
   0   5   4   86.39    3.70
  -1  -5  -4   36.40    3.40
  -1  -5  -4   37.50    3.10
   1   5   4   38.00    3.10
   1   5   4   42.80    3.30
   1   5   4   44.70    3.60
  -2  -5  -4   42.10    3.80
  -2  -5  -4   40.70    3.80
   2   5   4   43.60    4.20
   2   5   4   37.60    3.50
  -3  -5  -4   45.40    4.40
  -3  -5  -4   46.90    4.20
   3   5   4   48.50    4.70
   3   5   4   44.10    4.00
  -4  -5  -4    9.90    2.80
  -4  -5  -4    9.30    3.20
   4   5   4    4.40    2.70
   4   5   4    6.10    2.70
  -5  -5  -4   45.00    5.40
  -5  -5  -4   64.69    6.00
   5   5   4   60.79    5.70
   7  -6  -4  132.79    8.20
   7  -6  -4  120.19    6.40
   7  -6  -4  111.69    6.40
  -7   6   4  119.19    6.80
  -7   6   4  115.19    7.00
   6  -6  -4  231.88    8.40
   6  -6  -4  228.58    8.30
   6  -6  -4  237.28   10.10
  -6   6   4  228.88    8.90
  -6   6   4  231.68    8.80
   5  -6  -4   49.30    4.10
   5  -6  -4   44.20    3.90
   5  -6  -4   49.50    5.00
  -5   6   4   45.30    4.20
  -5   6   4   41.10    4.00
   4  -6  -4    2.60    2.00
   4  -6  -4    2.50    1.90
   4  -6  -4    1.30    2.10
  -4   6   4   -0.10    1.50
  -4   6   4    3.50    2.20
  -4   6   4    0.80    2.00
   3  -6  -4    4.10    1.80
   3  -6  -4    2.70    1.80
   3  -6  -4    4.60    2.20
  -3   6   4    1.90    1.90
  -3   6   4    5.60    1.70
  -3   6   4    6.40    2.30
   2  -6  -4    2.20    1.70
   2  -6  -4    1.60    1.60
   2  -6  -4   -0.50    1.80
   2  -6  -4   -1.00    1.60
  -2   6   4    0.00    1.40
  -2   6   4   -0.40    1.70
  -2   6   4   -0.30    1.70
   1  -6  -4    3.10    1.70
   1  -6  -4    2.60    1.70
   1  -6  -4    3.20    1.90
  -1   6   4    2.10    1.50
  -1   6   4    4.10    1.90
  -1   6   4    3.90    1.70
  -1   6   4    3.20    1.80
  -1   6   4    4.00    1.80
   0  -6  -4   19.50    2.60
   0  -6  -4   20.30    2.30
   0  -6  -4   21.60    2.30
   0   6   4   17.90    2.80
   0   6   4   27.40    3.00
   0   6   4   17.10    2.50
  -1  -6  -4   80.69    4.80
  -1  -6  -4   89.19    5.10
   1   6   4   84.99    4.70
   1   6   4   98.59    5.40
  -2  -6  -4  189.08    7.50
  -2  -6  -4  178.28    7.20
   2   6   4  191.78    8.00
   2   6   4  178.18    7.10
  -3  -6  -4   81.79    5.90
  -3  -6  -4   91.79    6.00
   3   6   4   84.59    5.40
   3   6   4   89.29    6.10
  -4  -6  -4    3.10    3.20
   4   6   4    4.90    2.80
   6  -7  -4   40.70    4.30
   6  -7  -4   44.30    5.40
   6  -7  -4   42.30    4.40
  -6   7   4   28.10    3.90
  -6   7   4   28.20    4.20
   5  -7  -4   63.09    5.00
   5  -7  -4   59.99    4.90
   5  -7  -4   53.49    5.60
  -5   7   4   47.10    4.70
  -5   7   4   47.00    4.50
   4  -7  -4   57.19    4.70
   4  -7  -4   61.69    4.80
   4  -7  -4   56.19    5.40
  -4   7   4   59.39    4.80
  -4   7   4   58.79    5.20
   3  -7  -4  224.38    7.60
   3  -7  -4  220.58    8.60
   3  -7  -4  221.78    7.70
  -3   7   4  211.88    7.80
  -3   7   4  210.38    8.10
   2  -7  -4   50.89    4.10
   2  -7  -4   48.30    3.90
   2  -7  -4   47.70    4.50
  -2   7   4   40.00    3.90
  -2   7   4   38.80    3.50
  -2   7   4   45.20    4.00
   1  -7  -4   -0.10    1.70
   1  -7  -4    0.60    1.90
   1  -7  -4    3.00    2.20
  -1   7   4    2.00    2.00
  -1   7   4    1.20    2.00
  -1   7   4    0.90    2.00
  -1   7   4    2.40    1.70
   0  -7  -4   72.79    4.80
   0   7   4   83.49    4.70
   0   7   4   86.19    5.30
  -1  -7  -4   43.60    4.30
  -1  -7  -4   52.29    4.60
   1   7   4   38.10    4.80
   1   7   4   56.09    5.10
  -2  -7  -4   42.60    4.50
   2   7   4   38.90    4.20
   2   7   4   36.80    4.60
  -3  -7  -4   12.30    3.60
   3   7   4   13.60    3.40
   5  -8  -4    2.70    3.40
   5  -8  -4    0.50    2.70
   5  -8  -4    2.50    2.80
  -5   8   4    1.90    2.70
  -5   8   4    2.60    2.90
   4  -8  -4   57.89    4.90
   4  -8  -4   53.39    5.50
   4  -8  -4   53.79    4.90
  -4   8   4   52.09    4.70
  -4   8   4   47.50    4.80
   3  -8  -4   79.69    6.10
   3  -8  -4   83.99    5.40
   3  -8  -4   89.39    5.60
  -3   8   4   88.89    5.90
  -3   8   4   81.79    5.70
   2  -8  -4   16.00    2.90
   2  -8  -4   13.40    3.10
   2  -8  -4   15.00    3.00
  -2   8   4   17.10    3.20
  -2   8   4   11.60    3.00
   1  -8  -4  348.47   13.00
   1  -8  -4  334.17   13.30
   0  -8  -4  258.27    9.40
  -1  -8  -4   41.10    4.50
  -2  -8  -4   98.19    7.30
  -2  -8  -4   94.29    6.80
   4  -9  -4   86.99    6.30
   4  -9  -4   82.09    7.10
   4  -9  -4   65.09    5.60
  -4   9   4   88.49    6.40
  -4   9   4   75.19    6.50
   3  -9  -4   88.69    6.10
   3  -9  -4   76.39    6.80
   3  -9  -4   71.09    5.70
  -3   9   4   81.29    6.50
   2  -9  -4   56.49    5.00
   2  -9  -4   55.79    5.00
  -2   9   4   63.59    5.70
   1  10  -5   57.09    5.20
   1  10  -5   42.80    5.10
   1  10  -5   58.29    5.10
   1  10  -5   55.49    5.90
   0  10  -5  180.38    7.20
   0  10  -5  151.38    8.20
   0  10  -5  167.98    7.10
   0 -10   5  157.38    8.50
  -1  10  -5  338.77   10.50
  -1  10  -5  333.97   12.20
  -1  10  -5  342.67   10.40
   1 -10   5  338.57   12.40
  -2  10  -5  143.89    6.70
  -2  10  -5  125.59    6.40
  -2  10  -5  130.99    7.80
   2 -10   5  131.89    8.30
  -3  10  -5   44.50    4.50
  -3  10  -5   37.70    4.80
  -3  10  -5   42.20    4.30
  -3  10  -5   43.10    5.40
   3 -10   5   44.10    5.80
   3   9  -5   17.50    3.80
   3   9  -5   24.60    3.90
  -3  -9   5   21.20    4.30
   2   9  -5   23.50    3.90
   2   9  -5   15.60    3.50
  -2  -9   5   20.50    3.80
   1   9  -5    2.60    2.70
   1   9  -5    2.00    1.90
   1   9  -5    3.10    2.20
   1   9  -5    2.40    2.50
  -1  -9   5    5.80    2.70
   0   9  -5    8.50    2.50
   0   9  -5    9.40    2.40
   0   9  -5    6.20    2.70
   0  -9   5    6.20    2.80
  -1   9  -5   88.09    6.00
  -1   9  -5   99.09    5.30
  -1   9  -5   94.19    5.20
   1  -9   5   94.09    6.20
  -2   9  -5   91.49    6.00
  -2   9  -5   94.49    6.40
  -2   9  -5   87.29    5.30
  -2   9  -5   96.29    5.30
   2  -9   5   99.09    6.60
  -3   9  -5   92.19    6.60
  -3   9  -5   97.29    5.30
  -3   9  -5   96.39    6.50
  -3   9  -5   98.09    5.40
   3  -9   5   96.99    6.70
  -4   9  -5  119.69    7.40
  -4   9  -5  109.59    6.00
  -4   9  -5  112.99    6.00
   4  -9   5  108.29    7.50
   4  -9   5  118.29    7.60
  -5   9  -5   30.90    4.70
  -5   9  -5   24.50    3.50
  -5   9  -5   18.70    3.30
   5  -9   5   28.00    4.70
   5  -9   5   21.70    4.20
   4   8  -5   32.50    4.60
   4   8  -5   28.20    4.30
  -4  -8   5   29.60    4.70
   3   8  -5   26.00    4.20
   3   8  -5   17.10    3.40
  -3  -8   5   14.90    3.70
   2   8  -5  125.49    5.20
   2   8  -5  114.49    6.40
   2   8  -5  126.99    5.20
   2   8  -5  112.09    6.40
  -2  -8   5  113.39    6.50
   1   8  -5  101.19    4.70
   1   8  -5   90.29    5.70
   1   8  -5   98.59    5.80
   1   8  -5   88.89    4.50
  -1  -8   5   94.19    5.50
   0   8  -5   -1.80    1.50
   0   8  -5    1.40    2.20
   0   8  -5   -0.80    1.60
   0  -8   5   -0.30    2.00
   0  -8   5   -0.20    1.80
  -1   8  -5   11.90    2.60
  -1   8  -5   16.70    2.60
  -1   8  -5   17.70    3.20
  -1   8  -5   12.40    2.30
   1  -8   5   16.10    3.20
  -2   8  -5   87.19    4.70
  -2   8  -5   85.19    5.40
  -2   8  -5   88.39    4.80
  -2   8  -5   88.29    5.70
   2  -8   5   81.49    5.70
  -3   8  -5  165.58    6.30
  -3   8  -5  163.58    7.40
  -3   8  -5  176.08    6.40
  -3   8  -5  150.98    7.40
   3  -8   5  161.78    7.70
  -4   8  -5   60.79    5.50
  -4   8  -5   53.19    4.30
  -4   8  -5   52.39    4.20
   4  -8   5   65.39    5.70
   4  -8   5   55.89    5.40
  -5   8  -5    2.80    2.20
  -5   8  -5    1.50    2.80
  -5   8  -5    7.60    2.50
   5  -8   5   10.50    3.30
   5  -8   5    8.10    3.30
  -6   8  -5   52.09    5.50
  -6   8  -5   62.39    4.80
  -6   8  -5   52.79    4.40
   6  -8   5   55.69    6.20
   6  -8   5   43.50    5.40
   5   7  -5  110.39    6.90
   5   7  -5  113.09    7.00
  -5  -7   5  107.39    6.90
  -5  -7   5  104.29    7.10
   4   7  -5   69.29    5.30
   4   7  -5   63.89    5.40
  -4  -7   5   59.09    5.50
   3   7  -5   34.90    3.90
   3   7  -5   35.00    3.90
  -3  -7   5   47.60    4.80
   2   7  -5  277.87    7.60
   2   7  -5  278.77    7.60
   2   7  -5  266.87    9.30
   2   7  -5  261.37    9.00
  -2  -7   5  277.97    9.20
   1   7  -5   93.29    5.10
   1   7  -5   91.99    4.20
   1   7  -5  103.19    4.30
   1   7  -5   89.49    5.10
  -1  -7   5   93.59    5.00
   0   7  -5  138.89    5.00
   0   7  -5  134.69    5.00
   0   7  -5  134.29    6.10
   0  -7   5  126.49    6.00
   0  -7   5  129.19    5.50
  -1   7  -5  194.68    6.80
  -1   7  -5  193.08    7.30
  -1   7  -5  187.88    6.20
  -1   7  -5  194.68    6.30
   1  -7   5  187.88    7.40
   1  -7   5  200.08    6.50
  -2   7  -5   86.39    4.20
  -2   7  -5  102.69    5.40
  -2   7  -5   92.39    5.30
  -2   7  -5   84.89    4.20
   2  -7   5   95.19    5.40
  -3   7  -5  116.59    6.00
  -3   7  -5  119.69    5.00
  -3   7  -5  123.69    5.00
  -3   7  -5  106.19    5.80
   3  -7   5  119.39    6.20
  -4   7  -5    7.30    2.00
  -4   7  -5    5.40    2.00
  -4   7  -5    4.20    2.60
   4  -7   5    8.50    2.60
   4  -7   5    7.40    2.80
  -5   7  -5    5.00    2.30
  -5   7  -5    7.70    2.80
  -5   7  -5    5.50    2.20
   5  -7   5    6.00    2.90
   5  -7   5    5.10    3.00
  -6   7  -5   45.00    4.50
  -6   7  -5   53.09    4.10
  -6   7  -5   58.99    5.60
  -6   7  -5   49.10    4.00
   6  -7   5   53.29    5.70
   6  -7   5   39.70    4.80
   6   6  -5   98.39    6.60
   6   6  -5   90.49    6.40
  -6  -6   5   93.99    6.90
  -6  -6   5   92.39    6.60
   5   6  -5  286.47   10.50
   5   6  -5  310.57   10.90
  -5  -6   5  308.37   11.00
  -5  -6   5  327.07   10.50
   4   6  -5   62.29    4.70
   4   6  -5   59.59    4.80
  -4  -6   5   50.59    4.40
  -4  -6   5   54.59    4.80
   3   6  -5   25.30    3.20
   3   6  -5   24.80    2.30
   3   6  -5   26.00    3.20
   3   6  -5   26.70    2.40
  -3  -6   5   22.70    3.20
  -3  -6   5   21.80    2.80
   2   6  -5   70.39    3.40
   2   6  -5   72.49    4.40
   2   6  -5   70.19    4.40
   2   6  -5   69.99    3.40
  -2  -6   5   63.59    4.30
   1   6  -5   91.59    4.70
   1   6  -5   94.49    3.80
   1   6  -5   90.79    4.50
   1   6  -5   95.89    3.80
  -1  -6   5   97.19    4.60
   0   6  -5  191.98    5.80
   0   6  -5  191.58    5.70
   0   6  -5  195.18    6.90
   0  -6   5  201.48    6.40
   0  -6   5  193.58    6.80
  -1   6  -5   11.60    2.20
  -1   6  -5    8.70    1.60
  -1   6  -5   10.20    1.80
  -1   6  -5   13.00    2.20
   1  -6   5   12.00    1.90
   1  -6   5   12.90    2.30
  -2   6  -5  128.09    4.70
  -2   6  -5  127.19    5.40
  -2   6  -5  113.89    5.40
  -2   6  -5  125.39    4.70
   2  -6   5  116.49    5.50
  -3   6  -5   92.99    5.20
  -3   6  -5  110.89    4.40
  -3   6  -5  103.19    4.30
   3  -6   5  110.79    5.60
  -4   6  -5   48.00    4.40
  -4   6  -5   42.40    3.80
  -4   6  -5   43.70    3.30
  -4   6  -5   44.50    3.20
   4  -6   5   46.80    4.10
   4  -6   5   40.90    4.30
  -5   6  -5   86.99    4.60
  -5   6  -5   88.39    5.40
  -5   6  -5   93.99    5.80
  -5   6  -5   87.49    4.50
   5  -6   5   96.49    6.30
   5  -6   5   88.19    5.70
  -6   6  -5   57.89    5.30
  -6   6  -5   60.49    5.50
   6  -6   5   66.49    6.10
   6  -6   5   59.49    5.30
  -7   6  -5   87.99    6.70
  -7   6  -5   82.19    6.70
   7  -6   5   79.89    6.90
   6   5  -5    2.00    2.30
   6   5  -5    6.50    2.90
  -6  -5   5    3.50    2.80
  -6  -5   5    8.30    2.90
   5   5  -5    1.70    2.00
   5   5  -5    1.00    1.80
  -5  -5   5    0.00    2.10
  -5  -5   5    1.40    2.10
   4   5  -5    0.10    1.50
   4   5  -5    0.30    1.70
  -4  -5   5    0.90    1.80
  -4  -5   5    2.20    1.90
   3   5  -5   91.89    3.60
   3   5  -5   87.29    4.60
   3   5  -5   90.89    4.80
   3   5  -5   92.99    3.60
  -3  -5   5  100.69    4.50
  -3  -5   5   95.69    4.80
   2   5  -5   31.90    2.90
   2   5  -5   29.70    2.20
   2   5  -5   28.10    2.20
   2   5  -5   28.90    2.80
  -2  -5   5   31.00    2.50
  -2  -5   5   34.00    2.90
   1   5  -5   25.60    2.70
   1   5  -5   28.30    2.60
   1   5  -5   27.60    2.20
   1   5  -5   29.90    2.10
  -1  -5   5   29.60    2.70
   0   5  -5  363.46    8.60
   0   5  -5  355.56    8.80
   0   5  -5  364.06    8.60
   0   5  -5  374.16    9.70
   0  -5   5  375.86    9.20
   0  -5   5  358.86    9.60
  -1   5  -5  370.66    8.80
  -1   5  -5  372.76    9.40
  -1   5  -5  389.46   10.00
  -1   5  -5  373.96    8.90
   1  -5   5  380.66   10.00
   1  -5   5  362.86    8.80
  -2   5  -5   12.00    1.70
  -2   5  -5   12.40    2.10
  -2   5  -5   12.20    1.70
  -2   5  -5   13.60    1.60
  -2   5  -5   13.40    2.10
   2  -5   5   11.50    2.10
  -3   5  -5    4.50    1.60
  -3   5  -5    2.70    1.30
  -3   5  -5    4.90    1.90
  -3   5  -5    4.50    1.40
   3  -5   5    6.20    1.90
   3  -5   5    4.20    1.60
  -4   5  -5  142.59    6.10
  -4   5  -5  138.69    4.90
  -4   5  -5  140.59    4.90
  -4   5  -5  136.29    5.70
   4  -5   5  122.69    6.10
   4  -5   5  135.19    5.90
  -5   5  -5   62.09    3.60
  -5   5  -5   56.09    4.70
  -5   5  -5   68.69    5.00
  -5   5  -5   55.89    3.60
   5  -5   5   55.39    4.80
   5  -5   5   62.59    4.50
  -6   5  -5   64.59    5.40
  -6   5  -5   45.60    4.70
   6  -5   5   39.60    5.20
   6  -5   5   50.69    5.30
  -7   5  -5   72.19    6.10
  -7   5  -5   66.99    6.20
   7  -5   5   63.69    6.10
   7   4  -5    8.20    2.80
   7   4  -5    8.80    2.80
  -7  -4   5    8.00    3.10
  -7  -4   5    7.20    3.00
   6   4  -5   16.10    3.20
   6   4  -5   12.60    2.90
  -6  -4   5   12.20    2.90
  -6  -4   5   17.60    3.20
   5   4  -5    3.30    2.00
   5   4  -5    2.40    1.70
  -5  -4   5    2.50    1.90
  -5  -4   5    1.10    1.80
   4   4  -5   24.30    3.20
   4   4  -5   31.40    2.30
   4   4  -5   23.90    2.90
   4   4  -5   25.40    2.20
  -4  -4   5   27.80    3.20
  -4  -4   5   21.20    2.70
   3   4  -5   49.10    3.40
   3   4  -5   40.60    2.40
   3   4  -5   41.40    3.00
   3   4  -5   47.50    2.50
  -3  -4   5   42.60    3.00
  -3  -4   5   36.60    3.20
   2   4  -5   20.10    2.20
   2   4  -5   20.40    1.80
   2   4  -5   20.60    1.80
   2   4  -5   24.00    2.50
  -2  -4   5   22.20    2.50
  -2  -4   5   19.40    2.00
   1   4  -5   42.90    2.80
   1   4  -5   37.20    2.10
   1   4  -5   39.40    2.60
   1   4  -5   38.90    2.10
  -1  -4   5   37.50    2.00
  -1  -4   5   35.40    2.60
   0   4  -5  465.15   10.10
   0   4  -5  461.45   10.40
   0   4  -5  464.65   11.00
   0   4  -5  459.75   10.10
   0  -4   5  465.05   10.60
   0  -4   5  461.95   10.90
  -1   4  -5  847.92   17.00
  -1   4  -5  845.52   17.00
  -1   4  -5  858.31   17.70
  -1   4  -5  826.62   17.90
   1  -4   5  816.52   17.10
   1  -4   5  871.21   18.20
  -2   4  -5   92.39    3.50
  -2   4  -5   87.49    4.00
  -2   4  -5   92.19    3.90
  -2   4  -5   94.89    3.40
  -2   4  -5   88.59    3.40
   2  -4   5   90.09    4.10
  -3   4  -5   59.59    3.60
  -3   4  -5   59.59    3.30
  -3   4  -5   54.99    2.80
  -3   4  -5   55.39    2.80
   3  -4   5   58.99    3.70
   3  -4   5   51.69    3.20
  -4   4  -5    5.40    2.00
  -4   4  -5    8.70    1.60
  -4   4  -5    6.20    1.60
  -4   4  -5    6.00    1.90
   4  -4   5    6.80    2.00
   4  -4   5    4.80    1.60
  -5   4  -5   18.40    3.00
  -5   4  -5   19.70    3.10
   5  -4   5   15.40    3.00
   5  -4   5   17.10    2.60
  -6   4  -5   29.90    3.70
  -6   4  -5   25.00    3.80
   6  -4   5   23.50    3.80
  -7   4  -5   -0.10    3.00
  -7   4  -5   -0.30    2.40
   7  -4   5    0.10    2.70
   7   3  -5    1.80    1.90
   7   3  -5    1.40    2.40
  -7  -3   5    1.90    2.30
  -7  -3   5    1.80    2.20
   6   3  -5   98.69    5.90
   6   3  -5  100.49    5.40
  -6  -3   5  104.99    5.70
  -6  -3   5  100.69    5.50
   5   3  -5    4.60    2.30
   5   3  -5    8.60    2.30
   5   3  -5   11.10    2.30
  -5  -3   5    9.00    2.20
  -5  -3   5    5.40    1.90
   4   3  -5   75.29    3.10
   4   3  -5   66.99    3.70
   4   3  -5   70.99    4.20
   4   3  -5   69.49    3.00
  -4  -3   5   72.29    3.90
  -4  -3   5   67.39    3.90
   3   3  -5  111.39    4.40
   3   3  -5  115.39    3.70
   3   3  -5  120.09    4.80
   3   3  -5  118.99    3.80
  -3  -3   5  109.69    4.50
  -3  -3   5  107.79    4.30
   2   3  -5   99.49    3.70
   2   3  -5  103.99    3.40
   2   3  -5  105.19    4.10
   2   3  -5   97.29    3.30
  -2  -3   5  101.89    3.60
  -2  -3   5  100.39    4.00
   1   3  -5   51.19    2.30
   1   3  -5   48.20    2.20
   1   3  -5   56.99    2.80
   1   3  -5   52.49    2.50
  -1  -3   5   51.19    2.60
  -1  -3   5   49.99    2.10
   0   3  -5  215.48    6.00
   0   3  -5  222.58    5.50
   0   3  -5  217.38    5.70
   0   3  -5  213.78    5.40
   0  -3   5  228.08    5.90
   0  -3   5  228.18    5.90
  -1   3  -5  273.77    6.40
  -1   3  -5  271.87    6.90
  -1   3  -5  274.17    6.40
  -1   3  -5  267.57    7.00
   1  -3   5  270.07    7.10
   1  -3   5  268.97    6.60
  -2   3  -5  221.38    5.50
  -2   3  -5  221.48    6.40
  -2   3  -5  217.18    6.00
  -2   3  -5  211.28    5.90
  -2   3  -5  225.28    5.50
   2  -3   5  227.98    6.60
  -3   3  -5  336.97    9.00
  -3   3  -5  332.57    7.70
  -3   3  -5  342.17    8.80
  -3   3  -5  335.07    7.70
   3  -3   5  323.37    8.40
   3  -3   5  352.16    9.50
  -4   3  -5  448.66   11.30
  -4   3  -5  414.46   11.10
  -4   3  -5  424.96    9.50
  -4   3  -5  430.86    9.50
   4  -3   5  410.36   10.60
   4  -3   5  428.96   11.80
  -5   3  -5   42.30    3.80
  -5   3  -5   46.90    4.30
   5  -3   5   36.30    3.90
  -6   3  -5   23.00    3.40
  -6   3  -5   27.30    3.90
   6  -3   5   26.20    3.90
  -7   3  -5   29.90    4.00
  -7   3  -5   31.00    4.70
   7  -3   5   30.30    4.70
   8   2  -5    0.00    2.20
   8   2  -5   -1.10    2.60
  -8  -2   5    2.00    2.50
   7   2  -5   11.00    3.10
   7   2  -5    7.70    2.50
  -7  -2   5    6.90    2.40
  -7  -2   5   10.00    2.80
   6   2  -5  104.29    5.40
   6   2  -5   95.29    5.70
  -6  -2   5  105.49    5.20
  -6  -2   5  110.09    5.60
   5   2  -5   38.70    2.50
   5   2  -5   41.30    3.30
   5   2  -5   39.80    3.70
   5   2  -5   38.80    2.60
  -5  -2   5   44.40    3.30
  -5  -2   5   41.20    2.70
  -5  -2   5   40.00    3.40
   4   2  -5  178.38    5.10
   4   2  -5  177.98    5.80
   4   2  -5  181.58    6.40
   4   2  -5  176.98    5.10
  -4  -2   5  178.18    6.00
  -4  -2   5  176.88    6.00
  -4  -2   5  174.78    5.00
   3   2  -5  494.45   10.60
   3   2  -5  476.25   10.50
   3   2  -5  474.85   11.00
   3   2  -5  499.85   11.80
  -3  -2   5  483.05   11.20
  -3  -2   5  489.25   11.40
   2   2  -5 2481.15   46.00
   2   2  -5 2445.66   46.20
   2   2  -5 2483.05   46.90
   2   2  -5 2451.85   45.90
  -2  -2   5 2478.65   46.80
  -2  -2   5 2468.05   46.30
   1   2  -5 2758.52   50.39
   1   2  -5 2721.53   50.29
   1   2  -5 2724.23   50.79
   1   2  -5 2673.93   50.29
   1   2  -5 2670.63   50.19
  -1  -2   5 2735.13   50.19
  -1  -2   5 2740.43   50.89
   0   2  -5    3.50    0.80
   0   2  -5    3.30    1.00
   0   2  -5    2.50    0.80
   0   2  -5    2.40    0.90
   0  -2   5    1.70    0.90
   0  -2   5    3.40    0.70
   0  -2   5    2.80    0.70
  -1   2  -5   25.30    1.60
  -1   2  -5   25.20    2.00
  -1   2  -5   23.10    1.50
  -1   2  -5   24.50    1.70
  -1   2  -5   21.20    1.50
   1  -2   5   23.50    1.80
   1  -2   5   25.40    1.80
  -2   2  -5   26.10    2.20
  -2   2  -5   26.50    2.30
  -2   2  -5   27.20    1.70
  -2   2  -5   28.60    1.70
  -2   2  -5   26.10    1.60
   2  -2   5   26.30    1.60
   2  -2   5   29.00    2.20
   2  -2   5   26.10    1.90
  -3   2  -5  841.02   17.00
  -3   2  -5  857.81   18.10
  -3   2  -5  859.41   18.00
   3  -2   5  882.11   18.70
   3  -2   5  814.02   17.20
   3  -2   5  802.12   17.10
  -4   2  -5  171.78    5.30
  -4   2  -5  156.78    5.80
  -4   2  -5  163.98    6.10
   4  -2   5  164.28    6.30
   4  -2   5  157.88    5.30
  -5   2  -5   23.50    3.00
  -5   2  -5   24.30    2.70
  -5   2  -5   23.50    3.30
   5  -2   5   22.90    3.20
  -6   2  -5  206.98    8.60
  -6   2  -5  203.08    7.60
   6  -2   5  206.88    8.90
  -7   2  -5   29.40    4.50
   7  -2   5   25.40    4.30
   8   1  -5  111.59    7.00
   8   1  -5  111.19    6.60
  -8  -1   5  105.79    6.50
   7   1  -5  153.78    6.90
   7   1  -5  154.18    7.60
  -7  -1   5  146.09    6.20
  -7  -1   5  152.98    7.00
   6   1  -5   26.50    2.90
   6   1  -5   29.90    2.70
   6   1  -5   27.50    3.20
   6   1  -5   31.00    3.80
  -6  -1   5   29.90    2.90
  -6  -1   5   26.10    3.20
  -6  -1   5   26.30    2.90
   5   1  -5    5.70    1.40
   5   1  -5   13.90    2.10
   5   1  -5    8.40    1.50
   5   1  -5    6.80    2.00
  -5  -1   5    8.40    1.80
  -5  -1   5    7.90    1.60
  -5  -1   5   13.20    2.10
   4   1  -5  117.29    4.90
   4   1  -5  116.59    4.20
   4   1  -5  113.89    3.90
   4   1  -5  111.89    3.80
  -4  -1   5  108.39    4.40
  -4  -1   5  109.29    3.80
  -4  -1   5  106.59    4.20
   3   1  -5  136.39    4.00
   3   1  -5  130.09    4.70
   3   1  -5  126.59    4.00
   3   1  -5  122.29    4.00
  -3  -1   5  126.89    4.30
  -3  -1   5  126.79    3.80
  -3  -1   5  130.29    4.30
   2   1  -5  794.12   16.60
   2   1  -5  792.32   15.90
   2   1  -5  812.02   16.00
   2   1  -5  810.62   15.70
   2   1  -5  792.22   16.00
  -2  -1   5  812.22   16.50
  -2  -1   5  804.32   16.20
  -2  -1   5  762.02   15.60
   1   1  -5 2112.39   38.40
   1   1  -5 2078.19   38.80
   1   1  -5 2059.59   39.00
   1   1  -5 2076.19   38.80
   1   1  -5 2080.39   39.10
  -1  -1   5 2086.09   38.90
  -1  -1   5 2123.79   39.40
  -1  -1   5 2063.39   38.70
   0   1  -5  337.67    7.40
   0   1  -5  353.76    7.80
   0   1  -5  348.57    7.50
   0   1  -5  343.27    8.00
   0   1  -5  355.76    7.50
   0  -1   5  346.87    7.40
   0  -1   5  351.96    7.70
   0  -1   5  353.06    8.10
  -1   1  -5  622.34   12.20
  -1   1  -5  611.24   12.10
  -1   1  -5  616.24   12.80
  -1   1  -5  606.84   13.00
   1  -1   5  595.34   12.70
   1  -1   5  618.94   12.90
   1  -1   5  613.74   12.60
  -2   1  -5   14.10    1.70
  -2   1  -5   15.90    1.80
   2  -1   5   15.50    1.70
   2  -1   5   19.80    1.90
  -3   1  -5   95.99    4.10
  -3   1  -5   98.09    3.70
  -3   1  -5   96.59    4.00
   3  -1   5   90.99    3.20
   3  -1   5   98.79    4.40
   3  -1   5   94.99    3.70
  -4   1  -5   46.80    3.50
  -4   1  -5   48.60    3.30
  -4   1  -5   48.00    3.30
   4  -1   5   46.00    3.00
   4  -1   5   47.30    3.70
  -5   1  -5   27.40    3.00
  -5   1  -5   28.20    3.50
  -5   1  -5   28.00    2.90
   5  -1   5   31.50    3.70
   5  -1   5   34.00    3.00
  -6   1  -5  215.48    8.80
  -6   1  -5  215.38    8.00
   6  -1   5  227.78    9.20
  -7   1  -5  155.48    8.00
  -7   1  -5  150.38    8.00
   7  -1   5  156.38    8.40
   8   0  -5    1.80    2.00
   8   0  -5   -0.40    2.40
  -8   0   5    0.70    2.00
  -8   0   5    0.40    1.80
   7   0  -5   79.79    5.80
   7   0  -5   87.69    5.20
  -7   0   5   77.09    5.00
  -7   0   5   77.89    4.60
   6   0  -5   24.90    3.50
   6   0  -5   25.20    2.40
   6   0  -5   22.60    2.30
   6   0  -5   30.10    3.20
  -6   0   5   23.50    2.70
  -6   0   5   22.00    2.50
  -6   0   5   25.20    3.00
   5   0  -5   28.60    2.40
   5   0  -5   32.40    2.80
   5   0  -5   30.90    3.30
   5   0  -5   30.90    2.40
  -5   0   5   26.70    2.40
  -5   0   5   31.20    3.00
  -5   0   5   27.70    2.40
   4   0  -5  269.87    7.00
   4   0  -5  275.47    7.00
   4   0  -5  272.17    7.30
   4   0  -5  277.17    8.20
  -4   0   5  263.67    7.10
  -4   0   5  273.27    7.20
  -4   0   5  273.87    7.50
   3   0  -5   11.30    1.40
   3   0  -5    9.00    1.20
   3   0  -5   14.10    1.50
   3   0  -5   12.40    1.80
   3   0  -5   12.50    1.50
  -3   0   5   10.20    1.40
  -3   0   5   11.60    1.50
  -3   0   5   11.00    1.40
   2   0  -5   61.29    2.50
   2   0  -5   57.89    2.50
   2   0  -5   59.79    2.60
   2   0  -5   54.59    1.80
   2   0  -5   60.29    2.80
  -2   0   5   65.49    2.70
  -2   0   5   60.39    2.40
  -2   0   5   58.99    2.50
   1   0  -5  214.68    5.60
   1   0  -5  217.98    5.30
   1   0  -5  221.88    5.30
   1   0  -5  210.28    5.20
  -1   0   5  222.78    5.70
  -1   0   5  223.88    5.50
  -1   0   5  214.88    5.40
   0   0  -5  300.97    6.60
   0   0  -5  305.27    7.10
   0   0  -5  295.17    6.60
   0   0  -5  293.67    7.20
   0   0   5  282.87    6.20
   0   0   5  311.77    7.30
   0   0   5  310.77    7.10
  -1   0  -5  498.45   10.10
  -1   0  -5  490.95   11.00
  -1   0  -5  512.55   11.20
   1   0   5  514.75   11.20
   1   0   5  510.85   11.00
   1   0   5  503.05   10.80
  -2   0  -5  115.89    4.10
  -2   0  -5  120.99    4.30
   2   0   5  113.09    4.20
   2   0   5  113.59    4.10
   2   0   5  112.39    3.90
  -3   0  -5   -0.60    1.10
  -3   0  -5    0.90    1.20
  -3   0  -5    2.20    1.30
   3   0   5    0.30    1.10
   3   0   5   -0.50    1.00
  -4   0  -5   28.70    2.90
  -4   0  -5   23.70    2.90
  -4   0  -5   31.40    2.90
   4   0   5   29.70    3.00
   4   0   5   24.20    3.00
  -5   0  -5  277.27    8.80
  -5   0  -5  276.97    8.40
  -5   0  -5  282.57    9.30
   5   0   5  300.07    9.90
   5   0   5  278.67    8.70
  -6   0  -5  102.19    6.40
  -6   0  -5   98.79    6.00
   6   0   5  105.09    6.40
  -7   0  -5   22.50    3.80
  -7   0  -5   18.90    4.00
   7   0   5   24.60    4.30
   8  -1  -5   35.60    4.60
   8  -1  -5   31.60    4.80
  -8   1   5   36.10    4.10
  -8   1   5   30.00    3.70
   7  -1  -5  102.79    5.40
   7  -1  -5  108.99    6.40
   7  -1  -5  120.79    5.90
   7  -1  -5   98.49    5.40
  -7   1   5  105.49    5.50
  -7   1   5  110.59    5.40
   6  -1  -5   18.20    2.20
   6  -1  -5   15.70    2.30
   6  -1  -5   19.70    3.10
   6  -1  -5   19.00    2.20
  -6   1   5   18.00    2.70
  -6   1   5   15.00    2.30
   5  -1  -5  358.56    8.90
   5  -1  -5  363.16    9.30
   5  -1  -5  343.27    8.80
   5  -1  -5  372.06   10.50
  -5   1   5  342.07    9.30
  -5   1   5  341.17    9.50
  -5   1   5  353.36    9.00
   4  -1  -5  523.15   11.50
   4  -1  -5  512.55   11.40
   4  -1  -5  513.75   11.40
   4  -1  -5  524.65   12.70
  -4   1   5  513.05   11.30
  -4   1   5  491.45   11.80
  -4   1   5  493.25   11.70
  -4   1   5  491.95   11.50
   3  -1  -5  423.66   10.50
   3  -1  -5  428.46    9.70
   3  -1  -5  408.06    9.10
   3  -1  -5  428.56    9.70
  -3   1   5  444.26    9.70
  -3   1   5  434.46    9.90
  -3   1   5  441.76   10.00
  -3   1   5  439.56   10.10
   2  -1  -5  368.86    8.30
   2  -1  -5  364.86    8.30
   2  -1  -5  351.66    8.60
   2  -1  -5  367.56    8.60
  -2   1   5  365.36    8.50
  -2   1   5  366.16    8.40
  -2   1   5  370.16    8.50
   1  -1  -5    8.00    1.10
   1  -1  -5    9.70    1.20
   1  -1  -5    9.30    1.40
   1  -1  -5    8.60    1.20
  -1   1   5    8.50    1.30
  -1   1   5   10.10    1.40
  -1   1   5    8.30    1.20
   0  -1  -5  343.57    7.40
   0  -1  -5  338.17    7.40
   0  -1  -5  338.37    8.20
   0   1   5  355.16    8.20
   0   1   5  347.47    8.20
  -1  -1  -5  397.56    9.10
  -1  -1  -5  384.86    9.30
   1   1   5  402.56    9.30
   1   1   5  357.16    8.60
   1   1   5  399.46    9.20
  -2  -1  -5  351.66    9.00
  -2  -1  -5  341.67    8.60
   2   1   5  342.87    8.70
   2   1   5  362.96    9.00
   2   1   5  346.57    8.70
  -3  -1  -5  102.79    4.30
  -3  -1  -5  105.69    4.70
  -3  -1  -5  112.09    4.50
   3   1   5  104.99    4.50
   3   1   5  115.19    4.80
  -4  -1  -5  143.89    5.80
  -4  -1  -5  143.89    6.10
   4   1   5  149.69    5.90
   4   1   5  146.09    6.20
  -5  -1  -5  464.65   12.60
  -5  -1  -5  449.86   12.90
   5   1   5  471.85   13.40
   5   1   5  440.76   12.40
  -6  -1  -5   56.69    5.10
  -6  -1  -5   53.79    5.20
   6   1   5   54.29    5.50
   6   1   5   51.49    4.70
  -7  -1  -5    9.50    3.50
  -7  -1  -5   13.30    4.00
   7   1   5   18.20    4.00
   8  -2  -5  145.99    8.00
  -8   2   5  134.39    6.80
  -8   2   5  136.89    6.70
   7  -2  -5  138.69    7.30
   7  -2  -5  133.59    5.50
   7  -2  -5  144.69    5.60
  -7   2   5  134.69    6.30
  -7   2   5  142.29    6.30
   6  -2  -5  103.89    4.90
   6  -2  -5   91.89    5.60
   6  -2  -5   95.09    4.40
   6  -2  -5  103.39    4.50
  -6   2   5  105.59    5.00
  -6   2   5   92.39    4.80
  -6   2   5  102.49    4.70
   5  -2  -5   57.69    4.20
   5  -2  -5   58.79    3.30
   5  -2  -5   64.29    3.40
   5  -2  -5   67.59    3.60
  -5   2   5   53.39    3.50
  -5   2   5   59.99    3.60
  -5   2   5   60.29    3.50
   4  -2  -5  167.68    6.30
   4  -2  -5  169.68    5.20
   4  -2  -5  173.58    5.40
   4  -2  -5  167.58    5.30
  -4   2   5  169.38    5.60
  -4   2   5  162.18    5.50
  -4   2   5  173.68    5.70
   3  -2  -5  886.81   18.00
   3  -2  -5  794.82   17.10
   3  -2  -5  894.01   18.00
   3  -2  -5  882.81   18.80
  -3   2   5  860.21   18.20
  -3   2   5  892.01   18.30
  -3   2   5  900.41   18.40
   2  -2  -5  173.28    5.00
   2  -2  -5  168.78    5.20
   2  -2  -5  176.68    5.00
  -2   2   5  178.38    5.20
  -2   2   5  167.88    4.90
  -2   2   5  177.88    5.20
   1  -2  -5    9.90    1.30
   1  -2  -5    9.70    1.20
   1  -2  -5   10.40    1.40
   1  -2  -5    9.90    1.60
  -1   2   5   10.10    1.30
  -1   2   5   10.10    1.50
  -1   2   5   11.80    1.60
   0  -2  -5   92.39    3.00
   0  -2  -5   91.59    3.00
   0  -2  -5   94.99    3.70
   0   2   5   87.69    2.80
   0   2   5   94.19    3.60
   0   2   5   95.89    3.60
   0   2   5   96.49    3.80
  -1  -2  -5  593.04   13.30
  -1  -2  -5  581.64   12.80
   1   2   5  597.84   13.30
   1   2   5  555.64   12.40
   1   2   5  591.94   13.10
  -2  -2  -5  695.83   15.60
  -2  -2  -5  686.63   15.00
   2   2   5  673.63   15.10
   2   2   5  708.23   15.60
  -3  -2  -5   78.59    4.20
  -3  -2  -5   78.29    4.40
   3   2   5   78.69    4.10
   3   2   5   81.09    4.20
  -4  -2  -5  483.85   12.80
  -4  -2  -5  491.15   13.00
   4   2   5  489.75   13.00
   4   2   5  485.95   13.10
  -5  -2  -5  386.66   11.60
  -5  -2  -5  371.16   11.60
   5   2   5  373.96   11.50
   5   2   5  401.36   12.10
  -6  -2  -5   19.80    3.80
  -6  -2  -5   23.50    4.00
   6   2   5   24.70    4.10
   6   2   5   18.90    3.60
   8  -3  -5   71.69    6.60
  -8   3   5   65.79    5.40
  -8   3   5   66.09    5.10
   7  -3  -5   11.30    2.30
   7  -3  -5    6.90    2.10
   7  -3  -5   10.40    3.00
  -7   3   5    3.60    2.10
  -7   3   5    9.70    2.40
  -7   3   5    7.20    2.30
   6  -3  -5   39.00    4.40
   6  -3  -5   47.60    3.60
   6  -3  -5   36.30    3.20
  -6   3   5   47.40    3.80
  -6   3   5   42.80    3.80
  -6   3   5   32.40    3.20
   5  -3  -5  290.27   10.80
   5  -3  -5  270.07    8.00
   5  -3  -5  287.57    8.10
   5  -3  -5  282.77    9.40
  -5   3   5  280.07    8.40
  -5   3   5  287.57    8.20
  -5   3   5  265.17    8.20
   4  -3  -5  315.27    8.30
   4  -3  -5  304.17    9.20
   4  -3  -5  312.07    8.30
   4  -3  -5  314.77    8.00
  -4   3   5  309.67    8.60
  -4   3   5  308.97    8.60
  -4   3   5  312.37    8.40
   3  -3  -5  139.39    5.40
   3  -3  -5  141.59    4.80
   3  -3  -5  137.49    4.70
  -3   3   5  139.19    5.00
  -3   3   5  142.79    5.10
  -3   3   5  141.29    4.90
   2  -3  -5  200.98    5.70
   2  -3  -5  196.18    6.00
   2  -3  -5  207.08    5.80
  -2   3   5  204.08    5.70
  -2   3   5  203.08    6.10
  -2   3   5  209.38    6.20
  -2   3   5  208.68    6.10
   1  -3  -5  206.88    5.70
   1  -3  -5  208.88    5.70
   1  -3  -5  210.48    6.30
   1  -3  -5  207.88    5.70
  -1   3   5  218.38    6.20
  -1   3   5  216.28    6.30
  -1   3   5  212.88    6.00
   0  -3  -5    7.80    1.30
   0  -3  -5    4.00    1.10
   0  -3  -5    7.90    1.20
   0  -3  -5    5.70    1.40
   0   3   5    5.70    1.60
   0   3   5    8.40    1.50
   0   3   5    6.60    1.10
   0   3   5    6.50    1.40
  -1  -3  -5  225.58    6.50
  -1  -3  -5  219.48    6.90
   1   3   5  232.58    6.80
   1   3   5  225.58    6.80
   1   3   5  219.48    6.20
  -2  -3  -5  197.78    6.80
  -2  -3  -5  200.18    6.60
   2   3   5  207.78    6.40
   2   3   5  199.88    6.80
  -3  -3  -5  186.28    7.00
  -3  -3  -5  194.68    7.00
   3   3   5  204.28    7.10
   3   3   5  197.58    7.10
  -4  -3  -5  279.87    9.50
  -4  -3  -5  289.47    9.50
   4   3   5  298.17    9.80
   4   3   5  290.67    9.70
  -5  -3  -5   33.40    4.30
  -5  -3  -5   21.20    3.70
   5   3   5   28.40    4.10
   5   3   5   26.80    3.90
  -6  -3  -5   15.40    3.70
  -6  -3  -5   11.10    3.50
   6   3   5   13.50    3.70
   8  -4  -5   16.40    3.10
   8  -4  -5   18.60    3.10
   8  -4  -5   19.50    4.20
  -8   4   5   16.30    3.20
  -8   4   5   16.40    3.30
   7  -4  -5    0.40    1.90
   7  -4  -5   -2.10    2.70
   7  -4  -5    0.00    2.00
  -7   4   5    0.60    1.80
  -7   4   5   -0.10    2.10
  -7   4   5   -1.90    1.90
   6  -4  -5   60.19    5.30
   6  -4  -5   52.59    4.20
   6  -4  -5   56.19    4.20
  -6   4   5   53.99    4.00
  -6   4   5   48.90    4.30
  -6   4   5   48.40    4.20
   5  -4  -5  222.08    7.20
   5  -4  -5  225.88    8.50
   5  -4  -5  216.58    7.10
  -5   4   5  211.78    7.50
  -5   4   5  223.58    7.30
  -5   4   5  227.88    7.70
   4  -4  -5  105.79    4.60
   4  -4  -5  109.69    4.70
   4  -4  -5   96.19    5.20
  -4   4   5  107.49    4.90
  -4   4   5  100.69    4.90
  -4   4   5  105.09    4.60
   3  -4  -5   48.80    3.20
   3  -4  -5   57.09    3.30
   3  -4  -5   47.80    3.60
  -3   4   5   52.19    3.50
  -3   4   5   44.80    3.40
  -3   4   5   50.49    3.20
   2  -4  -5  128.59    5.00
   2  -4  -5  129.99    4.90
   2  -4  -5  125.09    4.60
   2  -4  -5  130.39    4.70
  -2   4   5  126.99    5.00
  -2   4   5  121.99    4.70
  -2   4   5  133.99    4.50
  -2   4   5  129.59    5.00
   1  -4  -5  318.77    8.10
   1  -4  -5  320.97    8.00
   1  -4  -5  321.27    8.30
   1  -4  -5  317.47    8.80
  -1   4   5  324.97    8.90
  -1   4   5  328.47    8.50
  -1   4   5  324.97    8.60
   0  -4  -5   77.99    3.90
   0  -4  -5   69.49    3.20
   0  -4  -5   77.99    3.30
   0  -4  -5   79.09    3.50
   0   4   5   75.89    4.10
   0   4   5   74.29    3.90
   0   4   5   74.69    3.30
   0   4   5   70.39    3.70
  -1  -4  -5   36.50    3.40
  -1  -4  -5   36.80    3.10
   1   4   5   35.30    2.70
   1   4   5   36.80    3.20
   1   4   5   47.00    3.40
  -2  -4  -5   14.50    2.60
  -2  -4  -5   15.50    2.50
   2   4   5   19.30    2.50
   2   4   5   17.90    2.70
  -3  -4  -5   94.89    5.40
  -3  -4  -5   98.99    5.50
   3   4   5  113.29    5.40
   3   4   5  110.79    5.70
  -4  -4  -5   74.79    5.60
  -4  -4  -5   83.69    5.70
   4   4   5   87.49    5.40
   4   4   5   90.19    5.70
  -5  -4  -5    3.60    3.00
  -5  -4  -5    5.20    3.20
   5   4   5    4.70    2.60
   5   4   5    3.50    2.60
   7  -5  -5   -2.00    2.20
   7  -5  -5   -1.60    2.80
   7  -5  -5    1.70    2.30
  -7   5   5    1.10    2.40
  -7   5   5    0.40    2.40
   6  -5  -5   81.69    5.10
   6  -5  -5   84.89    6.30
   6  -5  -5   79.49    5.10
  -6   5   5   66.89    5.10
  -6   5   5   85.19    5.50
  -6   5   5   77.29    5.00
   5  -5  -5   31.70    3.30
   5  -5  -5   29.90    3.20
   5  -5  -5   41.40    4.70
  -5   5   5   38.90    3.50
  -5   5   5   38.60    3.80
  -5   5   5   33.50    3.70
   4  -5  -5    9.00    2.20
   4  -5  -5   12.00    2.20
   4  -5  -5    7.80    2.50
  -4   5   5    7.20    2.20
  -4   5   5    3.10    1.70
  -4   5   5    8.30    2.30
   3  -5  -5    1.00    1.60
   3  -5  -5    3.60    1.70
   3  -5  -5    2.70    2.00
  -3   5   5    2.00    1.50
  -3   5   5    2.80    1.90
  -3   5   5   -1.00    1.70
   2  -5  -5  160.58    5.70
   2  -5  -5  169.08    5.80
   2  -5  -5  182.68    6.40
  -2   5   5  172.38    6.30
  -2   5   5  179.78    6.40
  -2   5   5  179.48    6.10
  -2   5   5  172.18    5.70
   1  -5  -5  292.57    8.70
   1  -5  -5  298.07    7.90
   1  -5  -5  299.67    8.40
   1  -5  -5  299.07    7.90
  -1   5   5  299.67    8.40
  -1   5   5  307.27    8.60
  -1   5   5  292.27    8.80
   0  -5  -5   16.40    2.30
   0  -5  -5   15.80    2.00
   0  -5  -5   15.80    2.10
   0   5   5   12.00    2.60
   0   5   5   19.00    2.50
   0   5   5   18.90    2.60
  -1  -5  -5   47.70    3.50
  -1  -5  -5   55.19    4.10
   1   5   5   48.80    3.80
   1   5   5   52.79    4.10
   1   5   5   51.69    3.50
  -2  -5  -5   84.09    5.10
  -2  -5  -5   83.39    5.20
   2   5   5   89.49    5.40
   2   5   5   77.19    4.50
  -3  -5  -5   71.49    5.40
  -3  -5  -5   64.09    5.20
   3   5   5   68.09    4.80
   3   5   5   70.99    5.30
  -4  -5  -5    9.60    3.30
  -4  -5  -5   12.70    3.30
   4   5   5    9.10    3.00
   4   5   5   11.60    3.30
   7  -6  -5  105.89    6.40
   7  -6  -5   87.19    7.50
   7  -6  -5  107.79    6.40
  -7   6   5  104.29    6.60
  -7   6   5  102.39    6.80
   6  -6  -5   83.69    5.40
   6  -6  -5   68.99    5.20
   6  -6  -5   85.29    6.60
  -6   6   5   75.99    5.70
  -6   6   5   70.29    5.70
   5  -6  -5  100.99    6.60
   5  -6  -5  103.39    5.60
   5  -6  -5   93.79    5.50
  -5   6   5   94.49    5.70
  -5   6   5  108.59    6.10
  -5   6   5  105.79    6.10
   4  -6  -5  160.78    6.40
   4  -6  -5  151.68    7.30
   4  -6  -5  155.08    6.30
  -4   6   5  143.69    6.00
  -4   6   5  156.28    6.80
  -4   6   5  146.09    6.60
   3  -6  -5   69.89    4.40
   3  -6  -5   65.09    4.80
   3  -6  -5   78.49    4.50
  -3   6   5   67.69    4.70
  -3   6   5   64.09    4.10
  -3   6   5   73.29    4.90
   2  -6  -5   77.49    4.40
   2  -6  -5   88.99    4.90
   2  -6  -5   84.39    4.50
  -2   6   5   86.99    5.00
  -2   6   5   75.99    4.80
  -2   6   5   77.99    4.40
   1  -6  -5    1.60    1.60
   1  -6  -5    0.40    1.50
   1  -6  -5    2.20    2.00
  -1   6   5    3.70    2.10
  -1   6   5   -0.20    1.90
  -1   6   5    1.40    1.70
   0  -6  -5  113.49    5.40
   0  -6  -5   97.99    5.40
   0   6   5  124.89    5.80
   0   6   5  117.79    5.50
  -1  -6  -5  257.87    8.80
  -1  -6  -5  255.47    8.80
   1   6   5  286.87    9.50
  -2  -6  -5   46.50    4.60
  -2  -6  -5   47.40    4.60
   2   6   5   50.49    4.90
  -3  -6  -5   51.39    4.90
  -3  -6  -5   43.70    4.90
   3   6   5   44.60    5.10
  -4  -6  -5    0.40    3.20
   4   6   5   -2.00    2.60
   4   6   5    0.10    3.60
   6  -7  -5  125.09    6.90
   6  -7  -5  121.59    6.70
   6  -7  -5  111.79    7.90
  -6   7   5  115.19    7.10
  -6   7   5  118.99    7.20
   5  -7  -5   72.19    5.40
   5  -7  -5   65.79    6.20
   5  -7  -5   77.79    5.40
  -5   7   5   66.69    5.70
  -5   7   5   65.99    5.70
   4  -7  -5    4.80    2.50
   4  -7  -5    5.90    2.50
   4  -7  -5    5.00    3.00
  -4   7   5    6.60    2.80
  -4   7   5    0.20    2.40
   3  -7  -5   53.79    4.30
   3  -7  -5   59.49    5.20
   3  -7  -5   55.79    4.50
  -3   7   5   44.90    4.50
  -3   7   5   53.09    4.50
  -3   7   5   54.39    4.80
   2  -7  -5    1.30    1.90
   2  -7  -5    4.00    2.10
   2  -7  -5    3.80    2.40
  -2   7   5    0.10    2.10
  -2   7   5    1.60    2.30
  -2   7   5   -0.80    1.80
   1  -7  -5   65.39    4.30
   1  -7  -5   79.89    5.30
   1  -7  -5   67.39    4.30
  -1   7   5   67.89    5.10
  -1   7   5   73.99    5.40
  -1   7   5   61.89    4.40
   0  -7  -5   17.40    3.10
   0   7   5   23.30    3.40
   0   7   5   21.90    3.20
  -1  -7  -5   50.79    4.50
  -1  -7  -5   56.89    5.00
   1   7   5   65.19    5.60
  -2  -7  -5   35.60    4.70
   2   7   5   37.70    4.80
   5  -8  -5    0.50    2.70
   5  -8  -5    0.70    2.90
   5  -8  -5    2.20    3.30
  -5   8   5    3.90    3.10
  -5   8   5   -1.80    2.80
   4  -8  -5   10.40    3.10
   4  -8  -5    9.60    3.00
   4  -8  -5    9.40    3.60
  -4   8   5    9.60    3.30
  -4   8   5    8.40    3.00
   3  -8  -5   17.30    3.30
   3  -8  -5   15.70    3.70
   3  -8  -5   12.50    3.00
  -3   8   5   11.50    3.20
  -3   8   5   14.80    3.20
   2  -8  -5    1.50    2.20
   2  -8  -5   -1.40    2.20
  -2   8   5    2.50    2.60
  -2   8   5   -0.70    2.60
   1  -8  -5    5.20    2.70
   0  -8  -5   23.80    3.70
   0   8   5   22.90    4.00
  -1  -8  -5   25.10    3.90
   1   8   5   15.30    3.70
   0  10  -6   38.50    4.10
   0  10  -6   37.40    4.80
   0  10  -6   37.80    4.00
   0 -10   6   29.80    4.80
  -1  10  -6    5.40    2.70
  -1  10  -6    7.20    2.80
  -1  10  -6    7.10    3.30
   1 -10   6    2.10    3.00
  -2  10  -6    7.20    2.90
  -2  10  -6    7.00    2.80
  -2  10  -6    4.30    3.30
   2 -10   6    8.30    3.50
   2   9  -6   22.80    3.90
   2   9  -6   15.80    3.60
   2   9  -6   18.50    3.40
   2   9  -6   22.80    3.60
  -2  -9   6   24.50    4.20
   1   9  -6   67.49    5.50
   1   9  -6   69.99    5.70
   1   9  -6   62.79    4.60
   1   9  -6   70.19    4.60
  -1  -9   6   67.79    5.40
   0   9  -6    2.70    2.30
   0   9  -6    5.50    2.80
   0   9  -6    0.50    2.10
   0  -9   6    5.00    2.70
  -1   9  -6    4.30    2.30
  -1   9  -6    6.10    2.40
  -1   9  -6    4.90    2.70
   1  -9   6    4.00    2.80
  -2   9  -6  181.88    7.20
  -2   9  -6  176.38    8.50
  -2   9  -6  187.88    7.20
  -2   9  -6  194.08    8.10
   2  -9   6  204.48    9.10
  -3   9  -6   66.79    4.80
  -3   9  -6   69.49    6.00
  -3   9  -6   59.49    5.60
  -3   9  -6   73.39    5.00
   3  -9   6   62.69    6.10
  -4   9  -6   81.69    5.40
  -4   9  -6   74.59    6.40
  -4   9  -6   74.09    5.30
   4  -9   6   75.49    6.50
   4  -9   6   77.79    6.70
   4   8  -6   66.19    6.00
   4   8  -6   53.99    5.70
  -4  -8   6   52.69    5.90
   3   8  -6   56.59    5.10
   3   8  -6   66.19    5.60
  -3  -8   6   66.69    5.80
   2   8  -6  125.69    5.30
   2   8  -6  111.89    6.20
   2   8  -6  106.19    6.40
   2   8  -6  116.09    5.20
  -2  -8   6  117.09    6.60
   1   8  -6   81.29    5.50
   1   8  -6   91.59    5.70
   1   8  -6   94.89    4.60
   1   8  -6   94.79    4.80
  -1  -8   6   93.49    5.50
   0   8  -6   38.20    3.40
   0   8  -6   35.50    3.30
   0   8  -6   37.00    4.00
   0  -8   6   32.50    3.60
   0  -8   6   33.70    4.00
  -1   8  -6  329.57    9.90
  -1   8  -6  329.67    9.30
  -1   8  -6  325.77   10.70
  -1   8  -6  313.67    9.20
   1  -8   6  333.57   10.90
  -2   8  -6  310.97    9.80
  -2   8  -6  294.87    8.70
  -2   8  -6  307.77    8.90
  -2   8  -6  276.07   10.10
   2  -8   6  284.67   10.40
  -3   8  -6  204.08    7.30
  -3   8  -6  209.18    7.30
  -3   8  -6  209.98    8.50
   3  -8   6  226.48    9.30
  -4   8  -6  135.89    7.30
  -4   8  -6  131.49    5.90
  -4   8  -6  126.09    5.70
   4  -8   6  128.39    7.30
   4  -8   6  127.19    7.60
  -5   8  -6   19.30    4.00
  -5   8  -6   11.00    2.90
  -5   8  -6   16.60    3.00
   5  -8   6   17.10    4.10
   5  -8   6   18.00    3.70
   5   7  -6    8.00    3.10
   5   7  -6    4.10    2.90
  -5  -7   6    6.20    3.20
   4   7  -6   21.30    4.00
   4   7  -6   11.30    3.10
  -4  -7   6   19.10    3.80
   3   7  -6   95.89    5.70
   3   7  -6  103.29    4.60
   3   7  -6  101.29    6.00
   3   7  -6  102.39    4.60
  -3  -7   6  104.79    6.10
   2   7  -6   90.99    5.30
   2   7  -6   91.59    5.50
   2   7  -6   89.99    4.30
   2   7  -6   94.69    4.40
  -2  -7   6   89.69    5.40
   1   7  -6    3.50    1.60
   1   7  -6    5.30    2.10
   1   7  -6    5.60    2.10
   1   7  -6    5.90    1.80
  -1  -7   6    1.20    2.10
   0   7  -6   51.69    3.50
   0   7  -6   47.10    4.00
   0   7  -6   51.29    3.80
   0   7  -6   49.10    3.40
   0  -7   6   46.70    4.00
   0  -7   6   51.79    3.80
  -1   7  -6  338.37   10.40
  -1   7  -6  342.27    9.10
  -1   7  -6  347.77    9.20
  -1   7  -6  347.37    9.90
   1  -7   6  340.77   10.50
  -2   7  -6  134.29    5.30
  -2   7  -6  122.09    6.20
  -2   7  -6  138.29    5.40
  -2   7  -6  129.19    6.10
   2  -7   6  128.19    6.30
  -3   7  -6   29.30    3.00
  -3   7  -6   36.40    3.90
  -3   7  -6   35.90    4.00
  -3   7  -6   37.30    3.20
   3  -7   6   31.00    3.90
  -4   7  -6  105.09    6.30
  -4   7  -6   96.19    4.80
  -4   7  -6  104.99    4.90
   4  -7   6  106.19    6.20
   4  -7   6  112.79    6.60
  -5   7  -6   99.99    5.20
  -5   7  -6   92.09    5.10
  -5   7  -6  111.19    6.70
   5  -7   6  109.79    7.10
   5  -7   6  104.19    6.50
  -6   7  -6    7.50    3.30
   6  -7   6    2.40    3.20
   6  -7   6    3.10    3.30
   6   6  -6   51.59    5.70
   6   6  -6   46.20    5.20
  -6  -6   6   48.20    5.60
  -6  -6   6   63.69    5.80
   5   6  -6   29.20    4.00
   5   6  -6   25.70    4.00
  -5  -6   6   21.30    3.80
  -5  -6   6   32.90    4.10
   4   6  -6   35.00    3.90
   4   6  -6   42.40    4.50
  -4  -6   6   47.60    4.10
  -4  -6   6   48.40    4.80
   3   6  -6    3.20    1.90
   3   6  -6    4.40    2.10
   3   6  -6    3.60    1.50
   3   6  -6    4.60    1.40
  -3  -6   6    3.90    1.80
  -3  -6   6    1.50    1.90
   2   6  -6   75.99    3.70
   2   6  -6   79.49    4.70
   2   6  -6   81.39    3.70
   2   6  -6   75.99    4.50
  -2  -6   6   77.59    4.70
   1   6  -6   64.69    3.40
   1   6  -6   69.99    3.50
   1   6  -6   67.19    4.10
   1   6  -6   68.39    4.20
  -1  -6   6   65.49    4.10
   0   6  -6   16.10    2.00
   0   6  -6   18.80    2.70
   0   6  -6   19.30    2.10
   0   6  -6   18.10    2.30
   0  -6   6   14.90    2.20
   0  -6   6   17.30    2.60
  -1   6  -6   84.19    3.80
  -1   6  -6   79.39    4.50
  -1   6  -6   92.49    4.60
  -1   6  -6   87.39    3.90
   1  -6   6   83.29    4.50
   1  -6   6   86.79    4.00
  -2   6  -6   48.70    3.90
  -2   6  -6   47.80    3.20
  -2   6  -6   58.89    3.30
  -2   6  -6   55.59    4.10
   2  -6   6   46.50    3.80
  -3   6  -6   66.39    3.60
  -3   6  -6   58.49    4.20
  -3   6  -6   64.79    4.70
  -3   6  -6   61.79    3.60
   3  -6   6   56.49    4.40
  -4   6  -6  106.69    6.00
  -4   6  -6   99.09    4.60
  -4   6  -6   91.89    5.10
  -4   6  -6  107.89    4.80
   4  -6   6  115.29    6.30
   4  -6   6   92.59    5.40
  -5   6  -6  127.99    6.80
  -5   6  -6  109.89    6.00
  -5   6  -6  115.79    5.10
  -5   6  -6  115.79    5.10
   5  -6   6  115.09    6.40
   5  -6   6  116.79    7.00
  -6   6  -6  113.89    6.90
  -6   6  -6  133.29    7.00
   6  -6   6  113.09    7.40
   6   5  -6   45.70    4.80
   6   5  -6   44.50    5.20
  -6  -5   6   52.69    5.30
  -6  -5   6   42.70    5.00
   5   5  -6  252.17    9.00
   5   5  -6  229.78    9.30
  -5  -5   6  254.67    8.80
  -5  -5   6  258.07    9.30
   4   5  -6  165.48    5.50
   4   5  -6  169.88    7.20
   4   5  -6  167.98    6.80
   4   5  -6  167.28    5.40
  -4  -5   6  163.18    6.90
  -4  -5   6  177.48    6.50
   3   5  -6   76.09    3.50
   3   5  -6   70.59    4.20
   3   5  -6   72.69    4.40
   3   5  -6   72.19    3.40
  -3  -5   6   63.09    4.20
  -3  -5   6   76.99    4.00
   2   5  -6  251.17    6.60
   2   5  -6  231.38    7.80
   2   5  -6  248.98    6.60
   2   5  -6  233.08    7.50
  -2  -5   6  256.17    6.90
  -2  -5   6  254.97    7.80
   1   5  -6  132.99    5.10
   1   5  -6  135.19    4.50
   1   5  -6  130.29    4.40
   1   5  -6  127.89    5.20
  -1  -5   6  137.19    5.20
   0   5  -6  625.24   13.50
   0   5  -6  634.34   13.60
   0   5  -6  617.04   14.70
   0   5  -6  641.24   14.00
   0  -5   6  638.64   14.60
   0  -5   6  623.44   14.20
  -1   5  -6  493.25   11.20
  -1   5  -6  503.65   12.00
  -1   5  -6  493.85   11.20
  -1   5  -6  485.65   12.30
   1  -5   6  512.75   12.50
   1  -5   6  496.35   11.40
  -2   5  -6   75.09    3.50
  -2   5  -6   73.59    4.10
  -2   5  -6   80.29    4.30
  -2   5  -6   71.49    3.40
  -2   5  -6   81.99    3.50
   2  -5   6   77.79    4.20
  -3   5  -6   46.90    3.40
  -3   5  -6   54.69    3.20
  -3   5  -6   50.49    4.00
  -3   5  -6   52.79    3.10
   3  -5   6   46.60    3.50
   3  -5   6   59.99    4.00
  -4   5  -6    8.90    1.90
  -4   5  -6    7.70    2.40
  -4   5  -6    3.80    1.50
  -4   5  -6    4.10    2.20
   4  -5   6    4.40    2.10
   4  -5   6    5.50    1.90
  -5   5  -6   32.80    2.90
  -5   5  -6   42.50    3.20
  -5   5  -6   38.10    4.10
  -5   5  -6   40.40    4.20
   5  -5   6   47.60    5.10
   5  -5   6   37.10    4.20
  -6   5  -6  148.29    7.60
  -6   5  -6  147.89    7.40
   6  -5   6  139.99    7.90
  -7   5  -6  217.58    9.40
  -7   5  -6  224.28    9.90
   7  -5   6  218.98   10.20
   7   4  -6    9.20    2.80
   7   4  -6    7.50    3.10
  -7  -4   6   10.60    3.30
  -7  -4   6    8.10    3.00
   6   4  -6  110.79    6.00
   6   4  -6  104.69    6.20
  -6  -4   6  103.29    6.00
  -6  -4   6   96.79    5.90
   5   4  -6  747.73   18.80
   5   4  -6  750.72   18.20
  -5  -4   6  748.03   18.40
  -5  -4   6  757.72   18.10
   4   4  -6  270.37    8.80
   4   4  -6  256.17    7.00
   4   4  -6  266.57    8.20
   4   4  -6  263.97    7.00
  -4  -4   6  243.98    7.90
  -4  -4   6  260.07    8.50
   3   4  -6   17.60    1.80
   3   4  -6   22.40    2.00
   3   4  -6   22.70    2.90
   3   4  -6   19.00    2.40
  -3  -4   6   25.30    2.90
  -3  -4   6   22.20    2.50
   2   4  -6    1.20    1.00
   2   4  -6    0.10    1.00
   2   4  -6   -0.40    1.00
   2   4  -6    0.00    1.00
  -2  -4   6    1.30    1.00
  -2  -4   6    0.40    1.20
   1   4  -6  138.19    4.40
   1   4  -6  136.99    4.80
   1   4  -6  139.29    5.10
   1   4  -6  144.39    4.40
  -1  -4   6  139.99    4.00
  -1  -4   6  141.79    5.00
   0   4  -6  648.44   13.70
   0   4  -6  640.54   14.60
   0   4  -6  665.93   14.20
   0   4  -6  651.43   13.70
   0  -4   6  662.43   14.40
   0  -4   6  658.63   14.50
  -1   4  -6  116.09    3.80
  -1   4  -6  111.59    4.30
  -1   4  -6   98.29    4.20
  -1   4  -6  110.99    3.80
   1  -4   6  105.39    3.90
   1  -4   6  116.09    4.50
  -2   4  -6  356.36    8.30
  -2   4  -6  347.87    8.30
  -2   4  -6  347.77    9.20
  -2   4  -6  324.87    8.80
  -2   4  -6  342.17    8.50
   2  -4   6  365.36    9.60
  -3   4  -6  134.09    4.40
  -3   4  -6  131.09    5.10
  -3   4  -6  125.09    5.40
  -3   4  -6  127.79    4.40
   3  -4   6  123.69    4.90
   3  -4   6  143.09    5.70
  -4   4  -6   26.20    3.10
  -4   4  -6   24.80    2.20
  -4   4  -6   27.00    2.30
  -4   4  -6   25.70    3.10
   4  -4   6   27.80    2.90
   4  -4   6   28.20    3.40
  -5   4  -6    7.30    2.70
  -5   4  -6    8.80    2.60
   5  -4   6    5.50    2.50
  -6   4  -6   10.80    3.10
  -6   4  -6   16.30    3.60
   6  -4   6    9.20    3.10
  -7   4  -6  169.08    8.90
  -7   4  -6  155.78    8.00
   7  -4   6  147.79    8.50
   7   3  -6    1.00    2.00
   7   3  -6    0.30    2.30
  -7  -3   6    0.60    2.20
  -7  -3   6   -1.00    1.90
   6   3  -6   15.10    2.60
   6   3  -6   13.50    3.20
  -6  -3   6   15.00    2.80
  -6  -3   6   26.20    3.60
   5   3  -6   56.69    4.40
   5   3  -6   50.09    3.10
   5   3  -6   53.29    3.80
   5   3  -6   49.60    3.00
  -5  -3   6   53.59    4.00
  -5  -3   6   59.49    4.10
   4   3  -6   22.20    2.90
   4   3  -6   20.40    2.00
   4   3  -6   18.70    1.90
   4   3  -6   25.60    2.70
  -4  -3   6   16.70    2.50
  -4  -3   6   21.80    2.70
   3   3  -6   52.69    2.70
   3   3  -6   52.79    3.40
   3   3  -6   50.99    2.70
   3   3  -6   54.49    3.00
  -3  -3   6   52.49    3.30
  -3  -3   6   57.09    3.20
   2   3  -6   25.30    2.50
   2   3  -6   19.20    1.80
   2   3  -6   17.40    1.70
   2   3  -6   22.40    1.90
  -2  -3   6   20.20    1.90
  -2  -3   6   15.90    2.00
   1   3  -6   83.19    3.60
   1   3  -6   82.19    3.10
   1   3  -6   82.09    3.10
   1   3  -6   87.99    3.30
   1   3  -6   77.79    3.10
  -1  -3   6   80.09    2.80
  -1  -3   6   87.19    3.50
   0   3  -6  125.39    3.90
   0   3  -6  131.09    3.90
   0   3  -6  131.39    4.30
   0   3  -6  122.19    4.30
   0  -3   6  129.89    4.20
   0  -3   6  127.09    4.30
  -1   3  -6   38.40    2.10
  -1   3  -6   37.00    2.10
  -1   3  -6   36.90    2.50
  -1   3  -6   35.40    2.30
  -1   3  -6   38.60    2.10
   1  -3   6   37.30    2.30
   1  -3   6   40.30    2.40
  -2   3  -6   29.40    2.40
  -2   3  -6   26.50    2.00
  -2   3  -6   25.90    2.10
  -2   3  -6   28.30    2.60
  -2   3  -6   27.90    2.00
   2  -3   6   27.30    2.20
   2  -3   6   30.60    2.50
  -3   3  -6  358.76    9.70
  -3   3  -6  364.36    9.50
  -3   3  -6  355.16    8.20
   3  -3   6  349.57    8.80
   3  -3   6  371.16   10.10
  -4   3  -6  525.45   13.20
  -4   3  -6  507.35   13.10
   4  -3   6  515.55   13.70
  -5   3  -6    1.10    2.30
  -5   3  -6    3.20    2.00
   5  -3   6    2.00    2.00
  -6   3  -6    0.50    2.30
  -6   3  -6    2.20    2.80
   6  -3   6   -0.40    2.20
  -7   3  -6   35.40    4.90
  -7   3  -6   27.80    4.80
   7  -3   6   23.70    4.50
   7   2  -6   21.20    3.30
   7   2  -6   21.90    3.70
  -7  -2   6   22.30    3.40
  -7  -2   6   26.00    3.70
   6   2  -6   67.99    4.40
   6   2  -6   67.59    5.10
  -6  -2   6   61.89    4.40
  -6  -2   6   61.49    4.20
   5   2  -6   81.89    4.90
   5   2  -6   80.89    4.10
   5   2  -6   82.89    3.60
   5   2  -6   70.99    3.40
  -5  -2   6   80.69    4.40
  -5  -2   6   73.59    4.10
   4   2  -6  271.77    7.00
   4   2  -6  266.77    8.40
   4   2  -6  261.67    7.00
   4   2  -6  272.77    7.50
  -4  -2   6  265.27    7.90
  -4  -2   6  271.87    6.80
  -4  -2   6  272.07    7.80
   3   2  -6  266.77    7.80
   3   2  -6  273.67    6.80
   3   2  -6  276.57    7.10
   3   2  -6  266.57    6.80
  -3  -2   6  272.47    7.30
  -3  -2   6  254.47    7.40
   2   2  -6  382.26    8.80
   2   2  -6  386.06    8.70
   2   2  -6  392.16    9.50
   2   2  -6  374.66    8.60
  -2  -2   6  396.46    9.00
  -2  -2   6  392.46    9.50
   1   2  -6   86.19    3.00
   1   2  -6   82.29    3.00
   1   2  -6   82.69    2.80
   1   2  -6   81.59    3.20
   1   2  -6   80.59    3.20
  -1  -2   6   84.29    3.40
  -1  -2   6   83.99    2.90
   0   2  -6   24.70    2.10
   0   2  -6   25.50    1.60
   0   2  -6   20.10    1.60
   0   2  -6   21.90    1.70
   0   2  -6   21.20    1.70
   0  -2   6   23.90    1.60
   0  -2   6   23.10    1.90
   0  -2   6   21.90    1.50
  -1   2  -6   35.50    2.00
  -1   2  -6   34.60    2.50
  -1   2  -6   37.90    2.00
  -1   2  -6   35.60    2.20
   1  -2   6   37.10    2.30
   1  -2   6   36.80    2.20
  -2   2  -6   48.20    2.30
  -2   2  -6   52.99    3.10
  -2   2  -6   52.39    2.90
  -2   2  -6   54.19    2.30
   2  -2   6   52.09    2.80
   2  -2   6   60.99    3.10
   2  -2   6   46.10    2.20
  -3   2  -6    8.40    1.50
  -3   2  -6    8.40    1.80
  -3   2  -6    9.20    1.90
   3  -2   6    9.60    1.60
   3  -2   6    7.50    1.90
  -4   2  -6    5.20    2.00
  -4   2  -6    3.50    1.50
  -4   2  -6    3.80    1.80
   4  -2   6    3.10    1.50
   4  -2   6    2.00    1.60
  -5   2  -6   13.70    3.00
  -5   2  -6   14.80    2.90
  -5   2  -6   14.30    2.60
   5  -2   6   15.20    3.00
  -6   2  -6   35.60    4.60
  -6   2  -6   34.30    3.70
   6  -2   6   35.30    4.50
  -7   2  -6    6.90    3.50
   7  -2   6    2.30    3.00
   8   1  -6   58.79    5.80
   8   1  -6   45.40    7.00
  -8  -1   6   55.09    5.40
   7   1  -6  156.78    6.90
   7   1  -6  146.59    7.50
  -7  -1   6  150.08    6.90
   6   1  -6  159.58    6.30
   6   1  -6  153.28    5.40
   6   1  -6  162.38    5.50
   6   1  -6  149.79    7.00
  -6  -1   6  150.98    6.00
  -6  -1   6  162.18    5.80
  -6  -1   6  162.68    6.50
   5   1  -6  154.98    5.20
   5   1  -6  157.58    5.70
   5   1  -6  151.08    5.10
   5   1  -6  162.88    6.60
  -5  -1   6  158.08    5.90
  -5  -1   6  159.18    5.70
  -5  -1   6  160.28    5.30
   4   1  -6    4.00    1.30
   4   1  -6    5.20    1.30
   4   1  -6    6.30    1.80
   4   1  -6    5.00    1.40
  -4  -1   6    4.20    1.40
  -4  -1   6    4.70    1.20
  -4  -1   6    6.30    1.60
   3   1  -6  136.09    4.30
   3   1  -6  127.49    3.90
   3   1  -6  128.79    4.90
   3   1  -6  136.39    4.30
  -3  -1   6  134.69    4.60
  -3  -1   6  123.09    3.90
  -3  -1   6  134.19    4.60
   2   1  -6    1.00    0.50
   2   1  -6    1.30    0.80
   2   1  -6   -0.40    0.90
   2   1  -6    0.70    0.90
   2   1  -6    0.50    0.90
  -2  -1   6    0.50    0.80
  -2  -1   6    1.70    0.80
  -2  -1   6    1.00    0.80
   1   1  -6  117.89    3.90
   1   1  -6  117.39    3.60
   1   1  -6  112.99    3.60
   1   1  -6  121.49    3.60
  -1  -1   6  115.49    3.00
  -1  -1   6  114.49    3.60
  -1  -1   6  119.69    3.70
  -1  -1   6  120.09    4.00
   0   1  -6  159.98    4.90
   0   1  -6  160.38    4.30
   0   1  -6  159.88    4.10
   0   1  -6  162.48    4.30
   0   1  -6  166.68    4.70
   0  -1   6  160.58    4.50
   0  -1   6  164.88    4.90
   0  -1   6  155.38    4.10
  -1   1  -6  711.73   14.80
  -1   1  -6  701.23   15.10
  -1   1  -6  710.63   14.10
  -1   1  -6  715.43   14.10
   1  -1   6  725.23   15.10
   1  -1   6  682.63   14.60
  -2   1  -6  240.98    6.80
  -2   1  -6  242.38    6.80
   2  -1   6  238.98    6.70
   2  -1   6  232.68    6.30
   2  -1   6  239.68    6.70
  -3   1  -6   27.60    2.40
  -3   1  -6   26.20    2.60
  -3   1  -6   23.80    2.60
   3  -1   6   27.70    2.60
   3  -1   6   22.90    2.60
  -4   1  -6   54.49    3.70
  -4   1  -6   57.79    4.20
  -4   1  -6   51.49    3.70
   4  -1   6   51.39    3.30
   4  -1   6   55.29    4.10
  -5   1  -6   64.39    4.40
  -5   1  -6   57.29    4.90
  -5   1  -6   58.69    4.20
   5  -1   6   65.09    4.80
   5  -1   6   64.59    4.10
  -6   1  -6  210.38    9.00
  -6   1  -6  199.78    8.00
   6  -1   6  208.38    8.90
  -7   1  -6   34.40    4.90
   7  -1   6   43.10    5.30
   8   0  -6    2.60    2.80
  -8   0   6   -1.10    2.00
  -8   0   6    1.30    2.10
   7   0  -6   50.59    6.50
   7   0  -6   58.59    5.20
  -7   0   6   59.99    4.20
  -7   0   6   60.29    4.50
   6   0  -6  140.29    5.30
   6   0  -6  151.78    7.00
   6   0  -6  149.19    5.70
   6   0  -6  141.49    5.30
  -6   0   6  147.19    5.70
  -6   0   6  138.99    6.00
  -6   0   6  143.59    5.60
   5   0  -6   98.79    4.10
   5   0  -6  105.09    4.30
   5   0  -6  108.49    5.30
   5   0  -6   98.89    4.10
  -5   0   6  100.39    4.20
  -5   0   6   94.09    4.20
  -5   0   6  102.69    4.70
   4   0  -6  342.47    8.40
   4   0  -6  348.37    8.60
   4   0  -6  344.67    8.50
   4   0  -6  349.47    9.70
  -4   0   6  339.37    8.60
  -4   0   6  339.47    9.00
  -4   0   6  340.97    8.70
   3   0  -6  267.87    6.30
   3   0  -6  272.57    7.00
   3   0  -6  268.07    7.60
   3   0  -6  272.27    7.00
   3   0  -6  271.67    7.00
  -3   0   6  267.67    6.90
  -3   0   6  270.07    7.30
  -3   0   6  288.47    7.30
   2   0  -6  690.03   14.50
   2   0  -6  688.63   14.20
   2   0  -6  682.43   14.20
   2   0  -6  658.23   14.50
  -2   0   6  699.73   14.70
  -2   0   6  667.53   14.20
  -2   0   6  692.93   14.50
   1   0  -6  667.43   14.20
   1   0  -6  650.83   13.50
   1   0  -6  681.33   13.70
   1   0  -6  668.33   13.70
  -1   0   6  683.83   14.10
  -1   0   6  671.43   14.10
  -1   0   6  667.83   14.30
   0   0  -6  334.67    7.50
   0   0  -6  336.67    8.20
   0   0  -6  342.57    8.10
   0   0  -6  331.17    7.40
   0   0   6  344.47    8.30
   0   0   6  307.97    7.00
   0   0   6  354.16    8.10
  -1   0  -6  336.87    8.40
  -1   0  -6  355.06    8.60
  -1   0  -6  348.87    7.40
  -1   0  -6  341.17    7.40
   1   0   6  341.27    8.50
   1   0   6  346.57    8.40
   1   0   6  321.47    7.90
  -2   0  -6   38.90    2.80
  -2   0  -6   39.10    2.90
   2   0   6   35.70    2.60
   2   0   6   36.90    2.60
   2   0   6   39.00    2.60
  -3   0  -6  157.78    5.80
  -3   0  -6  159.58    5.50
  -3   0  -6  150.88    5.50
   3   0   6  146.69    5.50
   3   0   6  162.08    5.80
  -4   0  -6   37.10    3.40
  -4   0  -6   30.20    3.30
  -4   0  -6   36.10    3.30
   4   0   6   34.10    3.60
   4   0   6   31.60    3.20
  -5   0  -6  181.38    7.80
  -5   0  -6  186.88    7.20
  -5   0  -6  191.78    7.30
   5   0   6  195.38    8.00
   5   0   6  188.18    7.10
  -6   0  -6  237.38    9.60
  -6   0  -6  257.17    9.30
   6   0   6  244.98    9.80
   8  -1  -6   44.60    5.40
  -8   1   6   45.20    4.50
  -8   1   6   56.79    4.90
   7  -1  -6   27.90    2.90
   7  -1  -6   24.20    2.90
   7  -1  -6   22.80    3.70
  -7   1   6   25.70    3.20
  -7   1   6   21.50    3.20
   6  -1  -6    0.50    1.80
   6  -1  -6   -0.90    1.30
   6  -1  -6    3.60    1.50
  -6   1   6    1.40    1.70
  -6   1   6   -0.10    1.30
   5  -1  -6  150.18    5.80
   5  -1  -6  143.59    5.10
   5  -1  -6  143.89    6.20
   5  -1  -6  141.89    5.10
  -5   1   6  145.89    5.00
  -5   1   6  143.39    5.10
  -5   1   6  141.39    5.30
  -5   1   6  141.09    5.50
   4  -1  -6  594.94   13.20
   4  -1  -6  592.54   12.80
   4  -1  -6  594.14   13.30
   4  -1  -6  591.44   14.40
  -4   1   6  594.74   13.70
  -4   1   6  584.44   13.50
  -4   1   6  604.14   13.30
   3  -1  -6  167.18    5.10
   3  -1  -6  160.98    4.20
   3  -1  -6  155.98    5.50
   3  -1  -6  173.68    5.40
   3  -1  -6  169.78    5.10
  -3   1   6  170.78    5.10
  -3   1   6  169.38    5.30
  -3   1   6  168.58    5.20
   2  -1  -6  237.58    6.60
   2  -1  -6  241.78    6.20
   2  -1  -6  238.88    6.20
   2  -1  -6  226.08    6.30
  -2   1   6  234.08    6.40
  -2   1   6  234.98    6.40
  -2   1   6  236.78    6.40
   1  -1  -6  931.71   18.50
   1  -1  -6  892.41   18.20
   1  -1  -6  925.71   19.20
   1  -1  -6  943.61   18.50
  -1   1   6  949.21   19.20
  -1   1   6  935.81   19.10
  -1   1   6  955.10   19.20
   0  -1  -6  354.66    8.80
   0  -1  -6  364.66    8.90
   0  -1  -6  355.46    7.90
   0  -1  -6  356.46    7.90
   0   1   6  371.96    8.80
   0   1   6  353.86    8.80
  -1  -1  -6   94.79    4.00
  -1  -1  -6   92.99    3.90
   1   1   6   83.99    3.20
   1   1   6   95.99    3.80
   1   1   6   97.89    3.90
  -2  -1  -6    0.00    1.20
  -2  -1  -6   -0.90    1.20
   2   1   6    0.10    1.10
   2   1   6    1.30    1.20
   2   1   6   -0.70    1.00
  -3  -1  -6    5.10    1.70
  -3  -1  -6    6.40    1.90
  -3  -1  -6    5.90    1.90
   3   1   6    5.50    1.70
   3   1   6    7.00    1.80
  -4  -1  -6   26.00    3.30
  -4  -1  -6   30.30    3.40
   4   1   6   24.50    3.20
   4   1   6   29.20    3.30
  -5  -1  -6   48.90    4.40
  -5  -1  -6   45.90    4.60
   5   1   6   46.00    4.40
   5   1   6   45.90    4.80
  -6  -1  -6   87.39    6.50
  -6  -1  -6   89.79    6.20
   6   1   6   92.89    6.50
   6   1   6   86.49    5.80
   8  -2  -6   27.40    4.30
  -8   2   6   21.30    3.40
  -8   2   6   16.60    3.10
   7  -2  -6   19.80    2.70
   7  -2  -6   23.60    2.90
   7  -2  -6   29.40    4.30
  -7   2   6   14.10    2.60
  -7   2   6   19.10    3.00
   6  -2  -6    8.90    2.00
   6  -2  -6   15.20    3.10
   6  -2  -6   12.60    2.30
  -6   2   6    9.50    2.20
  -6   2   6   12.40    2.40
  -6   2   6   10.60    2.20
   5  -2  -6   52.59    3.40
   5  -2  -6   47.80    3.30
   5  -2  -6   54.29    4.20
  -5   2   6   46.40    3.40
  -5   2   6   47.90    3.50
  -5   2   6   42.70    3.40
   4  -2  -6  356.76    9.10
   4  -2  -6  365.26    9.20
   4  -2  -6  359.06   10.20
  -4   2   6  363.06    8.90
  -4   2   6  366.06    9.50
  -4   2   6  347.57    9.40
  -4   2   6  351.06    9.30
   3  -2  -6   17.80    1.90
   3  -2  -6   16.10    1.90
   3  -2  -6   21.50    2.60
  -3   2   6   18.50    2.10
  -3   2   6   17.40    2.10
  -3   2   6   16.10    1.80
   2  -2  -6   13.30    1.80
   2  -2  -6   18.20    2.10
   2  -2  -6   16.00    1.80
   2  -2  -6   12.90    1.70
  -2   2   6   18.80    2.00
  -2   2   6   14.60    1.80
  -2   2   6   13.20    1.70
   1  -2  -6   81.49    3.20
   1  -2  -6   82.29    3.20
   1  -2  -6   80.69    3.80
   1  -2  -6   79.29    3.10
  -1   2   6   81.59    3.70
  -1   2   6   85.79    3.60
  -1   2   6   83.79    3.50
   0  -2  -6  177.88    4.70
   0  -2  -6  173.58    5.60
   0  -2  -6  172.18    4.70
   0   2   6  172.08    5.50
   0   2   6  158.88    4.30
   0   2   6  177.58    5.50
  -1  -2  -6  165.48    5.60
  -1  -2  -6  157.38    5.30
   1   2   6  157.18    5.40
   1   2   6  156.98    5.30
   1   2   6  147.39    4.60
  -2  -2  -6   84.79    4.40
  -2  -2  -6   78.39    4.00
   2   2   6   75.99    3.70
   2   2   6   83.29    4.10
   2   2   6   78.49    3.90
  -3  -2  -6   24.50    2.90
  -3  -2  -6   19.70    2.80
  -3  -2  -6   26.90    2.70
   3   2   6   27.20    3.20
   3   2   6   27.20    2.90
  -4  -2  -6   35.90    4.00
  -4  -2  -6   40.60    4.10
   4   2   6   37.30    3.90
   4   2   6   40.30    4.10
  -5  -2  -6   52.09    4.90
  -5  -2  -6   47.00    4.90
   5   2   6   48.40    4.80
   5   2   6   47.30    4.60
  -6  -2  -6    6.30    3.40
  -6  -2  -6    8.50    3.40
   6   2   6    5.90    3.10
   6   2   6    5.20    2.80
   8  -3  -6   42.80    5.30
   8  -3  -6   39.80    3.90
   8  -3  -6   43.30    4.10
  -8   3   6   35.80    4.20
  -8   3   6   30.80    4.00
   7  -3  -6   18.40    3.80
   7  -3  -6   21.90    3.00
   7  -3  -6   18.10    2.80
  -7   3   6   13.60    2.70
  -7   3   6   16.10    2.90
  -7   3   6   18.60    2.90
   6  -3  -6   10.10    2.30
   6  -3  -6   11.20    3.00
   6  -3  -6    8.40    2.20
  -6   3   6    5.80    2.10
  -6   3   6    6.20    2.10
  -6   3   6    9.60    2.20
   5  -3  -6  431.66   11.00
   5  -3  -6  428.86   10.90
   5  -3  -6  415.06   12.30
  -5   3   6  425.56   11.40
  -5   3   6  427.96   11.20
  -5   3   6  419.36   11.20
   4  -3  -6  283.47    8.00
   4  -3  -6  278.17    8.90
   4  -3  -6  289.87    8.10
  -4   3   6  290.07    8.40
  -4   3   6  294.27    8.40
  -4   3   6  290.77    8.40
   3  -3  -6  180.48    5.70
   3  -3  -6  171.08    6.10
   3  -3  -6  177.38    5.70
  -3   3   6  175.88    6.00
  -3   3   6  170.48    5.90
  -3   3   6  168.38    5.30
  -3   3   6  172.58    5.80
   2  -3  -6  304.87    8.20
   2  -3  -6  303.87    7.90
   2  -3  -6  311.27    8.60
   2  -3  -6  318.37    8.00
  -2   3   6  309.37    8.00
  -2   3   6  304.27    8.40
  -2   3   6  302.07    8.30
   1  -3  -6  103.99    3.90
   1  -3  -6  103.89    3.80
   1  -3  -6   96.99    4.40
   1  -3  -6   99.79    3.90
  -1   3   6  108.19    4.20
  -1   3   6  106.69    4.40
  -1   3   6  100.59    4.50
   0  -3  -6   72.09    3.10
   0  -3  -6   76.09    3.80
   0  -3  -6   72.59    3.10
   0   3   6   71.19    3.80
   0   3   6   72.19    3.70
  -1  -3  -6   26.60    2.70
  -1  -3  -6   32.70    3.10
   1   3   6   26.70    2.20
   1   3   6   30.90    2.90
   1   3   6   28.10    2.80
  -2  -3  -6  191.08    7.10
  -2  -3  -6  194.78    6.40
   2   3   6  192.58    6.90
   2   3   6  199.28    6.40
  -3  -3  -6  260.97    8.90
  -3  -3  -6  266.47    8.70
   3   3   6  261.17    8.80
   3   3   6  277.57    8.70
  -4  -3  -6  281.87    9.70
  -4  -3  -6  285.27    9.80
   4   3   6  261.07    9.60
   4   3   6  285.77    9.70
  -5  -3  -6  179.58    8.40
  -5  -3  -6  167.38    8.40
   5   3   6  195.28    8.40
   5   3   6  200.78    8.70
   8  -4  -6   68.99    5.50
   8  -4  -6   79.59    5.50
   7  -4  -6  133.99    6.30
   7  -4  -6  139.59    8.00
   7  -4  -6  136.79    6.30
  -7   4   6  145.09    6.80
  -7   4   6  136.89    6.90
  -7   4   6  129.99    6.40
   6  -4  -6  173.08    6.90
   6  -4  -6  192.58    7.00
   6  -4  -6  173.58    8.30
  -6   4   6  190.28    7.20
  -6   4   6  171.18    7.10
  -6   4   6  186.78    7.50
   5  -4  -6   19.10    2.70
   5  -4  -6   25.20    3.70
   5  -4  -6   23.40    2.90
  -5   4   6   20.20    2.90
  -5   4   6   18.10    2.80
  -5   4   6   17.20    2.70
   4  -4  -6    4.10    1.70
   4  -4  -6    5.70    1.80
   4  -4  -6    3.50    2.10
  -4   4   6    5.60    1.80
  -4   4   6    0.60    1.80
  -4   4   6    3.00    2.00
   3  -4  -6  427.56   11.30
   3  -4  -6  436.86   10.70
   3  -4  -6  433.16   10.60
  -3   4   6  415.06   11.10
  -3   4   6  408.76   10.10
  -3   4   6  425.76   11.10
  -3   4   6  416.86   11.00
   2  -4  -6  419.46   10.30
   2  -4  -6  432.46   10.80
   2  -4  -6  419.06   10.40
  -2   4   6  441.16   11.20
  -2   4   6  435.66   10.50
  -2   4   6  407.86   10.70
   1  -4  -6  179.58    5.70
   1  -4  -6  197.58    6.30
   1  -4  -6  184.08    5.70
   1  -4  -6  185.38    6.50
  -1   4   6  182.48    6.20
  -1   4   6  185.18    6.60
  -1   4   6  180.68    6.20
   0  -4  -6    6.10    1.90
   0  -4  -6   10.10    1.70
   0  -4  -6    2.80    1.80
   0  -4  -6    7.60    1.50
   0   4   6    5.90    1.80
   0   4   6    9.60    2.00
  -1  -4  -6   13.50    2.60
  -1  -4  -6   10.20    2.20
   1   4   6   11.30    2.30
   1   4   6   15.50    2.50
  -2  -4  -6  105.69    4.80
  -2  -4  -6  100.89    5.60
  -2  -4  -6  108.29    5.40
   2   4   6  102.69    5.40
   2   4   6  113.19    5.60
  -3  -4  -6   76.89    5.40
  -3  -4  -6   78.39    5.30
   3   4   6   91.09    5.50
   3   4   6   81.39    4.70
  -4  -4  -6  438.86   13.30
  -4  -4  -6  441.86   13.30
   4   4   6  437.56   12.90
   4   4   6  441.76   13.50
  -5  -4  -6  188.38    9.00
  -5  -4  -6  194.88    9.20
   5   4   6  200.38    9.00
   5   4   6  191.08    9.10
   7  -5  -6   97.09    6.00
   7  -5  -6  121.19    8.00
   7  -5  -6  111.69    6.20
  -7   5   6  113.89    6.40
  -7   5   6  105.49    6.60
  -7   5   6  108.49    6.40
   6  -5  -6  128.29    6.30
   6  -5  -6  136.89    6.40
   6  -5  -6  129.79    7.60
  -6   5   6  120.69    6.40
  -6   5   6  126.19    6.60
  -6   5   6  132.49    6.30
   5  -5  -6   43.50    4.70
   5  -5  -6   34.60    3.50
   5  -5  -6   29.90    3.40
  -5   5   6   33.60    3.50
  -5   5   6   32.60    3.70
  -5   5   6   30.10    3.70
   4  -5  -6    1.70    1.80
   4  -5  -6   -0.70    1.70
   4  -5  -6    1.20    2.10
  -4   5   6   -0.80    1.90
  -4   5   6    4.30    2.20
  -4   5   6   -3.10    1.60
   3  -5  -6   53.39    4.20
   3  -5  -6   45.90    3.70
   3  -5  -6   39.80    3.40
  -3   5   6   39.70    3.50
  -3   5   6   43.70    4.00
  -3   5   6   43.70    3.90
   2  -5  -6  269.47    8.30
   2  -5  -6  264.67    7.80
   2  -5  -6  256.77    7.70
  -2   5   6  271.17    7.80
  -2   5   6  266.87    8.10
  -2   5   6  270.97    8.50
   1  -5  -6  150.08    5.30
   1  -5  -6  146.59    5.30
   1  -5  -6  137.89    6.00
  -1   5   6  144.89    5.80
  -1   5   6  133.99    6.10
  -1   5   6  147.29    5.90
   0  -5  -6   18.00    2.80
   0  -5  -6   17.30    2.70
   0   5   6   18.70    2.80
   0   5   6   20.10    2.80
  -1  -5  -6  261.57    8.90
  -1  -5  -6  266.37    8.30
   1   5   6  283.07    9.00
   1   5   6  284.47    9.20
  -2  -5  -6  152.78    7.10
  -2  -5  -6  156.88    7.00
   2   5   6  157.28    7.20
  -3  -5  -6   38.20    4.40
  -3  -5  -6   47.70    5.10
   3   5   6   50.79    5.20
  -4  -5  -6   40.80    4.80
  -4  -5  -6   29.40    4.50
   4   5   6   36.80    4.90
   7  -6  -6   14.70    3.40
   7  -6  -6    9.50    3.30
   7  -6  -6    8.60    3.90
  -7   6   6    5.50    3.00
  -7   6   6    5.80    3.30
   6  -6  -6   60.59    5.00
   6  -6  -6   65.89    6.30
   6  -6  -6   65.89    5.10
  -6   6   6   48.20    4.80
  -6   6   6   62.39    5.80
   5  -6  -6  191.58    8.70
   5  -6  -6  177.98    7.20
   5  -6  -6  178.28    7.20
  -5   6   6  175.38    7.80
  -5   6   6  173.48    7.80
  -5   6   6  171.78    7.30
   4  -6  -6  224.38    7.80
   4  -6  -6  236.68    9.10
   4  -6  -6  212.18    7.80
  -4   6   6  211.28    7.60
  -4   6   6  208.68    8.40
  -4   6   6  212.48    8.30
   3  -6  -6   82.79    4.90
   3  -6  -6   94.49    5.60
   3  -6  -6   85.69    4.90
  -3   6   6   68.09    4.60
  -3   6   6   85.99    5.30
  -3   6   6   73.29    5.20
   2  -6  -6   -0.50    1.80
   2  -6  -6   -1.80    1.80
  -2   6   6   -2.30    2.00
  -2   6   6   -1.10    1.80
   1  -6  -6    1.60    2.20
   1  -6  -6    1.70    1.80
   1  -6  -6    2.00    1.80
  -1   6   6   -0.70    2.00
  -1   6   6    3.10    2.40
  -1   6   6    2.40    1.80
   0  -6  -6   67.89    4.70
   0  -6  -6   66.39    4.90
   0   6   6   73.79    5.10
   0   6   6   82.39    5.00
  -1  -6  -6   60.99    5.00
   1   6   6   76.19    5.60
  -2  -6  -6   10.90    3.20
  -2  -6  -6   10.70    3.10
   2   6   6   11.10    3.30
  -3  -6  -6    9.90    3.50
  -3  -6  -6    8.50    3.40
   3   6   6   10.50    3.60
   6  -7  -6    4.70    3.00
   6  -7  -6    7.10    3.70
   6  -7  -6    6.70    3.00
  -6   7   6   -0.40    3.00
  -6   7   6    2.20    2.90
   5  -7  -6   61.89    6.20
   5  -7  -6   50.89    4.90
   5  -7  -6   53.79    4.90
  -5   7   6   60.39    5.40
  -5   7   6   64.29    5.80
   4  -7  -6  106.09    6.20
   4  -7  -6  125.59    7.20
   4  -7  -6  125.39    6.30
  -4   7   6  114.49    6.70
  -4   7   6  125.39    6.80
   3  -7  -6   31.50    6.80
   3  -7  -6   33.20    3.80
   3  -7  -6   29.00    3.50
  -3   7   6   27.10    3.60
  -3   7   6   28.60    3.40
  -3   7   6   32.00    4.00
   2  -7  -6   27.10    3.30
   2  -7  -6   37.20    3.70
  -2   7   6   31.60    3.70
  -2   7   6   34.70    4.10
   1  -7  -6   27.70    3.60
  -1   7   6   26.20    3.50
  -1   7   6   29.50    4.60
  -1   7   6   28.10    3.70
   0  -7  -6    8.40    2.80
   0   7   6    8.00    3.00
   0   7   6   10.70    2.90
  -1  -7  -6   46.70    4.80
  -1  -7  -6   42.70    4.60
   1   7   6   45.40    4.90
  -2  -7  -6   12.60    3.70
  -2  -7  -6    6.10    3.50
   2   7   6   13.00    3.70
   4  -8  -6   69.39    5.70
   4  -8  -6   58.89    7.50
   4  -8  -6   70.29    5.50
  -4   8   6   66.09    6.10
  -4   8   6   67.79    6.30
   3  -8  -6   37.80    4.20
   3  -8  -6   37.40    4.20
  -3   8   6   35.20    4.50
  -3   8   6   43.00    4.70
   2  -8  -6   64.49    6.00
   2  -8  -6   69.39    5.20
   2  -8  -6   48.60    4.60
  -2   8   6   59.49    5.40
   1  -8  -6   11.90    4.10
  -1   8   6   10.30    3.20
   0  -8  -6   82.19    6.00
   0  -8  -6   59.99    6.90
   0   8   6   74.69    6.70
   0  10  -7   90.89    6.90
   0  10  -7  101.99    5.80
   0  10  -7  106.19    6.00
   0 -10   7   95.29    7.30
  -1  10  -7    6.10    2.70
  -1  10  -7    4.70    3.10
  -1  10  -7    3.00    2.60
   1 -10   7    2.30    3.20
  -2  10  -7   15.60    4.10
  -2  10  -7   14.40    3.30
  -2  10  -7    9.70    3.00
   2 -10   7   19.30    4.30
   2   9  -7   10.70    2.70
   2   9  -7    5.50    2.90
   2   9  -7    9.30    2.60
   2   9  -7    9.80    3.30
  -2  -9   7   11.70    3.60
   1   9  -7    1.10    2.60
   1   9  -7    0.90    2.20
   1   9  -7    1.80    2.30
  -1  -9   7   -0.10    2.70
  -1  -9   7    2.50    2.70
   0   9  -7   67.09    5.80
   0   9  -7   72.59    5.00
   0   9  -7   72.39    4.90
   0  -9   7   62.29    5.50
  -1   9  -7   17.30    3.70
  -1   9  -7   15.70    3.00
  -1   9  -7   20.80    3.10
   1  -9   7   17.70    3.80
  -2   9  -7  102.89    5.50
  -2   9  -7   93.49    5.30
  -2   9  -7   79.79    6.30
  -2   9  -7  101.69    6.50
   2  -9   7  101.69    6.80
  -3   9  -7   61.99    4.90
  -3   9  -7   72.79    6.20
  -3   9  -7   63.59    4.80
  -3   9  -7   49.90    5.30
   3  -9   7   55.09    5.90
  -4   9  -7   -0.60    2.20
  -4   9  -7    1.10    3.30
  -4   9  -7    3.60    2.70
   4  -9   7    3.20    3.00
   4  -9   7    4.70    3.50
   4   8  -7   43.20    5.10
   4   8  -7   39.20    4.80
  -4  -8   7   40.80    5.20
   3   8  -7   75.19    6.00
   3   8  -7   67.49    5.60
  -3  -8   7   75.29    6.00
   2   8  -7   27.20    3.00
   2   8  -7   23.30    3.60
   2   8  -7   29.80    4.20
   2   8  -7   28.90    3.10
  -2  -8   7   33.40    4.60
   1   8  -7   28.20    3.10
   1   8  -7   31.10    4.00
   1   8  -7   31.20    3.20
   1   8  -7   38.00    4.40
  -1  -8   7   34.50    3.90
   0   8  -7   -2.90    1.80
   0   8  -7    2.50    2.30
   0   8  -7    1.90    2.00
   0  -8   7    1.30    1.90
   0  -8   7    1.40    2.20
  -1   8  -7   25.30    3.70
  -1   8  -7   20.40    2.80
  -1   8  -7   23.10    3.30
  -1   8  -7   26.50    3.10
   1  -8   7   20.70    3.50
  -2   8  -7   52.19    4.00
  -2   8  -7   58.79    4.20
  -2   8  -7   41.70    4.60
  -2   8  -7   50.69    4.70
   2  -8   7   50.99    5.10
  -3   8  -7   38.00    3.70
  -3   8  -7   41.70    4.60
  -3   8  -7   49.10    3.90
  -3   8  -7   46.30    4.80
   3  -8   7   39.40    4.80
  -4   8  -7   10.70    2.60
  -4   8  -7    4.60    3.20
  -4   8  -7    5.80    2.40
   4  -8   7    6.10    2.90
   4  -8   7    9.10    3.40
  -5   8  -7   42.30    4.10
  -5   8  -7   36.90    4.00
  -5   8  -7   44.30    5.30
   5  -8   7   34.20    5.10
   5  -8   7   33.00    4.70
   5   7  -7   25.60    3.90
   5   7  -7   23.20    4.20
  -5  -7   7   28.30    4.70
   4   7  -7   26.70    3.90
   4   7  -7   27.70    4.10
  -4  -7   7   27.70    4.20
   3   7  -7   27.20    3.70
   3   7  -7   39.50    3.20
   3   7  -7   31.10    3.00
   3   7  -7   28.00    3.90
  -3  -7   7   36.50    4.40
   2   7  -7   39.10    3.30
   2   7  -7   32.60    3.00
   2   7  -7   30.50    3.60
   2   7  -7   34.10    4.00
  -2  -7   7   36.60    4.10
   1   7  -7  126.39    6.10
   1   7  -7  124.89    6.20
   1   7  -7  136.69    5.30
   1   7  -7  138.19    5.30
  -1  -7   7  131.59    6.10
   0   7  -7    7.40    2.30
   0   7  -7    5.60    2.30
   0   7  -7    4.80    1.70
   0   7  -7    5.60    1.80
   0  -7   7    5.00    2.10
   0  -7   7    4.80    2.10
  -1   7  -7   64.79    3.90
  -1   7  -7   65.89    4.70
  -1   7  -7   64.99    4.00
  -1   7  -7   53.99    4.40
   1  -7   7   69.19    4.70
   1  -7   7   74.89    4.90
  -2   7  -7  128.99    5.30
  -2   7  -7  121.79    5.20
  -2   7  -7  113.79    6.10
  -2   7  -7  127.69    6.20
   2  -7   7  122.19    6.30
  -3   7  -7   15.90    2.60
  -3   7  -7   10.90    3.00
  -3   7  -7   11.80    2.30
  -3   7  -7   12.40    2.90
   3  -7   7   17.10    3.50
  -4   7  -7  161.18    6.20
  -4   7  -7  160.68    7.80
  -4   7  -7  168.68    6.40
   4  -7   7  175.18    8.20
   4  -7   7  165.08    7.60
  -5   7  -7  126.69    7.30
  -5   7  -7  112.19    5.70
  -5   7  -7  115.89    5.70
   5  -7   7  114.99    8.00
   5  -7   7  121.19    7.60
  -6   7  -7   13.70    3.70
   6  -7   7   10.20    4.00
   5   6  -7   17.90    3.60
   5   6  -7   15.90    3.30
  -5  -6   7   12.10    3.60
  -5  -6   7   16.50    3.20
   4   6  -7  124.29    4.90
   4   6  -7  110.89    6.40
   4   6  -7  120.59    4.90
   4   6  -7  106.99    6.00
  -4  -6   7  120.29    6.50
  -4  -6   7  131.29    6.00
   3   6  -7   46.50    4.20
   3   6  -7   44.20    3.30
   3   6  -7   52.39    3.40
   3   6  -7   48.00    4.00
  -3  -6   7   46.60    4.50
   2   6  -7   87.79    4.00
   2   6  -7   78.79    4.80
   2   6  -7   82.99    3.90
   2   6  -7   78.19    4.60
  -2  -6   7   77.19    4.70
   1   6  -7  124.59    5.80
   1   6  -7  129.39    4.80
   1   6  -7  124.29    4.80
   1   6  -7  126.19    5.60
  -1  -6   7  133.49    5.60
   0   6  -7  184.68    6.30
   0   6  -7  196.68    6.00
   0   6  -7  186.68    6.00
   0   6  -7  178.08    6.80
   0  -6   7  184.28    6.40
   0  -6   7  187.98    6.90
  -1   6  -7  554.04   12.50
  -1   6  -7  517.05   13.60
  -1   6  -7  531.25   12.50
  -1   6  -7  539.95   13.30
   1  -6   7  541.55   13.90
   1  -6   7  550.04   12.80
  -2   6  -7  140.29    5.20
  -2   6  -7  147.69    5.30
  -2   6  -7  129.49    6.00
  -2   6  -7  155.08    6.30
   2  -6   7  154.38    6.50
  -3   6  -7  202.38    6.60
  -3   6  -7  212.58    7.90
  -3   6  -7  196.08    6.50
   3  -6   7  219.48    8.30
  -4   6  -7  308.67    8.80
  -4   6  -7  323.37   10.60
  -4   6  -7  307.87    8.80
   4  -6   7  322.07   11.00
   4  -6   7  318.37   10.10
  -5   6  -7  125.79    7.10
  -5   6  -7  133.59    6.90
  -5   6  -7  130.59    5.50
  -5   6  -7  131.19    5.60
   5  -6   7  143.09    7.70
  -6   6  -7   31.60    4.60
  -6   6  -7   27.80    4.30
   6  -6   7   39.10    5.50
   6   5  -7   29.70    4.60
   6   5  -7   22.90    3.60
  -6  -5   7   29.40    4.10
  -6  -5   7   23.50    4.00
   5   5  -7   18.50    3.00
   5   5  -7   30.60    4.00
  -5  -5   7   21.90    3.50
  -5  -5   7   29.70    3.70
   4   5  -7  111.79    6.00
   4   5  -7  116.49    4.70
   4   5  -7  102.49    4.40
   4   5  -7  105.59    5.40
  -4  -5   7  106.29    5.80
  -4  -5   7  114.79    5.40
   3   5  -7  134.99    6.00
   3   5  -7  139.69    4.90
   3   5  -7  134.49    4.90
   3   5  -7  127.19    5.60
  -3  -5   7  136.79    6.00
  -3  -5   7  143.39    5.30
   2   5  -7   38.40    2.80
   2   5  -7   30.50    2.90
   2   5  -7   39.00    2.80
   2   5  -7   38.30    3.30
  -2  -5   7   35.50    2.70
  -2  -5   7   34.20    3.40
   1   5  -7   14.20    2.30
   1   5  -7   16.10    1.90
   1   5  -7   16.50    2.20
   1   5  -7   14.60    1.90
  -1  -5   7   12.50    2.20
   0   5  -7  433.96   10.20
   0   5  -7  441.26   10.30
   0   5  -7  419.76   11.20
   0   5  -7  443.76   10.70
   0  -5   7  453.35   11.30
   0  -5   7  438.06   10.90
  -1   5  -7  739.83   16.50
  -1   5  -7  706.93   16.60
  -1   5  -7  738.33   15.60
  -1   5  -7  730.03   15.60
   1  -5   7  742.93   16.90
   1  -5   7  714.33   15.90
  -2   5  -7   54.49    3.20
  -2   5  -7   52.19    3.70
  -2   5  -7   60.89    4.20
  -2   5  -7   57.19    3.20
   2  -5   7   61.09    4.00
  -3   5  -7    1.70    1.50
  -3   5  -7    1.90    1.80
  -3   5  -7    2.60    2.10
  -3   5  -7    4.00    1.50
   3  -5   7    3.20    1.60
   3  -5   7    1.50    1.80
  -4   5  -7   93.59    5.50
  -4   5  -7   96.29    4.30
  -4   5  -7   92.59    5.20
  -4   5  -7   90.09    4.20
   4  -5   7  101.29    5.80
   4  -5   7   85.79    5.90
  -5   5  -7  116.29    6.50
  -5   5  -7  105.29    6.20
   5  -5   7  114.19    6.70
  -6   5  -7    0.90    3.00
  -6   5  -7    3.80    2.90
   6  -5   7    3.00    2.80
   7   4  -7   22.60    3.80
   7   4  -7   29.60    4.70
  -7  -4   7   33.40    4.70
  -7  -4   7   30.30    4.30
   6   4  -7   93.69    6.20
   6   4  -7   88.29    5.50
  -6  -4   7   92.89    5.80
  -6  -4   7   81.49    5.70
   5   4  -7  215.38    6.60
   5   4  -7  213.78    7.80
   5   4  -7  208.08    6.50
   5   4  -7  207.48    8.40
  -5  -4   7  209.28    7.80
  -5  -4   7  199.68    8.00
   4   4  -7   76.09    3.70
   4   4  -7   75.79    4.30
   4   4  -7   70.69    4.70
   4   4  -7   73.39    3.70
  -4  -4   7   63.39    4.40
  -4  -4   7   71.49    4.20
   3   4  -7   48.80    3.30
   3   4  -7   53.09    3.80
   3   4  -7   52.89    3.10
   3   4  -7   59.19    3.20
  -3  -4   7   50.49    3.30
  -3  -4   7   50.89    3.70
   2   4  -7    7.90    1.50
   2   4  -7    3.00    1.40
   2   4  -7    5.20    1.40
   2   4  -7    6.30    1.70
  -2  -4   7    7.60    1.50
  -2  -4   7    3.70    1.50
   1   4  -7   78.09    3.50
   1   4  -7   73.19    3.60
   1   4  -7   72.59    3.20
   1   4  -7   75.79    3.80
   1   4  -7   77.29    3.30
  -1  -4   7   73.69    2.90
  -1  -4   7   71.19    3.70
   0   4  -7   64.59    3.00
   0   4  -7   57.89    3.40
   0   4  -7   68.69    3.10
   0   4  -7   67.99    3.50
   0  -4   7   63.19    3.20
   0  -4   7   66.89    3.40
  -1   4  -7  146.99    4.60
  -1   4  -7  148.89    5.40
  -1   4  -7  145.89    4.60
   1  -4   7  150.38    5.30
   1  -4   7  137.19    4.90
  -2   4  -7  153.78    5.40
  -2   4  -7  159.88    4.90
  -2   4  -7  152.98    5.20
  -2   4  -7  158.98    5.90
  -2   4  -7  159.98    4.90
   2  -4   7  153.78    5.10
   2  -4   7  161.28    6.00
  -3   4  -7  168.88    6.20
  -3   4  -7  169.58    6.50
  -3   4  -7  178.48    5.40
  -3   4  -7  176.98    5.30
   3  -4   7  163.28    5.80
   3  -4   7  181.18    6.80
  -4   4  -7   66.69    4.80
  -4   4  -7   71.99    3.40
  -4   4  -7   67.29    4.70
  -4   4  -7   64.59    3.40
   4  -4   7   66.99    4.70
  -5   4  -7    5.40    2.80
  -5   4  -7    5.20    2.50
   5  -4   7    3.20    2.30
  -6   4  -7   24.80    3.90
  -6   4  -7   24.90    4.20
   6  -4   7   36.60    4.80
   7   3  -7   77.39    6.30
   7   3  -7   84.39    5.60
  -7  -3   7   86.89    5.90
  -7  -3   7   90.19    6.00
   6   3  -7  146.49    6.50
   6   3  -7  146.29    7.30
  -6  -3   7  153.58    6.90
  -6  -3   7  144.19    6.80
   5   3  -7  492.35   11.70
   5   3  -7  479.55   11.60
   5   3  -7  496.65   13.80
   5   3  -7  495.75   12.80
  -5  -3   7  486.65   13.20
  -5  -3   7  499.85   13.00
   4   3  -7  107.29    4.30
   4   3  -7  115.59    4.40
   4   3  -7  111.99    4.70
   4   3  -7  109.59    5.40
  -4  -3   7  106.69    5.10
  -4  -3   7  111.09    4.90
   3   3  -7  169.88    5.30
   3   3  -7  170.08    5.50
   3   3  -7  174.38    6.20
   3   3  -7  175.28    5.30
  -3  -3   7  171.78    6.10
  -3  -3   7  170.28    5.60
   2   3  -7  734.83   15.40
   2   3  -7  711.03   15.50
   2   3  -7  740.33   16.40
   2   3  -7  732.93   15.40
  -2  -3   7  752.62   15.50
  -2  -3   7  720.53   16.30
   1   3  -7  135.39    4.60
   1   3  -7  131.79    4.30
   1   3  -7  131.29    4.70
   1   3  -7  132.69    4.30
  -1  -3   7  136.69    4.00
  -1  -3   7  133.29    4.80
   0   3  -7  123.89    4.50
   0   3  -7  116.39    4.20
   0   3  -7  116.79    3.90
   0   3  -7  122.79    4.00
   0  -3   7  117.89    4.40
   0  -3   7  118.29    4.10
  -1   3  -7   73.99    3.00
  -1   3  -7   76.19    3.10
  -1   3  -7   75.09    3.00
  -1   3  -7   65.69    3.50
   1  -3   7   72.39    3.40
   1  -3   7   71.29    3.40
  -2   3  -7  437.06   11.00
  -2   3  -7  433.76   10.40
  -2   3  -7  438.26    9.80
  -2   3  -7  447.96    9.80
   2  -3   7  437.66   10.50
   2  -3   7  426.16   10.90
  -3   3  -7  695.53   16.20
  -3   3  -7  706.13   15.90
  -3   3  -7  691.83   14.50
  -3   3  -7  698.13   14.50
   3  -3   7  693.83   16.50
  -4   3  -7   50.09    4.30
  -4   3  -7   46.20    4.10
   4  -3   7   43.00    3.90
  -5   3  -7   -0.30    2.40
  -5   3  -7   -1.50    2.10
   5  -3   7    3.00    2.10
  -6   3  -7   59.19    5.70
  -6   3  -7   56.29    5.30
   6  -3   7   56.59    5.50
   7   2  -7   67.59    5.80
  -7  -2   7   69.79    5.10
  -7  -2   7   62.79    4.80
   6   2  -7  152.58    7.30
   6   2  -7  138.69    5.30
   6   2  -7  156.58    6.30
   6   2  -7  145.39    5.40
  -6  -2   7  151.28    6.40
  -6  -2   7  150.18    6.60
   5   2  -7  279.97    7.80
   5   2  -7  282.77    9.50
   5   2  -7  302.27    8.50
   5   2  -7  283.17    7.80
  -5  -2   7  293.37    8.80
  -5  -2   7  281.17    8.80
   4   2  -7   98.29    4.00
   4   2  -7  102.79    4.00
   4   2  -7   98.49    4.10
   4   2  -7  106.39    5.10
  -4  -2   7   93.99    4.40
  -4  -2   7  104.49    4.70
   3   2  -7  517.15   11.60
   3   2  -7  531.85   11.70
   3   2  -7  523.75   12.80
   3   2  -7  528.05   11.60
  -3  -2   7  518.85   12.50
  -3  -2   7  512.65   12.10
   2   2  -7  624.84   13.10
   2   2  -7  629.44   13.40
   2   2  -7  634.64   13.50
   2   2  -7  619.84   14.00
   2   2  -7  628.24   13.40
  -2  -2   7  641.04   14.20
  -2  -2   7  628.24   13.60
   1   2  -7  323.37    7.70
   1   2  -7  331.37    8.10
   1   2  -7  333.37    8.10
   1   2  -7  322.17    7.70
   1   2  -7  317.07    7.30
  -1  -2   7  328.17    8.40
  -1  -2   7  326.67    7.70
  -1  -2   7  319.87    7.40
   0   2  -7   37.50    2.20
   0   2  -7   40.70    2.20
   0   2  -7   37.30    2.20
   0   2  -7   39.00    2.70
   0   2  -7   39.60    2.20
   0  -2   7   38.60    2.10
   0  -2   7   40.30    2.20
   0  -2   7   37.80    2.50
  -1   2  -7    7.90    1.70
  -1   2  -7   12.20    1.40
  -1   2  -7   10.70    1.60
  -1   2  -7    6.40    1.10
  -1   2  -7   12.00    1.40
   1  -2   7    9.90    1.50
   1  -2   7    9.40    1.30
   1  -2   7   10.80    1.70
  -2   2  -7  514.45   12.30
  -2   2  -7  517.75   11.00
  -2   2  -7  513.45   10.90
  -2   2  -7  518.95   12.00
   2  -2   7  513.95   12.30
   2  -2   7  516.75   12.10
  -3   2  -7  102.89    4.90
  -3   2  -7  105.19    4.20
  -3   2  -7  110.59    4.90
   3  -2   7  108.99    4.90
   3  -2   7  101.89    4.40
  -4   2  -7   11.00    2.40
  -4   2  -7    9.80    2.10
  -4   2  -7   11.60    2.70
   4  -2   7   12.70    2.30
   4  -2   7    9.10    2.40
  -5   2  -7   17.80    3.10
  -5   2  -7   16.60    3.40
   5  -2   7   18.50    3.20
  -6   2  -7  113.39    6.30
  -6   2  -7  105.99    7.40
   6  -2   7  102.69    6.80
   8   1  -7  107.39    7.30
  -8  -1   7  103.79    6.50
   7   1  -7   72.79    5.80
  -7  -1   7   78.19    5.20
   6   1  -7   23.10    2.70
   6   1  -7   21.20    2.50
   6   1  -7   22.50    3.70
  -6  -1   7   17.80    2.60
  -6  -1   7   19.80    2.90
  -6  -1   7   19.50    2.80
   5   1  -7    0.30    1.60
   5   1  -7    1.70    1.30
   5   1  -7    0.10    1.30
   5   1  -7    2.50    1.50
  -5  -1   7   -0.50    1.30
  -5  -1   7    0.50    1.30
  -5  -1   7    1.00    1.20
   4   1  -7    3.00    1.70
   4   1  -7    2.00    1.30
   4   1  -7    1.60    1.00
   4   1  -7    1.90    1.30
  -4  -1   7    0.70    1.10
  -4  -1   7    0.20    1.20
  -4  -1   7    0.60    1.30
   3   1  -7   63.09    3.10
   3   1  -7   66.49    2.60
   3   1  -7   72.49    3.20
   3   1  -7   66.49    3.60
   3   1  -7   64.59    3.30
  -3  -1   7   69.09    2.90
  -3  -1   7   65.89    3.40
  -3  -1   7   67.69    3.30
   2   1  -7    1.90    0.60
   2   1  -7    1.60    1.10
   2   1  -7    0.40    1.00
   2   1  -7    3.20    1.10
   2   1  -7    1.60    1.00
  -2  -1   7    2.50    1.00
  -2  -1   7    0.40    0.90
  -2  -1   7    0.50    0.90
   1   1  -7   66.69    3.20
   1   1  -7   74.49    3.00
   1   1  -7   72.99    2.90
   1   1  -7   67.69    2.80
  -1  -1   7   67.09    2.20
  -1  -1   7   74.09    3.30
  -1  -1   7   72.99    3.00
  -1  -1   7   69.99    2.90
   0   1  -7  557.44   11.90
   0   1  -7  526.25   12.10
   0   1  -7  523.25   11.30
   0   1  -7  523.05   11.30
   0  -1   7  529.75   11.70
   0  -1   7  516.15   11.00
   0  -1   7  560.94   12.30
  -1   1  -7  385.26    9.60
  -1   1  -7  396.46    9.30
  -1   1  -7  378.56    8.40
  -1   1  -7  380.36    8.40
   1  -1   7  374.06    9.00
   1  -1   7  370.46    9.10
   1  -1   7  392.96    9.50
  -2   1  -7    1.40    1.40
  -2   1  -7    1.10    0.90
  -2   1  -7    1.50    1.30
   2  -1   7   -0.10    1.10
   2  -1   7    0.90    1.10
   2  -1   7    0.10    1.00
  -3   1  -7   18.00    2.50
  -3   1  -7   23.90    2.40
  -3   1  -7   18.60    2.50
   3  -1   7   18.70    2.50
   3  -1   7   17.90    2.40
  -4   1  -7  199.58    6.80
  -4   1  -7  184.98    6.90
  -4   1  -7  200.18    7.50
   4  -1   7  189.38    6.70
   4  -1   7  195.68    7.60
  -5   1  -7   63.19    5.50
  -5   1  -7   61.59    4.60
  -5   1  -7   59.19    4.50
   5  -1   7   58.59    4.90
   5  -1   7   59.09    4.40
  -6   1  -7   64.49    6.10
   6  -1   7   63.29    5.80
   8   0  -7   18.50    3.80
  -8   0   7   18.00    3.50
   7   0  -7   20.00    2.70
   7   0  -7   25.00    2.90
   7   0  -7   16.70    3.40
  -7   0   7   22.00    3.20
  -7   0   7   17.20    2.60
   6   0  -7  128.89    5.20
   6   0  -7  120.49    6.50
   6   0  -7  127.79    5.20
  -6   0   7  125.39    5.80
  -6   0   7  123.79    5.40
  -6   0   7  127.39    5.40
   5   0  -7   12.30    2.60
   5   0  -7    9.60    2.00
   5   0  -7   10.90    2.10
  -5   0   7    9.50    1.90
  -5   0   7    8.70    2.00
  -5   0   7   10.70    1.90
   4   0  -7   33.90    2.80
   4   0  -7   35.00    2.80
   4   0  -7   31.10    2.60
   4   0  -7   39.70    3.40
  -4   0   7   33.10    2.70
  -4   0   7   38.20    2.80
  -4   0   7   32.70    2.70
   3   0  -7   78.19    3.70
   3   0  -7   84.19    3.90
   3   0  -7   75.99    3.50
   3   0  -7   80.29    3.50
  -3   0   7   83.19    3.60
  -3   0   7   71.99    3.30
  -3   0   7   75.79    3.60
   2   0  -7    7.50    1.40
   2   0  -7    8.40    1.60
   2   0  -7   11.00    1.50
   2   0  -7    7.50    1.60
  -2   0   7   12.40    1.80
  -2   0   7    7.30    1.40
  -2   0   7    7.90    1.40
   1   0  -7   29.60    2.50
   1   0  -7   27.40    1.80
   1   0  -7   28.10    2.10
   1   0  -7   29.60    2.10
  -1   0   7   29.10    2.20
  -1   0   7   31.50    2.30
  -1   0   7   30.50    2.40
   0   0  -7  446.56   10.60
   0   0  -7  448.76    9.70
   0   0  -7  448.16    9.70
   0   0  -7  467.85   10.60
   0   0   7  466.75   10.80
   0   0   7  466.75   10.50
   0   0   7  405.26    9.10
  -1   0  -7  323.17    8.40
  -1   0  -7  325.57    7.30
  -1   0  -7  325.97    8.60
  -1   0  -7  328.97    7.30
   1   0   7  331.97    8.60
   1   0   7  323.37    8.40
   1   0   7  308.77    7.70
  -2   0  -7    2.40    1.50
  -2   0  -7    4.30    1.60
   2   0   7    3.40    1.40
   2   0   7    2.50    1.20
   2   0   7    2.00    1.20
  -3   0  -7   16.70    2.40
  -3   0  -7   13.30    2.30
  -3   0  -7   13.90    2.50
   3   0   7    9.70    2.00
   3   0   7   15.00    2.40
  -4   0  -7   26.70    3.00
  -4   0  -7   39.90    4.00
  -4   0  -7   38.70    3.70
   4   0   7   31.80    3.60
   4   0   7   36.30    3.60
  -5   0  -7   88.89    7.10
  -5   0  -7   87.99    5.60
  -5   0  -7   99.19    6.50
   5   0   7   86.69    5.30
   5   0   7   91.59    5.70
  -6   0  -7   10.10    3.50
  -6   0  -7   10.80    3.10
   6   0   7    8.80    3.30
   8  -1  -7   18.30    3.80
  -8   1   7   13.90    3.00
  -8   1   7   21.90    3.60
   7  -1  -7   48.50    3.80
   7  -1  -7   59.09    5.70
   7  -1  -7   49.70    3.90
  -7   1   7   47.50    4.30
  -7   1   7   43.80    4.30
   6  -1  -7   48.90    4.90
   6  -1  -7   47.10    3.70
   6  -1  -7   51.49    3.70
  -6   1   7   53.19    4.10
  -6   1   7   42.40    3.60
   5  -1  -7   33.80    2.90
   5  -1  -7   27.00    2.60
   5  -1  -7   30.10    3.40
   5  -1  -7   34.40    3.20
  -5   1   7   27.90    2.80
  -5   1   7   29.90    3.10
  -5   1   7   28.90    2.80
   4  -1  -7   97.29    4.20
   4  -1  -7   89.79    4.30
   4  -1  -7   88.39    4.10
   4  -1  -7   89.39    4.60
  -4   1   7   90.49    4.00
  -4   1   7   88.79    4.20
  -4   1   7   90.29    4.10
   3  -1  -7   34.50    3.00
   3  -1  -7   41.30    2.80
   3  -1  -7   38.90    2.70
   3  -1  -7   40.10    3.00
  -3   1   7   33.60    2.70
  -3   1   7   38.40    2.70
  -3   1   7   40.70    2.80
   2  -1  -7   45.70    3.10
   2  -1  -7   44.60    2.70
   2  -1  -7   50.09    2.70
   2  -1  -7   47.10    2.80
  -2   1   7   44.80    2.80
  -2   1   7   44.90    2.80
  -2   1   7   50.09    2.90
   1  -1  -7  108.29    4.40
   1  -1  -7  108.59    3.80
   1  -1  -7   99.99    3.30
   1  -1  -7  105.79    3.80
  -1   1   7  101.89    4.20
  -1   1   7  101.89    4.00
  -1   1   7  111.99    4.20
   0  -1  -7  222.98    5.80
   0  -1  -7  228.88    5.80
   0  -1  -7  227.58    6.80
   0  -1  -7  230.88    6.80
   0   1   7  233.08    6.80
   0   1   7  237.48    6.70
  -1  -1  -7  362.56    9.50
  -1  -1  -7  376.16    8.00
  -1  -1  -7  363.06    9.40
   1   1   7  329.07    8.40
   1   1   7  380.86    9.70
   1   1   7  373.86    9.40
  -2  -1  -7   57.59    3.60
  -2  -1  -7   56.99    3.90
   2   1   7   49.80    3.30
   2   1   7   59.69    3.50
   2   1   7   50.19    3.20
  -3  -1  -7   26.40    3.00
  -3  -1  -7   27.30    3.10
  -3  -1  -7   33.70    3.60
   3   1   7   33.50    3.20
   3   1   7   31.00    3.30
  -4  -1  -7   30.00    3.70
  -4  -1  -7   25.70    3.40
  -4  -1  -7   25.20    3.00
   4   1   7   31.40    3.80
   4   1   7   26.80    3.40
  -5  -1  -7    5.80    2.80
  -5  -1  -7    1.00    2.80
   5   1   7    6.90    2.60
   5   1   7    9.40    2.80
  -6  -1  -7   94.19    6.70
  -6  -1  -7   96.19    7.20
   6   1   7   97.19    6.40
   6   1   7  100.79    7.00
   8  -2  -7   -0.10    2.70
   8  -2  -7   -1.40    2.40
   8  -2  -7    2.40    2.50
  -8   2   7   -2.30    1.90
  -8   2   7    2.00    2.40
   7  -2  -7   14.70    3.50
   7  -2  -7   12.90    2.50
   7  -2  -7   11.40    2.50
  -7   2   7   12.70    2.70
  -7   2   7   12.60    2.90
   6  -2  -7   29.80    4.00
   6  -2  -7   25.20    2.90
   6  -2  -7   26.90    2.90
  -6   2   7   32.80    3.50
  -6   2   7   21.50    2.90
  -6   2   7   25.90    2.90
   5  -2  -7  108.79    5.90
   5  -2  -7  120.39    5.10
   5  -2  -7  136.49    5.30
  -5   2   7  121.59    5.30
  -5   2   7  126.59    5.40
  -5   2   7  121.49    5.30
   4  -2  -7  332.17    9.00
   4  -2  -7  336.37    9.00
   4  -2  -7  351.56   10.00
  -4   2   7  331.97    9.40
  -4   2   7  354.96    9.00
  -4   2   7  329.17    9.30
   3  -2  -7   83.89    4.30
   3  -2  -7   88.59    3.80
   3  -2  -7   78.99    4.20
   3  -2  -7   77.89    3.80
  -3   2   7   83.99    3.80
  -3   2   7   85.59    4.00
  -3   2   7   84.09    4.00
   2  -2  -7  196.18    6.10
   2  -2  -7  208.58    6.60
   2  -2  -7  216.58    6.00
   2  -2  -7  198.08    6.00
  -2   2   7  202.78    6.20
  -2   2   7  208.48    6.40
  -2   2   7  200.28    6.40
   1  -2  -7  222.78    6.20
   1  -2  -7  217.98    6.20
   1  -2  -7  235.48    6.00
   1  -2  -7  227.18    7.00
  -1   2   7  233.68    7.10
  -1   2   7  238.78    6.90
  -1   2   7  228.78    6.70
   0  -2  -7  227.68    7.00
   0  -2  -7  219.88    5.90
   0  -2  -7  221.38    6.90
   0  -2  -7  229.28    5.90
   0   2   7  225.38    6.80
   0   2   7  218.98    6.80
  -1  -2  -7  135.39    5.50
  -1  -2  -7  145.99    5.40
   1   2   7  138.79    5.50
   1   2   7  153.38    5.50
  -2  -2  -7   99.19    4.70
  -2  -2  -7   98.99    5.10
   2   2   7  105.09    4.90
   2   2   7   94.79    4.20
   2   2   7  100.19    4.80
  -3  -2  -7  233.98    7.70
  -3  -2  -7  244.88    8.50
  -3  -2  -7  235.98    8.10
   3   2   7  247.38    8.00
   3   2   7  241.48    8.30
  -4  -2  -7   15.80    3.20
  -4  -2  -7   17.60    3.40
   4   2   7   13.80    3.00
   4   2   7   15.40    2.90
  -5  -2  -7   31.70    4.60
  -5  -2  -7   34.00    4.50
   5   2   7   27.40    3.90
   5   2   7   34.60    4.40
   8  -3  -7   14.80    3.10
   8  -3  -7    7.50    3.50
   8  -3  -7    8.30    2.80
  -8   3   7    8.70    2.90
  -8   3   7   13.20    3.00
   7  -3  -7    3.10    2.30
   7  -3  -7    5.00    2.40
   7  -3  -7    5.50    3.30
  -7   3   7    2.80    2.20
  -7   3   7    1.50    2.10
  -7   3   7    3.70    2.10
   6  -3  -7   15.90    3.30
   6  -3  -7   12.20    2.60
   6  -3  -7   13.20    2.60
  -6   3   7   16.20    2.80
  -6   3   7   11.00    2.50
  -6   3   7   18.10    2.80
   5  -3  -7  218.98    7.20
   5  -3  -7  204.28    7.10
   5  -3  -7  211.58    8.30
  -5   3   7  215.38    7.40
  -5   3   7  218.58    7.60
  -5   3   7  210.58    7.40
   4  -3  -7  282.37    8.30
   4  -3  -7  285.37    9.20
   4  -3  -7  290.77    8.20
  -4   3   7  286.77    8.60
  -4   3   7  289.67    8.80
  -4   3   7  285.97    8.70
   3  -3  -7  127.39    5.40
   3  -3  -7  121.69    4.80
   3  -3  -7  120.19    5.50
   3  -3  -7  111.59    4.70
  -3   3   7  121.99    5.20
  -3   3   7  115.69    5.00
  -3   3   7  119.09    4.70
   2  -3  -7  532.65   13.20
   2  -3  -7  533.75   12.30
   2  -3  -7  555.14   12.60
   2  -3  -7  521.25   12.30
  -2   3   7  531.95   13.00
  -2   3   7  549.74   12.70
  -2   3   7  541.45   13.00
   1  -3  -7  698.13   15.90
   1  -3  -7  701.53   14.90
   1  -3  -7  690.23   14.80
  -1   3   7  703.13   15.60
  -1   3   7  699.83   16.00
  -1   3   7  646.54   15.60
   0  -3  -7    3.50    1.80
   0  -3  -7    5.70    1.50
   0  -3  -7    5.40    1.90
   0  -3  -7    4.50    1.40
   0   3   7    5.90    1.80
   0   3   7    6.80    1.90
  -1  -3  -7  248.08    8.00
  -1  -3  -7  241.28    7.50
   1   3   7  244.38    7.90
   1   3   7  237.38    7.70
  -2  -3  -7   11.50    2.70
  -2  -3  -7   15.60    2.50
   2   3   7   19.70    3.00
   2   3   7   17.00    2.60
  -3  -3  -7   94.69    5.50
  -3  -3  -7   80.39    5.60
   3   3   7   86.89    5.40
  -4  -3  -7   -0.50    2.70
  -4  -3  -7   -0.10    2.70
   4   3   7    2.10    2.40
  -5  -3  -7   17.10    4.10
  -5  -3  -7   18.60    4.00
   5   3   7   13.10    3.50
   7  -4  -7   92.79    5.70
   7  -4  -7   80.99    5.50
   7  -4  -7   86.49    6.90
  -7   4   7   92.69    5.80
  -7   4   7   83.89    5.90
  -7   4   7   79.39    5.60
   6  -4  -7   -1.50    2.70
   6  -4  -7    0.80    2.10
   6  -4  -7   -0.20    2.00
  -6   4   7    0.60    2.20
  -6   4   7    0.10    2.10
  -6   4   7    0.80    2.10
   5  -4  -7    1.30    2.40
   5  -4  -7    3.80    2.00
   5  -4  -7    5.20    2.00
  -5   4   7    0.20    1.90
  -5   4   7    4.10    2.10
  -5   4   7    1.20    2.10
   4  -4  -7    8.90    2.10
   4  -4  -7    5.00    1.90
   4  -4  -7    8.10    2.60
  -4   4   7    8.70    2.30
  -4   4   7    4.80    2.00
  -4   4   7    5.40    2.10
   3  -4  -7   67.69    4.00
   3  -4  -7   74.39    4.50
   3  -4  -7   71.29    4.10
  -3   4   7   65.09    3.70
  -3   4   7   63.19    4.40
  -3   4   7   60.39    4.10
   2  -4  -7  401.66   11.50
   2  -4  -7  396.56   11.00
   2  -4  -7  388.76    9.90
   2  -4  -7  374.06    9.90
  -2   4   7  390.46   10.80
  -2   4   7  377.66   10.40
  -2   4   7  398.66   10.20
   1  -4  -7  176.98    5.80
   1  -4  -7  179.78    5.80
   1  -4  -7  168.38    6.60
  -1   4   7  182.08    6.90
  -1   4   7  184.48    6.50
  -1   4   7  173.58    6.40
   0  -4  -7    1.80    1.90
   0  -4  -7    2.40    1.60
   0  -4  -7    2.20    1.80
   0  -4  -7    1.20    1.50
   0   4   7    2.00    1.80
   0   4   7    2.60    1.70
  -1  -4  -7    2.80    2.10
  -1  -4  -7    1.60    1.80
   1   4   7    3.40    1.90
   1   4   7    3.80    2.00
  -2  -4  -7   24.10    3.50
  -2  -4  -7   23.40    3.30
  -2  -4  -7   17.30    2.70
   2   4   7   27.60    3.80
  -3  -4  -7    1.10    2.70
  -3  -4  -7    2.40    2.40
   3   4   7    9.90    3.00
  -4  -4  -7   10.60    3.60
  -4  -4  -7   20.20    4.20
   4   4   7   20.30    4.10
   7  -5  -7   91.39    5.90
   7  -5  -7   91.39    6.00
   7  -5  -7   86.99    7.40
  -7   5   7   90.79    6.30
  -7   5   7   87.59    6.10
  -7   5   7   72.69    6.00
   6  -5  -7   27.10    3.50
   6  -5  -7   20.80    4.10
   6  -5  -7   32.10    3.80
  -6   5   7   16.00    3.30
  -6   5   7   22.30    3.40
  -6   5   7   24.50    3.70
   5  -5  -7  121.99    7.00
   5  -5  -7   98.29    5.50
   5  -5  -7  100.79    5.60
  -5   5   7   99.39    6.10
  -5   5   7  104.39    6.00
  -5   5   7  108.29    5.70
   4  -5  -7   38.60    3.50
   4  -5  -7   27.80    3.30
   4  -5  -7   36.00    4.10
  -4   5   7   28.70    3.40
  -4   5   7   36.00    3.70
  -4   5   7   37.90    4.10
   3  -5  -7  113.89    5.70
   3  -5  -7  109.89    5.20
   3  -5  -7  107.89    5.20
  -3   5   7  107.09    5.70
  -3   5   7  103.49    5.30
   2  -5  -7  135.49    6.30
   2  -5  -7  133.29    5.50
   2  -5  -7  121.79    5.30
  -2   5   7  124.69    5.70
  -2   5   7  132.29    5.60
  -2   5   7  127.99    6.30
   1  -5  -7   26.10    3.30
   1  -5  -7   29.10    2.80
   1  -5  -7   25.30    2.70
  -1   5   7   25.40    3.40
  -1   5   7   31.50    3.30
  -1   5   7   26.10    3.20
   0  -5  -7  101.59    5.60
   0  -5  -7  111.79    5.60
   0   5   7  115.99    5.80
   0   5   7  105.89    5.50
  -1  -5  -7  178.38    7.50
  -1  -5  -7  175.68    6.90
   1   5   7  177.08    7.30
   1   5   7  192.28    7.80
  -2  -5  -7  154.18    7.50
  -2  -5  -7  174.38    7.70
   2   5   7  156.88    7.60
  -3  -5  -7   10.30    3.50
  -3  -5  -7   11.30    3.40
   3   5   7   10.10    3.40
   6  -6  -7  116.59    7.90
   6  -6  -7  109.79    6.50
   6  -6  -7  108.09    6.50
  -6   6   7  105.89    6.70
  -6   6   7   99.79    7.00
  -6   6   7  114.79    7.00
   5  -6  -7   86.99    6.60
   5  -6  -7   89.19    5.60
   5  -6  -7   72.79    5.40
  -5   6   7   79.39    5.90
  -5   6   7   78.89    6.00
  -5   6   7   85.79    5.70
   4  -6  -7  132.19    6.30
   4  -6  -7  123.59    6.20
   4  -6  -7  145.99    7.30
  -4   6   7  132.59    6.90
  -4   6   7  121.09    6.10
  -4   6   7  126.49    6.70
   3  -6  -7  171.18    6.80
   3  -6  -7  155.38    6.60
  -3   6   7  163.68    6.80
  -3   6   7  176.48    7.70
   2  -6  -7   -1.40    1.90
   2  -6  -7    1.10    2.10
   2  -6  -7    1.20    2.30
  -2   6   7    6.20    2.70
  -2   6   7    3.70    2.20
   1  -6  -7    6.30    3.20
   1  -6  -7   10.70    2.80
  -1   6   7    6.70    2.70
  -1   6   7    9.60    2.60
  -1   6   7    8.80    2.70
   0  -6  -7   39.50    4.20
   0  -6  -7   34.10    3.90
   0   6   7   37.70    4.10
   0   6   7   42.90    4.30
  -1  -6  -7   91.49    6.10
   1   6   7  111.29    6.20
   1   6   7  108.09    6.50
  -2  -6  -7   34.20    4.40
  -2  -6  -7   28.20    4.40
   2   6   7   33.90    4.70
   5  -7  -7   52.69    5.00
   5  -7  -7   57.69    5.10
   5  -7  -7   61.19    6.30
  -5   7   7   51.79    5.20
  -5   7   7   54.09    5.40
   4  -7  -7   40.50    4.20
   4  -7  -7   46.90    4.50
  -4   7   7   46.70    4.80
  -4   7   7   46.70    4.90
  -4   7   7   37.60    4.30
   3  -7  -7   32.90    3.80
   3  -7  -7   32.40    3.70
  -3   7   7   31.10    3.70
  -3   7   7   36.60    4.50
   2  -7  -7   76.69    6.10
   2  -7  -7   76.49    5.10
   2  -7  -7   73.29    5.00
  -2   7   7   63.99    5.10
  -2   7   7   65.39    5.90
   1  -7  -7   35.20    4.20
  -1   7   7   42.40    4.20
   0  -7  -7   15.40    3.50
   0   7   7   18.70    3.50
   0   7   7   23.00    4.00
  -1  -7  -7   96.59    6.60
  -1  -7  -7   94.59    6.60
   1   7   7  103.19    7.10
   3  -8  -7   49.10    5.50
   3  -8  -7   50.29    4.80
   3  -8  -7   48.70    4.80
  -3   8   7   38.60    5.00
   2  -8  -7    6.90    3.40
  -2   8   7    5.70    4.70
  -2   8   7    4.90    3.30
   1  -8  -7    9.70    3.50
  -1   8   7   14.60    3.50
   2   9  -8  144.09    6.50
   2   9  -8  129.79    7.50
   2   9  -8  161.28    6.70
   2   9  -8  128.69    7.60
  -2  -9   8  158.48    8.10
   1   9  -8   19.10    3.20
   1   9  -8   18.50    3.10
   1   9  -8   17.40    3.80
  -1  -9   8   19.50    3.90
  -1  -9   8   17.40    3.60
   0   9  -8   89.59    5.40
   0   9  -8   93.49    5.40
   0   9  -8   89.79    6.70
   0  -9   8   96.99    6.60
  -1   9  -8   68.49    5.00
  -1   9  -8   71.29    5.00
  -1   9  -8   74.19    6.10
   1  -9   8   70.69    6.10
  -2   9  -8   46.30    4.20
  -2   9  -8   42.20    4.80
  -2   9  -8   48.10    5.10
  -2   9  -8   49.10    4.20
   2  -9   8   44.60    5.40
  -3   9  -8   45.10    4.30
  -3   9  -8   48.20    4.40
  -3   9  -8   42.50    5.00
  -3   9  -8   55.09    5.60
   3  -9   8   50.59    5.70
   3   8  -8  152.98    6.40
   3   8  -8  141.89    7.40
   3   8  -8  164.98    6.50
   3   8  -8  146.69    7.90
  -3  -8   8  145.69    7.70
   2   8  -8   29.70    3.40
   2   8  -8   15.40    3.40
   2   8  -8   14.90    3.10
   2   8  -8   17.30    2.90
  -2  -8   8   24.90    4.00
   1   8  -8   50.69    4.00
   1   8  -8   54.99    4.20
   1   8  -8   39.60    4.50
  -1  -8   8   49.40    4.80
  -1  -8   8   54.49    5.00
   0   8  -8  155.68    7.60
   0   8  -8  178.18    6.60
   0   8  -8  166.78    6.50
   0  -8   8  168.58    7.00
   0  -8   8  173.88    7.80
  -1   8  -8   19.40    3.40
  -1   8  -8   17.30    3.40
  -1   8  -8   20.40    3.00
  -1   8  -8   22.60    2.90
   1  -8   8   23.20    3.70
  -2   8  -8   38.80    4.60
  -2   8  -8   41.80    3.70
  -2   8  -8   42.90    3.80
  -2   8  -8   39.00    4.40
   2  -8   8   41.00    4.80
  -3   8  -8   11.30    3.20
  -3   8  -8   13.80    2.70
  -3   8  -8   13.40    2.70
  -3   8  -8   13.80    3.70
   3  -8   8   14.40    3.70
  -4   8  -8   11.10    2.80
  -4   8  -8    8.90    3.50
  -4   8  -8    9.90    2.70
   4  -8   8   10.60    3.60
   4  -8   8    9.20    3.30
   4   7  -8   19.60    3.80
   4   7  -8   17.20    3.40
  -4  -7   8   18.60    3.80
   3   7  -8   12.20    2.90
   3   7  -8   11.60    2.50
   3   7  -8   15.60    2.50
   3   7  -8   17.80    3.60
  -3  -7   8   15.10    3.20
   2   7  -8    9.60    2.20
   2   7  -8    8.80    2.80
   2   7  -8    8.70    2.60
   2   7  -8    9.30    2.30
  -2  -7   8    5.70    2.60
   1   7  -8   -0.20    1.70
   1   7  -8   -1.60    1.90
   1   7  -8    2.10    1.80
  -1  -7   8   -1.90    1.90
  -1  -7   8    0.80    1.90
   0   7  -8   54.29    4.40
   0   7  -8   57.99    4.60
   0   7  -8   56.59    3.90
   0   7  -8   51.29    3.90
   0  -7   8   47.30    4.20
   0  -7   8   51.19    4.20
  -1   7  -8   16.70    2.50
  -1   7  -8   16.10    2.60
  -1   7  -8   22.10    3.20
  -1   7  -8   17.50    3.10
   1  -7   8   24.80    4.80
   1  -7   8   15.40    2.90
  -2   7  -8   62.39    4.00
  -2   7  -8   49.99    3.80
  -2   7  -8   44.10    4.40
  -2   7  -8   55.39    4.90
   2  -7   8   65.39    5.00
  -3   7  -8   38.20    4.40
  -3   7  -8   34.10    4.00
  -3   7  -8   41.00    3.60
  -3   7  -8   47.10    3.80
   3  -7   8   39.90    4.70
  -4   7  -8   49.50    4.00
  -4   7  -8   54.99    4.10
  -4   7  -8   57.79    5.50
   4  -7   8   41.10    5.20
   4  -7   8   51.09    5.40
  -5   7  -8   72.99    4.90
  -5   7  -8   78.29    6.60
  -5   7  -8   78.79    5.00
   5  -7   8   83.19    6.60
   5   6  -8   70.39    5.80
   5   6  -8   62.49    5.20
  -5  -6   8   68.09    5.30
  -5  -6   8   61.39    6.10
   4   6  -8   72.09    5.60
   4   6  -8   80.69    5.30
   4   6  -8   99.49    4.70
   4   6  -8   85.89    4.50
  -4  -6   8   82.59    5.60
   3   6  -8   46.70    4.10
   3   6  -8   44.50    3.50
   3   6  -8   42.20    4.40
   3   6  -8   45.30    3.60
  -3  -6   8   41.40    4.40
   2   6  -8   21.00    2.50
   2   6  -8   15.60    2.70
   2   6  -8   17.80    2.30
   2   6  -8   18.10    3.10
  -2  -6   8   21.30    3.20
   1   6  -8  102.99    5.40
   1   6  -8  111.69    4.60
   1   6  -8  101.79    4.40
  -1  -6   8  105.49    5.30
  -1  -6   8  106.19    5.30
   0   6  -8    0.30    1.90
   0   6  -8    1.20    1.50
   0   6  -8    1.70    1.90
   0   6  -8    3.40    1.60
   0  -6   8    1.90    1.60
   0  -6   8   -0.60    1.50
  -1   6  -8   65.59    4.50
  -1   6  -8   85.99    5.00
  -1   6  -8   87.29    4.10
  -1   6  -8   75.09    3.90
   1  -6   8   81.39    4.20
   1  -6   8   87.39    4.90
  -2   6  -8    6.80    2.30
  -2   6  -8   11.10    2.10
  -2   6  -8    7.60    2.00
  -2   6  -8    9.50    2.70
   2  -6   8   10.10    2.40
  -3   6  -8   36.80    3.20
  -3   6  -8   38.60    4.10
  -3   6  -8   36.30    3.20
   3  -6   8   33.70    4.00
  -4   6  -8   64.79    5.60
  -4   6  -8   58.89    4.00
  -4   6  -8   61.39    4.10
   4  -6   8   67.59    5.50
  -5   6  -8  154.28    7.90
   5  -6   8  157.18    8.20
  -6   6  -8  122.59    7.70
  -6   6  -8  101.19    7.30
   6  -6   8  110.79    7.80
   6   5  -8   86.69    6.60
   6   5  -8   83.89    5.90
  -6  -5   8   96.99    6.10
  -6  -5   8   86.99    6.40
   5   5  -8  120.79    6.20
   5   5  -8  114.99    6.80
  -5  -5   8  123.19    6.10
  -5  -5   8  118.69    6.70
   4   5  -8   83.49    5.00
   4   5  -8  100.39    4.60
   4   5  -8   89.09    5.60
   4   5  -8   95.19    4.50
  -4  -5   8   90.89    4.90
  -4  -5   8   93.39    5.60
   3   5  -8    1.20    1.40
   3   5  -8    0.10    1.80
   3   5  -8    0.30    1.40
   3   5  -8   -2.60    1.50
  -3  -5   8   -0.10    1.40
  -3  -5   8   -1.40    1.60
   2   5  -8   16.20    2.20
   2   5  -8   12.40    2.50
   2   5  -8   10.10    1.90
   2   5  -8   13.20    2.20
  -2  -5   8   10.90    2.30
   1   5  -8  385.76    9.60
   1   5  -8  366.26   10.50
   1   5  -8  395.96    9.60
  -1  -5   8  392.96   10.40
  -1  -5   8  392.56   10.60
   0   5  -8  135.09    4.80
   0   5  -8  139.59    5.40
   0   5  -8  132.19    4.80
   0   5  -8  131.09    5.40
   0  -5   8  138.19    5.40
   0  -5   8  135.59    5.40
  -1   5  -8  158.08    5.30
  -1   5  -8  149.99    5.20
  -1   5  -8  162.88    6.30
  -1   5  -8  160.68    6.00
   1  -5   8  163.18    6.20
   1  -5   8  159.28    5.70
  -2   5  -8   30.20    3.30
  -2   5  -8   26.60    2.90
  -2   5  -8   22.50    2.40
  -2   5  -8   29.80    2.60
   2  -5   8   23.90    2.60
   2  -5   8   24.50    3.00
  -3   5  -8    1.00    1.70
  -3   5  -8    0.30    1.90
  -3   5  -8   -0.70    1.50
  -3   5  -8   -0.80    2.10
   3  -5   8    1.90    2.00
  -4   5  -8  134.69    6.70
  -4   5  -8  133.69    5.10
  -4   5  -8  128.59    6.20
  -4   5  -8  124.49    5.10
   4  -5   8  137.49    6.90
  -5   5  -8   75.59    5.80
  -5   5  -8   67.19    5.70
   5  -5   8   57.29    5.50
  -6   5  -8   23.80    4.30
  -6   5  -8   20.10    4.20
   6  -5   8   29.40    4.60
   6   4  -8   77.09    6.00
   6   4  -8   75.69    5.20
  -6  -4   8   88.99    6.00
  -6  -4   8   75.59    5.30
   5   4  -8  172.28    6.10
   5   4  -8  174.48    7.70
   5   4  -8  169.58    6.90
   5   4  -8  168.08    6.00
  -5  -4   8  157.58    7.30
  -5  -4   8  165.68    6.80
   4   4  -8  108.39    4.70
   4   4  -8  113.99    5.10
   4   4  -8  109.49    4.70
   4   4  -8  110.69    5.80
  -4  -4   8  112.09    5.60
  -4  -4   8  105.09    5.00
   3   4  -8    1.30    1.70
   3   4  -8   -0.70    1.30
   3   4  -8    1.70    1.50
   3   4  -8   -0.30    1.40
  -3  -4   8    0.10    1.50
  -3  -4   8   -0.90    1.30
   2   4  -8   50.59    3.10
   2   4  -8   47.70    3.10
   2   4  -8   52.69    3.20
   2   4  -8   46.10    3.50
  -2  -4   8   51.79    3.50
  -2  -4   8   55.89    3.00
   1   4  -8  119.29    4.40
   1   4  -8  123.59    4.70
   1   4  -8  114.69    4.30
   1   4  -8  114.89    4.90
  -1  -4   8  118.59    4.50
  -1  -4   8  119.09    3.90
  -1  -4   8  121.59    5.00
   0   4  -8  214.28    6.60
   0   4  -8  208.88    6.60
   0   4  -8  210.28    6.00
   0   4  -8  213.78    6.10
   0  -4   8  194.98    6.30
   0  -4   8  203.48    6.60
  -1   4  -8  664.03   14.20
  -1   4  -8  668.33   15.30
  -1   4  -8  654.43   14.20
  -1   4  -8  651.53   14.70
   1  -4   8  669.23   15.20
   1  -4   8  636.54   14.80
  -2   4  -8  435.86   10.70
  -2   4  -8  439.56   10.30
  -2   4  -8  429.76   10.60
  -2   4  -8  444.96   11.60
  -2   4  -8  437.76   10.30
   2  -4   8  422.86   10.70
   2  -4   8  456.55   11.80
  -3   4  -8  626.34   15.60
  -3   4  -8  638.64   13.90
  -3   4  -8  619.24   14.90
  -3   4  -8  642.24   14.00
   3  -4   8  645.74   16.00
  -4   4  -8  213.08    8.20
  -4   4  -8  198.88    7.80
   4  -4   8  229.18    8.50
  -5   4  -8    0.90    2.50
  -5   4  -8    7.70    3.00
   5  -4   8    3.40    2.40
  -6   4  -8   -2.00    2.70
  -6   4  -8    1.10    3.20
   6  -4   8   -0.20    2.60
   7   3  -8   35.50    4.80
  -7  -3   8   40.10    4.50
  -7  -3   8   48.10    5.00
   6   3  -8   26.80    3.50
   6   3  -8   35.60    4.60
   6   3  -8   30.50    3.60
  -6  -3   8   43.30    4.50
  -6  -3   8   34.20    4.00
   5   3  -8    2.60    1.70
   5   3  -8    0.90    1.60
   5   3  -8    0.40    1.50
   5   3  -8    3.50    2.30
  -5  -3   8   -0.40    1.60
  -5  -3   8    2.70    2.10
   4   3  -8  141.79    5.20
   4   3  -8  143.39    5.20
   4   3  -8  148.89    5.50
   4   3  -8  150.78    6.40
  -4  -3   8  136.19    5.60
  -4  -3   8  133.29    5.90
   3   3  -8  663.43   14.70
   3   3  -8  652.83   15.80
   3   3  -8  670.33   14.80
   3   3  -8  678.53   14.70
  -3  -3   8  665.63   15.00
  -3  -3   8  672.13   15.80
   2   3  -8  360.86    8.90
   2   3  -8  355.06    8.90
   2   3  -8  369.76    8.80
   2   3  -8  360.76    9.70
  -2  -3   8  354.96    8.80
  -2  -3   8  367.06    9.80
   1   3  -8   16.50    2.10
   1   3  -8   17.70    1.90
   1   3  -8   19.50    2.20
   1   3  -8   18.20    1.90
  -1  -3   8   17.20    2.20
  -1  -3   8   19.50    2.00
  -1  -3   8   16.10    1.70
   0   3  -8    7.70    1.60
   0   3  -8   10.30    1.50
   0   3  -8    7.50    1.70
   0   3  -8    8.40    1.50
   0  -3   8    6.10    1.20
   0  -3   8    9.30    1.70
   0  -3   8    8.80    1.60
  -1   3  -8  399.46   10.20
  -1   3  -8  385.06    9.20
  -1   3  -8  386.26    9.20
  -1   3  -8  395.36    9.20
   1  -3   8  381.36    9.90
   1  -3   8  396.46    9.90
  -2   3  -8  411.16    9.50
  -2   3  -8  408.76   10.20
  -2   3  -8  414.46   10.90
  -2   3  -8  409.66    9.50
   2  -3   8  398.06   10.20
   2  -3   8  408.16   10.70
  -3   3  -8  206.08    7.20
  -3   3  -8  196.28    7.30
   3  -3   8  203.78    7.30
   3  -3   8  195.38    6.50
  -4   3  -8  118.79    6.00
  -4   3  -8  110.69    5.90
   4  -3   8  111.79    5.90
  -5   3  -8   35.90    4.50
  -5   3  -8   35.70    4.20
   5  -3   8   30.90    4.10
  -6   3  -8    4.80    2.90
  -6   3  -8    8.90    3.60
   6  -3   8    4.20    2.80
   7   2  -8  104.69    6.90
  -7  -2   8  117.19    6.40
  -7  -2   8  103.29    6.20
   6   2  -8    5.40    2.80
   6   2  -8    1.20    1.70
   6   2  -8    5.80    1.80
  -6  -2   8    2.70    2.10
  -6  -2   8    2.90    2.10
   5   2  -8    3.20    1.60
   5   2  -8    3.50    1.60
   5   2  -8    5.20    2.30
  -5  -2   8    7.80    2.10
  -5  -2   8    6.80    2.10
   4   2  -8   21.60    2.20
   4   2  -8   25.00    3.20
   4   2  -8   19.30    2.20
  -4  -2   8   21.90    2.70
  -4  -2   8   20.10    2.60
   3   2  -8   56.39    3.20
   3   2  -8   56.39    3.70
   3   2  -8   57.79    2.90
   3   2  -8   54.29    3.10
  -3  -2   8   54.69    3.30
  -3  -2   8   51.79    3.50
   2   2  -8  260.17    7.20
   2   2  -8  260.37    7.00
   2   2  -8  256.87    6.40
   2   2  -8  264.47    7.40
   2   2  -8  262.27    6.90
  -2  -2   8  255.77    7.00
  -2  -2   8  265.57    7.70
   1   2  -8   15.30    1.70
   1   2  -8   16.40    2.00
   1   2  -8   15.50    1.90
   1   2  -8   13.50    1.70
   1   2  -8   14.80    1.70
  -1  -2   8   15.50    1.70
  -1  -2   8   17.20    1.50
  -1  -2   8   14.30    2.00
   0   2  -8    9.70    1.80
   0   2  -8    8.10    1.40
   0   2  -8    8.20    1.40
   0   2  -8    8.30    1.40
   0   2  -8    9.80    1.40
   0  -2   8    9.10    1.40
   0  -2   8   10.80    1.40
   0  -2   8    9.40    1.70
  -1   2  -8  194.78    5.90
  -1   2  -8  201.28    6.40
  -1   2  -8  189.88    5.40
  -1   2  -8  190.38    5.40
   1  -2   8  190.48    5.80
   1  -2   8  194.98    6.20
  -2   2  -8  100.49    3.60
  -2   2  -8   99.99    4.70
  -2   2  -8  102.59    3.60
  -2   2  -8  102.59    4.50
   2  -2   8   92.79    4.30
   2  -2   8   95.49    4.40
  -3   2  -8   22.10    2.40
  -3   2  -8   25.60    3.10
  -3   2  -8   25.70    3.10
   3  -2   8   25.80    2.90
   3  -2   8   19.20    2.50
  -4   2  -8   28.10    3.70
  -4   2  -8   22.50    3.20
   4  -2   8   25.30    3.00
   4  -2   8   23.90    3.40
  -5   2  -8   76.69    5.40
  -5   2  -8   79.59    6.20
   5  -2   8   89.79    6.00
  -6   2  -8  124.39    8.00
  -6   2  -8  117.19    7.10
   6  -2   8  143.89    7.80
   7   1  -8  168.68    8.20
   7   1  -8  168.48    8.30
   7   1  -8  166.98    8.00
  -7  -1   8  171.98    7.50
   6   1  -8  164.28    6.20
   6   1  -8  175.78    6.20
   6   1  -8  160.08    7.60
  -6  -1   8  158.68    6.60
  -6  -1   8  170.58    7.00
   5   1  -8  425.06   10.80
   5   1  -8  426.06   10.80
   5   1  -8  434.46   12.40
  -5  -1   8  435.06   10.70
  -5  -1   8  408.76   11.30
  -5  -1   8  430.46   11.60
   4   1  -8   47.40    3.20
   4   1  -8   50.39    3.30
   4   1  -8   46.30    3.70
  -4  -1   8   46.20    3.00
  -4  -1   8   46.80    3.30
  -4  -1   8   49.20    3.50
   3   1  -8   66.79    3.80
   3   1  -8   65.09    3.40
   3   1  -8   70.69    3.50
   3   1  -8   63.29    3.50
  -3  -1   8   67.39    3.20
  -3  -1   8   63.49    3.60
  -3  -1   8   67.39    3.40
   2   1  -8  203.68    6.20
   2   1  -8  206.18    5.90
   2   1  -8  203.38    5.80
   2   1  -8  201.28    6.10
  -2  -1   8  204.78    6.10
  -2  -1   8  201.58    6.40
  -2  -1   8  199.78    5.80
   1   1  -8  173.98    5.60
   1   1  -8  166.68    4.90
   1   1  -8  178.68    5.10
   1   1  -8  176.98    5.10
  -1  -1   8  169.08    5.30
  -1  -1   8  162.48    5.60
   0   1  -8  749.03   16.30
   0   1  -8  758.22   15.90
   0   1  -8  741.53   15.30
   0   1  -8  703.03   15.20
   0  -1   8  746.53   15.80
   0  -1   8  759.92   16.40
   0  -1   8  731.23   15.60
  -1   1  -8  198.08    6.40
  -1   1  -8  205.48    6.20
  -1   1  -8  198.28    5.30
  -1   1  -8  195.68    5.30
   1  -1   8  197.08    6.00
   1  -1   8  186.58    5.50
   1  -1   8  199.78    6.30
  -2   1  -8  147.99    5.60
  -2   1  -8  135.99    5.50
   2  -1   8  134.49    5.30
   2  -1   8  132.29    5.10
   2  -1   8  147.29    5.30
  -3   1  -8  164.48    6.40
  -3   1  -8  151.38    6.10
  -3   1  -8  163.08    5.80
   3  -1   8  143.09    5.90
   3  -1   8  163.08    6.30
  -4   1  -8   60.79    4.70
  -4   1  -8   69.09    4.50
  -4   1  -8   69.59    5.20
   4  -1   8   61.99    4.70
   4  -1   8   66.79    4.40
  -5   1  -8   85.99    5.50
  -5   1  -8   94.69    5.80
  -5   1  -8   73.99    6.30
   5  -1   8   76.79    5.20
   5  -1   8   85.29    5.80
  -6   1  -8   59.39    6.20
   6  -1   8   56.29    5.80
   8   0  -8  123.99    7.90
  -8   0   8  121.49    7.10
   7   0  -8   37.20    3.50
   7   0  -8   37.20    3.50
   7   0  -8   36.10    4.70
  -7   0   8   32.80    3.60
  -7   0   8   35.90    4.00
   6   0  -8  364.56    9.90
   6   0  -8  361.86    9.90
   6   0  -8  363.46   11.70
  -6   0   8  345.17   10.60
  -6   0   8  364.06   10.10
  -6   0   8  346.17   10.40
   5   0  -8  641.64   14.80
   5   0  -8  653.83   14.80
   5   0  -8  643.54   14.80
   5   0  -8  639.64   16.30
  -5   0   8  641.74   14.90
  -5   0   8  639.84   15.20
  -5   0   8  639.94   15.50
   4   0  -8  234.18    7.90
   4   0  -8  241.78    7.10
   4   0  -8  232.38    7.00
   4   0  -8  237.38    7.20
  -4   0   8  231.68    7.30
  -4   0   8  233.08    7.30
  -4   0   8  233.38    7.00
   3   0  -8  212.98    6.30
   3   0  -8  197.98    6.70
   3   0  -8  205.08    6.20
   3   0  -8  214.58    6.60
  -3   0   8  214.58    6.40
  -3   0   8  216.78    6.70
  -3   0   8  212.88    6.60
   2   0  -8  161.18    5.50
   2   0  -8  159.88    5.10
   2   0  -8  158.68    5.00
   2   0  -8  151.18    5.10
  -2   0   8  153.08    5.20
  -2   0   8  161.98    5.30
  -2   0   8  155.78    5.40
   1   0  -8  409.16    9.60
   1   0  -8  425.76    9.70
   1   0  -8  409.66    9.20
   1   0  -8  416.66   10.40
  -1   0   8  422.66   10.40
  -1   0   8  428.96   10.30
  -1   0   8  419.06   10.20
   0   0  -8  240.38    6.90
   0   0  -8  231.68    6.00
   0   0  -8  222.48    6.80
   0   0  -8  219.28    5.90
   0   0   8  225.58    6.80
   0   0   8  226.18    6.70
  -1   0  -8   51.59    3.50
  -1   0  -8   50.79    2.60
  -1   0  -8   49.40    3.40
  -1   0  -8   58.29    2.70
   1   0   8   51.49    3.30
   1   0   8   54.19    3.30
  -2   0  -8  126.39    5.40
  -2   0  -8  128.49    5.50
   2   0   8  122.19    4.80
   2   0   8  125.09    5.10
   2   0   8  120.29    5.10
  -3   0  -8   31.40    3.20
  -3   0  -8   31.40    3.30
  -3   0  -8   30.80    3.60
   3   0   8   26.20    3.20
   3   0   8   34.60    3.60
  -4   0  -8   63.49    5.30
  -4   0  -8   54.29    4.60
  -4   0  -8   63.19    4.60
   4   0   8   54.39    4.30
   4   0   8   57.59    4.50
  -5   0  -8   29.00    4.40
  -5   0  -8   37.00    4.20
   5   0   8   27.40    3.90
   5   0   8   31.00    4.10
  -6   0  -8   50.59    5.10
  -6   0  -8   60.29    6.10
   6   0   8   46.10    5.20
   8  -1  -8   77.59    6.80
  -8   1   8   75.59    5.80
  -8   1   8   74.89    5.40
   7  -1  -8    4.30    2.40
   7  -1  -8   10.50    2.60
   7  -1  -8    6.00    2.90
  -7   1   8    3.80    2.20
  -7   1   8    4.90    2.10
   6  -1  -8   11.00    2.30
   6  -1  -8    8.00    2.20
   6  -1  -8   15.10    3.30
  -6   1   8    8.20    2.20
  -6   1   8    6.70    2.30
   5  -1  -8   37.80    3.30
   5  -1  -8   36.90    3.90
   5  -1  -8   36.40    3.20
   5  -1  -8   36.50    3.40
  -5   1   8   33.60    3.20
  -5   1   8   31.00    3.20
  -5   1   8   32.90    3.10
   4  -1  -8   54.19    3.60
   4  -1  -8   54.99    3.90
   4  -1  -8   52.99    3.50
   4  -1  -8   53.49    4.00
  -4   1   8   54.69    3.70
  -4   1   8   55.89    3.60
  -4   1   8   58.69    3.70
   3  -1  -8   18.90    2.50
   3  -1  -8   16.50    2.30
   3  -1  -8   17.80    2.10
   3  -1  -8   15.50    2.00
  -3   1   8   19.60    2.50
  -3   1   8   17.90    2.40
  -3   1   8   19.90    2.40
   2  -1  -8   16.60    2.30
   2  -1  -8   13.80    1.90
   2  -1  -8   15.60    1.90
   2  -1  -8   14.40    1.90
  -2   1   8   14.00    2.00
  -2   1   8   13.90    2.10
  -2   1   8   16.20    2.20
   1  -1  -8  111.59    4.20
   1  -1  -8  113.99    4.20
   1  -1  -8  114.49    4.90
  -1   1   8  115.69    4.80
  -1   1   8  121.29    4.70
  -1   1   8  119.89    4.70
   0  -1  -8  450.85   10.10
   0  -1  -8  446.06   10.10
   0  -1  -8  461.55   11.40
   0  -1  -8  454.05   11.20
   0   1   8  436.66   11.30
   0   1   8  467.55   11.20
  -1  -1  -8  209.98    5.40
  -1  -1  -8  206.88    5.40
  -1  -1  -8  201.88    6.80
  -1  -1  -8  207.98    6.90
   1   1   8  204.38    6.80
   1   1   8  202.78    6.70
  -2  -1  -8    2.60    1.90
  -2  -1  -8    1.90    1.70
   2   1   8    0.40    1.60
   2   1   8    0.80    1.50
  -3  -1  -8   33.90    3.60
  -3  -1  -8   40.70    4.10
  -3  -1  -8   34.90    3.60
   3   1   8   35.30    3.70
  -4  -1  -8   39.90    3.90
  -4  -1  -8   44.30    4.40
  -4  -1  -8   50.69    5.00
   4   1   8   47.50    4.90
   4   1   8   44.10    4.40
  -5  -1  -8    5.10    3.10
  -5  -1  -8   -3.70    2.80
   5   1   8    3.10    2.60
   5   1   8    2.90    2.70
   7  -2  -8   -1.30    2.10
   7  -2  -8    0.70    2.10
   7  -2  -8    1.70    2.90
  -7   2   8    0.70    2.00
  -7   2   8    0.20    2.00
   6  -2  -8  112.69    5.60
   6  -2  -8  120.89    6.20
   6  -2  -8  125.79    5.70
   6  -2  -8  126.39    6.90
  -6   2   8  116.99    5.80
  -6   2   8  102.49    5.50
   5  -2  -8    4.20    2.10
   5  -2  -8    1.00    1.80
   5  -2  -8    3.10    1.80
   5  -2  -8    3.40    2.10
  -5   2   8    1.50    1.80
  -5   2   8    1.00    1.60
   4  -2  -8   11.40    2.20
   4  -2  -8   13.00    2.20
   4  -2  -8   10.40    2.40
   4  -2  -8    7.10    2.20
  -4   2   8    7.30    2.00
  -4   2   8    9.10    2.00
  -4   2   8    9.00    2.10
   3  -2  -8   24.10    3.00
   3  -2  -8   16.30    2.20
   3  -2  -8   18.40    2.30
   3  -2  -8   17.50    2.50
  -3   2   8   18.70    2.50
  -3   2   8   22.40    2.70
  -3   2   8   20.20    2.50
   2  -2  -8    2.30    1.50
   2  -2  -8    0.50    1.40
   2  -2  -8    1.40    1.50
   2  -2  -8    3.60    1.90
  -2   2   8    2.40    1.50
  -2   2   8    5.30    1.60
  -2   2   8    3.00    1.70
   1  -2  -8   37.60    3.40
   1  -2  -8   32.60    2.60
   1  -2  -8   34.30    2.70
  -1   2   8   28.60    3.00
  -1   2   8   33.70    2.90
  -1   2   8   32.30    2.90
   0  -2  -8  202.58    5.70
   0  -2  -8  194.18    6.80
   0  -2  -8  204.88    5.70
   0  -2  -8  193.78    6.70
   0   2   8  201.78    6.70
   0   2   8  191.58    6.70
  -1  -2  -8  190.58    6.80
  -1  -2  -8  175.48    6.50
   1   2   8  184.48    6.50
   1   2   8  183.48    6.80
  -2  -2  -8   77.79    4.60
  -2  -2  -8   81.29    5.10
   2   2   8   77.79    4.70
   2   2   8   76.29    4.60
  -3  -2  -8   37.20    3.60
  -3  -2  -8   41.20    4.30
  -3  -2  -8   36.70    3.90
   3   2   8   39.10    4.20
  -4  -2  -8   17.40    3.70
  -4  -2  -8   15.40    3.40
   4   2   8   19.80    3.40
  -5  -2  -8   -0.10    3.10
  -5  -2  -8   -2.30    3.10
   5   2   8    1.50    2.50
   7  -3  -8   79.09    5.40
   7  -3  -8   86.49    5.50
   7  -3  -8   92.39    6.80
  -7   3   8   65.29    5.30
  -7   3   8   79.69    5.60
   6  -3  -8   60.89    4.60
   6  -3  -8   58.89    4.70
   6  -3  -8   61.59    5.70
  -6   3   8   66.49    4.90
  -6   3   8   52.79    4.70
   5  -3  -8   31.20    3.30
   5  -3  -8   42.90    3.70
   5  -3  -8   35.80    4.10
  -5   3   8   30.80    3.60
  -5   3   8   35.30    3.60
   4  -3  -8   23.00    3.30
   4  -3  -8   33.50    3.60
   4  -3  -8   27.50    3.00
   4  -3  -8   27.50    3.10
  -4   3   8   28.40    3.40
  -4   3   8   23.50    3.00
  -4   3   8   25.20    3.10
   3  -3  -8   59.29    4.50
   3  -3  -8   67.99    3.90
   3  -3  -8   71.79    4.40
   3  -3  -8   53.69    3.80
  -3   3   8   58.59    4.10
  -3   3   8   65.99    4.30
  -3   3   8   63.19    3.90
   2  -3  -8   73.79    4.60
   2  -3  -8   64.29    3.80
   2  -3  -8   59.99    3.80
  -2   3   8   70.89    4.20
  -2   3   8   70.59    4.50
  -2   3   8   74.39    4.10
   1  -3  -8   88.59    4.90
   1  -3  -8   88.59    4.10
   1  -3  -8   86.79    4.00
  -1   3   8   82.89    4.50
  -1   3   8   80.09    4.80
  -1   3   8   80.69    4.40
   0  -3  -8    6.30    1.60
   0  -3  -8    2.10    1.50
   0  -3  -8    3.90    2.00
   0  -3  -8    2.90    2.00
   0   3   8    4.90    2.10
   0   3   8    2.40    1.90
  -1  -3  -8    6.10    2.20
  -1  -3  -8    8.70    2.30
   1   3   8   10.60    2.40
   1   3   8   12.20    2.40
  -2  -3  -8   68.89    4.80
  -2  -3  -8   77.99    5.30
   2   3   8   73.79    4.70
   2   3   8   66.79    4.80
  -3  -3  -8  148.19    7.10
  -3  -3  -8  151.18    7.40
   3   3   8  145.99    7.20
  -4  -3  -8   27.00    4.40
  -4  -3  -8   31.90    4.50
   4   3   8   35.20    4.50
   7  -4  -8  108.49    6.40
   7  -4  -8  102.59    6.30
   7  -4  -8   89.39    7.20
  -7   4   8  111.39    6.60
  -7   4   8  100.99    6.20
  -7   4   8  114.09    6.60
   6  -4  -8   -0.70    2.60
   6  -4  -8    0.40    2.30
   6  -4  -8    0.70    2.20
  -6   4   8   -3.20    2.30
  -6   4   8   -0.10    2.10
  -6   4   8   -1.10    2.10
   5  -4  -8   12.40    2.70
   5  -4  -8   10.00    3.10
   5  -4  -8    7.80    2.50
  -5   4   8   11.70    2.70
  -5   4   8    7.50    2.60
   4  -4  -8   38.30    4.00
   4  -4  -8   30.90    3.20
   4  -4  -8   32.40    3.40
   4  -4  -8   36.60    4.20
  -4   4   8   32.00    3.60
  -4   4   8   37.30    3.70
   3  -4  -8  178.88    6.50
   3  -4  -8  173.88    6.40
   3  -4  -8  178.58    7.30
  -3   4   8  178.68    7.20
  -3   4   8  180.38    7.00
  -3   4   8  183.88    6.50
   2  -4  -8  419.46   10.40
   2  -4  -8  387.86   10.20
   2  -4  -8  396.06   11.40
  -2   4   8  383.96   11.30
  -2   4   8  393.36   10.60
  -2   4   8  378.16   10.90
   1  -4  -8   92.29    4.40
   1  -4  -8   98.79    4.50
   1  -4  -8   89.39    5.30
  -1   4   8   92.09    5.00
  -1   4   8   85.09    5.30
  -1   4   8   96.69    5.10
   0  -4  -8   59.29    4.60
   0  -4  -8   61.69    4.60
   0   4   8   60.39    4.40
   0   4   8   63.49    4.50
  -1  -4  -8   51.09    4.30
  -1  -4  -8   50.99    4.60
   1   4   8   52.59    4.40
   1   4   8   46.90    4.40
  -2  -4  -8   34.50    3.80
  -2  -4  -8   42.20    4.60
   2   4   8   51.59    5.00
  -3  -4  -8   42.70    4.80
  -3  -4  -8   32.80    4.60
   3   4   8   41.60    4.70
  -4  -4  -8   -1.40    3.10
  -4  -4  -8   -1.50    3.20
   4   4   8   -0.90    2.70
   6  -5  -8   11.70    3.70
   6  -5  -8   13.90    3.20
   6  -5  -8   13.60    3.20
  -6   5   8   13.20    3.50
  -6   5   8   13.80    3.10
  -6   5   8   16.50    3.30
   5  -5  -8  120.39    6.20
   5  -5  -8  113.79    6.00
   5  -5  -8  126.29    7.30
  -5   5   8  124.09    6.70
  -5   5   8  124.19    6.40
  -5   5   8  123.39    6.80
   4  -5  -8  158.48    7.80
   4  -5  -8  140.29    6.40
   4  -5  -8  168.08    7.80
   4  -5  -8  151.48    6.60
  -4   5   8  161.08    7.30
  -4   5   8  152.38    6.90
   3  -5  -8   31.70    3.40
   3  -5  -8   40.40    4.30
   3  -5  -8   34.80    3.60
  -3   5   8   35.50    4.10
  -3   5   8   26.70    3.30
   2  -5  -8  107.99    5.10
   2  -5  -8   97.49    6.00
   2  -5  -8  109.79    5.20
  -2   5   8   88.79    5.20
  -2   5   8  100.89    5.40
  -2   5   8   98.39    6.00
   1  -5  -8  255.37    9.10
   1  -5  -8  276.07    8.00
   1  -5  -8  277.57    8.00
  -1   5   8  266.27    9.00
  -1   5   8  258.77    9.20
  -1   5   8  259.17    8.80
   0  -5  -8   92.09    5.70
   0  -5  -8   91.09    5.70
   0   5   8  102.49    5.90
   0   5   8   90.99    5.50
  -1  -5  -8   -0.50    2.40
  -1  -5  -8    1.20    2.20
   1   5   8    1.60    2.60
   1   5   8   -1.30    2.30
  -2  -5  -8    4.70    2.70
  -2  -5  -8    1.20    2.90
   2   5   8    8.20    3.30
  -3  -5  -8    7.20    3.60
  -3  -5  -8    8.90    3.50
   3   5   8    7.30    3.50
   6  -6  -8    3.10    2.80
   6  -6  -8   -0.50    3.40
   6  -6  -8    1.10    2.60
  -6   6   8   -0.10    3.00
  -6   6   8   -1.70    2.60
  -6   6   8    3.80    3.20
   5  -6  -8   66.39    5.30
   5  -6  -8   70.79    5.40
   5  -6  -8   77.89    6.70
  -5   6   8   51.09    4.90
  -5   6   8   59.69    5.40
  -5   6   8   64.19    5.70
   4  -6  -8   72.29    6.40
   4  -6  -8   70.39    5.20
   4  -6  -8   68.29    5.20
  -4   6   8   72.39    5.30
  -4   6   8   71.79    6.10
   3  -6  -8    6.10    2.50
   3  -6  -8    6.30    2.50
   3  -6  -8    9.70    3.20
  -3   6   8    6.80    3.00
  -3   6   8    9.00    2.70
   2  -6  -8   24.90    3.10
   2  -6  -8   29.20    4.10
   2  -6  -8   28.10    3.30
  -2   6   8   26.50    3.50
  -2   6   8   26.10    4.00
   1  -6  -8   29.40    3.90
  -1   6   8   33.30    4.00
  -1   6   8   32.40    4.00
   0  -6  -8   30.20    4.10
   0  -6  -8   23.70    3.80
   0   6   8   36.20    4.30
   0   6   8   30.20    4.00
  -1  -6  -8   13.00    3.50
   1   6   8   17.60    3.60
   1   6   8   19.30    3.90
  -2  -6  -8    1.60    2.90
  -2  -6  -8   -5.00    2.80
   2   6   8   -0.30    3.20
   4  -7  -8   30.70    4.10
   4  -7  -8   28.50    4.10
   4  -7  -8   36.80    5.10
  -4   7   8   25.80    3.90
  -4   7   8   43.80    5.20
   3  -7  -8   62.59    5.90
   3  -7  -8   74.39    5.50
   3  -7  -8   71.49    5.50
  -3   7   8   67.49    5.40
  -3   7   8   58.89    5.70
   2  -7  -8   52.09    5.30
  -2   7   8   59.09    5.50
  -2   7   8   48.90    4.80
   1  -7  -8   23.10    4.00
   1  -7  -8   23.60    4.20
  -1   7   8   31.00    4.00
   0  -7  -8   31.30    4.50
   0   7   8   46.50    5.10
   0   7   8   28.70    4.40
   1   9  -9   20.80    3.40
   1   9  -9   22.80    4.10
   1   9  -9   23.50    3.40
  -1  -9   9   26.20    4.10
  -1  -9   9   20.00    4.00
   0   9  -9   19.80    4.00
   0   9  -9   17.80    3.40
   0   9  -9   23.70    3.40
   0  -9   9   21.90    3.80
  -1   9  -9   47.40    4.40
  -1   9  -9   46.90    5.00
  -1   9  -9   46.30    4.20
   1  -9   9   55.39    5.80
  -2   9  -9   51.59    5.50
  -2   9  -9   62.89    5.60
  -2   9  -9   60.99    4.90
  -2   9  -9   44.90    4.30
   2  -9   9   65.09    6.20
  -3   9  -9   26.20    3.60
  -3   9  -9   27.80    4.60
  -3   9  -9   26.40    4.40
  -3   9  -9   19.00    3.30
   3  -9   9   25.90    4.60
   3   8  -9   72.79    5.10
   3   8  -9   62.99    6.00
   3   8  -9   69.19    4.90
   3   8  -9   59.89    5.50
  -3  -8   9   59.49    5.90
   2   8  -9   53.19    4.30
   2   8  -9   52.39    4.20
   2   8  -9   41.10    4.80
   2   8  -9   56.19    5.30
  -2  -8   9   44.40    4.90
   1   8  -9   36.10    3.70
   1   8  -9   28.80    4.30
   1   8  -9   30.90    3.40
  -1  -8   9   29.70    3.90
  -1  -8   9   28.60    4.00
   0   8  -9   79.29    5.80
   0   8  -9   85.19    5.00
   0   8  -9   78.59    5.10
   0  -8   9   85.29    5.80
   0  -8   9   77.19    5.40
  -1   8  -9   36.20    4.40
  -1   8  -9   29.10    3.30
  -1   8  -9   38.30    3.70
  -1   8  -9   26.10    3.80
   1  -8   9   34.80    4.30
  -2   8  -9    2.80    2.30
  -2   8  -9   -0.40    2.90
  -2   8  -9    1.30    2.10
  -2   8  -9    0.90    2.60
   2  -8   9    4.60    2.60
  -3   8  -9   49.20    5.10
  -3   8  -9   58.99    5.70
  -3   8  -9   52.89    4.40
  -3   8  -9   40.90    4.00
   3  -8   9   41.50    5.00
  -4   8  -9   45.40    4.20
  -4   8  -9   50.59    4.40
  -4   8  -9   56.89    5.90
   4  -8   9   54.89    6.10
   4   7  -9   25.70    3.30
   4   7  -9   18.60    3.50
   4   7  -9   24.90    3.30
   4   7  -9   22.60    4.20
  -4  -7   9   25.50    4.30
   3   7  -9  183.58    6.70
   3   7  -9  180.98    6.80
   3   7  -9  173.38    7.70
   3   7  -9  163.18    8.00
  -3  -7   9  177.68    8.10
   2   7  -9  131.99    7.00
   2   7  -9  148.79    5.90
   2   7  -9  148.29    7.00
   2   7  -9  147.59    6.10
  -2  -7   9  146.09    7.10
   1   7  -9   51.19    4.70
   1   7  -9   54.09    4.10
   1   7  -9   60.39    4.10
  -1  -7   9   58.59    4.70
  -1  -7   9   57.29    4.50
   0   7  -9  261.17    8.80
   0   7  -9  247.88    7.80
   0   7  -9  244.38    9.00
   0   7  -9  252.77    7.90
   0  -7   9  258.97    9.10
   0  -7   9  244.88    8.50
  -1   7  -9   46.10    3.70
  -1   7  -9   51.49    3.90
  -1   7  -9   35.20    4.10
  -1   7  -9   51.19    4.50
   1  -7   9   49.20    4.80
  -2   7  -9   25.40    3.70
  -2   7  -9   25.90    3.10
  -2   7  -9   31.60    3.30
  -2   7  -9   20.00    3.40
   2  -7   9   24.80    3.80
  -3   7  -9  104.49    5.30
  -3   7  -9  103.69    6.40
  -3   7  -9  112.49    6.80
  -3   7  -9   96.19    5.20
   3  -7   9  113.69    6.70
  -4   7  -9   93.29    6.90
  -4   7  -9   86.59    5.10
  -4   7  -9   88.59    5.20
   4  -7   9   93.79    6.70
  -5   7  -9  180.28    9.10
   5  -7   9  174.38    9.20
   5   6  -9   10.70    3.30
   5   6  -9    5.10    2.70
  -5  -6   9   10.20    3.50
   4   6  -9  131.69    5.70
   4   6  -9  121.09    6.40
   4   6  -9  106.69    6.70
   4   6  -9  132.39    5.70
  -4  -6   9  118.99    6.60
   3   6  -9  172.78    7.00
   3   6  -9  169.98    6.30
   3   6  -9  174.88    6.30
   3   6  -9  145.69    7.20
  -3  -6   9  162.18    7.40
   2   6  -9   32.50    3.40
   2   6  -9   31.40    3.00
   2   6  -9   29.40    3.80
   2   6  -9   27.30    2.90
  -2  -6   9   27.40    3.70
   1   6  -9  258.37    7.70
   1   6  -9  266.47    8.90
   1   6  -9  254.77    7.80
  -1  -6   9  260.97    8.70
  -1  -6   9  255.17    8.50
   0   6  -9  426.66   11.30
   0   6  -9  406.26   10.50
   0   6  -9  408.76   10.50
   0   6  -9  407.76   11.60
   0  -6   9  404.26   11.20
   0  -6   9  416.66   11.60
  -1   6  -9    5.30    2.60
  -1   6  -9    6.40    2.40
  -1   6  -9    6.90    2.00
  -1   6  -9   12.00    2.20
   1  -6   9   11.30    2.70
   1  -6   9    8.40    2.10
  -2   6  -9   10.20    2.90
  -2   6  -9    7.80    2.10
  -2   6  -9    7.50    2.10
  -2   6  -9    3.90    2.20
   2  -6   9    6.40    2.40
  -3   6  -9    0.70    1.90
  -3   6  -9    2.50    2.10
  -3   6  -9    0.90    2.60
   3  -6   9    2.50    2.40
  -4   6  -9   71.09    5.80
  -4   6  -9   59.19    4.20
  -4   6  -9   55.89    4.20
   4  -6   9   68.49    5.80
  -5   6  -9  101.39    7.20
   5  -6   9  108.79    7.40
   6   5  -9   66.19    6.20
  -6  -5   9   53.29    5.60
  -6  -5   9   67.59    5.40
   5   5  -9   99.99    5.20
   5   5  -9  104.59    5.30
   5   5  -9   91.49    6.10
   5   5  -9   87.69    6.30
  -5  -5   9   98.29    6.30
  -5  -5   9  105.09    5.70
   4   5  -9    5.00    2.00
   4   5  -9    2.60    2.30
   4   5  -9    1.90    1.90
   4   5  -9    3.30    1.90
  -4  -5   9    2.00    2.30
  -4  -5   9    2.50    1.90
   3   5  -9   13.00    2.30
   3   5  -9   20.00    3.10
   3   5  -9   15.20    2.40
   3   5  -9   11.10    2.30
  -3  -5   9    7.60    2.40
   2   5  -9    2.60    1.90
   2   5  -9    6.60    1.90
   2   5  -9    8.10    2.00
   2   5  -9    5.90    1.90
  -2  -5   9    5.50    1.90
   1   5  -9   46.90    3.30
   1   5  -9   43.80    3.80
   1   5  -9   48.60    3.70
   1   5  -9   43.80    3.30
  -1  -5   9   46.70    3.40
  -1  -5   9   43.20    3.80
   0   5  -9   10.00    1.80
   0   5  -9    9.30    2.10
   0   5  -9   10.00    2.40
   0   5  -9   11.20    1.90
   0  -5   9   13.10    2.40
   0  -5   9   19.10    2.60
  -1   5  -9    3.40    1.50
  -1   5  -9    3.20    1.80
  -1   5  -9    1.90    1.60
  -1   5  -9    1.70    2.00
   1  -5   9    2.30    1.70
   1  -5   9    2.20    1.50
  -2   5  -9   42.30    3.20
  -2   5  -9   40.70    3.20
  -2   5  -9   48.40    4.50
   2  -5   9   52.69    4.10
   2  -5   9   42.70    3.40
  -3   5  -9    6.50    2.00
  -3   5  -9    6.70    2.70
  -3   5  -9    6.90    1.90
   3  -5   9    7.90    2.60
  -4   5  -9    3.00    2.70
  -4   5  -9    6.40    2.90
   4  -5   9    3.60    2.50
  -5   5  -9   26.90    4.20
  -5   5  -9   30.20    4.30
   5  -5   9   22.90    4.10
   6   4  -9   37.50    4.80
  -6  -4   9   44.70    5.00
  -6  -4   9   41.40    4.60
   5   4  -9  139.19    5.60
   5   4  -9  130.29    6.90
   5   4  -9  127.79    5.50
  -5  -4   9  131.69    6.80
  -5  -4   9  129.29    6.20
   4   4  -9   33.40    3.10
   4   4  -9   32.70    4.00
   4   4  -9   30.10    2.90
  -4  -4   9   32.50    3.80
  -4  -4   9   32.70    3.30
   3   4  -9   18.20    2.40
   3   4  -9   16.90    2.90
   3   4  -9   19.30    2.50
   3   4  -9   22.50    2.60
  -3  -4   9   21.90    2.40
  -3  -4   9   20.70    3.00
   2   4  -9   45.50    3.20
   2   4  -9   41.10    3.50
   2   4  -9   40.70    3.10
   2   4  -9   41.30    3.20
  -2  -4   9   40.50    3.60
  -2  -4   9   42.10    2.80
   1   4  -9   34.80    3.10
   1   4  -9   34.80    2.70
   1   4  -9   33.10    3.20
   1   4  -9   29.00    2.60
  -1  -4   9   35.00    3.40
  -1  -4   9   26.20    2.60
   0   4  -9  153.68    5.60
   0   4  -9  159.28    5.20
   0   4  -9  153.38    5.80
   0   4  -9  145.49    5.10
   0  -4   9  144.19    5.70
   0  -4   9  153.18    5.50
  -1   4  -9   55.69    3.20
  -1   4  -9   47.90    4.00
  -1   4  -9   52.19    3.40
  -1   4  -9   52.99    3.20
   1  -4   9   59.89    3.70
   1  -4   9   51.49    3.50
  -2   4  -9  345.27    8.70
  -2   4  -9  346.87   10.20
  -2   4  -9  334.17    9.20
  -2   4  -9  339.97    8.80
   2  -4   9  333.37    9.40
   2  -4   9  352.96   10.00
  -3   4  -9  195.48    7.70
  -3   4  -9  194.98    7.20
  -3   4  -9  199.08    6.20
  -3   4  -9  203.48    6.20
   3  -4   9  199.88    7.70
  -4   4  -9    6.70    2.80
  -4   4  -9   11.10    3.00
   4  -4   9    7.00    2.60
  -5   4  -9   19.20    3.70
  -5   4  -9   20.00    3.80
   5  -4   9   14.70    3.30
  -6   4  -9   77.69    7.00
  -6   4  -9   59.89    5.70
   6  -4   9   57.89    5.90
   7   3  -9    6.60    3.50
  -7  -3   9    4.20    2.80
  -7  -3   9    6.60    2.80
   6   3  -9   28.30    3.20
   6   3  -9   30.40    3.30
   6   3  -9   33.50    4.70
  -6  -3   9   25.70    3.80
  -6  -3   9   30.80    3.90
   5   3  -9   22.00    3.60
   5   3  -9   23.60    2.70
   5   3  -9   24.80    2.70
  -5  -3   9   28.30    3.40
  -5  -3   9   21.10    3.20
   4   3  -9  256.77    8.80
   4   3  -9  255.17    7.60
   4   3  -9  266.67    7.70
  -4  -3   9  243.48    8.50
  -4  -3   9  249.18    8.00
   3   3  -9  272.27    7.80
   3   3  -9  282.07    7.80
   3   3  -9  273.47    8.60
  -3  -3   9  278.57    8.80
  -3  -3   9  274.37    8.00
   2   3  -9  185.28    5.90
   2   3  -9  191.68    6.50
   2   3  -9  183.08    5.90
   2   3  -9  192.58    6.10
  -2  -3   9  194.48    5.90
  -2  -3   9  184.28    6.60
   1   3  -9   54.69    3.60
   1   3  -9   48.20    3.00
   1   3  -9   48.00    2.90
   1   3  -9   55.99    3.40
  -1  -3   9   49.20    2.80
  -1  -3   9   53.99    3.20
  -1  -3   9   48.00    3.40
   0   3  -9   29.60    2.40
   0   3  -9   32.80    2.50
   0   3  -9   33.00    3.10
   0   3  -9   30.90    2.50
   0  -3   9   34.00    2.50
   0  -3   9   29.60    2.40
   0  -3   9   31.70    2.90
  -1   3  -9  177.08    5.50
  -1   3  -9  180.88    5.80
  -1   3  -9  179.98    6.60
  -1   3  -9  182.58    5.60
   1  -3   9  190.48    6.10
   1  -3   9  174.48    6.10
  -2   3  -9  124.89    5.80
  -2   3  -9  124.19    4.40
  -2   3  -9  125.89    4.40
  -2   3  -9  123.69    5.20
   2  -3   9  119.99    5.20
   2  -3   9  121.69    5.10
  -3   3  -9   15.70    2.80
  -3   3  -9   11.20    2.70
   3  -3   9   10.50    2.30
   3  -3   9   12.20    2.60
  -4   3  -9  106.89    6.10
  -4   3  -9   88.39    5.80
   4  -3   9   92.09    5.60
  -5   3  -9   53.49    5.10
  -5   3  -9   61.69    5.60
   5  -3   9   49.20    5.10
  -6   3  -9   60.69    6.30
  -6   3  -9   64.69    5.80
   6  -3   9   59.09    6.20
   7   2  -9   29.90    4.60
  -7  -2   9   26.90    4.00
  -7  -2   9   29.10    3.90
   6   2  -9    1.90    2.00
   6   2  -9    0.30    1.80
   6   2  -9   -0.20    2.30
  -6  -2   9   -1.90    1.90
  -6  -2   9    0.60    2.00
   5   2  -9   32.80    4.10
   5   2  -9   32.40    3.00
   5   2  -9   29.70    2.80
  -5  -2   9   33.70    3.60
  -5  -2   9   29.70    3.40
   4   2  -9  137.39    6.20
   4   2  -9  135.09    5.30
   4   2  -9  152.38    5.40
  -4  -2   9  136.89    5.90
  -4  -2   9  142.59    5.70
   3   2  -9   53.89    3.30
   3   2  -9   53.39    3.80
   3   2  -9   50.09    3.30
   3   2  -9   57.99    3.60
  -3  -2   9   49.70    3.60
  -3  -2   9   53.59    3.40
   2   2  -9   96.79    4.30
   2   2  -9   91.19    4.40
   2   2  -9   93.79    3.90
   2   2  -9   88.39    3.80
  -2  -2   9   98.69    4.20
  -2  -2   9   88.79    4.40
  -2  -2   9   94.99    3.80
   1   2  -9   78.29    3.50
   1   2  -9   76.29    3.50
   1   2  -9   78.79    3.50
   1   2  -9   81.99    3.60
   1   2  -9   77.19    4.10
  -1  -2   9   78.09    3.60
  -1  -2   9   77.89    4.00
   0   2  -9  371.56    9.20
   0   2  -9  382.26    9.20
   0   2  -9  401.76    9.50
   0   2  -9  398.06   10.30
   0  -2   9  388.36    9.40
   0  -2   9  402.06   10.40
  -1   2  -9  626.44   13.50
  -1   2  -9  630.24   14.90
  -1   2  -9  609.44   14.10
  -1   2  -9  624.04   13.50
   1  -2   9  660.23   16.90
   1  -2   9  611.94   13.90
   1  -2   9  607.04   14.60
  -2   2  -9  125.69    5.60
  -2   2  -9  125.19    4.30
  -2   2  -9  115.39    5.20
   2  -2   9  116.59    4.90
   2  -2   9  117.19    5.10
  -3   2  -9  234.38    8.00
  -3   2  -9  214.78    7.90
   3  -2   9  227.88    7.80
   3  -2   9  216.98    7.50
  -4   2  -9  215.18    8.40
  -4   2  -9  202.48    8.10
   4  -2   9  197.38    7.40
   4  -2   9  203.88    8.00
  -5   2  -9   86.29    6.10
  -5   2  -9  104.89    7.10
   5  -2   9   97.29    6.50
  -6   2  -9    1.60    3.30
  -6   2  -9    3.60    3.80
   6  -2   9    1.10    3.00
   7   1  -9   96.99    5.30
   7   1  -9   93.69    6.70
   7   1  -9   98.99    5.30
  -7  -1   9  101.19    6.20
   6   1  -9   52.59    5.20
   6   1  -9   50.29    4.00
   6   1  -9   41.90    3.60
  -6  -1   9   50.89    4.40
  -6  -1   9   46.50    4.20
   5   1  -9    9.40    2.10
   5   1  -9   14.00    3.00
   5   1  -9   11.20    2.40
  -5  -1   9   11.10    2.40
  -5  -1   9   11.90    2.40
   4   1  -9   97.09    4.70
   4   1  -9  106.39    4.70
   4   1  -9  104.29    5.30
   4   1  -9  109.89    4.90
  -4  -1   9  113.59    5.00
  -4  -1   9  104.89    5.10
  -4  -1   9  110.29    4.60
   3   1  -9  211.28    6.50
   3   1  -9  215.48    6.80
   3   1  -9  203.78    6.40
   3   1  -9  205.78    6.90
  -3  -1   9  208.98    6.40
  -3  -1   9  215.48    7.10
  -3  -1   9  207.88    6.70
   2   1  -9   73.79    4.10
   2   1  -9   81.29    3.70
   2   1  -9   79.69    3.80
   2   1  -9   76.99    3.60
  -2  -1   9   80.09    4.10
  -2  -1   9   80.29    3.80
  -2  -1   9   72.99    3.70
   1   1  -9   20.50    2.10
   1   1  -9   24.10    2.60
   1   1  -9   23.60    2.10
   1   1  -9   22.70    2.10
   1   1  -9   21.50    2.30
  -1  -1   9   21.20    2.30
  -1  -1   9   24.30    2.70
   0   1  -9  380.96    9.20
   0   1  -9  404.16    9.80
   0   1  -9  383.46    9.20
   0   1  -9  397.66   10.30
   0  -1   9  379.66   10.20
   0  -1   9  390.16    9.80
  -1   1  -9  329.87    9.40
  -1   1  -9  339.47    9.10
  -1   1  -9  331.57    8.10
  -1   1  -9  342.77    8.10
   1  -1   9  327.17    9.30
   1  -1   9  328.77    8.90
  -2   1  -9   58.09    4.20
  -2   1  -9   65.49    4.30
   2  -1   9   55.29    3.80
   2  -1   9   55.49    3.90
  -3   1  -9  114.59    5.80
  -3   1  -9  126.39    6.00
  -3   1  -9  119.09    5.40
   3  -1   9  116.49    8.00
   3  -1   9  101.09    5.30
  -4   1  -9  322.77   10.80
  -4   1  -9  326.37   10.40
  -4   1  -9  317.77    9.90
   4  -1   9  321.17   10.10
   4  -1   9  333.07   10.70
  -5   1  -9   50.79    4.80
  -5   1  -9   56.29    5.90
   5  -1   9   68.89    5.70
   5  -1   9   53.19    5.80
   7   0  -9   66.79    4.80
   7   0  -9   58.39    4.50
   7   0  -9   53.69    5.60
  -7   0   9   60.59    5.00
   6   0  -9   25.00    4.00
   6   0  -9   32.00    3.30
   6   0  -9   25.50    3.10
  -6   0   9   22.00    2.90
  -6   0   9   30.90    3.70
  -6   0   9   23.80    3.20
   5   0  -9  114.19    5.20
   5   0  -9  117.69    5.30
   5   0  -9  109.99    6.00
   5   0  -9  122.19    5.60
  -5   0   9  109.89    5.30
  -5   0   9  107.49    5.40
  -5   0   9  115.59    5.50
   4   0  -9   36.60    3.30
   4   0  -9   40.50    3.80
   4   0  -9   42.70    3.40
   4   0  -9   46.70    3.50
  -4   0   9   42.00    3.60
  -4   0   9   35.60    3.30
  -4   0   9   39.20    3.40
   3   0  -9    3.90    1.60
   3   0  -9    4.60    1.90
   3   0  -9    6.80    1.70
   3   0  -9    3.50    1.80
  -3   0   9    3.80    1.70
  -3   0   9    5.30    1.80
  -3   0   9    5.10    1.80
   2   0  -9  119.79    4.60
   2   0  -9  124.39    5.20
   2   0  -9  117.49    4.50
   2   0  -9  119.79    4.50
  -2   0   9  117.69    4.80
  -2   0   9  120.19    4.90
  -2   0   9  124.49    5.10
   1   0  -9   41.70    2.80
   1   0  -9   46.10    3.60
   1   0  -9   37.40    2.80
  -1   0   9   49.50    3.30
  -1   0   9   44.90    3.30
   0   0  -9   95.59    3.70
   0   0  -9   94.79    4.60
   0   0  -9   89.89    3.70
   0   0  -9  103.59    4.70
   0   0   9   87.99    4.20
   0   0   9   92.59    4.40
  -1   0  -9  101.49    3.80
  -1   0  -9  103.59    3.70
  -1   0  -9   99.19    4.90
  -1   0  -9   95.69    4.80
   1   0   9   90.99    4.50
   1   0   9   98.89    4.80
  -2   0  -9   15.40    2.60
  -2   0  -9   16.90    2.90
   2   0   9   12.60    2.40
   2   0   9   12.70    2.40
  -3   0  -9   22.50    3.20
  -3   0  -9   21.90    3.20
  -3   0  -9   25.10    3.70
   3   0   9   20.50    3.20
  -4   0  -9   24.30    3.50
  -4   0  -9   25.00    3.60
  -4   0  -9   30.90    4.30
   4   0   9   29.20    3.70
  -5   0  -9   57.59    6.00
  -5   0  -9   39.80    4.60
   5   0   9   41.50    4.70
   7  -1  -9   36.70    3.80
   7  -1  -9   37.80    4.00
   7  -1  -9   36.70    4.90
  -7   1   9   27.60    3.40
  -7   1   9   33.80    4.00
   6  -1  -9  162.08    7.90
   6  -1  -9  165.18    6.70
   6  -1  -9  164.58    6.70
  -6   1   9  164.68    6.70
  -6   1   9  147.49    6.80
   5  -1  -9  504.75   12.70
   5  -1  -9  485.35   12.60
   5  -1  -9  504.05   13.00
   5  -1  -9  499.55   13.80
  -5   1   9  507.15   13.00
  -5   1   9  491.95   13.20
  -5   1   9  500.25   12.90
   4  -1  -9   26.90    2.90
   4  -1  -9   24.40    2.80
   4  -1  -9   29.30    3.30
   4  -1  -9   29.20    3.40
  -4   1   9   29.70    3.20
  -4   1   9   27.20    3.00
  -4   1   9   29.50    3.10
   3  -1  -9   14.50    2.20
   3  -1  -9    7.50    2.00
   3  -1  -9    6.60    2.20
   3  -1  -9    4.50    1.60
  -3   1   9    7.90    1.90
  -3   1   9    6.70    1.90
  -3   1   9    5.80    1.90
   2  -1  -9   41.90    3.10
   2  -1  -9   35.40    2.90
   2  -1  -9   53.99    4.00
  -2   1   9   43.30    3.30
  -2   1   9   38.40    3.50
  -2   1   9   45.00    3.40
   1  -1  -9  183.78    6.70
   1  -1  -9  192.58    5.90
   1  -1  -9  189.58    5.80
  -1   1   9  196.58    6.70
  -1   1   9  187.88    6.40
  -1   1   9  194.78    6.70
   0  -1  -9  539.15   12.00
   0  -1  -9  559.44   12.00
   0  -1  -9  541.75   13.40
   0  -1  -9  542.35   13.30
   0   1   9  543.45   13.20
   0   1   9  534.75   13.40
  -1  -1  -9  125.69    5.60
  -1  -1  -9  124.49    5.60
   1   1   9  117.49    5.30
   1   1   9  119.39    5.40
  -2  -1  -9  172.48    6.80
  -2  -1  -9  183.88    7.20
   2   1   9  171.38    6.90
   2   1   9  164.58    6.70
  -3  -1  -9  106.29    5.80
  -3  -1  -9  100.49    6.30
  -3  -1  -9   97.29    5.60
   3   1   9   91.49    5.50
  -4  -1  -9   -0.70    2.90
  -4  -1  -9    6.20    2.90
  -4  -1  -9    1.70    2.30
   4   1   9    2.50    2.30
  -5  -1  -9    8.00    3.40
  -5  -1  -9    7.90    3.80
   5   1   9   14.40    3.80
   7  -2  -9   29.50    3.70
   7  -2  -9   36.30    3.90
   7  -2  -9   29.00    4.60
  -7   2   9   23.30    3.30
  -7   2   9   19.50    3.40
   6  -2  -9  531.15   15.40
   6  -2  -9  561.04   14.60
   6  -2  -9  554.04   14.00
   6  -2  -9  536.85   14.00
  -6   2   9  558.94   14.70
  -6   2   9  533.35   14.60
   5  -2  -9  567.24   15.20
   5  -2  -9  556.84   14.00
   5  -2  -9  593.54   14.80
   5  -2  -9  567.24   14.10
  -5   2   9  546.65   14.70
  -5   2   9  584.94   14.70
   4  -2  -9  126.59    5.50
   4  -2  -9  122.29    6.00
   4  -2  -9  136.69    6.00
   4  -2  -9  125.79    5.60
  -4   2   9  128.19    6.00
  -4   2   9  132.99    5.60
  -4   2   9  125.79    5.70
   3  -2  -9  170.88    6.90
   3  -2  -9  186.58    6.40
   3  -2  -9  170.18    6.10
   3  -2  -9  176.18    6.20
  -3   2   9  168.78    6.70
  -3   2   9  176.28    6.40
  -3   2   9  168.88    6.50
   2  -2  -9  165.58    5.90
   2  -2  -9  173.68    6.00
   2  -2  -9  176.68    6.90
  -2   2   9  170.78    6.70
  -2   2   9  177.78    6.50
  -2   2   9  182.78    6.50
   1  -2  -9  187.38    6.00
   1  -2  -9  193.78    7.10
   1  -2  -9  187.58    6.00
  -1   2   9  187.48    6.80
  -1   2   9  189.18    7.00
  -1   2   9  183.18    6.70
   0  -2  -9   11.40    1.90
   0  -2  -9    9.60    2.30
   0  -2  -9    7.30    1.80
   0  -2  -9    7.40    2.20
   0   2   9   11.30    2.40
   0   2   9    9.60    2.20
  -1  -2  -9   46.20    4.10
  -1  -2  -9   42.70    4.00
   1   2   9   55.59    4.00
   1   2   9   39.60    3.90
  -2  -2  -9  291.47    9.80
  -2  -2  -9  300.77    9.30
   2   2   9  291.17    9.40
   2   2   9  281.87    9.60
  -3  -2  -9  103.19    5.80
  -3  -2  -9  101.09    6.50
  -3  -2  -9   98.69    6.00
   3   2   9  108.19    6.10
  -4  -2  -9   19.20    3.80
  -4  -2  -9   27.20    4.30
   4   2   9   18.90    3.70
   7  -3  -9   29.00    4.90
   7  -3  -9   29.60    3.90
   7  -3  -9   35.00    4.40
   7  -3  -9   34.20    4.10
  -7   3   9   34.20    4.40
  -7   3   9   31.00    4.00
   6  -3  -9   10.90    3.30
   6  -3  -9   12.30    2.90
   6  -3  -9    8.50    2.70
   6  -3  -9   11.80    3.10
  -6   3   9    8.80    2.90
  -6   3   9    6.70    2.80
   5  -3  -9    3.90    2.20
   5  -3  -9    2.40    2.50
   5  -3  -9    1.80    2.50
   5  -3  -9    2.60    2.10
  -5   3   9    3.40    2.30
  -5   3   9    3.80    2.30
   4  -3  -9   38.60    4.20
   4  -3  -9   35.80    3.50
   4  -3  -9   40.80    3.60
   4  -3  -9   43.10    4.10
  -4   3   9   30.20    4.10
  -4   3   9   35.40    3.70
  -4   3   9   35.70    3.80
   3  -3  -9  222.58    7.40
   3  -3  -9  217.18    7.40
   3  -3  -9  226.78    8.20
  -3   3   9  229.38    8.10
  -3   3   9  216.28    7.80
  -3   3   9  228.28    7.60
   2  -3  -9   95.99    4.60
   2  -3  -9   87.19    4.50
   2  -3  -9   87.29    5.40
  -2   3   9   91.49    5.00
  -2   3   9   84.29    4.90
  -2   3   9   92.89    5.30
   1  -3  -9   15.30    2.90
   1  -3  -9   16.40    2.30
   1  -3  -9   18.80    2.50
  -1   3   9   20.50    3.00
  -1   3   9   19.50    2.90
  -1   3   9   18.00    2.80
   0  -3  -9    4.20    2.10
   0  -3  -9    6.10    2.30
   0   3   9    3.20    2.20
   0   3   9    2.80    2.10
  -1  -3  -9   21.90    3.10
  -1  -3  -9   17.80    3.20
   1   3   9   21.20    3.10
   1   3   9   19.60    3.20
  -2  -3  -9   19.60    3.20
  -2  -3  -9   24.10    3.80
   2   3   9   22.50    3.40
   2   3   9   28.90    3.90
  -3  -3  -9   82.29    6.00
  -3  -3  -9   80.39    6.40
   3   3   9   79.39    5.90
  -4  -3  -9   21.20    4.30
  -4  -3  -9   18.50    4.00
   4   3   9   25.00    4.30
   6  -4  -9    8.10    2.90
   6  -4  -9    9.10    3.30
   6  -4  -9    4.80    2.80
   6  -4  -9    9.80    3.30
  -6   4   9    9.10    3.00
  -6   4   9    7.50    2.80
   5  -4  -9  144.99    7.50
   5  -4  -9  140.99    6.50
   5  -4  -9  140.29    6.50
   5  -4  -9  146.79    7.40
  -5   4   9  131.89    6.70
  -5   4   9  144.59    7.20
   4  -4  -9    5.50    2.40
   4  -4  -9   14.40    2.70
   4  -4  -9   11.30    3.10
  -4   4   9    6.50    2.60
  -4   4   9    9.90    2.90
   3  -4  -9   86.99    5.00
   3  -4  -9   97.19    6.00
   3  -4  -9   82.59    4.90
  -3   4   9   86.09    5.30
  -3   4   9   92.19    5.10
  -3   4   9   91.59    5.70
   2  -4  -9    3.40    2.70
   2  -4  -9    4.20    2.20
   2  -4  -9    7.90    2.20
  -2   4   9    7.50    2.50
  -2   4   9    7.60    2.50
  -2   4   9    5.00    2.50
   1  -4  -9   50.29    3.80
   1  -4  -9   38.80    3.30
   1  -4  -9   30.90    4.00
  -1   4   9   50.19    4.50
  -1   4   9   35.10    3.90
  -1   4   9   41.50    4.00
   0  -4  -9  206.68    8.10
   0  -4  -9  209.08    8.10
   0   4   9  225.28    8.30
   0   4   9  204.78    7.90
  -1  -4  -9  161.98    7.10
  -1  -4  -9  160.58    7.40
   1   4   9  153.38    7.20
   1   4   9  170.08    7.50
  -2  -4  -9   10.40    3.40
   2   4   9   13.90    3.60
  -3  -4  -9    4.20    2.90
  -3  -4  -9    0.80    3.30
   3   4   9    2.00    2.80
   6  -5  -9   41.60    4.40
   6  -5  -9   34.80    5.20
   6  -5  -9   31.20    4.90
   6  -5  -9   37.90    4.40
  -6   5   9   31.90    4.40
  -6   5   9   33.40    4.40
   5  -5  -9   -3.60    2.20
   5  -5  -9   -2.20    2.40
   5  -5  -9    1.80    3.00
  -5   5   9    1.90    2.80
  -5   5   9    0.40    2.70
   4  -5  -9   37.70    4.70
   4  -5  -9   34.70    3.80
   4  -5  -9   31.60    3.80
  -4   5   9   35.80    4.10
  -4   5   9   38.40    4.60
   3  -5  -9    7.60    3.00
   3  -5  -9    9.40    2.70
   3  -5  -9    9.10    2.70
  -3   5   9    9.80    2.80
  -3   5   9    9.60    3.20
   2  -5  -9    5.60    2.90
   2  -5  -9    1.60    2.20
   2  -5  -9    5.00    2.20
  -2   5   9    1.70    2.40
  -2   5   9    3.10    2.20
  -2   5   9    2.70    2.70
   1  -5  -9   58.59    5.30
  -1   5   9   65.59    5.30
  -1   5   9   74.89    5.30
   0  -5  -9   79.19    5.90
   0  -5  -9   65.69    5.90
   0   5   9   87.99    5.70
   0   5   9   90.79    6.00
  -1  -5  -9   39.60    4.60
  -1  -5  -9   43.20    4.40
   1   5   9   53.29    5.40
   1   5   9   39.80    4.60
  -2  -5  -9    2.10    3.00
  -2  -5  -9   -2.10    3.00
   2   5   9   -2.00    2.80
   5  -6  -9   22.20    4.40
   5  -6  -9   21.10    3.70
   5  -6  -9   14.60    3.50
  -5   6   9   23.20    4.20
  -5   6   9   21.10    3.80
   4  -6  -9   52.69    5.60
   4  -6  -9   49.99    4.70
   4  -6  -9   48.10    4.50
  -4   6   9   49.40    5.30
  -4   6   9   48.80    4.70
   3  -6  -9   21.20    3.40
   3  -6  -9   24.80    4.20
   3  -6  -9   31.50    3.70
  -3   6   9   24.90    4.50
  -3   6   9   23.30    3.60
   2  -6  -9   54.79    4.50
   2  -6  -9   61.09    4.90
   2  -6  -9   49.30    5.20
  -2   6   9   58.99    5.10
  -2   6   9   63.19    5.60
   1  -6  -9   34.00    4.50
   1  -6  -9   36.40    4.50
  -1   6   9   39.80    4.60
  -1   6   9   31.50    4.00
   0  -6  -9   54.29    5.60
   0  -6  -9   45.10    4.90
   0   6   9   49.40    4.90
   0   6   9   53.49    5.40
  -1  -6  -9    5.70    3.30
   1   6   9    5.90    3.40
   1   6   9    4.40    3.10
   2  -7  -9   84.29    7.00
  -2   7   9   73.89    5.80
  -2   7   9   64.49    6.00
   1   9 -10   80.29    5.60
   1   9 -10   81.39    6.60
   1   9 -10   84.39    5.80
  -1  -9  10   90.09    6.70
   0   9 -10   36.50    5.00
   0   9 -10   38.10    4.10
   0   9 -10   38.50    4.10
   0  -9  10   39.50    5.10
  -1   9 -10   87.69    5.60
  -1   9 -10   79.19    6.40
  -1   9 -10   70.19    5.50
   1  -9  10   82.69    6.60
   3   8 -10   12.30    3.80
   3   8 -10   18.20    3.80
   3   8 -10   13.40    2.90
   3   8 -10   16.20    3.20
  -3  -8  10   11.60    3.90
   2   8 -10   46.30    4.10
   2   8 -10   43.30    4.10
   2   8 -10   38.70    4.80
  -2  -8  10   43.00    5.00
  -2  -8  10   35.50    4.60
   1   8 -10   23.60    3.30
   1   8 -10   14.10    3.40
   1   8 -10   18.40    3.20
  -1  -8  10   15.60    3.40
  -1  -8  10   19.90    3.60
   0   8 -10   30.50    4.30
   0   8 -10   37.50    3.80
   0   8 -10   44.00    4.00
   0  -8  10   35.60    4.50
   0  -8  10   32.20    4.00
  -1   8 -10   94.49    6.50
  -1   8 -10   78.79    5.10
  -1   8 -10  102.59    6.30
  -1   8 -10   98.19    5.40
   1  -8  10   91.49    6.30
  -2   8 -10   33.70    4.70
  -2   8 -10   30.80    4.40
  -2   8 -10   31.10    3.70
  -2   8 -10   25.60    3.40
   2  -8  10   34.00    4.50
  -3   8 -10   93.19    5.60
  -3   8 -10  112.99    7.60
  -3   8 -10   88.39    5.60
   3  -8  10  109.39    7.20
   4   7 -10   18.00    3.10
   4   7 -10   16.80    3.00
   4   7 -10    8.50    3.30
   4   7 -10   17.40    3.50
  -4  -7  10   16.80    4.00
   3   7 -10   15.10    2.90
   3   7 -10   18.40    3.60
   3   7 -10   17.40    2.90
   3   7 -10   15.60    3.20
  -3  -7  10   18.80    3.80
   2   7 -10   55.59    4.50
   2   7 -10   53.29    5.20
   2   7 -10   57.39    4.30
  -2  -7  10   52.09    5.00
  -2  -7  10   55.29    4.90
   1   7 -10   46.40    3.80
   1   7 -10   41.10    3.80
   1   7 -10   39.60    4.20
  -1  -7  10   51.99    4.70
  -1  -7  10   56.59    5.00
   0   7 -10   25.10    3.60
   0   7 -10   23.60    3.90
   0   7 -10   26.90    3.30
   0   7 -10   23.00    2.90
   0  -7  10   25.60    3.40
   0  -7  10   29.60    3.80
  -1   7 -10   21.20    3.30
  -1   7 -10   23.70    3.00
  -1   7 -10   21.90    3.00
  -1   7 -10   25.40    3.90
   1  -7  10   20.40    3.40
  -2   7 -10   61.09    4.40
  -2   7 -10   55.39    4.40
  -2   7 -10   69.79    5.90
  -2   7 -10   64.79    6.70
   2  -7  10   70.69    5.40
  -3   7 -10   96.69    5.40
  -3   7 -10  112.09    7.00
  -3   7 -10  100.19    5.50
   3  -7  10  105.29    6.70
  -4   7 -10   42.10    5.10
  -4   7 -10   39.20    3.90
  -4   7 -10   34.20    3.70
   4  -7  10   45.40    5.30
   5   6 -10    8.00    3.50
   5   6 -10   11.30    3.30
   5   6 -10   10.00    3.30
  -5  -6  10    9.40    3.70
   4   6 -10   66.59    4.80
   4   6 -10   55.09    5.60
   4   6 -10   64.59    4.60
  -4  -6  10   57.99    5.40
   3   6 -10   28.40    3.40
   3   6 -10   35.50    3.50
   3   6 -10   31.00    3.20
   3   6 -10   25.90    3.80
  -3  -6  10   27.90    3.80
   2   6 -10  109.39    5.10
   2   6 -10   97.39    5.70
   2   6 -10  107.49    5.10
  -2  -6  10  103.49    6.00
   1   6 -10  206.28    6.90
   1   6 -10  207.68    6.90
   1   6 -10  193.08    7.70
  -1  -6  10  203.98    7.90
  -1  -6  10  196.68    7.40
   0   6 -10  215.48    7.10
   0   6 -10  220.28    7.10
   0   6 -10  217.48    7.90
   0   6 -10  224.38    8.00
   0  -6  10  221.18    8.00
   0  -6  10  213.18    7.90
  -1   6 -10   -0.40    1.80
  -1   6 -10    2.20    1.80
  -1   6 -10   -0.30    1.90
  -1   6 -10   -0.40    2.30
   1  -6  10   -1.30    1.70
   1  -6  10    0.10    1.80
  -2   6 -10   47.90    4.90
  -2   6 -10   48.20    3.80
  -2   6 -10   48.10    3.80
   2  -6  10   48.10    4.40
  -3   6 -10   44.60    3.70
  -3   6 -10   54.29    4.10
  -3   6 -10   53.19    5.20
   3  -6  10   47.90    5.00
  -4   6 -10   68.49    6.20
   4  -6  10   70.49    6.00
  -5   6 -10   28.50    4.80
   5  -6  10   27.30    4.70
   5   5 -10    3.80    2.30
   5   5 -10    3.10    2.70
   5   5 -10    3.30    2.30
  -5  -5  10    5.80    2.50
  -5  -5  10    2.10    2.80
   4   5 -10   -0.20    1.90
   4   5 -10   -0.70    2.40
   4   5 -10    4.60    2.00
  -4  -5  10    3.30    2.50
   3   5 -10   82.39    4.70
   3   5 -10   79.69    4.60
   3   5 -10   74.49    5.30
  -3  -5  10   76.39    5.20
   2   5 -10  176.58    6.30
   2   5 -10  164.18    7.00
   2   5 -10  176.68    6.30
  -2  -5  10  171.48    7.10
   1   5 -10  225.38    7.00
   1   5 -10  219.08    7.40
   1   5 -10  225.88    7.80
   1   5 -10  217.08    7.00
  -1  -5  10  220.28    7.60
  -1  -5  10  206.28    7.70
   0   5 -10  472.05   11.50
   0   5 -10  462.65   11.50
   0   5 -10  475.65   12.40
   0   5 -10  481.05   12.20
   0  -5  10  432.06   12.20
   0  -5  10  474.45   12.30
  -1   5 -10   57.49    3.70
  -1   5 -10   64.99    4.90
  -1   5 -10   56.99    3.70
   1  -5  10   63.79    4.20
   1  -5  10   59.29    4.30
  -2   5 -10   81.39    4.30
  -2   5 -10   96.19    5.80
  -2   5 -10   79.89    4.30
   2  -5  10   77.79    4.50
   2  -5  10   82.69    5.10
  -3   5 -10   83.79    4.50
  -3   5 -10   84.79    4.50
  -3   5 -10   83.19    6.00
   3  -5  10   83.49    5.50
  -4   5 -10   11.60    3.50
   4  -5  10   23.10    3.90
  -5   5 -10   70.19    6.80
  -5   5 -10   55.19    5.70
   5  -5  10   68.79    6.10
   6   4 -10   13.50    2.80
   6   4 -10   11.10    2.80
   6   4 -10   12.20    3.60
  -6  -4  10    8.70    3.00
  -6  -4  10   10.20    2.90
   5   4 -10   11.60    2.30
   5   4 -10   13.10    2.50
   5   4 -10    6.70    3.00
  -5  -4  10   11.50    2.80
  -5  -4  10    7.50    2.80
   4   4 -10  229.68    7.40
   4   4 -10  238.78    7.50
   4   4 -10  212.48    8.50
  -4  -4  10  219.38    7.60
  -4  -4  10  213.78    8.50
   3   4 -10  353.46   10.70
   3   4 -10  347.67    9.60
   3   4 -10  354.46    9.70
  -3  -4  10  367.96    9.70
  -3  -4  10  336.37   10.60
   2   4 -10   35.40    3.10
   2   4 -10   24.60    2.70
   2   4 -10   34.70    3.20
   2   4 -10   24.20    3.10
  -2  -4  10   33.10    3.50
  -2  -4  10   26.80    2.60
   1   4 -10   73.89    3.90
   1   4 -10   79.49    4.30
   1   4 -10   85.59    4.60
   1   4 -10   73.99    4.00
  -1  -4  10   69.19    4.40
   0   4 -10  138.79    5.40
   0   4 -10  133.79    5.10
   0   4 -10  131.59    5.80
   0   4 -10  133.39    5.10
   0  -4  10  122.19    5.50
  -1   4 -10  135.09    5.10
  -1   4 -10  142.89    5.20
  -1   4 -10  144.69    6.30
   1  -4  10  128.09    5.60
   1  -4  10  149.19    6.10
  -2   4 -10  355.16    9.20
  -2   4 -10  360.36    9.20
  -2   4 -10  342.67   10.70
   2  -4  10  374.96   10.60
   2  -4  10  336.77    9.90
  -3   4 -10   34.00    3.70
  -3   4 -10   32.70    2.90
  -3   4 -10   30.60    2.90
  -3   4 -10   30.10    3.80
   3  -4  10   31.00    3.70
   3  -4  10   37.60    4.00
  -4   4 -10    6.30    2.90
  -4   4 -10    2.70    2.80
   4  -4  10    7.80    2.80
  -5   4 -10   18.60    4.00
  -5   4 -10   10.70    3.70
   5  -4  10   10.70    3.30
   6   3 -10   -1.10    2.00
   6   3 -10    1.90    2.10
   6   3 -10   -0.80    2.50
  -6  -3  10   -0.50    2.30
  -6  -3  10   -1.10    2.10
   5   3 -10   36.20    3.40
   5   3 -10   28.80    3.20
   5   3 -10   35.40    4.30
  -5  -3  10   30.30    3.60
  -5  -3  10   33.00    3.90
   4   3 -10  138.09    6.50
   4   3 -10  143.79    5.70
   4   3 -10  139.59    5.60
  -4  -3  10  140.79    6.00
  -4  -3  10  126.99    6.30
   3   3 -10  145.69    5.50
   3   3 -10  138.69    6.10
   3   3 -10  146.29    5.60
  -3  -3  10  139.79    5.60
  -3  -3  10  147.49    6.40
   2   3 -10   22.10    2.50
   2   3 -10   22.80    2.40
   2   3 -10   20.60    2.60
   2   3 -10   24.00    2.70
  -2  -3  10   26.80    2.70
  -2  -3  10   16.80    2.60
   1   3 -10   30.60    3.00
   1   3 -10   36.70    3.30
   1   3 -10   26.20    2.60
   1   3 -10   25.10    2.50
  -1  -3  10   26.60    2.50
  -1  -3  10   22.60    2.80
   0   3 -10  106.29    4.40
   0   3 -10  106.09    4.40
   0   3 -10  106.79    5.20
   0  -3  10  105.79    4.40
   0  -3  10  101.19    4.90
  -1   3 -10    9.60    1.90
  -1   3 -10   15.00    2.70
  -1   3 -10   13.80    2.30
  -1   3 -10   11.40    1.90
   1  -3  10   15.30    2.50
  -2   3 -10   55.19    3.20
  -2   3 -10   45.70    3.90
  -2   3 -10   51.79    4.50
  -2   3 -10   54.29    3.30
   2  -3  10   47.40    3.80
  -3   3 -10    4.00    2.40
  -3   3 -10    0.20    2.10
   3  -3  10   -0.40    1.80
   3  -3  10   -3.10    1.90
  -4   3 -10   13.50    3.40
  -4   3 -10   16.90    3.40
   4  -3  10   17.30    3.20
  -5   3 -10  110.19    7.40
  -5   3 -10   96.99    6.80
   5  -3  10  114.09    7.00
   7   2 -10    7.80    3.50
   7   2 -10    4.30    2.40
   7   2 -10    3.70    2.30
  -7  -2  10    0.40    2.60
  -7  -2  10    1.40    2.40
   6   2 -10    4.60    2.90
   6   2 -10    3.60    2.10
   6   2 -10    2.50    2.00
  -6  -2  10    2.20    2.10
  -6  -2  10    3.30    2.40
   5   2 -10   55.79    4.00
   5   2 -10   48.90    4.90
   5   2 -10   48.20    3.80
  -5  -2  10   42.20    4.10
  -5  -2  10   55.69    4.60
   4   2 -10   24.50    2.80
   4   2 -10   21.30    2.80
   4   2 -10   17.60    3.10
  -4  -2  10   17.90    2.90
  -4  -2  10   18.10    2.60
   3   2 -10    6.80    1.80
   3   2 -10    8.90    1.90
   3   2 -10    4.80    2.00
   3   2 -10    7.60    2.20
  -3  -2  10    5.10    2.00
  -3  -2  10    6.60    1.80
   2   2 -10   34.90    3.20
   2   2 -10   34.00    2.80
   2   2 -10   32.70    3.00
   2   2 -10   29.10    2.60
  -2  -2  10   24.00    3.00
  -2  -2  10   34.40    2.90
   1   2 -10  108.59    5.10
   1   2 -10  109.59    4.40
   1   2 -10  111.19    4.50
   1   2 -10  115.29    4.50
  -1  -2  10  113.89    5.20
  -1  -2  10  100.69    4.50
   0   2 -10   38.00    2.90
   0   2 -10   50.89    3.90
   0   2 -10   41.80    3.20
   0   2 -10   46.10    3.00
   0  -2  10   49.70    3.30
   0  -2  10   42.30    3.40
  -1   2 -10   55.19    3.20
  -1   2 -10   52.39    3.70
  -1   2 -10   47.50    3.20
  -1   2 -10   47.00    4.20
   1  -2  10   42.70    3.40
   1  -2  10   47.70    3.60
  -2   2 -10   55.79    3.10
  -2   2 -10   55.79    4.20
  -2   2 -10   53.49    3.20
  -2   2 -10   60.09    4.60
   2  -2  10   54.59    3.80
   2  -2  10   53.29    4.00
  -3   2 -10   55.59    4.70
  -3   2 -10   58.69    4.90
   3  -2  10   52.59    4.20
  -4   2 -10  102.39    6.60
  -4   2 -10   88.99    6.00
   4  -2  10   77.29    5.20
  -5   2 -10  101.69    7.50
  -5   2 -10  105.59    7.00
   7   1 -10   32.30    4.80
   7   1 -10   30.70    3.60
   7   1 -10   35.90    3.70
  -7  -1  10   33.70    4.10
   6   1 -10   89.69    5.10
   6   1 -10  100.39    6.40
   6   1 -10   95.69    5.20
  -6  -1  10   92.09    5.70
  -6  -1  10   98.39    5.70
   5   1 -10   73.89    4.70
   5   1 -10   78.19    4.70
   5   1 -10   86.19    5.50
  -5  -1  10   83.59    4.90
  -5  -1  10   76.59    4.90
   4   1 -10  155.38    6.20
   4   1 -10  154.88    6.60
   4   1 -10  155.08    6.00
   4   1 -10  156.08    6.00
  -4  -1  10  164.88    6.60
  -4  -1  10  170.48    6.80
  -4  -1  10  151.38    6.30
   3   1 -10   32.00    2.90
   3   1 -10   36.10    3.30
   3   1 -10   34.90    3.00
   3   1 -10   36.90    3.40
  -3  -1  10   34.40    3.30
  -3  -1  10   38.90    3.60
  -3  -1  10   31.80    2.90
   2   1 -10  139.69    5.20
   2   1 -10  141.69    5.30
   2   1 -10  136.09    5.10
   2   1 -10  143.89    5.80
  -2  -1  10  139.29    5.40
  -2  -1  10  138.19    5.80
  -2  -1  10  140.89    5.40
   1   1 -10  166.78    5.30
   1   1 -10  164.78    6.30
   1   1 -10  164.58    5.40
   1   1 -10  158.38    5.60
  -1  -1  10  152.58    6.10
  -1  -1  10  160.08    5.70
   0   1 -10    4.80    2.00
   0   1 -10    4.50    1.80
   0   1 -10    2.70    1.40
   0   1 -10    3.80    1.60
   0  -1  10    4.40    1.80
   0  -1  10    4.50    1.70
  -1   1 -10   59.79    4.40
  -1   1 -10   63.99    4.20
  -1   1 -10   70.39    3.40
  -1   1 -10   66.79    3.40
   1  -1  10   66.99    4.30
   1  -1  10   64.29    4.00
  -2   1 -10    0.00    2.10
  -2   1 -10    5.40    2.30
   2  -1  10    2.90    2.00
   2  -1  10    0.10    1.80
  -3   1 -10   37.70    4.10
  -3   1 -10   36.80    3.60
  -3   1 -10   46.70    4.50
   3  -1  10   31.20    3.80
  -4   1 -10  196.78    8.70
  -4   1 -10  185.98    8.10
   4  -1  10  177.68    7.60
  -5   1 -10   27.70    5.00
  -5   1 -10   29.60    4.20
   7   0 -10    8.60    2.60
   7   0 -10    5.70    2.70
   7   0 -10    9.30    3.60
  -7   0  10    9.30    3.00
   6   0 -10   12.40    3.30
   6   0 -10   12.80    2.80
   6   0 -10   15.70    2.90
  -6   0  10   14.10    3.60
  -6   0  10   15.50    3.00
   5   0 -10  151.28    7.20
   5   0 -10  143.89    6.40
   5   0 -10  145.69    6.20
   5   0 -10  143.89    6.20
  -5   0  10  142.29    6.40
  -5   0  10  156.58    6.40
  -5   0  10  160.88    6.70
   4   0 -10   93.99    5.30
   4   0 -10   99.09    4.90
   4   0 -10   97.99    5.40
   4   0 -10   95.49    4.90
  -4   0  10   93.39    5.10
  -4   0  10  103.19    5.10
  -4   0  10   95.79    5.20
   3   0 -10    1.90    1.70
   3   0 -10    2.60    1.70
   3   0 -10    2.90    1.70
   3   0 -10    3.30    2.10
  -3   0  10    2.40    1.70
  -3   0  10    1.70    1.80
  -3   0  10    3.50    1.80
   2   0 -10   72.69    4.50
   2   0 -10   68.39    3.90
   2   0 -10   75.49    4.00
  -2   0  10   73.99    4.10
  -2   0  10   71.99    4.30
  -2   0  10   76.29    4.40
   1   0 -10  115.99    5.40
   1   0 -10  112.29    4.50
   1   0 -10  114.49    5.10
   1   0 -10  125.39    4.70
  -1   0  10  116.69    5.30
  -1   0  10  113.49    5.10
   0   0 -10  340.47    8.40
   0   0 -10  336.27    9.80
   0   0 -10  350.86    9.70
   0   0 -10  341.67    8.50
   0   0  10  321.37    9.70
   0   0  10  318.17    9.20
  -1   0 -10  265.67    7.40
  -1   0 -10  246.08    8.30
  -1   0 -10  254.57    8.30
  -1   0 -10  259.87    7.40
   1   0  10  237.08    7.80
   1   0  10  246.08    8.30
  -2   0 -10   41.70    4.20
  -2   0 -10   41.10    4.10
   2   0  10   38.10    3.70
   2   0  10   41.00    3.90
  -3   0 -10  121.29    6.50
  -3   0 -10  118.29    6.10
  -3   0 -10  128.29    6.90
   3   0  10  113.89    6.10
  -4   0 -10   76.49    5.80
  -4   0 -10   88.29    6.10
  -4   0 -10   90.39    6.90
   4   0  10   81.29    5.50
  -5   0 -10   48.90    5.90
  -5   0 -10   65.39    6.50
   5   0  10   59.19    5.60
   7  -1 -10   41.70    4.10
   7  -1 -10   33.00    3.90
   7  -1 -10   36.10    5.10
  -7   1  10   34.00    4.10
  -7   1  10   35.90    4.20
   6  -1 -10   53.19    4.50
   6  -1 -10   53.59    5.30
   6  -1 -10   59.79    4.80
  -6   1  10   59.29    5.10
  -6   1  10   56.59    4.80
   5  -1 -10   42.50    4.50
   5  -1 -10   53.39    4.50
   5  -1 -10   41.80    3.90
   5  -1 -10   41.30    3.90
  -5   1  10   51.39    4.40
  -5   1  10   43.20    4.10
  -5   1  10   41.30    4.10
   4  -1 -10   47.60    4.40
   4  -1 -10   47.50    3.80
   4  -1 -10   45.90    3.80
   4  -1 -10   47.60    4.20
  -4   1  10   37.30    3.70
  -4   1  10   49.10    4.10
  -4   1  10   45.90    4.20
   3  -1 -10   38.10    3.30
   3  -1 -10   51.19    3.80
   3  -1 -10   48.70    4.30
  -3   1  10   48.00    3.70
  -3   1  10   41.70    3.80
  -3   1  10   34.40    3.40
   2  -1 -10   26.30    3.40
   2  -1 -10   18.80    2.40
   2  -1 -10   23.90    2.70
  -2   1  10   25.10    2.90
  -2   1  10   28.10    3.10
  -2   1  10   27.60    3.20
   1  -1 -10   49.80    3.50
   1  -1 -10   58.09    4.40
   1  -1 -10   49.30    4.10
   1  -1 -10   50.99    3.50
  -1   1  10   62.69    4.30
  -1   1  10   55.39    3.90
   0  -1 -10  392.76   11.00
   0  -1 -10  391.26   11.00
   0  -1 -10  395.66    9.50
   0  -1 -10  403.66    9.60
   0   1  10  384.66   10.70
   0   1  10  383.56   11.10
  -1  -1 -10  302.87    9.40
  -1  -1 -10  293.27    9.40
   1   1  10  280.57    9.30
   1   1  10  295.17    9.10
  -2  -1 -10  133.79    6.70
  -2  -1 -10  122.49    6.30
   2   1  10  128.99    6.30
   2   1  10  119.79    6.00
  -3  -1 -10  123.49    7.20
  -3  -1 -10  119.09    6.40
  -3  -1 -10  107.09    6.20
   3   1  10   88.79    5.80
  -4  -1 -10   78.59    6.90
  -4  -1 -10   82.49    6.20
  -4  -1 -10   73.39    5.90
   4   1  10   74.49    5.70
   7  -2 -10   87.09    6.00
   7  -2 -10   79.49    6.00
   7  -2 -10   92.29    7.20
  -7   2  10   85.09    6.20
  -7   2  10   77.69    6.30
   6  -2 -10   78.39    6.40
   6  -2 -10   77.49    5.40
   6  -2 -10   73.89    5.80
   6  -2 -10   76.09    5.30
  -6   2  10   71.29    5.60
  -6   2  10   75.79    5.70
   5  -2 -10   85.89    5.90
   5  -2 -10  107.19    6.20
   5  -2 -10   86.79    5.30
   5  -2 -10  102.59    5.60
  -5   2  10   94.59    5.80
  -5   2  10   84.69    5.80
   4  -2 -10   20.00    2.90
   4  -2 -10   24.20    3.60
   4  -2 -10   21.30    2.90
   4  -2 -10   19.90    3.60
  -4   2  10   16.30    3.00
  -4   2  10   17.70    3.10
  -4   2  10   21.30    2.90
   3  -2 -10   89.19    5.60
   3  -2 -10   74.79    4.60
   3  -2 -10   83.99    4.70
  -3   2  10   76.69    5.10
  -3   2  10   87.29    5.10
  -3   2  10   91.79    5.00
   2  -2 -10  152.78    5.90
   2  -2 -10  162.98    6.00
   2  -2 -10  162.88    7.10
  -2   2  10  157.18    6.80
  -2   2  10  166.48    6.60
  -2   2  10  168.38    6.70
   1  -2 -10    6.60    2.50
   1  -2 -10    6.20    1.90
   1  -2 -10    4.40    1.80
  -1   2  10    4.10    2.00
  -1   2  10    6.10    2.30
   0  -2 -10    0.60    2.20
   0  -2 -10    3.00    2.10
   0  -2 -10    2.70    2.10
   0  -2 -10   -1.50    2.20
   0   2  10    1.10    2.00
   0   2  10   -0.10    1.90
  -1  -2 -10   67.49    5.00
  -1  -2 -10   83.29    5.40
   1   2  10   67.99    4.70
   1   2  10   75.89    5.20
  -2  -2 -10  159.78    7.50
  -2  -2 -10  147.69    6.90
   2   2  10  135.09    6.80
   2   2  10  157.28    7.30
  -3  -2 -10   89.79    6.10
  -3  -2 -10   90.99    6.80
  -3  -2 -10   99.09    6.10
   3   2  10   92.39    6.10
  -4  -2 -10    3.00    3.50
  -4  -2 -10   -0.30    3.20
   4   2  10    3.30    3.00
   6  -3 -10   25.50    3.70
   6  -3 -10   37.20    4.20
   6  -3 -10   29.30    4.40
   6  -3 -10   20.20    4.00
  -6   3  10   25.60    3.80
  -6   3  10   26.00    4.00
   5  -3 -10   83.89    5.40
   5  -3 -10   78.99    5.80
   5  -3 -10   79.99    5.30
   5  -3 -10   82.09    6.10
  -5   3  10   79.29    5.90
  -5   3  10   81.89    5.70
   4  -3 -10   58.69    4.60
   4  -3 -10   50.19    4.30
   4  -3 -10   53.49    5.00
  -4   3  10   47.00    5.60
  -4   3  10   46.20    4.50
  -4   3  10   51.49    4.60
   3  -3 -10  269.47    9.60
   3  -3 -10  255.97    8.30
   3  -3 -10  260.17    8.40
  -3   3  10  253.87    9.00
  -3   3  10  265.37    9.30
  -3   3  10  262.87    8.70
   2  -3 -10   79.29    4.60
   2  -3 -10   82.69    5.60
   2  -3 -10   88.89    4.90
  -2   3  10   74.39    5.00
  -2   3  10   86.79    5.20
  -2   3  10   77.69    5.50
   1  -3 -10   20.90    2.70
   1  -3 -10   20.80    2.70
   1  -3 -10   15.80    3.10
   1  -3 -10   21.40    3.50
  -1   3  10   18.60    2.90
  -1   3  10   16.40    3.00
   0  -3 -10   80.19    5.60
   0  -3 -10   72.99    5.20
   0   3  10   81.29    5.40
   0   3  10   86.79    5.40
  -1  -3 -10   40.60    4.30
  -1  -3 -10   37.70    4.00
   1   3  10   44.00    4.60
   1   3  10   38.70    4.20
  -2  -3 -10  126.39    7.20
  -2  -3 -10  123.39    6.60
   2   3  10  118.19    6.60
   2   3  10  125.59    6.80
  -3  -3 -10   39.90    5.10
  -3  -3 -10   38.30    4.70
   3   3  10   55.29    5.60
   6  -4 -10  239.48    9.20
   6  -4 -10  250.37   10.40
   6  -4 -10  239.38    9.10
   6  -4 -10  230.98    9.90
  -6   4  10  230.68    9.50
  -6   4  10  247.28   10.00
   5  -4 -10  171.68    7.40
   5  -4 -10  164.48    8.30
   5  -4 -10  164.08    7.30
  -5   4  10  148.79    7.50
  -5   4  10  177.78    8.30
   4  -4 -10   83.19    5.40
   4  -4 -10   80.29    5.30
   4  -4 -10   87.49    6.40
  -4   4  10   76.39    5.80
  -4   4  10   82.09    6.20
   3  -4 -10  123.19    5.90
   3  -4 -10  121.29    5.90
   3  -4 -10  121.89    7.00
  -3   4  10  110.99    6.20
  -3   4  10  122.79    6.90
  -3   4  10  121.59    6.30
   2  -4 -10   74.09    4.90
   2  -4 -10   86.39    6.00
   2  -4 -10   83.49    5.00
  -2   4  10   71.09    5.20
  -2   4  10   71.09    5.70
  -2   4  10   64.19    5.10
   1  -4 -10  150.08    7.40
   1  -4 -10  161.28    7.70
  -1   4  10  177.08    7.50
  -1   4  10  172.88    7.50
   0  -4 -10   84.19    5.80
   0  -4 -10   95.89    6.30
   0   4  10   84.29    5.60
   0   4  10   83.09    5.90
  -1  -4 -10   75.59    5.90
  -1  -4 -10   74.99    5.70
   1   4  10   80.69    5.90
   1   4  10   77.89    5.90
  -2  -4 -10   26.20    4.20
   2   4  10   21.70    4.10
   5  -5 -10   27.50    4.00
   5  -5 -10   33.30    4.80
   5  -5 -10   30.90    3.90
  -5   5  10   32.10    4.40
  -5   5  10   30.40    4.40
   4  -5 -10   17.00    3.50
   4  -5 -10   16.10    4.00
   4  -5 -10   21.20    3.40
  -4   5  10   15.50    3.50
  -4   5  10   20.80    3.90
   3  -5 -10    6.40    3.10
   3  -5 -10    4.60    2.50
   3  -5 -10    1.80    2.50
  -3   5  10    1.20    3.10
  -3   5  10    1.60    2.50
   2  -5 -10   -0.40    2.40
   2  -5 -10    6.60    2.70
   2  -5 -10    1.50    3.00
  -2   5  10    5.20    2.70
  -2   5  10    1.30    3.00
  -2   5  10    8.00    3.10
   1  -5 -10   51.99    5.30
   1  -5 -10   46.20    4.90
  -1   5  10   53.49    5.20
  -1   5  10   55.29    5.10
   0  -5 -10   47.70    4.90
   0  -5 -10   62.99    5.80
   0   5  10   76.29    6.10
   0   5  10   61.79    5.60
  -1  -5 -10    7.10    3.40
  -1  -5 -10    5.10    3.00
   1   5  10    3.80    3.40
   1   5  10    1.90    3.30
   4  -6 -10   -0.20    2.70
   4  -6 -10    1.20    3.50
   4  -6 -10   -3.50    2.80
  -4   6  10    0.20    2.70
  -4   6  10   -2.50    3.40
   3  -6 -10   17.50    3.50
   3  -6 -10   15.10    3.40
   3  -6 -10   20.00    4.40
  -3   6  10   15.80    3.40
  -3   6  10   16.00    4.20
   2  -6 -10   -3.00    3.20
  -2   6  10    4.10    2.90
  -2   6  10   -0.40    3.20
   1  -6 -10   30.90    4.80
   1  -6 -10   34.20    4.70
  -1   6  10   42.50    5.10
  -1   6  10   30.00    4.20
   2   8 -11    2.30    2.60
   2   8 -11    3.10    2.70
   2   8 -11   -0.10    2.90
  -2  -8  11    3.60    3.00
  -2  -8  11    1.10    2.70
   1   8 -11    2.80    2.90
   1   8 -11   -1.50    2.30
   1   8 -11    3.80    2.60
  -1  -8  11    3.30    2.80
  -1  -8  11    0.50    2.80
   0   8 -11   66.99    5.90
   0   8 -11   70.99    5.30
   0   8 -11   67.99    5.10
   0  -8  11   78.39    9.20
   0  -8  11   71.89    6.00
  -1   8 -11   67.39    5.80
  -1   8 -11   88.09    5.50
  -1   8 -11   71.79    5.20
  -1   8 -11   82.59    6.60
   1  -8  11   70.09    6.00
  -2   8 -11   25.40    3.60
  -2   8 -11   22.00    3.30
  -2   8 -11   34.70    4.80
   2  -8  11   19.40    3.90
   3   7 -11   48.90    4.20
   3   7 -11   43.70    4.90
   3   7 -11   42.90    4.10
  -3  -7  11   47.50    5.20
   2   7 -11   96.09    6.50
   2   7 -11   89.49    5.30
   2   7 -11   92.39    5.50
  -2  -7  11   77.59    6.10
   1   7 -11  161.48    7.40
   1   7 -11  155.68    6.50
   1   7 -11  153.18    6.60
  -1  -7  11  170.38    9.00
  -1  -7  11  165.88    7.70
   0   7 -11   39.20    4.30
   0   7 -11   28.50    5.10
   0   7 -11   35.30    3.60
   0   7 -11   35.10    3.70
   0  -7  11   34.60    4.10
   0  -7  11   33.20    3.90
  -1   7 -11   57.29    5.30
  -1   7 -11   55.39    4.30
  -1   7 -11   50.79    4.20
   1  -7  11   55.49    5.10
  -2   7 -11   22.30    3.20
  -2   7 -11   17.90    3.00
  -2   7 -11   20.80    4.10
   2  -7  11   23.00    3.90
  -3   7 -11   80.09    6.70
  -3   7 -11   67.49    5.00
  -3   7 -11   76.09    5.10
   3  -7  11   84.89    6.50
   4   6 -11    4.10    2.40
   4   6 -11    1.30    2.40
   4   6 -11    1.80    2.90
  -4  -6  11    4.50    2.80
   3   6 -11    2.80    2.60
   3   6 -11    2.70    2.30
   3   6 -11    4.20    2.40
  -3  -6  11    2.70    2.50
   2   6 -11  188.78    8.00
   2   6 -11  178.68    6.80
   2   6 -11  179.18    6.80
  -2  -6  11  175.88    8.00
   1   6 -11  168.08    7.30
   1   6 -11  169.38    6.50
   1   6 -11  178.98    6.60
  -1  -6  11  168.08    7.40
   0   6 -11  105.89    5.60
   0   6 -11   85.69    4.80
   0   6 -11   89.59    4.80
   0   6 -11   96.99    5.90
   0  -6  11   83.29    5.40
  -1   6 -11   29.80    4.00
  -1   6 -11   29.80    3.20
  -1   6 -11   24.70    2.90
   1  -6  11   27.10    3.40
   1  -6  11   25.80    3.80
  -2   6 -11    1.00    2.90
  -2   6 -11   -1.50    2.00
  -2   6 -11    0.40    2.20
   2  -6  11    0.50    2.20
  -3   6 -11   75.09    4.90
  -3   6 -11   87.19    6.90
  -3   6 -11   78.79    4.90
   3  -6  11   78.09    6.10
  -4   6 -11   32.30    4.90
   4  -6  11   25.60    4.40
   5   5 -11   21.30    3.30
   5   5 -11   14.60    3.80
   5   5 -11   18.30    3.00
  -5  -5  11    6.50    3.20
   4   5 -11    5.10    2.50
   4   5 -11    4.30    2.30
   4   5 -11    5.60    2.80
  -4  -5  11    8.40    3.00
   3   5 -11    2.00    2.50
   3   5 -11    2.10    2.20
   3   5 -11    4.20    2.30
  -3  -5  11    1.50    2.40
   2   5 -11   85.39    4.80
   2   5 -11   68.59    5.00
   2   5 -11   76.19    4.60
  -2  -5  11   82.49    5.30
   1   5 -11   44.50    4.10
   1   5 -11   45.50    4.20
   1   5 -11   35.40    3.40
   1   5 -11   27.50    3.00
  -1  -5  11   37.50    4.00
   0   5 -11   25.10    3.40
   0   5 -11   23.10    2.80
   0   5 -11   25.30    2.80
   0  -5  11   24.20    3.20
  -1   5 -11  116.49    5.20
  -1   5 -11  122.79    5.20
  -1   5 -11  142.29    6.80
   1  -5  11  122.39    5.90
  -2   5 -11  272.27    9.80
  -2   5 -11  274.77    8.30
  -2   5 -11  272.97    8.20
  -3   5 -11   58.29    4.20
  -3   5 -11   64.19    5.70
  -3   5 -11   60.39    4.30
  -4   5 -11    2.80    3.30
   4  -5  11    3.90    3.60
   6   4 -11    0.20    2.80
   6   4 -11    6.00    2.40
   6   4 -11    2.70    2.40
  -6  -4  11    2.90    2.50
  -6  -4  11    0.90    2.70
   5   4 -11   26.10    3.30
   5   4 -11   34.60    3.50
   5   4 -11   28.20    4.20
  -5  -4  11   19.90    3.80
  -5  -4  11   26.40    3.40
   4   4 -11  278.87    8.60
   4   4 -11  266.37    8.40
   4   4 -11  255.07    9.70
  -4  -4  11  262.87    9.80
  -4  -4  11  265.97    8.70
   3   4 -11  177.18    6.70
   3   4 -11  187.68    7.60
   3   4 -11  192.68    6.90
  -3  -4  11  188.18    6.70
  -3  -4  11  177.78    7.60
   2   4 -11   29.60    3.10
   2   4 -11   28.40    3.40
   2   4 -11   33.80    3.20
   2   4 -11   36.50    3.60
  -2  -4  11   28.80    3.70
   1   4 -11    0.90    1.60
   1   4 -11    1.30    2.10
   1   4 -11    0.40    2.10
   1   4 -11   -0.10    1.70
  -1  -4  11    4.50    2.10
   0   4 -11   96.79    4.70
   0   4 -11  114.29    5.80
   0   4 -11   94.89    4.60
   0  -4  11   94.09    5.30
  -1   4 -11   60.99    3.90
  -1   4 -11   57.09    3.80
  -1   4 -11   68.99    5.20
   1  -4  11   51.89    4.10
  -2   4 -11   16.40    2.30
  -2   4 -11   14.00    2.30
  -2   4 -11   16.00    3.30
   2  -4  11   14.00    2.60
  -3   4 -11   57.09    5.40
  -4   4 -11    7.50    3.40
  -4   4 -11    8.30    3.30
   6   3 -11   15.50    3.00
   6   3 -11   18.00    3.10
   6   3 -11   14.70    3.80
  -6  -3  11   12.80    3.00
  -6  -3  11   14.90    3.30
   5   3 -11    1.30    2.20
   5   3 -11    1.70    2.40
   5   3 -11    1.00    2.20
  -5  -3  11    0.80    2.10
  -5  -3  11    0.30    2.30
   4   3 -11   80.59    4.90
   4   3 -11   69.09    5.20
   4   3 -11   81.69    4.90
  -4  -3  11   88.39    5.00
  -4  -3  11   75.59    5.30
   3   3 -11  310.07    9.90
   3   3 -11  310.87    9.00
   3   3 -11  320.07    9.80
   3   3 -11  313.77    9.10
  -3  -3  11  310.77    9.30
  -3  -3  11  297.07   10.00
   2   3 -11   97.79    4.70
   2   3 -11  108.49    5.00
   2   3 -11   95.39    4.60
   2   3 -11  102.09    5.20
  -2  -3  11  105.39    4.60
  -2  -3  11  101.79    5.50
   1   3 -11  142.99    5.50
   1   3 -11  153.28    6.40
   1   3 -11  143.59    5.60
  -1  -3  11  149.49    5.50
  -1  -3  11  147.49    6.30
   0   3 -11  457.15   11.30
   0   3 -11  476.55   12.60
   0   3 -11  472.65   11.40
   0  -3  11  449.46   12.40
  -1   3 -11   32.30    2.90
  -1   3 -11   35.20    3.60
  -1   3 -11   26.00    3.50
  -1   3 -11   34.30    3.00
   1  -3  11   26.70    3.30
  -2   3 -11   15.70    3.10
  -2   3 -11   14.70    2.70
  -2   3 -11   17.10    2.30
  -2   3 -11   20.60    2.50
   2  -3  11   13.10    2.70
  -3   3 -11   28.00    3.90
  -3   3 -11   27.90    3.80
   3  -3  11   24.80    3.30
  -4   3 -11   85.19    6.50
  -4   3 -11   95.49    6.80
  -5   3 -11  149.09    8.40
  -5   3 -11  139.09    8.50
   6   2 -11    1.50    2.90
   6   2 -11    1.50    2.10
   6   2 -11    2.80    2.30
  -6  -2  11    2.80    2.30
  -6  -2  11    3.50    2.60
   5   2 -11    4.50    2.20
   5   2 -11    5.30    2.80
   5   2 -11    3.40    1.90
  -5  -2  11    5.90    2.20
  -5  -2  11    3.30    2.20
   4   2 -11  145.69    5.90
   4   2 -11  150.38    6.80
   4   2 -11  146.29    6.10
  -4  -2  11  150.78    6.40
  -4  -2  11  145.69    6.80
   3   2 -11  159.18    6.00
   3   2 -11  161.48    6.30
   3   2 -11  153.58    6.40
   3   2 -11  158.08    6.00
  -3  -2  11  147.29    6.20
  -3  -2  11  153.68    6.80
   2   2 -11   57.09    3.80
   2   2 -11   49.00    4.20
   2   2 -11   49.90    3.60
  -2  -2  11   54.59    3.70
  -2  -2  11   48.00    4.10
   1   2 -11  401.26   10.30
   1   2 -11  407.46   10.20
   1   2 -11  413.56   10.60
   1   2 -11  409.16   11.20
  -1  -2  11  407.76   10.60
  -1  -2  11  384.56   11.30
   0   2 -11  229.88    7.30
   0   2 -11  243.48    8.20
   0   2 -11  232.38    6.90
   0   2 -11  225.08    6.80
   0  -2  11  233.08    7.20
   0  -2  11  225.78    7.90
  -1   2 -11   54.99    3.40
  -1   2 -11   50.09    4.60
  -1   2 -11   49.99    3.40
  -1   2 -11   44.60    3.90
   1  -2  11   44.30    3.60
   1  -2  11   46.00    4.00
  -2   2 -11  133.09    6.50
  -2   2 -11  119.29    6.00
   2  -2  11  110.39    5.70
  -3   2 -11   57.49    5.20
  -3   2 -11   63.99    5.50
   3  -2  11   51.99    4.50
  -4   2 -11   93.89    6.60
  -4   2 -11  107.39    7.10
   4  -2  11   83.49    5.70
   6   1 -11   19.80    3.10
   6   1 -11   33.20    4.70
   6   1 -11   35.40    3.60
  -6  -1  11   30.00    3.90
  -6  -1  11   25.20    3.40
   5   1 -11   84.69    5.10
   5   1 -11   84.09    5.80
   5   1 -11   81.09    5.10
  -5  -1  11   82.79    5.40
  -5  -1  11   81.09    5.40
   4   1 -11   74.89    4.60
   4   1 -11   68.19    4.80
   4   1 -11   74.49    4.60
   4   1 -11   73.59    5.00
  -4  -1  11   73.89    5.00
  -4  -1  11   75.09    4.80
   3   1 -11   50.79    3.90
   3   1 -11   42.90    5.40
   3   1 -11   44.80    4.20
   3   1 -11   50.29    3.80
  -3  -1  11   45.30    3.80
  -3  -1  11   47.00    4.20
  -3  -1  11   51.39    4.00
   2   1 -11   33.70    3.10
   2   1 -11   38.40    3.60
   2   1 -11   35.90    3.10
  -2  -1  11   31.50    3.50
  -2  -1  11   33.30    3.20
   1   1 -11    1.00    1.60
   1   1 -11    4.60    1.70
   1   1 -11    3.20    2.00
   1   1 -11    2.70    2.20
  -1  -1  11    1.40    1.80
  -1  -1  11    2.90    1.80
   0   1 -11   42.70    3.30
   0   1 -11   43.50    3.70
   0   1 -11   47.40    4.30
   0   1 -11   41.30    3.30
   0  -1  11   48.00    3.60
   0  -1  11   34.20    3.50
  -1   1 -11    2.40    2.10
  -1   1 -11    0.80    1.50
  -1   1 -11    1.60    2.00
  -1   1 -11   -0.40    1.50
   1  -1  11    0.70    1.90
   1  -1  11    2.30    1.80
  -2   1 -11   10.10    2.90
  -2   1 -11   13.00    3.00
   2  -1  11    8.30    2.50
   2  -1  11    7.10    2.50
  -3   1 -11   12.00    3.10
  -3   1 -11    1.50    3.00
  -3   1 -11   12.90    3.30
   3  -1  11   13.10    3.00
  -4   1 -11   34.80    4.40
  -4   1 -11   46.70    5.30
   4  -1  11   37.90    4.40
   6   0 -11   41.40    4.10
   6   0 -11   34.70    4.70
   6   0 -11   37.20    4.00
  -6   0  11   31.80    4.00
   5   0 -11   91.29    5.80
   5   0 -11   87.59    6.00
   5   0 -11   86.49    5.30
   5   0 -11   95.09    5.40
  -5   0  11   88.39    5.60
  -5   0  11   96.89    5.70
  -5   0  11   92.19    5.70
   4   0 -11    1.00    2.10
   4   0 -11   -0.80    2.20
   4   0 -11   -0.10    1.90
   4   0 -11    1.60    2.00
  -4   0  11   -2.50    1.70
  -4   0  11    1.60    2.20
  -4   0  11    0.40    2.10
   3   0 -11    6.70    2.40
   3   0 -11    8.60    2.30
   3   0 -11    9.80    2.30
  -3   0  11    6.30    2.10
  -3   0  11    8.50    2.40
  -3   0  11    6.90    2.20
   2   0 -11   37.70    3.30
   2   0 -11   43.20    3.50
   2   0 -11   34.70    3.70
  -2   0  11   36.90    3.50
  -2   0  11   42.90    4.00
  -2   0  11   47.70    4.10
   1   0 -11  137.59    5.30
   1   0 -11  136.09    5.80
   1   0 -11  138.99    5.20
   1   0 -11  137.29    6.20
  -1   0  11  137.19    6.10
  -1   0  11  127.39    5.60
   0   0 -11   38.90    3.90
   0   0 -11   44.60    4.10
   0   0 -11   48.90    3.30
   0   0 -11   34.10    2.90
   0   0  11   44.30    4.00
   0   0  11   39.20    3.60
  -1   0 -11   21.90    3.30
  -1   0 -11   25.10    3.50
   1   0  11   25.60    3.50
   1   0  11   20.60    2.90
  -2   0 -11   21.50    3.50
  -2   0 -11   20.10    3.40
   2   0  11   11.20    2.70
   2   0  11   21.50    3.50
  -3   0 -11    0.80    3.00
  -3   0 -11    2.60    2.70
  -3   0 -11    5.30    2.80
   3   0  11    3.00    2.50
  -4   0 -11   25.00    4.70
  -4   0 -11   19.80    4.00
  -4   0 -11   24.70    3.90
   4   0  11   16.80    3.40
   6  -1 -11  162.28    8.30
   6  -1 -11  159.98    7.20
   6  -1 -11  171.18    7.40
  -6   1  11  181.38    8.00
  -6   1  11  162.88    7.80
   5  -1 -11   83.09    5.40
   5  -1 -11   77.99    5.70
   5  -1 -11   89.49    5.40
   5  -1 -11   77.69    5.70
  -5   1  11   95.19    5.80
  -5   1  11   80.59    5.60
  -5   1  11   77.69    5.50
   4  -1 -11   41.70    3.80
   4  -1 -11   41.10    4.30
   4  -1 -11   38.10    3.80
  -4   1  11   38.90    4.00
  -4   1  11   36.40    3.80
  -4   1  11   40.00    4.00
   3  -1 -11    5.10    2.30
   3  -1 -11    6.30    2.20
   3  -1 -11    4.20    2.70
  -3   1  11    8.00    2.40
  -3   1  11    6.30    2.40
  -3   1  11    5.80    2.40
   2  -1 -11  115.39    5.30
   2  -1 -11  121.09    5.30
   2  -1 -11  130.59    6.50
  -2   1  11  117.09    5.80
  -2   1  11  122.19    6.00
  -2   1  11  119.89    5.90
   1  -1 -11   51.49    3.80
   1  -1 -11   51.19    3.70
   1  -1 -11   47.10    4.40
   1  -1 -11   47.90    4.30
  -1   1  11   44.00    4.00
  -1   1  11   43.90    4.20
   0  -1 -11    2.60    2.40
   0  -1 -11    5.00    1.80
   0  -1 -11    4.60    1.70
   0  -1 -11    5.60    2.50
   0   1  11    5.70    2.20
   0   1  11    3.20    2.40
  -1  -1 -11  134.09    6.70
  -1  -1 -11  152.78    6.90
   1   1  11  131.19    6.50
   1   1  11  130.59    6.20
  -2  -1 -11   35.60    4.40
  -2  -1 -11   36.00    4.30
   2   1  11   30.90    3.90
   2   1  11   41.20    4.40
  -3  -1 -11   31.40    4.10
  -3  -1 -11   25.80    4.00
  -3  -1 -11   28.10    4.60
   3   1  11   27.40    4.10
  -4  -1 -11    6.30    3.40
  -4  -1 -11   15.50    4.50
   4   1  11    9.30    3.40
   6  -2 -11   12.60    3.30
   6  -2 -11   11.40    3.50
   6  -2 -11   11.20    3.60
   6  -2 -11    8.10    3.10
  -6   2  11   12.50    3.50
  -6   2  11    9.30    3.10
   5  -2 -11   81.29    5.50
   5  -2 -11   86.99    6.30
   5  -2 -11   85.79    5.60
  -5   2  11   82.49    5.70
  -5   2  11   83.69    6.10
   4  -2 -11  103.89    5.70
   4  -2 -11  109.39    6.60
   4  -2 -11  106.39    5.70
  -4   2  11  109.79    6.10
  -4   2  11  108.79    5.90
  -4   2  11  104.19    6.20
   3  -2 -11  103.69    5.50
   3  -2 -11  100.59    5.40
   3  -2 -11  116.09    6.60
  -3   2  11  115.29    5.90
  -3   2  11  100.29    6.20
  -3   2  11   99.59    5.80
   2  -2 -11   61.59    5.40
   2  -2 -11   54.09    4.30
   2  -2 -11   58.29    4.20
  -2   2  11   74.89    5.10
  -2   2  11   52.29    4.50
  -2   2  11   55.09    5.00
   1  -2 -11   17.20    2.60
   1  -2 -11   19.10    2.60
   1  -2 -11   20.70    3.40
   1  -2 -11   20.00    3.30
  -1   2  11   22.60    3.30
  -1   2  11   19.00    3.30
   0  -2 -11   23.20    3.60
   0  -2 -11   23.90    3.50
   0   2  11   21.90    3.40
   0   2  11   25.10    3.50
  -1  -2 -11  204.28    8.20
  -1  -2 -11  179.28    7.90
   1   2  11  185.88    8.10
   1   2  11  181.18    7.60
  -2  -2 -11  159.38    7.60
  -2  -2 -11  180.28    8.40
   2   2  11  140.19    7.20
   2   2  11  153.48    7.60
  -3  -2 -11  125.29    7.90
  -3  -2 -11  119.09    7.10
  -3  -2 -11  108.39    6.90
   3   2  11  100.19    6.80
   6  -3 -11    9.00    3.20
   6  -3 -11   16.20    4.00
   6  -3 -11   19.80    3.60
  -6   3  11   16.30    3.50
  -6   3  11   15.40    3.90
   5  -3 -11    0.70    3.00
   5  -3 -11    1.00    2.60
   5  -3 -11    2.40    2.50
  -5   3  11    2.20    2.90
  -5   3  11   -1.00    2.60
   4  -3 -11  144.09    7.70
   4  -3 -11  141.89    6.50
   4  -3 -11  131.99    6.50
  -4   3  11  124.39    7.10
  -4   3  11  133.29    7.10
   3  -3 -11  198.38    7.50
   3  -3 -11  203.28    8.70
   3  -3 -11  185.88    7.30
  -3   3  11  201.58    8.00
  -3   3  11  189.28    8.40
  -3   3  11  194.68    8.00
   2  -3 -11   19.50    2.90
   2  -3 -11   23.20    3.10
   2  -3 -11   15.00    3.50
  -2   3  11   18.60    3.30
  -2   3  11   15.90    3.20
  -2   3  11   17.00    3.40
   1  -3 -11    8.80    3.00
   1  -3 -11   11.80    3.20
   1  -3 -11   11.70    3.00
   1  -3 -11   13.00    3.30
  -1   3  11   15.00    3.10
  -1   3  11    9.50    2.90
   0  -3 -11  209.68    8.70
   0  -3 -11  185.18    8.20
   0   3  11  192.58    8.40
   0   3  11  205.08    8.10
  -1  -3 -11  136.39    7.30
  -1  -3 -11  130.69    7.10
   1   3  11  138.29    7.00
   1   3  11  125.49    7.30
  -2  -3 -11   39.40    5.00
  -2  -3 -11   37.40    4.40
   2   3  11   35.80    4.60
   2   3  11   34.10    4.40
   5  -4 -11   52.19    5.00
   5  -4 -11   54.69    4.90
   5  -4 -11   51.39    5.50
  -5   4  11   57.09    5.70
  -5   4  11   55.89    5.70
   4  -4 -11    0.70    2.70
   4  -4 -11    2.00    2.70
   4  -4 -11    0.70    3.30
  -4   4  11   -0.90    2.90
  -4   4  11    2.50    2.80
   3  -4 -11    8.80    2.80
   3  -4 -11    6.70    2.80
   3  -4 -11    7.30    3.30
  -3   4  11   10.20    3.30
  -3   4  11    8.50    3.00
  -3   4  11   12.20    3.60
   2  -4 -11   65.49    4.80
   2  -4 -11   52.09    5.30
   2  -4 -11   61.59    4.90
  -2   4  11   55.79    5.00
  -2   4  11   53.29    5.20
  -2   4  11   56.69    5.00
   1  -4 -11   24.40    4.00
   1  -4 -11   32.20    4.50
  -1   4  11   38.10    4.40
  -1   4  11   31.10    4.20
   0  -4 -11   71.29    6.20
   0  -4 -11   81.89    6.00
   0   4  11   70.79    6.10
   0   4  11   66.19    5.50
  -1  -4 -11   23.50    4.20
  -1  -4 -11   20.90    3.90
   1   4  11   19.30    3.90
   1   4  11   24.10    4.20
   4  -5 -11    7.10    3.20
   4  -5 -11   10.00    3.30
   4  -5 -11    5.10    3.80
  -4   5  11    3.80    3.60
  -4   5  11    9.70    3.30
   3  -5 -11   14.60    4.20
   3  -5 -11   16.00    3.30
   3  -5 -11   16.20    3.40
  -3   5  11   25.70    4.40
  -3   5  11   14.00    3.50
   2  -5 -11    2.10    3.50
  -2   5  11   10.20    3.20
  -2   5  11   10.30    3.60
  -2   5  11    8.10    3.50
   1  -5 -11   54.79    5.40
   1  -5 -11   45.00    5.40
  -1   5  11   49.20    5.10
  -1   5  11   48.80    5.00
   0  -5 -11   52.49    5.50
   0  -5 -11   46.50    5.10
   0   5  11   47.80    5.20
   0   5  11   71.39    6.50
   1   8 -12    7.20    3.00
   1   8 -12    9.80    3.10
   0   8 -12   22.80    3.50
   0   8 -12   15.40    4.10
   0   8 -12   22.50    3.50
  -1   8 -12   58.49    4.90
  -1   8 -12   44.30    4.40
  -1   8 -12   58.89    5.80
   3   7 -12    6.10    3.40
   3   7 -12    6.10    2.70
   3   7 -12    0.80    2.60
  -3  -7  12    3.30    3.10
   2   7 -12   40.00    4.10
   2   7 -12   40.40    4.70
   2   7 -12   38.40    4.00
  -2  -7  12   39.70    5.00
   1   7 -12   90.39    6.00
   1   7 -12   86.39    5.30
   1   7 -12   92.69    5.60
  -1  -7  12   89.49    6.40
   0   7 -12   41.70    4.00
   0   7 -12   42.30    4.10
   0  -7  12   43.80    4.50
  -1   7 -12    1.20    2.30
  -1   7 -12   -0.10    2.30
  -1   7 -12   -0.40    3.30
  -2   7 -12    5.00    2.60
  -2   7 -12    8.00    3.80
  -2   7 -12    9.50    2.90
   4   6 -12    2.50    2.80
   4   6 -12    7.80    2.80
   4   6 -12    4.30    3.10
  -4  -6  12   -0.30    2.90
   3   6 -12   35.90    3.80
   3   6 -12   24.30    4.20
   3   6 -12   27.00    3.40
  -3  -6  12   29.30    4.30
   2   6 -12    8.30    2.50
   2   6 -12   11.50    3.20
   2   6 -12   13.20    2.90
  -2  -6  12    9.70    3.10
   1   6 -12   59.39    4.50
   1   6 -12   65.29    4.50
   1   6 -12   58.89    5.60
  -1  -6  12   51.49    4.90
   0   6 -12   86.59    6.10
   0   6 -12   84.09    4.90
   0   6 -12   81.39    5.00
   0  -6  12   77.59    5.70
  -1   6 -12   31.70    3.40
  -1   6 -12   28.90    3.40
  -1   6 -12   36.70    4.60
   1  -6  12   28.80    3.60
  -2   6 -12    2.80    2.40
  -2   6 -12    1.00    2.40
  -2   6 -12    4.70    3.20
  -3   6 -12    5.10    2.50
  -3   6 -12    4.20    2.70
  -3   6 -12    5.60    3.70
   5   5 -12   12.60    3.10
   5   5 -12   11.90    3.10
  -5  -5  12    5.80    3.40
   4   5 -12   47.70    5.10
   4   5 -12   52.99    4.60
   4   5 -12   49.70    4.30
  -4  -5  12   43.50    5.10
   3   5 -12   61.39    4.80
   3   5 -12   60.09    4.70
   3   5 -12   56.09    5.20
  -3  -5  12   60.99    5.30
   2   5 -12   72.19    4.80
   2   5 -12   79.99    5.30
   2   5 -12   71.69    4.80
  -2  -5  12   73.69    5.60
   1   5 -12   45.80    3.80
   1   5 -12   62.09    5.10
   1   5 -12   53.39    4.20
  -1  -5  12   52.39    4.80
   0   5 -12   72.69    5.60
   0   5 -12   57.59    4.20
   0   5 -12   56.69    4.20
   0  -5  12   55.09    4.70
  -1   5 -12  347.87    9.70
  -1   5 -12  370.76   11.60
  -1   5 -12  338.67    9.70
   1  -5  12  334.27   10.60
  -2   5 -12  116.99    5.60
  -2   5 -12  147.89    7.60
  -2   5 -12  130.09    5.70
   2  -5  12  116.89    6.10
  -3   5 -12   32.70    4.80
  -4   5 -12    6.80    3.80
   5   4 -12   78.09    6.50
   5   4 -12   86.89    5.40
   5   4 -12   81.69    5.60
  -5  -4  12   84.89    6.60
  -5  -4  12   85.69    5.70
   4   4 -12   84.39    5.90
   4   4 -12   76.19    5.20
   4   4 -12   85.99    5.20
  -4  -4  12   75.49    5.90
  -4  -4  12   83.99    5.40
   3   4 -12   63.99    4.60
   3   4 -12   56.59    4.60
   3   4 -12   61.59    4.80
  -3  -4  12   56.19    5.10
   2   4 -12   34.50    3.50
   2   4 -12   36.00    3.80
   2   4 -12   40.90    3.70
  -2  -4  12   35.30    4.00
   1   4 -12    2.80    1.90
   1   4 -12    5.30    2.60
   1   4 -12    8.10    2.20
  -1  -4  12    7.50    2.50
   0   4 -12  123.89    5.50
   0   4 -12  126.79    5.50
   0   4 -12  139.99    6.70
   0  -4  12  123.99    6.20
  -1   4 -12  125.69    5.30
  -1   4 -12  126.49    6.80
  -1   4 -12  119.59    5.30
   1  -4  12  115.39    6.00
  -2   4 -12   19.80    3.80
  -2   4 -12   23.60    2.90
  -2   4 -12   19.60    2.60
   2  -4  12   20.10    3.20
  -3   4 -12   43.10    5.00
  -4   4 -12   18.10    4.10
   5   3 -12   18.80    3.20
   5   3 -12   16.10    3.10
   5   3 -12   15.90    3.50
  -5  -3  12   17.60    3.20
  -5  -3  12   16.90    3.60
   4   3 -12   -0.70    2.10
   4   3 -12    0.00    2.30
   4   3 -12    1.70    2.30
  -4  -3  12    0.40    2.00
  -4  -3  12    1.60    2.50
   3   3 -12   10.70    2.40
   3   3 -12   12.40    3.60
   3   3 -12   11.20    2.70
   3   3 -12    9.90    2.50
  -3  -3  12    7.60    2.40
  -3  -3  12    9.30    2.80
   2   3 -12   73.59    4.40
   2   3 -12   70.39    4.40
   2   3 -12   72.09    5.00
  -2  -3  12   54.89    4.60
  -2  -3  12   67.49    4.30
   1   3 -12   58.29    4.90
   1   3 -12   53.29    4.00
   1   3 -12   50.09    4.00
  -1  -3  12   60.39    4.60
   0   3 -12   52.19    4.90
   0   3 -12   44.00    3.50
   0   3 -12   41.90    3.40
   0  -3  12   38.00    3.90
  -1   3 -12   48.00    3.70
  -1   3 -12   44.60    4.60
  -1   3 -12   42.60    3.50
   1  -3  12   39.10    4.00
  -2   3 -12  106.29    6.10
  -2   3 -12   90.39    6.30
   2  -3  12   95.39    5.70
  -3   3 -12   63.49    5.70
  -3   3 -12   69.89    6.10
   3  -3  12   57.59    4.90
  -4   3 -12   30.50    4.90
  -4   3 -12   30.10    4.70
   6   2 -12   -2.60    2.90
   6   2 -12    3.90    2.50
   6   2 -12    2.30    2.40
  -6  -2  12   -0.70    2.50
  -6  -2  12    0.00    2.30
   5   2 -12   26.80    3.40
   5   2 -12   31.70    3.70
   5   2 -12   28.20    4.10
  -5  -2  12   27.50    3.70
  -5  -2  12   19.40    3.50
   4   2 -12  112.29    5.60
   4   2 -12  107.89    5.60
   4   2 -12  107.09    6.00
  -4  -2  12   97.99    6.10
  -4  -2  12  101.09    5.80
   3   2 -12   76.29    4.70
   3   2 -12   77.89    5.30
   3   2 -12   89.89    4.90
  -3  -2  12   80.39    4.90
  -3  -2  12   77.29    5.50
   2   2 -12   95.19    5.50
   2   2 -12   93.39    4.90
   2   2 -12   85.49    4.70
  -2  -2  12   89.69    5.50
  -2  -2  12   91.39    4.80
   1   2 -12   77.29    4.50
   1   2 -12   86.59    5.40
   1   2 -12   88.09    4.60
  -1  -2  12   80.59    5.10
  -1  -2  12   89.79    4.70
   0   2 -12  103.29    4.90
   0   2 -12  101.69    5.20
   0   2 -12  102.69    4.90
   0   2 -12  115.29    6.20
   0  -2  12  112.29    5.70
   0  -2  12  100.69    4.90
  -1   2 -12   -3.30    2.30
  -1   2 -12    1.30    2.20
  -1   2 -12    0.60    1.70
  -1   2 -12   -0.20    1.70
   1  -2  12    0.00    2.10
  -2   2 -12   12.30    3.20
  -2   2 -12   14.00    3.10
   2  -2  12   12.20    2.90
  -3   2 -12  173.28    7.90
  -3   2 -12  146.89    7.70
   3  -2  12  139.09    6.90
  -4   2 -12   27.70    4.50
  -4   2 -12   41.90    5.20
   4  -2  12   25.60    4.00
   6   1 -12   -1.20    2.30
   6   1 -12    3.30    2.60
   6   1 -12   -0.60    2.90
  -6  -1  12    0.50    2.40
  -6  -1  12    0.40    2.60
   5   1 -12    8.70    2.80
   5   1 -12    8.90    2.60
   5   1 -12    4.80    2.90
  -5  -1  12    2.90    2.60
  -5  -1  12   10.40    2.90
   4   1 -12   49.10    4.10
   4   1 -12   40.40    3.80
   4   1 -12   40.60    4.10
  -4  -1  12   39.60    4.10
  -4  -1  12   52.89    4.90
   3   1 -12  223.08    8.10
   3   1 -12  215.48    7.40
   3   1 -12  214.98    7.30
  -3  -1  12  210.18    7.80
  -3  -1  12  215.08    8.40
   2   1 -12  108.99    5.20
   2   1 -12  113.09    6.10
   2   1 -12   98.79    5.00
   2   1 -12  105.19    5.30
  -2  -1  12  111.79    6.00
  -2  -1  12  104.19    5.50
   1   1 -12  249.18    7.60
   1   1 -12  238.48    7.50
   1   1 -12  240.78    8.70
   1   1 -12  243.68    8.10
  -1  -1  12  242.28    8.00
  -1  -1  12  242.28    8.80
   0   1 -12  271.27    7.80
   0   1 -12  263.67    7.70
   0   1 -12  269.77    9.30
   0   1 -12  261.67    8.50
   0  -1  12  243.58    8.90
   0  -1  12  263.77    8.30
  -1   1 -12    2.50    2.40
  -1   1 -12    2.40    2.60
   1  -1  12   -0.30    1.90
   1  -1  12    1.80    2.00
  -2   1 -12    9.40    3.00
  -2   1 -12    6.00    3.00
   2  -1  12    7.30    2.50
   2  -1  12    7.80    2.60
  -3   1 -12   23.10    4.10
  -3   1 -12   14.60    3.50
   3  -1  12   21.00    3.80
  -4   1 -12   80.19    6.60
  -4   1 -12   96.89    7.60
   4  -1  12   77.39    6.10
   6   0 -12   15.00    3.30
   6   0 -12   20.80    3.60
   6   0 -12   13.60    3.70
  -6   0  12    9.20    3.10
   5   0 -12   11.60    4.50
   5   0 -12    7.20    2.80
   5   0 -12    4.70    2.80
   5   0 -12    9.60    3.30
  -5   0  12    8.60    2.90
  -5   0  12    7.50    3.00
   4   0 -12   38.50    4.20
   4   0 -12   41.70    4.00
   4   0 -12   41.50    4.00
  -4   0  12   50.19    4.60
  -4   0  12   33.80    4.10
  -4   0  12   40.90    4.10
   3   0 -12   39.50    3.70
   3   0 -12   43.40    4.40
   3   0 -12   43.00    3.80
  -3   0  12   40.10    4.10
  -3   0  12   36.10    3.80
  -3   0  12   36.30    3.90
   2   0 -12  107.29    5.20
   2   0 -12  103.99    5.20
   2   0 -12  106.89    6.10
  -2   0  12  103.29    5.60
  -2   0  12  111.19    6.00
   1   0 -12  559.74   14.90
   1   0 -12  568.54   13.30
   1   0 -12  570.64   13.30
   1   0 -12  567.34   14.30
  -1   0  12  529.95   14.10
  -1   0  12  554.24   14.90
   0   0 -12  181.58    7.30
   0   0 -12  189.28    6.30
   0   0 -12  183.28    6.20
   0   0 -12  180.58    7.60
   0   0  12  166.38    7.30
   0   0  12  173.58    7.00
  -1   0 -12   53.49    4.70
  -1   0 -12   54.89    5.00
   1   0  12   51.79    4.40
   1   0  12   61.79    4.90
  -2   0 -12   76.39    5.90
  -2   0 -12   76.99    6.10
   2   0  12   72.69    5.30
   2   0  12   67.09    5.30
  -3   0 -12    6.20    3.50
  -3   0 -12    5.40    3.20
  -3   0 -12    7.30    3.10
   3   0  12    8.60    3.00
   6  -1 -12   75.59    7.30
   6  -1 -12   82.39    5.90
   6  -1 -12   78.49    6.00
  -6   1  12   78.09    7.20
  -6   1  12   73.89    6.30
   5  -1 -12   49.00    4.50
   5  -1 -12   48.20    4.90
   5  -1 -12   39.70    4.10
  -5   1  12   40.60    4.30
  -5   1  12   42.40    4.40
  -5   1  12   40.60    4.60
   4  -1 -12   35.20    3.80
   4  -1 -12   40.40    4.60
   4  -1 -12   38.10    3.90
  -4   1  12   42.50    4.60
  -4   1  12   43.80    4.50
  -4   1  12   29.70    3.90
   3  -1 -12   56.39    4.50
   3  -1 -12   46.10    4.80
   3  -1 -12   46.00    4.00
  -3   1  12   43.90    4.40
  -3   1  12   40.30    4.20
  -3   1  12   43.60    4.40
   2  -1 -12   19.10    3.50
   2  -1 -12   17.70    2.90
   2  -1 -12   15.80    2.70
  -2   1  12   13.50    2.90
  -2   1  12   17.40    3.20
   1  -1 -12    5.60    2.10
   1  -1 -12    7.90    2.70
   1  -1 -12    8.50    2.20
   1  -1 -12   10.60    3.00
  -1   1  12    6.10    2.50
  -1   1  12    8.10    2.80
   0  -1 -12   22.10    3.70
   0  -1 -12   24.20    3.50
   0   1  12   22.80    3.80
   0   1  12   20.90    3.30
  -1  -1 -12   48.80    4.80
  -1  -1 -12   47.00    4.80
   1   1  12   54.79    4.70
   1   1  12   46.60    4.80
  -2  -1 -12   66.19    5.80
  -2  -1 -12   83.29    6.40
   2   1  12   66.99    5.60
   2   1  12   71.09    5.60
  -3  -1 -12    2.70    3.00
  -3  -1 -12   -0.60    2.90
  -3  -1 -12   -1.60    3.50
   3   1  12    5.50    3.00
   6  -2 -12    1.40    3.00
   6  -2 -12    0.40    2.90
  -6   2  12    5.90    3.00
   5  -2 -12   44.50    5.00
   5  -2 -12   49.30    4.70
   5  -2 -12   46.00    4.60
  -5   2  12   40.40    4.60
  -5   2  12   46.80    5.00
   4  -2 -12  104.19    6.90
   4  -2 -12   98.59    5.90
   4  -2 -12   86.59    5.70
  -4   2  12   96.09    6.70
  -4   2  12   95.79    6.00
  -4   2  12   96.29    6.40
   3  -2 -12   27.20    4.20
   3  -2 -12   26.80    3.40
   3  -2 -12   21.40    3.20
  -3   2  12   24.40    3.90
  -3   2  12   30.10    4.00
  -3   2  12   23.70    3.80
   2  -2 -12    0.60    2.20
   2  -2 -12    3.90    2.30
   2  -2 -12    0.20    2.90
  -2   2  12    5.10    2.80
  -2   2  12    4.40    2.40
  -2   2  12    7.10    2.80
   1  -2 -12   16.60    3.40
   1  -2 -12   11.90    2.60
   1  -2 -12   19.20    3.50
   1  -2 -12   16.40    2.70
  -1   2  12   18.00    3.00
  -1   2  12   15.50    3.40
   0  -2 -12  109.29    6.50
   0  -2 -12  101.19    6.40
   0   2  12   98.79    6.40
   0   2  12  103.59    6.10
  -1  -2 -12    2.60    2.70
  -1  -2 -12    3.60    3.20
   1   2  12    3.10    3.00
   1   2  12    1.10    2.50
  -2  -2 -12   52.39    5.50
  -2  -2 -12   47.30    5.00
   2   2  12   43.00    4.80
   2   2  12   43.80    5.00
   5  -3 -12   34.50    4.20
   5  -3 -12   34.00    5.00
   5  -3 -12   27.10    3.90
  -5   3  12   30.50    4.70
  -5   3  12   27.70    4.50
   4  -3 -12   95.59    7.10
   4  -3 -12   87.49    6.00
   4  -3 -12   93.49    6.00
  -4   3  12  100.89    7.20
  -4   3  12   97.99    6.70
   3  -3 -12   24.30    3.60
   3  -3 -12   25.10    3.70
   3  -3 -12   31.00    4.50
  -3   3  12   20.50    3.60
  -3   3  12   24.20    4.00
  -3   3  12   23.10    4.20
   2  -3 -12   80.49    6.40
   2  -3 -12   80.39    5.20
   2  -3 -12   87.89    5.30
  -2   3  12   99.99    6.30
  -2   3  12   68.59    5.60
   1  -3 -12   25.20    4.00
   1  -3 -12   22.60    3.90
  -1   3  12   28.80    3.90
  -1   3  12   23.50    3.90
   0  -3 -12   15.80    3.80
   0  -3 -12   22.00    3.80
   0   3  12   19.60    3.60
   0   3  12   14.00    3.70
  -1  -3 -12   34.40    4.60
  -1  -3 -12   29.60    4.50
   1   3  12   40.20    4.80
   1   3  12   27.00    4.40
   4  -4 -12    0.90    3.50
   4  -4 -12    2.50    3.00
   4  -4 -12   -1.00    2.80
  -4   4  12    2.20    3.50
  -4   4  12    0.60    3.10
   3  -4 -12    1.70    2.70
   3  -4 -12    3.90    2.90
   3  -4 -12    3.90    3.50
  -3   4  12    2.00    3.40
  -3   4  12    2.70    3.00
  -3   4  12    5.80    3.60
   2  -4 -12   34.20    5.10
   2  -4 -12   39.30    6.00
   2  -4 -12   39.80    5.90
  -2   4  12   39.50    4.40
  -2   4  12   37.90    4.80
   1  -4 -12   11.40    3.50
   1  -4 -12    6.40    3.40
  -1   4  12    9.30    3.50
  -1   4  12   10.10    3.30
   0  -4 -12   60.89    5.80
   0  -4 -12   54.59    5.40
   0   4  12   49.99    5.20
   0   4  12   52.79    5.60
   1   7 -13   10.10    2.70
   1   7 -13    9.70    2.80
  -1  -7  13    6.80    3.20
   0   7 -13    4.70    2.70
   0   7 -13    3.20    2.50
   0  -7  13    1.70    2.70
  -1   7 -13    0.80    2.50
  -1   7 -13    0.20    2.40
  -1   7 -13    0.00    3.60
   3   6 -13   31.50    4.50
   3   6 -13   28.50    3.70
   3   6 -13   28.60    3.70
  -3  -6  13   21.40    4.00
   2   6 -13   75.39    5.30
   2   6 -13   74.89    5.30
  -2  -6  13   64.69    6.00
   1   6 -13   30.20    3.50
   1   6 -13   22.50    3.30
  -1  -6  13   29.20    4.20
   0   6 -13   24.30    3.40
   0   6 -13   27.70    3.40
   0   6 -13   31.40    4.30
   0  -6  13   21.60    3.60
  -1   6 -13  113.29    7.30
  -1   6 -13   91.89    5.50
  -1   6 -13   94.19    5.40
  -2   6 -13   55.79    4.40
  -2   6 -13   60.29    6.00
  -2   6 -13   46.50    4.20
   4   5 -13   24.70    4.30
   4   5 -13   24.80    3.70
   4   5 -13   23.90    3.50
  -4  -5  13   24.30    4.30
   3   5 -13    8.50    2.90
   3   5 -13    4.20    2.90
   3   5 -13    7.20    2.90
  -3  -5  13    7.60    3.10
   2   5 -13    0.80    2.20
   2   5 -13   -1.10    2.10
  -2  -5  13    0.40    2.50
   1   5 -13   12.60    2.70
   1   5 -13    9.50    2.60
   1   5 -13   16.10    3.50
  -1  -5  13   16.40    3.40
   0   5 -13  149.69    7.40
   0   5 -13  128.19    6.00
   0   5 -13  130.89    6.00
   0  -5  13  137.09    7.00
  -1   5 -13   96.29    5.20
  -1   5 -13  118.59    7.10
  -1   5 -13   90.69    5.30
   1  -5  13   99.09    6.00
  -2   5 -13    0.20    2.20
  -2   5 -13    3.00    3.20
  -2   5 -13   -0.90    2.30
   2  -5  13   -0.20    2.60
  -3   5 -13    4.60    3.70
   4   4 -13   87.99    5.60
   4   4 -13   78.59    5.50
   4   4 -13   80.89    6.20
  -4  -4  13   72.79    6.40
   3   4 -13   26.20    3.50
   3   4 -13   30.80    3.60
  -3  -4  13   26.50    4.10
   2   4 -13   28.90    3.90
   2   4 -13   27.70    3.40
   2   4 -13   20.10    3.10
  -2  -4  13   27.90    4.00
   1   4 -13   18.00    2.90
   1   4 -13   24.70    3.70
   1   4 -13   18.10    2.90
  -1  -4  13   14.30    3.00
   0   4 -13  111.39    5.50
   0   4 -13  104.89    5.40
   0   4 -13  121.99    6.80
   0  -4  13  109.49    6.20
  -1   4 -13   25.00    2.90
  -1   4 -13   31.00    3.20
  -1   4 -13   36.10    4.50
   1  -4  13   25.30    3.60
  -2   4 -13   -1.50    2.90
   2  -4  13    1.90    2.50
  -3   4 -13    6.90    3.50
   5   3 -13    2.00    2.80
   5   3 -13    5.70    2.80
   5   3 -13    6.50    3.20
  -5  -3  13    3.40    2.70
  -5  -3  13    4.50    3.00
   4   3 -13   38.00    3.90
   4   3 -13   44.10    4.30
  -4  -3  13   37.20    4.20
  -4  -3  13   36.10    4.70
   3   3 -13   40.90    4.00
   3   3 -13   47.80    4.10
  -3  -3  13   56.29    4.50
  -3  -3  13   39.50    4.60
   2   3 -13  162.68    6.50
   2   3 -13  155.08    6.40
   2   3 -13  151.08    7.10
  -2  -3  13  155.48    7.40
   1   3 -13  114.99    5.60
   1   3 -13  117.49    5.70
   1   3 -13  130.09    6.90
  -1  -3  13  120.19    6.60
   0   3 -13   63.09    4.30
   0   3 -13   65.19    4.30
   0   3 -13   53.99    5.00
   0  -3  13   47.90    4.70
  -1   3 -13  138.19    5.80
  -1   3 -13  151.38    6.00
  -1   3 -13  153.38    7.60
   1  -3  13  119.59    6.50
  -2   3 -13   53.39    5.30
   2  -3  13   41.30    4.20
  -3   3 -13   98.09    7.20
  -3   3 -13  113.39    8.30
   3  -3  13   95.39    6.20
   5   2 -13   51.39    5.70
   5   2 -13   51.09    4.60
   5   2 -13   50.99    4.50
  -5  -2  13   51.49    5.00
  -5  -2  13   39.10    4.70
   4   2 -13   17.80    3.10
   4   2 -13   25.30    3.50
  -4  -2  13   22.30    3.60
  -4  -2  13   18.30    3.60
   3   2 -13   45.80    4.30
   3   2 -13   46.00    4.00
   3   2 -13   37.60    3.70
  -3  -2  13   39.50    4.00
  -3  -2  13   38.50    4.60
   2   2 -13   92.09    5.30
   2   2 -13   98.79    5.30
   2   2 -13   94.09    6.00
  -2  -2  13  100.49    5.40
  -2  -2  13   90.29    6.00
   1   2 -13   32.90    3.40
   1   2 -13   28.20    3.90
   1   2 -13   35.00    3.40
  -1  -2  13   34.10    3.40
  -1  -2  13   29.30    3.90
   0   2 -13   71.29    5.80
   0   2 -13   70.49    4.40
   0   2 -13   68.89    4.40
   0  -2  13   64.99    5.10
  -1   2 -13   25.90    3.60
  -1   2 -13   30.00    4.20
   1  -2  13   19.00    3.30
  -2   2 -13   47.80    4.90
  -2   2 -13   54.89    5.00
   2  -2  13   41.20    4.60
  -3   2 -13  124.99    7.50
  -3   2 -13  114.19    7.40
   3  -2  13   91.59    6.30
   5   1 -13   11.90    3.10
   5   1 -13   13.60    3.10
  -5  -1  13   10.40    3.30
  -5  -1  13   17.10    3.50
   4   1 -13    3.50    2.80
   4   1 -13    3.40    2.30
   4   1 -13    3.60    2.50
  -4  -1  13    3.60    2.90
  -4  -1  13    3.80    2.50
   3   1 -13    2.90    2.40
   3   1 -13    7.70    3.00
   3   1 -13    6.80    2.40
  -3  -1  13    6.50    2.80
  -3  -1  13    4.80    2.50
   2   1 -13  110.79    6.60
   2   1 -13  107.79    5.40
   2   1 -13   98.09    5.40
  -2  -1  13  102.49    5.80
  -2  -1  13  103.79    6.30
   1   1 -13   67.59    5.00
   1   1 -13   63.59    5.60
   1   1 -13   67.29    4.60
   1   1 -13   67.49    4.60
  -1  -1  13   71.79    4.90
  -1  -1  13   69.79    5.40
   0   1 -13   16.50    3.50
   0   1 -13   15.20    3.10
   0   1 -13   16.00    2.60
   0   1 -13   14.10    2.60
   0  -1  13   15.60    3.20
   0  -1  13   16.40    2.90
  -1   1 -13    4.90    2.80
  -1   1 -13    6.90    3.10
   1  -1  13    8.10    2.80
   1  -1  13    5.30    2.50
  -2   1 -13   49.80    5.10
  -2   1 -13   50.59    5.30
   2  -1  13   43.80    4.60
  -3   1 -13   24.50    4.40
  -3   1 -13   33.40    4.70
   3  -1  13   30.10    4.50
   5   0 -13    8.20    2.90
   5   0 -13    8.00    3.00
   5   0 -13    4.70    3.90
  -5   0  13   11.80    3.10
  -5   0  13    3.60    2.80
   4   0 -13   12.90    3.50
   4   0 -13   10.20    2.90
   4   0 -13   12.30    3.00
  -4   0  13    6.50    3.10
  -4   0  13   12.30    3.10
   3   0 -13   48.50    4.70
   3   0 -13   43.70    4.00
   3   0 -13   48.10    4.10
  -3   0  13   42.90    4.50
  -3   0  13   40.10    4.50
  -3   0  13   48.20    4.50
   2   0 -13  131.59    6.00
   2   0 -13  121.19    7.00
   2   0 -13  124.99    6.40
   2   0 -13  141.39    6.10
  -2   0  13  124.59    6.40
  -2   0  13  119.79    6.70
   1   0 -13  128.09    6.70
   1   0 -13  129.69    5.70
   1   0 -13  151.28    6.00
   1   0 -13  153.68    7.60
  -1   0  13  148.39    7.40
  -1   0  13  137.29    6.50
   0   0 -13  110.89    6.50
   0   0 -13  126.49    6.40
   0   0  13  120.39    6.30
   0   0  13  109.49    6.40
  -1   0 -13    2.90    2.80
  -1   0 -13    4.50    3.00
   1   0  13    4.50    2.50
   1   0  13    5.60    2.70
  -2   0 -13   19.80    4.10
  -2   0 -13   17.00    4.00
   2   0  13   14.50    3.30
   2   0  13   21.90    3.90
   5  -1 -13    2.90    2.90
   5  -1 -13    6.50    2.90
   5  -1 -13    3.60    3.50
  -5   1  13    2.60    3.20
  -5   1  13    4.60    3.10
  -5   1  13    8.80    3.10
   4  -1 -13   93.49    6.00
   4  -1 -13   95.09    6.00
   4  -1 -13  108.29    7.20
  -4   1  13  108.79    7.00
  -4   1  13  100.69    6.50
  -4   1  13   91.09    6.30
   3  -1 -13  208.38    7.90
   3  -1 -13  222.58    9.20
   3  -1 -13  209.38    8.00
  -3   1  13  209.68    8.70
  -3   1  13  200.08    8.60
  -3   1  13  223.88    9.10
   2  -1 -13    9.20    3.30
   2  -1 -13    8.60    3.10
   2  -1 -13    9.10    2.60
   2  -1 -13    9.90    2.70
  -2   1  13    3.90    2.50
  -2   1  13    7.20    3.20
   1  -1 -13   40.20    3.70
   1  -1 -13   40.00    4.50
   1  -1 -13   40.60    4.60
   1  -1 -13   38.20    3.70
  -1   1  13   39.70    4.60
  -1   1  13   35.50    4.10
   0  -1 -13  152.88    7.40
   0  -1 -13  147.39    7.70
   0   1  13  141.89    7.60
   0   1  13  144.19    7.20
  -1  -1 -13   75.09    6.20
  -1  -1 -13   64.19    5.80
   1   1  13   61.79    5.30
   1   1  13   58.59    5.40
  -2  -1 -13   60.79    5.80
  -2  -1 -13   56.09    5.50
   2   1  13   62.79    5.70
   2   1  13   50.29    5.30
   5  -2 -13   26.60    4.80
   5  -2 -13   31.50    4.40
   5  -2 -13   29.40    4.10
  -5   2  13   26.90    4.20
  -5   2  13   31.00    4.60
   4  -2 -13  246.68    9.20
   4  -2 -13  241.18    9.10
   4  -2 -13  254.07   10.60
  -4   2  13  268.57   10.60
  -4   2  13  243.98   10.00
  -4   2  13  269.27   10.10
   3  -2 -13   71.69    5.40
   3  -2 -13   80.89    5.60
   3  -2 -13   83.89    6.90
  -3   2  13   69.69    5.90
  -3   2  13   79.09    6.30
  -3   2  13   71.49    6.60
   2  -2 -13   17.70    3.80
   2  -2 -13   17.30    3.20
   2  -2 -13   24.40    4.20
   2  -2 -13   18.70    3.30
  -2   2  13   19.60    3.70
  -2   2  13   15.70    3.60
   1  -2 -13  161.08    8.10
   1  -2 -13  156.48    7.90
  -1   2  13  158.48    8.00
  -1   2  13  145.79    7.30
   0  -2 -13   59.19    5.70
   0  -2 -13   76.49    6.20
   0   2  13   71.59    6.20
   0   2  13   65.19    5.60
  -1  -2 -13   72.99    6.30
  -1  -2 -13   75.79    6.90
   1   2  13   53.79    5.20
   1   2  13   75.79    6.50
   4  -3 -13   36.20    4.50
   4  -3 -13   40.60    5.40
   4  -3 -13   36.00    4.60
  -4   3  13   40.10    4.90
  -4   3  13   41.20    5.30
   3  -3 -13   26.50    4.80
   3  -3 -13   21.00    3.60
   3  -3 -13   29.40    3.90
  -3   3  13   30.70    4.20
  -3   3  13   25.80    4.30
  -3   3  13   27.60    4.60
   2  -3 -13   34.20    4.10
   2  -3 -13   31.60    4.70
   2  -3 -13   31.90    4.00
   2  -3 -13   34.40    4.70
  -2   3  13   35.30    4.40
  -2   3  13   49.20    5.10
   1  -3 -13   14.40    3.90
   1  -3 -13   18.60    4.00
  -1   3  13   16.30    3.80
  -1   3  13   14.80    3.50
   0  -3 -13   -1.20    3.10
   0  -3 -13    2.00    3.50
   0   3  13   -0.80    2.70
   0   3  13   -3.80    3.00
   1   6 -14    2.70    2.40
   1   6 -14    5.40    2.60
  -1  -6  14    6.70    3.30
   0   6 -14   32.90    3.90
   0   6 -14   44.40    5.00
   0   6 -14   42.90    4.10
   0  -6  14   32.80    4.30
   3   5 -14    3.70    2.70
   3   5 -14    1.40    2.70
  -3  -5  14    1.80    3.10
   2   5 -14   -0.40    2.40
   2   5 -14   -2.20    2.20
  -2  -5  14    1.30    2.80
   1   5 -14   -1.50    2.30
   1   5 -14   -2.80    3.00
   1   5 -14    2.90    2.60
  -1  -5  14   -1.20    2.70
   0   5 -14   19.20    3.10
   0   5 -14   14.60    3.00
   0   5 -14   13.50    3.70
   0  -5  14   14.30    3.40
  -1   5 -14   74.89    6.70
  -1   5 -14   68.59    4.90
  -1   5 -14   67.49    5.00
   1  -5  14   63.59    5.50
   4   4 -14    3.50    2.80
   3   4 -14   16.90    3.30
   3   4 -14   20.90    3.40
  -3  -4  14   21.20    4.00
   2   4 -14   31.60    3.70
   2   4 -14   19.00    3.80
   2   4 -14   24.70    3.40
  -2  -4  14   19.10    3.70
   1   4 -14   35.30    4.40
   1   4 -14   31.20    3.60
   1   4 -14   35.60    3.80
  -1  -4  14   28.80    4.30
   0   4 -14   24.00    3.20
   0   4 -14   25.90    4.30
   0   4 -14   26.20    3.30
   0  -4  14   24.00    3.80
  -1   4 -14   49.90    5.30
  -1   4 -14   44.70    3.90
  -1   4 -14   42.60    3.90
   1  -4  14   30.10    4.10
  -2   4 -14   18.50    4.30
   2  -4  14    6.10    2.90
   4   3 -14    6.90    2.90
   4   3 -14    9.30    3.10
  -4  -3  14    9.40    2.90
  -4  -3  14    6.80    3.30
   3   3 -14   13.40    3.00
   3   3 -14    7.30    2.70
  -3  -3  14   13.30    3.60
   2   3 -14   22.00    3.80
   2   3 -14   18.50    3.10
   2   3 -14   16.10    3.00
  -2  -3  14   13.20    3.20
   1   3 -14   54.59    5.20
   1   3 -14   47.20    4.20
   1   3 -14   38.80    4.00
  -1  -3  14   47.10    4.90
   0   3 -14   67.29    4.70
   0   3 -14   76.79    4.90
   0   3 -14   75.79    6.30
   0  -3  14   67.49    5.70
  -1   3 -14   27.80    4.40
   1  -3  14   22.80    3.80
  -2   3 -14   10.00    3.60
   2  -3  14    2.60    2.80
   4   2 -14   45.60    4.30
   4   2 -14   48.60    4.50
  -4  -2  14   35.60    4.80
  -4  -2  14   36.80    4.20
   3   2 -14   13.90    3.40
   3   2 -14   18.30    3.30
   3   2 -14   11.40    3.00
  -3  -2  14   15.70    3.70
  -3  -2  14   13.30    3.00
   2   2 -14    2.50    3.00
   2   2 -14    2.60    2.50
   2   2 -14    1.00    2.20
  -2  -2  14    2.50    2.90
  -2  -2  14    6.40    2.70
   1   2 -14   22.00    3.20
   1   2 -14   27.70    3.40
   1   2 -14   23.30    4.00
  -1  -2  14   22.30    3.70
   0   2 -14   22.30    3.10
   0   2 -14   33.30    4.60
   0   2 -14   27.80    3.20
   0  -2  14   29.60    4.00
  -1   2 -14    3.00    3.30
   1  -2  14    2.30    2.60
  -2   2 -14   -0.90    3.00
  -2   2 -14    2.80    3.10
   2  -2  14   -1.50    2.60
   4   1 -14    4.60    2.60
   4   1 -14    5.90    3.50
   4   1 -14    3.00    2.70
  -4  -1  14    3.10    3.20
  -4  -1  14    5.80    2.90
   3   1 -14   38.90    4.10
   3   1 -14   43.40    4.80
   3   1 -14   36.30    4.00
  -3  -1  14   30.60    4.40
  -3  -1  14   37.80    4.30
   2   1 -14  245.68    8.40
   2   1 -14  241.78    8.30
   2   1 -14  232.98    9.50
  -2  -1  14  242.18    8.90
  -2  -1  14  231.28    9.60
   1   1 -14  111.09    5.70
   1   1 -14  117.79    5.70
   1   1 -14  106.19    6.90
  -1  -1  14   91.19    6.30
  -1  -1  14   95.59    5.80
   0   1 -14   26.10    4.00
   0   1 -14   31.70    4.40
   0  -1  14   26.40    4.00
   0  -1  14   27.90    3.60
  -1   1 -14   53.69    5.10
  -1   1 -14   39.10    5.00
   1  -1  14   46.10    5.10
   4   0 -14    4.70    3.50
   4   0 -14    6.80    2.90
   4   0 -14    2.70    2.60
  -4   0  14   -0.50    2.60
  -4   0  14    1.90    3.00
   3   0 -14   39.90    4.70
   3   0 -14   40.00    4.10
   3   0 -14   50.69    4.40
  -3   0  14   40.30    4.80
  -3   0  14   40.40    4.60
   2   0 -14   77.69    5.90
   2   0 -14   81.99    5.40
   2   0 -14   83.99    5.30
   2   0 -14   78.39    6.70
  -2   0  14   75.89    5.60
  -2   0  14   79.89    6.20
   1   0 -14   42.30    4.00
   1   0 -14   28.60    3.90
   1   0 -14   32.30    3.70
   1   0 -14   36.50    4.70
  -1   0  14   34.90    4.10
  -1   0  14   33.90    4.70
   0   0 -14  123.99    7.40
   0   0 -14  119.09    6.80
   0   0  14  119.29    6.60
   0   0  14  110.89    7.00
  -1   0 -14   55.49    5.50
  -1   0 -14   67.99    6.30
   1   0  14   62.09    5.80
   1   0  14   74.99    5.60
   4  -1 -14    9.20    3.30
   4  -1 -14   22.10    4.40
   4  -1 -14   15.20    3.50
  -4   1  14   18.80    4.30
  -4   1  14   11.40    3.40
  -4   1  14   18.40    3.90
   3  -1 -14   14.30    3.20
   3  -1 -14    5.10    3.60
   3  -1 -14    9.90    3.00
  -3   1  14    4.40    3.10
  -3   1  14   10.60    3.70
   2  -1 -14   -2.60    2.80
   2  -1 -14    0.20    2.30
   2  -1 -14    0.10    2.40
   2  -1 -14    3.70    3.30
  -2   1  14    3.30    3.20
  -2   1  14    2.90    2.90
   1  -1 -14    2.70    3.40
   1  -1 -14    0.10    3.10
  -1   1  14    2.60    2.70
  -1   1  14   -1.90    3.00
   0  -1 -14   44.80    4.90
   0  -1 -14   31.80    4.80
   0   1  14   33.70    4.70
   0   1  14   33.70    4.30
   3  -2 -14   47.90    5.60
   3  -2 -14   46.10    4.60
   3  -2 -14   44.60    4.70
  -3   2  14   47.40    5.30
  -3   2  14   41.10    4.80
   2  -2 -14   24.70    3.70
   2  -2 -14   32.30    4.60
   2  -2 -14   30.60    4.90
   2  -2 -14   27.40    3.80
  -2   2  14   30.90    4.50
  -2   2  14   30.00    4.70
   1  -2 -14   72.29    6.70
   1  -2 -14   64.29    6.00
  -1   2  14   74.19    6.10
  -1   2  14   82.99    6.80
   2   4 -15   20.70    3.50
   2   4 -15   21.20    4.50
   2   4 -15   21.00    3.40
  -2  -4  15   24.90    4.20
   1   4 -15   -0.70    2.50
   1   4 -15    0.10    2.50
   1   4 -15    1.60    3.20
  -1  -4  15    2.30    2.90
   0   4 -15   28.20    4.70
   0   4 -15   25.00    3.60
   0   4 -15   23.80    3.60
   0  -4  15   20.60    3.80
   2   3 -15   13.70    4.00
   2   3 -15    9.90    3.10
   2   3 -15   11.40    3.00
  -2  -3  15    8.30    3.40
   1   3 -15   -2.20    3.20
   1   3 -15    4.60    2.50
   1   3 -15    1.50    2.50
  -1  -3  15    2.00    2.80
   0   3 -15    0.20    2.50
   0   3 -15    1.60    2.40
   0   3 -15    1.50    3.30
   0  -3  15    1.00    2.90
   3   2 -15   26.60    3.80
   3   2 -15   31.50    4.60
   3   2 -15   20.60    3.70
  -3  -2  15   24.00    3.90
  -3  -2  15   23.20    4.40
   2   2 -15   32.60    3.90
   2   2 -15   34.80    4.70
   2   2 -15   34.20    4.10
  -2  -2  15   33.70    4.80
   1   2 -15   15.00    3.90
   1   2 -15    8.80    2.90
   1   2 -15   14.50    3.10
  -1  -2  15   12.70    3.50
   0   2 -15    0.80    3.30
   0  -2  15    1.00    2.90
   3   1 -15   35.40    4.30
   3   1 -15   39.90    4.30
   3   1 -15   38.10    5.00
  -3  -1  15   40.00    5.10
  -3  -1  15   27.70    4.40
   2   1 -15   73.19    5.60
   2   1 -15   72.89    5.70
   2   1 -15   71.19    6.30
  -2  -1  15   77.39    5.80
  -2  -1  15   71.69    6.60
   1   1 -15   71.59    5.40
   1   1 -15   57.19    5.60
   1   1 -15   70.19    5.30
  -1  -1  15   58.29    5.30
  -1  -1  15   60.29    5.70
   0   1 -15   44.10    5.20
   0  -1  15   26.30    4.10
   2   0 -15   14.00    3.40
   2   0 -15   15.70    3.30
   2   0 -15   10.70    4.00
  -2   0  15   10.00    3.40
  -2   0  15   14.70    4.20
   1   0 -15   23.40    4.50
   1   0 -15   14.30    3.70
  -1   0  15   16.80    3.60
  -1   0  15   14.20    4.00
   0   0   0    0.00    0.00

_computing_structure_solution     'SHELXT 2014/5 (Sheldrick, 2014)'
;
_shelx_hkl_checksum              70883
loop_
_space_group_symop_operation_xyz
'x, y, z'
'-x, -y, -z'
loop_
_atom_site_label
_atom_site_type_symbol
_atom_site_fract_x
_atom_site_fract_y
_atom_site_fract_z
_atom_site_U_iso_or_equiv
_atom_site_adp_type
_atom_site_occupancy
_atom_site_site_symmetry_order
_atom_site_calc_flag
_atom_site_refinement_flags_posn
_atom_site_refinement_flags_adp
_atom_site_refinement_flags_occupancy
Ni1 Ni 0.5000 0.5000 0.5000 0.01240(8) Uani 1 2 d S . P
O1 O 0.73350(14) 0.66150(12) 0.62215(8) 0.0158(2) Uani 1 1 d . . .
O2 O 0.33624(14) 0.68507(12) 0.49804(8) 0.01504(19) Uani 1 1 d . . .
O3 O 0.50536(16) 0.73984(14) 0.00704(9) 0.0224(2) Uani 1 1 d . . .
O4 O 0.24428(16) 0.68556(16) 0.09766(10) 0.0271(2) Uani 1 1 d . . .
N1 N 0.63057(17) 0.56902(14) 0.36254(10) 0.0139(2) Uani 1 1 d . . .
C1 C 0.7153(2) 0.80209(17) 0.68395(12) 0.0155(3) Uani 1 1 d . . .
C2 C 0.5521(2) 0.88603(18) 0.66393(12) 0.0173(3) Uani 1 1 d . . .
H2 H 0.5600 0.9929 0.7167 0.021 Uiso 1 1 calc R U .
C3 C 0.3779(2) 0.82675(17) 0.57308(11) 0.0144(3) Uani 1 1 d . . .
C4 C 0.8848(2) 0.8835(2) 0.78999(13) 0.0230(3) Uani 1 1 d . . .
H4A H 0.8675 0.9990 0.8250 0.035 Uiso 1 1 calc R U .
H4B H 1.0186 0.8914 0.7667 0.035 Uiso 1 1 calc R U .
H4C H 0.8781 0.8128 0.8470 0.035 Uiso 1 1 calc R U .
C5 C 0.2234(2) 0.93990(18) 0.56193(13) 0.0200(3) Uani 1 1 d . . .
H5A H 0.2636 1.0423 0.6270 0.030 Uiso 1 1 calc R U .
H5B H 0.0870 0.8760 0.5634 0.030 Uiso 1 1 calc R U .
H5C H 0.2193 0.9749 0.4882 0.030 Uiso 1 1 calc R U .
C6 C 0.5067(2) 0.60047(17) 0.27442(12) 0.0149(3) Uani 1 1 d . . .
H6 H 0.3638 0.5848 0.2748 0.018 Uiso 1 1 calc R U .
C7 C 0.5762(2) 0.65488(17) 0.18230(12) 0.0149(3) Uani 1 1 d . . .
C8 C 0.7855(2) 0.67654(18) 0.18123(12) 0.0183(3) Uani 1 1 d . . .
H8 H 0.8384 0.7118 0.1190 0.022 Uiso 1 1 calc R U .
C9 C 0.9144(2) 0.64542(19) 0.27303(13) 0.0198(3) Uani 1 1 d . . .
H9 H 1.0581 0.6607 0.2752 0.024 Uiso 1 1 calc R U .
C10 C 0.8323(2) 0.59182(17) 0.36153(12) 0.0168(3) Uani 1 1 d . . .
H10 H 0.9221 0.5703 0.4240 0.020 Uiso 1 1 calc R U .
C11 C 0.4223(2) 0.69290(17) 0.09272(12) 0.0169(3) Uani 1 1 d . . .
C12 C 0.3636(3) 0.7851(2) -0.08020(13) 0.0270(3) Uani 1 1 d . . .
H12A H 0.4324 0.8070 -0.1436 0.041 Uiso 1 1 calc R U .
H12B H 0.3189 0.8888 -0.0446 0.041 Uiso 1 1 calc R U .
H12C H 0.2437 0.6902 -0.1114 0.041 Uiso 1 1 calc R U .
loop_
_atom_site_aniso_label
_atom_site_aniso_U_11
_atom_site_aniso_U_22
_atom_site_aniso_U_33
_atom_site_aniso_U_23
_atom_site_aniso_U_13
_atom_site_aniso_U_12
Ni1 0.00955(12) 0.01392(13) 0.01418(13) 0.00378(9) 0.00143(9) 0.00406(9)
O1 0.0114(4) 0.0175(5) 0.0184(5) 0.0046(4) 0.0018(4) 0.0033(4)
O2 0.0131(5) 0.0157(5) 0.0167(5) 0.0035(4) 0.0020(4) 0.0054(4)
O3 0.0219(5) 0.0308(6) 0.0186(5) 0.0123(4) 0.0053(4) 0.0076(4)
O4 0.0167(5) 0.0445(7) 0.0252(6) 0.0170(5) 0.0037(4) 0.0099(5)
N1 0.0116(5) 0.0140(5) 0.0166(5) 0.0036(4) 0.0028(4) 0.0039(4)
C1 0.0140(6) 0.0174(7) 0.0152(6) 0.0065(5) 0.0040(5) -0.0006(5)
C2 0.0183(7) 0.0150(6) 0.0181(7) 0.0020(5) 0.0045(5) 0.0038(5)
C3 0.0149(6) 0.0153(6) 0.0170(6) 0.0080(5) 0.0079(5) 0.0046(5)
C4 0.0190(7) 0.0241(8) 0.0220(7) 0.0026(6) -0.0005(6) 0.0020(6)
C5 0.0200(7) 0.0191(7) 0.0233(7) 0.0052(6) 0.0057(6) 0.0090(6)
C6 0.0107(6) 0.0167(6) 0.0176(6) 0.0035(5) 0.0027(5) 0.0044(5)
C7 0.0145(6) 0.0138(6) 0.0160(6) 0.0021(5) 0.0030(5) 0.0036(5)
C8 0.0168(7) 0.0194(7) 0.0201(7) 0.0051(5) 0.0080(5) 0.0036(5)
C9 0.0105(6) 0.0233(7) 0.0266(7) 0.0065(6) 0.0052(5) 0.0046(5)
C10 0.0122(6) 0.0175(7) 0.0201(7) 0.0040(5) 0.0008(5) 0.0047(5)
C11 0.0181(7) 0.0158(6) 0.0159(6) 0.0027(5) 0.0032(5) 0.0030(5)
C12 0.0300(8) 0.0333(9) 0.0207(7) 0.0136(7) 0.0020(6) 0.0087(7)
loop_
_atom_type_symbol
_atom_type_description
_atom_type_scat_dispersion_real
_atom_type_scat_dispersion_imag
_atom_type_scat_source
C C 0.0033 0.0016 'International Tables Vol C Tables 4.2.6.8 and 6.1.1.4'
H H 0.0000 0.0000 'International Tables Vol C Tables 4.2.6.8 and 6.1.1.4'
N N 0.0061 0.0033 'International Tables Vol C Tables 4.2.6.8 and 6.1.1.4'
Ni Ni 0.3393 1.1124 'International Tables Vol C Tables 4.2.6.8 and 6.1.1.4'
O O 0.0106 0.0060 'International Tables Vol C Tables 4.2.6.8 and 6.1.1.4'
loop_
_geom_angle_atom_site_label_1
_geom_angle_atom_site_label_2
_geom_angle_atom_site_label_3
_geom_angle
_geom_angle_site_symmetry_1
_geom_angle_site_symmetry_3
O2 Ni1 O2 180.0 2_666 .
O2 Ni1 O1 91.95(5) 2_666 2_666
O2 Ni1 O1 88.05(5) . 2_666
O2 Ni1 O1 88.05(5) 2_666 .
O2 Ni1 O1 91.95(5) . .
O1 Ni1 O1 180.0 2_666 .
O2 Ni1 N1 90.33(4) 2_666 .
O2 Ni1 N1 89.67(4) . .
O1 Ni1 N1 88.01(5) 2_666 .
O1 Ni1 N1 91.99(5) . .
O2 Ni1 N1 89.67(4) 2_666 2_666
O2 Ni1 N1 90.33(4) . 2_666
O1 Ni1 N1 91.99(5) 2_666 2_666
O1 Ni1 N1 88.01(5) . 2_666
N1 Ni1 N1 180.0 . 2_666
C1 O1 Ni1 123.37(9) . .
C3 O2 Ni1 124.25(9) . .
C11 O3 C12 114.50(12) . .
C6 N1 C10 118.00(12) . .
C6 N1 Ni1 118.03(9) . .
C10 N1 Ni1 123.88(9) . .
O1 C1 C2 125.97(13) . .
O1 C1 C4 115.96(12) . .
C2 C1 C4 118.06(13) . .
C1 C2 C3 126.12(13) . .
C1 C2 H2 116.9 . .
C3 C2 H2 116.9 . .
O2 C3 C2 126.00(12) . .
O2 C3 C5 115.56(12) . .
C2 C3 C5 118.44(12) . .
C1 C4 H4A 109.5 . .
C1 C4 H4B 109.5 . .
H4A C4 H4B 109.5 . .
C1 C4 H4C 109.5 . .
H4A C4 H4C 109.5 . .
H4B C4 H4C 109.5 . .
C3 C5 H5A 109.5 . .
C3 C5 H5B 109.5 . .
H5A C5 H5B 109.5 . .
C3 C5 H5C 109.5 . .
H5A C5 H5C 109.5 . .
H5B C5 H5C 109.5 . .
N1 C6 C7 123.25(12) . .
N1 C6 H6 118.4 . .
C7 C6 H6 118.4 . .
C6 C7 C8 118.42(13) . .
C6 C7 C11 117.52(12) . .
C8 C7 C11 124.02(12) . .
C9 C8 C7 118.40(13) . .
C9 C8 H8 120.8 . .
C7 C8 H8 120.8 . .
C10 C9 C8 119.43(13) . .
C10 C9 H9 120.3 . .
C8 C9 H9 120.3 . .
N1 C10 C9 122.49(13) . .
N1 C10 H10 118.8 . .
C9 C10 H10 118.8 . .
O4 C11 O3 123.61(13) . .
O4 C11 C7 124.13(13) . .
O3 C11 C7 112.25(12) . .
O3 C12 H12A 109.5 . .
O3 C12 H12B 109.5 . .
H12A C12 H12B 109.5 . .
O3 C12 H12C 109.5 . .
H12A C12 H12C 109.5 . .
H12B C12 H12C 109.5 . .
loop_
_geom_bond_atom_site_label_1
_geom_bond_atom_site_label_2
_geom_bond_distance
_geom_bond_site_symmetry_2
Ni1 O2 2.0130(11) 2_666
Ni1 O2 2.0130(11) .
Ni1 O1 2.0272(11) 2_666
Ni1 O1 2.0272(11) .
Ni1 N1 2.1134(13) .
Ni1 N1 2.1135(13) 2_666
O1 C1 1.2626(17) .
O2 C3 1.2624(17) .
O3 C11 1.3347(17) .
O3 C12 1.4496(18) .
O4 C11 1.2016(18) .
N1 C6 1.3344(18) .
N1 C10 1.3423(18) .
C1 C2 1.4046(19) .
C1 C4 1.513(2) .
C2 C3 1.406(2) .
C2 H2 0.9500 .
C3 C5 1.5099(18) .
C4 H4A 0.9800 .
C4 H4B 0.9800 .
C4 H4C 0.9800 .
C5 H5A 0.9800 .
C5 H5B 0.9800 .
C5 H5C 0.9800 .
C6 C7 1.3875(19) .
C6 H6 0.9500 .
C7 C8 1.393(2) .
C7 C11 1.4882(19) .
C8 C9 1.383(2) .
C8 H8 0.9500 .
C9 C10 1.383(2) .
C9 H9 0.9500 .
C10 H10 0.9500 .
C12 H12A 0.9800 .
C12 H12B 0.9800 .
C12 H12C 0.9800 .
