#------------------------------------------------------------------------------
#$Date: 2019-11-10 06:53:33 +0200 (Sun, 10 Nov 2019) $
#$Revision: 225754 $
#$URL: file:///home/coder/svn-repositories/cod/cif/4/51/56/4515610.cif $
#------------------------------------------------------------------------------
#
# This file is available in the Crystallography Open Database (COD),
# http://www.crystallography.net/
#
# All data on this site have been placed in the public domain by the
# contributors.
#
data_4515610
loop_
_publ_author_name
'Xiong, Xiaodong'
'Yeung, Ying-Yeung'
_publ_section_title
;
 Ammonium Salt-Catalyzed Highly Practical Ortho-Selective Monohalogenation
 and Phenylselenation of Phenols: Scope and Applications
;
_journal_issue                   5
_journal_name_full               'ACS Catalysis'
_journal_page_first              4033
_journal_paper_doi               10.1021/acscatal.8b00327
_journal_volume                  8
_journal_year                    2018
_chemical_formula_sum            'C8 H7 Cl O3'
_chemical_formula_weight         186.59
_space_group_crystal_system      orthorhombic
_space_group_IT_number           33
_space_group_name_Hall           'P 2c -2n'
_space_group_name_H-M_alt        'P n a 21'
_atom_sites_solution_hydrogens   geom
_audit_creation_method           SHELXL-2014/6
_cell_angle_alpha                90
_cell_angle_beta                 90
_cell_angle_gamma                90
_cell_formula_units_Z            4
_cell_length_a                   14.4042(14)
_cell_length_b                   3.8522(4)
_cell_length_c                   14.6641(14)
_cell_measurement_reflns_used    202
_cell_measurement_temperature    296(2)
_cell_measurement_theta_max      15
_cell_measurement_theta_min      15
_cell_volume                     813.68(14)
_computing_cell_refinement       'BRUKER D8VENTURE DIFFRACTOMETER'
_computing_data_collection       'BRUKER D8VENTURE DIFFRACTOMETER'
_computing_data_reduction        'BRUKER D8VENTURE DIFFRACTOMETER'
_computing_molecular_graphics    'BRUKER SHELXTL'
_computing_publication_material  'BRUKER SHELXTL'
_computing_structure_refinement  'SHELXL-2014/6 (Sheldrick, 2014)'
_diffrn_ambient_temperature      296(2)
_diffrn_measured_fraction_theta_full 0.952
_diffrn_measured_fraction_theta_max 0.952
_diffrn_measurement_device_type  'BRUKER D8VENTURE DIFFRACTOMETER'
_diffrn_measurement_method       'PHI & OMEGA SCAN'
_diffrn_radiation_type           MoK\a
_diffrn_radiation_wavelength     0.71073
_diffrn_reflns_av_R_equivalents  0.0270
_diffrn_reflns_av_unetI/netI     0.0369
_diffrn_reflns_Laue_measured_fraction_full 0.952
_diffrn_reflns_Laue_measured_fraction_max 0.952
_diffrn_reflns_limit_h_max       16
_diffrn_reflns_limit_h_min       -13
_diffrn_reflns_limit_k_max       4
_diffrn_reflns_limit_k_min       -3
_diffrn_reflns_limit_l_max       17
_diffrn_reflns_limit_l_min       -14
_diffrn_reflns_number            3335
_diffrn_reflns_point_group_measured_fraction_full 0.870
_diffrn_reflns_point_group_measured_fraction_max 0.870
_diffrn_reflns_theta_full        25.242
_diffrn_reflns_theta_max         25.238
_diffrn_reflns_theta_min         2.778
_exptl_absorpt_coefficient_mu    0.429
_exptl_absorpt_correction_T_max  0.7456
_exptl_absorpt_correction_T_min  0.5169
_exptl_absorpt_correction_type   multi-scan
_exptl_crystal_colour            colourless
_exptl_crystal_density_diffrn    1.523
_exptl_crystal_description       block
_exptl_crystal_F_000             384
_exptl_crystal_size_max          0.400
_exptl_crystal_size_mid          0.300
_exptl_crystal_size_min          0.200
_refine_diff_density_max         0.139
_refine_diff_density_min         -0.211
_refine_diff_density_rms         0.042
_refine_ls_abs_structure_details
;
 Flack x determined using 470 quotients [(I+)-(I-)]/[(I+)+(I-)]
 (Parsons, Flack and Wagner, Acta Cryst. B69 (2013) 249-259).
;
_refine_ls_abs_structure_Flack   0.06(6)
_refine_ls_extinction_method     none
_refine_ls_goodness_of_fit_ref   1.066
_refine_ls_hydrogen_treatment    constr
_refine_ls_matrix_type           full
_refine_ls_number_parameters     109
_refine_ls_number_reflns         1290
_refine_ls_number_restraints     1
_refine_ls_restrained_S_all      1.066
_refine_ls_R_factor_all          0.0432
_refine_ls_R_factor_gt           0.0378
_refine_ls_shift/su_max          0.002
_refine_ls_shift/su_mean         0.000
_refine_ls_structure_factor_coef Fsqd
_refine_ls_weighting_details
'w=1/[\s^2^(Fo^2^)+(0.0474P)^2^+0.2484P] where P=(Fo^2^+2Fc^2^)/3'
_refine_ls_weighting_scheme      calc
_refine_ls_wR_factor_gt          0.0891
_refine_ls_wR_factor_ref         0.0916
_reflns_Friedel_coverage         0.755
_reflns_Friedel_fraction_full    0.782
_reflns_Friedel_fraction_max     0.782
_reflns_number_gt                1183
_reflns_number_total             1290
_reflns_threshold_expression     'I > 2\s(I)'
_cod_data_source_file            cs8b00327_si_002.cif
_cod_data_source_block           XXD28
_cod_database_code               4515610
_shelx_space_group_comment
;
The symmetry employed for this shelxl refinement is uniquely defined
by the following loop, which should always be used as a source of
symmetry information in preference to the above space-group names.
They are only intended as comments.
;
_shelx_estimated_absorpt_t_min   0.847
_shelx_estimated_absorpt_t_max   0.919
_shelxl_version_number           2014/6
_shelx_res_file
;
TITL P in Pna2(1)
CELL 0.71073  14.40420   3.85220  14.66410  90.0000  90.0000  90.0000
ZERR   4.00   0.00140   0.00040   0.00140   0.0000   0.0000   0.0000
LATT -1
SYMM -X, -Y, 0.5+Z
SYMM 0.5+X, 0.5-Y, Z
SYMM 0.5-X, 0.5+Y, 0.5+Z
SFAC C H O CL
UNIT 32 28 12 4
REM C8 H7 Cl O3
REM D8VENTURE BLOCK COLOURLESS
OMIT -3 50.5
SIZE 0.40 0.30 0.20

TEMP 23

L.S. 4
ACTA
FMAP 2
PLAN 20

WGHT    0.047400    0.248400
FVAR       0.35172
CL1   4   -0.061462   -0.215370   -0.832920    11.00000    0.03508    0.06319 =
         0.03581    0.00412   -0.00537   -0.01454
O1    3   -0.204338   -0.437019   -0.711175    11.00000    0.04425    0.08835 =
         0.02315    0.00595   -0.00275   -0.01753
AFIX  83
H1A   2   -0.245740   -0.507611   -0.677573    11.00000   -1.50000
AFIX   0
O2    3   -0.154331   -0.178083   -1.102828    11.00000    0.04781    0.09892 =
         0.03466    0.02426   -0.00021    0.01939
O3    3   -0.042219   -0.439588   -1.026261    11.00000    0.03054    0.06585 =
         0.03261    0.00936    0.00587    0.00929
C1    1   -0.166778   -0.387465   -0.866964    11.00000    0.02731    0.02575 =
         0.03213    0.00183   -0.00425    0.00038
C2    1   -0.230528   -0.477669   -0.799669    11.00000    0.03735    0.04038 =
         0.02643    0.00515   -0.00089    0.00038
C3    1   -0.315941   -0.606980   -0.824398    11.00000    0.03139    0.04987 =
         0.03623    0.00002    0.00593   -0.00492
AFIX  43
H3A   2   -0.357734   -0.675219   -0.779504    11.00000   -1.20000
AFIX   0
C4    1   -0.340161   -0.636389   -0.914705    11.00000    0.02845    0.05692 =
         0.04257   -0.00455   -0.00455   -0.00238
AFIX  43
H4A   2   -0.398465   -0.720444   -0.930660    11.00000   -1.20000
AFIX   0
C5    1   -0.277931   -0.541150   -0.981662    11.00000    0.02863    0.05364 =
         0.03037   -0.00975   -0.00597    0.00511
AFIX  43
H5A   2   -0.294672   -0.561294   -1.042684    11.00000   -1.20000
AFIX   0
C6    1   -0.190916   -0.416028   -0.959095    11.00000    0.02977    0.03229 =
         0.02823    0.00094   -0.00324    0.00746
C7    1   -0.127892   -0.328616   -1.035689    11.00000    0.03520    0.03929 =
         0.02645   -0.00127   -0.00167    0.00628
C8    1    0.020659   -0.369227   -1.101695    11.00000    0.04023    0.07832 =
         0.04808    0.00712    0.01501    0.00291
AFIX  33
H8A   2    0.080998   -0.460816   -1.087768    11.00000   -1.50000
H8B   2   -0.002608   -0.477338   -1.156072    11.00000   -1.50000
H8C   2    0.025069   -0.123107   -1.111012    11.00000   -1.50000

AFIX   0
HKLF 4

REM  P in Pna2(1)
REM R1 =  0.0378 for    1183 Fo > 4sig(Fo)  and  0.0432 for all    1290 data
REM    109 parameters refined using      1 restraints

END

WGHT      0.0351      0.2805

REM Highest difference peak  0.139,  deepest hole -0.211,  1-sigma level  0.042
Q1    1  -0.1825 -0.5342 -0.8330  11.00000  0.05    0.14
Q2    1  -0.1616 -0.3974 -0.9919  11.00000  0.05    0.13
Q3    1  -0.4409 -0.6155 -0.7855  11.00000  0.05    0.13
Q4    1  -0.2741 -0.3726 -0.8258  11.00000  0.05    0.13
Q5    1  -0.3795 -0.9868 -0.7391  11.00000  0.05    0.13
Q6    1  -0.0968  0.0621 -1.1016  11.00000  0.05    0.13
Q7    1  -0.4413 -0.6085 -0.8815  11.00000  0.05    0.12
Q8    1  -0.0973  0.1100 -0.9565  11.00000  0.05    0.12
Q9    1  -0.0583 -0.1912 -0.7306  11.00000  0.05    0.12
Q10   1  -0.3400 -0.5171 -0.8757  11.00000  0.05    0.12
Q11   1  -0.1407 -0.1910 -0.8389  11.00000  0.05    0.12
Q12   1  -0.0217 -0.6222 -1.2360  11.00000  0.05    0.12
Q13   1  -0.3664 -0.8118 -0.7704  11.00000  0.05    0.12
Q14   1  -0.3595 -0.6438 -1.1133  11.00000  0.05    0.12
Q15   1  -0.0074 -0.6566 -0.9783  11.00000  0.05    0.12
Q16   1  -0.2618 -0.1180 -0.7024  11.00000  0.05    0.11
Q17   1  -0.0517 -0.4558 -0.8155  11.00000  0.05    0.11
Q18   1  -0.1038 -0.0872 -0.8823  11.00000  0.05    0.11
Q19   1  -0.4208 -0.1873 -0.7877  11.00000  0.05    0.11
Q20   1  -0.4613 -0.6106 -0.9633  11.00000  0.05    0.11
;
_shelx_res_checksum              97307
_shelx_hkl_file
;
   0   1   0   -0.06    0.16
   0  -1   0   -0.12    0.16
   0  -2   0    1.51    0.27
   0   2   0    1.69    0.30
   0  -3   0    1.06    0.42
   0   3   0    0.16    0.42
   0  -3   0   -0.84    0.40
   0   4   0    3.30    0.84
   0   5   0    0.96    1.08
   1  -1   0  109.74    3.84
  -1  -1   0  118.70    3.84
  -1  -1   0  121.32    3.86
   1   1   0  114.00    3.85
  -1   1   0  108.57    3.83
   1   1   0  112.85    3.84
  -1  -2   0    0.72    0.26
   1  -2   0    0.07    0.25
  -1   2   0    0.40    0.30
   1   2   0    0.20    0.27
  -1  -2   0    0.86    0.23
   1  -3   0    8.89    0.64
  -1   3   0   10.83    0.74
   1   3   0   11.09    0.75
  -1  -3   0    9.10    0.73
   1   4   0    5.48    1.04
  -1   4   0    7.03    0.99
   1   5   0    2.39    1.09
  -1   5   0    2.40    1.20
  -2  -2   0  168.15    5.50
  -2  -2   0  169.93    5.48
   2   2   0  155.81    5.46
   2   2   0  154.66    5.48
   2  -2   0  161.04    5.45
  -2   2   0  160.93    5.45
   2   3   0   11.68    0.81
  -2   3   0    9.83    0.72
   2  -3   0    7.48    0.60
  -2   4   0    5.26    0.96
   2   4   0    3.88    0.86
   2   5   0    0.16    1.14
  -2   5   0   -1.88    1.12
  -3  -1   0   17.37    0.71
   3   1   0   16.66    0.69
  -3  -1   0   17.13    0.70
   3   2   0   19.59    0.82
  -3  -2   0   18.07    0.88
  -3  -2   0   19.64    0.83
   3   2   0   18.68    0.85
  -3   3   0    0.76    0.33
   3   4   0    3.68    0.79
  -3   4   0    5.35    0.93
   3   5   0    2.53    1.23
  -3   5   0   -0.39    1.26
  -4  -1   0   14.95    0.62
   4   1   0   14.14    0.64
  -4  -1   0   14.40    0.60
   4   1   0   14.16    0.62
   4   2   0   82.78    2.94
  -4  -2   0   87.54    2.94
   4   2   0   83.02    2.97
  -4  -2   0   84.78    2.98
   4   3   0   90.05    3.19
   4   3   0   88.54    3.22
   4   4   0    5.49    0.87
  -5  -1   0  112.00    3.72
   5   1   0  107.97    3.72
   5   1   0  106.99    3.70
   5   2   0    0.92    0.27
   5   2   0    0.19    0.33
  -5  -2   0    0.57    0.26
   5   4   0    8.64    1.08
   5   4   0    5.43    1.00
  -6  -1   0   90.99    3.04
   6   1   0   85.07    3.03
  -6  -2   0    2.75    0.42
   6   2   0    3.32    0.46
   6   2   0    3.49    0.45
   6   3   0    4.15    0.75
   6   3   0    5.11    0.81
   6   4   0   16.97    1.28
   6   4   0   16.72    1.26
   7   1   0    7.34    0.50
  -7  -1   0    7.56    0.47
   7   2   0   -0.02    0.33
   7   3   0   14.51    1.07
   7   3   0   15.42    0.98
   7   4   0    5.08    0.86
   7   4   0    7.94    1.19
   8   1   0   31.39    1.21
   8   2   0    7.64    0.68
   8   2   0    6.53    0.64
   8   3   0    0.09    0.53
   8   4   0    2.62    0.88
   8   4   0    2.12    0.99
   9   1   0    5.81    0.50
  -9  -1   0    5.93    0.53
   9   2   0    0.36    0.42
   9   2   0    0.07    0.43
   9   3   0   14.21    1.09
   9   3   0   14.15    1.03
   9   4   0    2.11    1.12
   9   4   0    1.73    0.98
 -10  -1   0   47.14    1.78
  10   1   0   49.09    1.80
  10   2   0   31.99    1.38
  10   2   0   30.67    1.37
  10   3   0    0.41    0.69
  10   3   0    0.07    0.75
  10   4   0    0.99    1.07
  10   4   0    0.37    1.24
  11   1   0    1.56    0.47
 -11  -1   0    1.29    0.40
  11   2   0   20.55    1.10
  11   2   0   20.67    1.11
  11   3   0    0.80    0.73
  11   3   0   -0.79    0.81
  11   4   0    2.19    1.46
  11   4   0    1.97    1.28
  12   1   0   64.78    2.31
 -12  -1   0   60.46    2.29
  12   2   0    3.02    0.75
  12   3   0    5.34    1.03
  12   3   0    5.00    0.90
 -13  -1   0   24.99    1.43
  13   1   0   24.16    1.16
  13   2   0   -0.16    1.11
  13   3   0    1.63    0.93
  13   3   0    4.53    1.09
  14   1   0   17.57    1.03
  14   2   0    3.00    0.91
  14   2   0    4.62    0.86
  14   3   0    3.95    1.19
  14   3   0    0.35    1.05
  15   1   0    0.36    0.74
  15   2   0    6.26    1.03
  15   2   0    4.27    0.95
  15   3   0    3.56    1.48
  15   3   0    3.76    1.39
  16   1   0    4.16    0.88
  16   2   0   11.88    1.34
  16   2   0   11.17    1.31
  17   1   0   -0.01    1.98
  17   2   0   -1.98    1.46
  17   2   0    2.26    1.23
   0   1  -1  579.00   19.52
   0  -1  -1  602.27   19.52
   0  -1   1  586.74   19.51
   0   2  -1    0.09    0.24
   0  -2  -1    0.33    0.24
   0  -2   1    0.19    0.23
   0   2   1   -0.10    0.25
   0  -3  -1    4.68    0.58
   0  -3   1    4.24    0.60
   0   3  -1    3.94    0.48
   0   3  -1    5.23    0.68
   0  -3  -1    5.03    0.57
   0  -3   1    5.22    0.61
   0   4  -1    0.83    0.75
   0   4   1    1.90    0.75
   0   5  -1    4.29    1.14
   0   5   1    1.59    1.09
  -1   2  -1   58.54    2.18
   1  -2  -1   62.64    2.19
  -1  -2   1   65.23    2.20
  -1  -2   1   66.63    2.21
   1   2   1   60.86    2.20
  -1  -2  -1   63.55    2.20
  -1   2   1   61.19    2.18
  -1  -2  -1   63.11    2.18
   1  -2   1   58.33    2.20
   1   2  -1   60.85    2.19
  -1  -3   1    0.49    0.47
  -1   3  -1    1.60    0.49
   1  -3  -1    0.86    0.39
  -1   3  -1    0.66    0.31
   1   3   1    1.53    0.46
  -1   3   1    1.52    0.47
  -1  -3  -1    0.70    0.45
  -1  -3  -1    0.53    0.41
   1   3  -1    1.59    0.48
   1   4   1    8.12    1.17
  -1   4  -1    8.80    0.98
  -1   4   1    8.05    0.98
  -1   5  -1    3.03    1.21
   1   5   1    3.46    1.10
   1   5  -1    4.61    1.10
  -1   5   1    1.60    1.06
  -2  -1   1  180.94    5.84
   2   1   1  167.57    5.81
   2   1   1  167.84    5.79
   2   1  -1  158.97    5.82
  -2  -1  -1  176.29    5.83
  -2  -1  -1  186.72    5.79
   2   1  -1  172.59    5.79
  -2   2  -1   20.02    0.84
  -2  -2   1   18.35    0.84
   2   2   1   20.22    0.82
   2   2   1   18.98    0.87
  -2   2  -1   18.95    0.78
   2  -2  -1   19.19    0.81
  -2  -2   1   19.40    0.82
  -2  -2  -1   20.13    0.85
   2   2  -1   20.80    0.83
  -2  -2  -1   21.43    0.82
  -2   2   1   18.72    0.85
   2   2  -1   19.75    0.84
  -2   3  -1   26.30    1.16
   2  -3  -1   22.02    1.07
   2   3   1   27.00    1.21
  -2   3   1   27.24    1.17
   2   3  -1   27.28    1.21
   2   4   1    1.88    0.77
  -2   4  -1    2.31    0.76
   2   4  -1    1.71    0.78
  -2   4   1    2.45    0.72
  -2   5  -1    1.03    1.13
   2   5   1    2.57    1.16
  -2   5   1    0.08    1.07
   2   5  -1    0.29    1.12
  -3   0  -1    0.11    0.09
   3   1   1  202.79    6.96
  -3  -1   1  214.19    6.97
   3   1  -1  206.42    6.96
  -3  -1  -1  209.80    6.97
   3   2   1  176.46    6.12
   3   2   1  176.72    6.10
  -3  -2   1  186.71    6.14
  -3  -2  -1  181.68    6.10
   3   2  -1  180.96    6.11
   3   2  -1  174.15    6.12
  -3  -2  -1  188.92    6.16
   3   3   1    1.67    0.48
  -3   3  -1    0.90    0.29
   3  -3  -1    0.82    0.37
   3   3   1    1.72    0.45
   3   3  -1    1.71    0.51
  -3   3   1    1.72    0.49
  -3   4  -1    0.91    0.77
   3   4   1    1.32    0.72
  -3   4   1    1.51    0.72
   3   4  -1    1.15    0.74
   4   1   1   29.15    1.11
  -4  -1   1   30.85    1.11
   4   1   1   29.73    1.11
   4   1  -1   28.78    1.12
   4   1  -1   29.97    1.10
  -4  -1  -1   30.00    1.10
  -4  -1  -1   30.46    1.11
   4   2   1  153.98    5.18
  -4  -2   1  157.53    5.22
   4   2   1  150.05    5.20
  -4  -2  -1  154.48    5.18
   4   2  -1  149.80    5.18
   4   2  -1  149.60    5.20
  -4  -2  -1  151.63    5.21
   4   3   1    1.63    0.48
  -4   4  -1    6.04    0.86
   4   4   1    2.77    0.80
   4   4  -1    4.41    0.83
  -5  -1   1   21.05    0.81
   5   1   1   20.38    0.80
   5   1   1   19.46    0.81
   5   1  -1   19.18    0.81
  -5  -1  -1   19.28    0.80
   5   1  -1   20.14    0.79
   5   2   1   96.50    3.45
  -5  -2   1  100.22    3.47
   5   2   1   97.41    3.44
  -5  -2  -1  104.27    3.44
   5   2  -1   98.28    3.44
  -5  -2  -1  100.70    3.47
   5   2  -1   97.07    3.46
   5   3   1   45.75    1.84
   5   3   1   46.15    1.89
   5   3  -1   48.59    1.89
   5   3  -1   46.83    1.84
   5   4   1    4.45    0.83
   5   4  -1    2.31    0.82
   5   4  -1    2.15    0.88
  -6  -1   1  162.25    5.25
   6   1   1  151.64    5.24
   6   1   1  156.47    5.24
  -6  -1  -1  155.14    5.25
   6   1  -1  149.94    5.24
  -6  -2   1    7.90    0.59
   6   2   1    8.87    0.58
   6   2   1    8.61    0.60
  -6  -2  -1    7.15    0.58
   6   2  -1    8.23    0.61
  -6  -2  -1    8.14    0.57
   6   2  -1    8.51    0.58
   6   3   1    9.99    0.85
   6   3   1    9.37    0.87
   6   3  -1   11.06    0.89
   6   3  -1    9.30    0.82
   6   4   1    3.82    0.91
   6   4   1    3.95    0.83
   6   4  -1    6.15    1.08
   6   4  -1    6.77    1.09
  -7  -1   1   69.22    2.35
   7   1   1   65.72    2.34
   7   1  -1   64.85    2.34
  -7  -1  -1   66.39    2.34
   7   2   1    7.34    0.61
  -7  -2   1    5.54    0.61
   7   2   1    7.88    0.58
   7   2  -1    7.71    0.58
  -7  -2  -1    7.92    0.57
   7   2  -1    6.95    0.62
  -7  -2  -1    6.85    0.62
   7   3   1    3.80    0.62
   7   3   1    4.51    0.84
   7   3  -1    4.52    0.75
   7   3  -1    4.34    0.77
   7   4   1    9.44    1.17
   7   4   1   12.87    1.25
   7   4  -1    9.56    1.21
   7   4  -1   10.73    1.34
  -8  -1   1  108.93    3.68
   8   1   1  106.46    3.68
   8   1  -1  105.28    3.68
  -8  -1  -1  106.54    3.68
   8   2   1    7.54    0.64
   8   2   1    7.31    0.66
   8   2  -1    7.44    0.68
   8   2  -1    7.14    0.64
   8   3   1    6.31    0.84
   8   3  -1    6.02    0.80
   8   4   1    0.03    1.01
   8   4   1    0.88    0.87
   8   4  -1    0.32    1.00
   9   1   1    2.44    0.39
  -9  -1  -1    2.36    0.39
   9   1  -1    1.81    0.36
   9   2   1    0.30    0.43
   9   2   1    1.17    0.47
   9   2  -1    1.05    0.45
   9   2  -1    0.74    0.42
   9   3   1    2.73    0.76
   9   3   1    3.81    0.69
   9   3  -1    4.31    0.78
   9   3  -1    3.40    0.67
   9   4   1    2.98    1.13
   9   4   1    1.38    0.99
   9   4  -1    2.98    1.15
   9   4  -1    1.20    1.00
  10   1   1   39.78    1.54
 -10  -1   1   39.00    1.51
 -10  -1  -1   39.13    1.51
  10   1  -1   41.32    1.54
  10   2   1   13.15    0.89
  10   2   1   13.61    0.90
  10   2  -1   12.86    0.86
  10   2  -1   12.79    0.90
  10   3   1    5.36    0.81
  10   3   1    6.60    1.02
  10   3  -1    6.89    0.98
  10   3  -1    6.06    0.97
  10   4   1    1.51    1.26
  10   4   1    0.19    1.09
  10   4  -1    0.15    1.22
  10   4  -1   -1.02    1.10
 -11  -1   1    3.59    0.51
  11   1   1    3.45    0.58
  11   1  -1    4.16    0.52
 -11  -1  -1    3.30    0.55
  11   2   1    2.55    0.57
  11   2   1    2.01    0.58
  11   2  -1    2.55    0.55
  11   2  -1    2.73    0.57
  11   3   1    1.57    0.75
  11   3   1    1.80    0.86
  11   3  -1    0.61    0.83
  11   3  -1    2.43    0.75
  11   4   1    0.86    1.33
  11   4   1    1.80    1.46
  11   4  -1   -0.46    1.42
  11   4  -1    0.83    1.34
 -12  -1   1    3.92    0.51
  12   1   1    3.98    0.61
  12   1  -1    4.30    0.62
 -12  -1  -1    4.32    0.55
  12   2   1   19.37    1.17
  12   2   1   17.30    1.33
  12   2  -1   19.76    1.15
  12   3   1   -0.39    0.92
  12   3   1    1.17    0.86
  12   3  -1    0.65    0.82
  12   3  -1   -0.21    0.92
 -13  -1   1    3.17    0.88
  13   1   1    3.92    0.63
  13   1  -1    3.54    0.60
  13   2   1    5.26    0.78
  13   2  -1    7.32    1.24
  13   2  -1    7.01    1.03
  13   3   1    4.75    1.01
  13   3   1    6.58    1.13
  13   3  -1    5.56    1.00
  13   3  -1    5.29    1.11
  14   1   1   10.05    0.90
  14   1  -1   10.51    0.88
  14   2   1    9.55    1.10
  14   2   1    8.78    1.13
  14   2  -1   10.92    1.13
  14   3   1    1.62    1.07
  14   3   1    4.76    1.19
  14   3  -1    3.82    1.21
  15   1   1    3.14    0.83
  15   1  -1    3.63    0.74
  15   2   1    9.20    1.19
  15   2   1   10.37    1.33
  15   2  -1    7.45    1.25
  15   2  -1   11.06    1.34
  15   3   1    1.61    1.38
  15   3   1    0.30    1.29
  15   3  -1    1.39    1.36
  15   3  -1    2.88    1.75
  16   1   1   16.98    1.29
  16   1  -1   17.09    1.18
  16   2   1    1.31    1.06
  16   2   1   -0.10    0.95
  16   2  -1    2.48    1.02
  17   1   1    5.04    1.46
  17   1   1    9.31    1.64
  17   2   1   -0.58    1.26
  17   2   1    0.49    1.41
  17   2  -1    0.87    1.18
  18   1   1    7.87    1.37
   0   0  -2  314.17   10.32
   0   0  -2  307.03   10.32
   0   1   2   -0.54    0.16
   0   1  -2   -0.36    0.17
   0  -1  -2   -0.55    0.15
   0  -2  -2   36.99    1.41
   0   2   2   38.46    1.42
   0   2  -2   40.06    1.42
   0   2  -2   38.04    1.41
   0  -3  -2   -0.63    0.43
   0   3  -2    0.17    0.35
   0  -3  -2    0.50    0.40
   0   3   2    1.39    0.45
   0   3  -2    1.21    0.45
   0   4   2    4.92    0.80
   0   4  -2    4.48    0.79
   0   5  -2    2.23    1.18
   0   5   2   -1.21    1.00
   1   0   2   -0.84    0.06
   1   0   2   -0.81    0.06
  -1   0  -2   -0.87    0.06
  -1   0  -2   -0.65    0.06
  -1   0   2   -0.77    0.06
   1   0  -2   -0.87    0.06
   1  -1  -2  160.79    5.35
  -1   1  -2  165.58    5.36
   1   1   2  155.47    5.37
   1   1   2  155.08    5.36
   1  -1   2  159.71    5.36
  -1   1   2  156.86    5.35
   1   1  -2  168.10    5.38
   1   1  -2  154.95    5.37
  -1  -1  -2  163.20    5.37
  -1  -1  -2  163.14    5.36
   1  -2  -2    2.07    0.30
  -1   2  -2    2.08    0.30
  -1   2  -2    2.12    0.32
  -1  -2   2    2.08    0.32
   1   2   2    2.58    0.33
   1   2  -2    2.03    0.32
   1   2  -2    1.81    0.32
  -1   2   2    2.35    0.34
  -1  -2  -2    2.53    0.33
  -1  -2  -2    2.43    0.31
   1  -3  -2   11.63    0.74
  -1   3  -2   11.20    0.66
   1   3   2   14.78    0.85
  -1   3  -2   14.69    0.83
  -1   3   2   13.67    0.83
  -1  -3  -2   13.35    1.03
  -1  -3  -2   12.64    0.87
   1   3  -2   13.90    0.83
   1   4   2    3.28    1.18
  -1   4  -2    3.42    0.79
  -1   4   2    2.39    0.74
   1   5   2    0.81    0.98
  -1   5  -2    2.18    1.29
   1   5  -2   -1.03    1.12
  -1   5   2    1.22    1.04
  -2   0  -2   85.13    2.85
   2   0   2   83.24    2.85
   2   0  -2   86.20    2.85
  -2   1  -2  148.61    4.73
   2   1   2  135.73    4.77
   2   1   2  129.10    4.77
   2   1  -2  145.32    4.80
  -2  -1  -2  149.23    4.77
   2  -1   2  137.37    4.72
  -2  -1  -2  145.90    4.79
   2   1  -2  138.71    4.78
   2   2   2  136.16    4.69
  -2  -2   2  140.15    4.70
   2   2   2  136.09    4.67
  -2   2  -2  137.46    4.65
   2  -2  -2  139.96    4.65
  -2   2  -2  134.70    4.65
  -2  -2  -2  137.70    4.69
  -2  -2  -2  142.39    4.68
   2   2  -2  137.68    4.69
   2   2  -2  132.21    4.68
  -2   2   2  136.35    4.65
   2   2  -2  138.96    4.67
  -2   3  -2    5.66    0.49
   2   3   2    8.86    0.72
  -2   3  -2    6.97    0.69
  -2   3   2    7.85    0.72
   2   3  -2    8.04    0.71
  -2   4  -2    5.33    0.80
   2   4   2    5.01    0.84
   2   4  -2    5.67    0.99
  -2   4   2    5.71    0.75
  -2   5  -2    1.14    1.21
   2   5   2   -0.37    1.04
  -2   5   2    1.58    1.08
   2   5  -2    0.06    1.20
   3   0   2   -0.28    0.11
   3   0  -2   -0.26    0.09
  -3   0  -2   -0.21    0.10
  -3  -1   2  127.19    4.31
   3   1   2  126.25    4.31
   3   1   2  122.90    4.30
  -3  -1  -2  124.87    4.30
   3   1  -2  125.91    4.31
   3   1  -2  132.16    4.31
  -3  -1  -2  133.20    4.30
   3   2   2   49.73    1.77
  -3  -2   2   48.68    1.80
  -3   2  -2   48.10    1.74
   3   2   2   48.73    1.80
  -3  -2  -2   47.67    1.79
   3   2  -2   49.25    1.78
   3   2  -2   48.10    1.78
  -3  -2  -2   50.11    1.77
  -3   3  -2    3.75    0.41
   3  -3  -2    3.07    0.49
   3   3   2    4.66    0.69
   3   3  -2    5.17    0.66
  -3   4  -2    3.66    0.75
   3   4   2    1.99    0.75
   3   4  -2    2.11    0.76
  -3   4   2    2.54    0.72
  -4   0  -2   42.24    1.42
   4   0   2   39.60    1.41
   4   1   2  150.76    5.10
  -4  -1   2  153.13    5.11
   4   1   2  149.62    5.11
   4   1  -2  147.87    5.11
  -4  -1  -2  152.04    5.11
  -4  -1  -2  154.94    5.10
   4   2   2    6.81    0.56
   4   2  -2    8.74    0.54
   4   2  -2    7.39    0.52
  -4  -2  -2    8.22    0.48
   4   3   2   55.55    2.09
   4   3   2   54.53    2.13
   4   3  -2   55.90    2.11
   4   3  -2   55.16    2.13
   4   4   2    3.36    0.80
   4   4  -2    3.17    0.82
   5   0   2   -0.35    0.13
  -5   0  -2   -0.18    0.14
   5   1   2   43.66    1.59
   5   1   2   44.13    1.58
  -5  -1   2   45.33    1.59
  -5  -1  -2   44.87    1.59
   5   1  -2   42.64    1.58
   5   2   2   14.04    0.74
   5   2   2   14.89    0.71
  -5  -2   2   11.92    0.70
   5   2  -2   14.02    0.70
   5   2  -2   14.72    0.72
  -5  -2  -2   12.56    0.71
  -5  -2  -2   14.21    0.66
   5   3   2    2.12    0.56
   5   3   2    2.03    0.49
   5   3  -2    2.05    0.49
   5   4   2    2.86    0.82
   5   4  -2    2.66    0.88
   5   4  -2    2.54    0.82
   6   1   2  199.61    6.70
   6   1   2  200.53    6.68
  -6  -1   2  207.31    6.70
   6   1  -2  192.28    6.68
  -6  -1  -2  204.54    6.70
   6   1  -2  188.89    6.66
   6   2   2   36.14    1.41
  -6  -2   2   32.17    1.39
   6   2   2   35.84    1.38
  -6  -2  -2   33.90    1.39
   6   2  -2   35.78    1.39
  -6  -2  -2   36.35    1.37
   6   2  -2   35.36    1.37
   6   3   2   12.58    0.91
   6   3   2   12.23    1.01
   6   3  -2   12.67    0.95
   6   3  -2   10.65    0.89
   6   4   2    6.34    1.08
   6   4   2    6.40    1.09
   6   4  -2    6.41    1.06
   6   4  -2    6.66    1.09
   7   1   2   25.30    1.02
   7   1   2   26.02    1.02
  -7  -1   2   24.94    1.01
  -7  -1  -2   26.55    1.02
   7   1  -2   25.67    1.02
   7   2   2    7.69    0.63
   7   2   2    7.13    0.59
  -7  -2  -2    5.70    0.62
   7   2  -2    8.31    0.59
   7   2  -2    8.00    0.63
  -7  -2  -2    7.06    0.60
   7   3   2   12.43    1.01
   7   3   2   11.57    1.08
   7   3  -2   12.13    1.17
   7   3  -2   12.28    1.38
   7   4   2    3.67    0.97
   7   4   2    3.45    0.84
   7   4  -2    3.61    1.12
   7   4  -2    3.80    0.84
  -8  -1   2   10.34    0.58
   8   1   2   11.27    0.60
  -8  -1  -2   10.65    0.59
   8   1  -2   11.52    0.61
   8   2   2   64.26    2.34
   8   2   2   65.30    2.36
   8   2  -2   63.72    2.32
   8   2  -2   60.79    2.36
   8   3   2    3.55    0.99
   8   3   2    3.91    0.67
   8   3  -2    4.05    0.65
   8   3  -2    3.73    1.22
   8   4   2    0.74    0.88
   8   4   2    0.31    1.05
   8   4  -2    1.44    1.03
   8   4  -2    1.65    0.87
  -9  -1   2   62.64    2.18
   9   1   2   59.80    2.19
   9   1  -2   60.87    2.20
  -9  -1  -2   60.18    2.22
   9   2   2   10.62    0.79
   9   2   2   11.15    0.81
   9   2  -2   10.81    0.78
   9   2  -2   10.82    0.75
   9   3   2    3.06    0.66
   9   3   2    4.17    0.78
   9   3  -2    2.39    0.69
   9   3  -2    3.42    0.77
   9   4   2    0.51    0.97
   9   4   2   -1.01    1.10
   9   4  -2    0.30    0.95
   9   4  -2    1.91    1.16
 -10  -1   2   56.13    2.00
  10   1   2   54.97    2.02
  10   1  -2   56.52    2.03
 -10  -1  -2   51.46    2.00
  10   2   2   19.29    1.03
  10   2   2   19.22    1.02
  10   2  -2   17.16    1.01
  10   2  -2   16.63    1.00
  10   3   2    0.41    0.68
  10   3   2    0.44    0.78
  10   3  -2    0.23    0.75
  10   3  -2    0.25    0.68
  10   4   2    0.47    1.19
  10   4   2    1.97    1.16
  10   4  -2    0.49    1.10
  10   4  -2   -0.92    1.24
  11   1   2    4.47    0.59
 -11  -1   2    3.94    0.55
  11   1  -2    2.38    0.47
  11   1  -2    3.45    0.50
 -11  -1  -2    3.23    0.56
  11   2   2    2.05    0.60
  11   2   2    1.65    0.56
  11   2  -2    1.68    0.56
  11   2  -2    2.23    0.59
  11   3   2    2.43    0.90
  11   3   2    0.84    0.75
  11   3  -2    1.75    0.83
  11   3  -2    1.54    0.77
  11   4   2    1.57    1.37
  11   4   2    1.07    1.41
  11   4  -2    1.73    1.48
  11   4  -2    1.71    1.37
 -12  -1   2   10.04    0.74
  12   1   2   12.70    0.78
  12   1  -2   10.10    0.76
  12   1  -2   12.10    0.77
 -12  -1  -2    8.67    0.85
  12   2   2    5.19    0.87
  12   2   2    3.77    0.75
  12   2  -2    4.30    0.74
  12   2  -2    4.60    0.73
  12   3   2    9.08    1.17
  12   3   2   10.17    1.22
  12   3  -2   10.60    1.24
  12   3  -2    6.75    1.17
  13   1   2   24.39    1.21
  13   1  -2   23.96    1.16
  13   2   2    8.04    0.99
  13   3   2    2.19    1.07
  13   3   2    1.45    1.00
  13   3  -2    1.50    0.97
  13   3  -2    3.13    1.07
  14   1   2    4.68    0.85
  14   1  -2    6.61    0.97
  14   2   2    3.51    0.81
  14   2   2    4.10    0.89
  14   2  -2    2.80    0.87
  14   3   2   10.30    1.58
  14   3   2    8.68    1.50
  14   3  -2    9.12    1.55
  14   3  -2   10.44    1.45
  15   1   2    5.47    1.01
  15   1  -2    4.17    0.83
  15   2   2    9.62    1.39
  15   2   2    7.47    1.08
  15   2  -2    7.56    1.32
  15   3   2    5.49    1.38
  15   3   2    2.83    1.45
  15   3  -2    3.88    1.88
  15   3  -2    5.43    1.44
  16   1   2    1.86    0.82
  16   1   2    2.57    0.87
  16   2   2    8.24    1.31
  16   2   2    7.55    1.24
  16   2  -2    7.88    1.43
  17   1   2    1.60    1.06
  17   2   2    3.49    1.29
  17   2   2    7.37    1.35
  17   2  -2    5.32    1.26
  18   1   2    3.77    1.12
   0   0  -3   -0.34    0.09
   0   0   3   -0.15    0.09
   0   0   3   -0.18    0.10
   0   0  -3   -0.35    0.08
   0  -1   3  405.10   13.37
   0  -1  -3  407.42   13.36
   0   1   3  395.00   13.36
   0  -2  -3    0.47    0.25
   0   2   3    0.69    0.24
   0   2  -3    0.27    0.25
   0   2  -3    0.41    0.22
   0   3  -3   41.60    1.59
   0   3   3   41.34    1.58
   0   3  -3   37.52    1.63
   0  -3  -3   36.82    1.56
   0   4   3   -0.76    0.69
   0   5  -3    1.48    1.12
   0   5   3   -0.65    1.02
  -1   0   3   -0.06    0.10
   1   0  -3   -0.04    0.09
   1   0   3   -0.09    0.09
  -1   0  -3   -0.06    0.09
   1   0  -3   -0.13    0.10
  -1   0  -3   -0.05    0.10
   1   0   3   -0.19    0.10
  -1   1  -3   66.30    2.22
   1   1   3   58.67    2.24
   1  -1  -3   65.36    2.20
  -1  -1  -3   64.68    2.25
  -1   1   3   63.27    2.20
   1  -1   3   64.69    2.21
   1   1  -3   65.96    2.23
  -1  -1  -3   65.22    2.24
   1  -2  -3   40.36    1.46
   1   2   3   38.68    1.47
  -1   2  -3   40.55    1.46
  -1   2  -3   39.45    1.46
   1   2  -3   39.97    1.47
  -1   2   3   39.79    1.47
   1   2  -3   38.79    1.48
  -1  -2  -3   40.98    1.46
   1   2  -3   39.94    1.48
  -1  -2  -3   39.50    1.47
  -1   3  -3    6.88    0.58
  -1   3  -3    9.79    0.69
   1   3   3    9.48    0.76
   1   3  -3    9.55    0.73
  -1   3   3    9.26    0.72
  -1   4  -3    3.35    0.83
  -1   4   3    3.04    0.75
   1   4  -3    3.00    0.85
   1   5   3    2.21    1.03
   2   0   3  246.13    8.40
  -2   0   3  245.44    8.40
  -2   0  -3  261.62    8.41
   2   0  -3  250.56    8.40
   2   0   3  259.43    8.40
   2   1   3  138.41    4.60
   2   1   3  133.42    4.58
   2  -1  -3  138.57    4.55
  -2   1  -3  133.81    4.56
  -2   1   3  134.24    4.55
  -2  -1  -3  137.46    4.59
   2   1  -3  129.06    4.58
   2   1  -3  142.60    4.60
  -2  -1  -3  138.74    4.58
   2  -1   3  133.93    4.57
   2   2   3   55.98    2.03
  -2   2  -3   56.78    2.01
   2   2   3   55.19    2.00
  -2   2  -3   57.72    2.00
   2  -2  -3   57.12    1.99
   2   2  -3   57.02    2.02
  -2  -2  -3   57.91    2.01
  -2  -2  -3   53.79    2.02
   2   2  -3   56.22    2.01
   2   2  -3   55.02    2.02
  -2   2   3   56.46    2.00
  -2   3  -3   14.64    0.81
   2   3   3   13.96    0.95
  -2   3   3   13.98    0.85
   2   3  -3   14.01    0.93
   2   3  -3   15.28    0.88
   2   4   3    2.02    0.73
  -2   4  -3    3.46    0.87
   2   4  -3    3.66    0.83
  -2   4   3    3.53    0.72
  -3   0   3   -0.34    0.12
   3   0  -3   -0.36    0.13
   3   0   3   -0.23    0.13
  -3   0  -3   -0.04    0.14
  -3   1  -3   34.17    1.23
   3   1   3   33.71    1.27
   3   1   3   35.49    1.29
   3  -1   3   35.12    1.24
  -3  -1  -3   35.12    1.27
   3   1  -3   34.19    1.28
  -3  -1  -3   35.67    1.27
   3   1  -3   35.67    1.28
   3   2   3   62.87    2.30
   3   2   3   63.43    2.26
  -3   2  -3   64.10    2.23
  -3   2  -3   64.32    2.25
   3   2  -3   63.75    2.28
   3   2  -3   63.10    2.28
  -3  -2  -3   64.74    2.29
  -3  -2  -3   64.84    2.27
   3   2  -3   64.47    2.29
   3   3   3   14.39    0.91
  -3   3  -3   14.29    0.81
   3   3  -3   12.66    0.85
  -3   3   3   13.50    0.84
   3   3  -3   14.82    0.87
  -3   4  -3    0.35    0.77
   3   4   3    1.51    0.70
   3   4  -3    0.42    0.76
  -3   4   3    1.18    0.63
   4   0   3  232.04    7.87
  -4   0   3  226.74    7.85
   4   0  -3  240.94    7.86
  -4   0  -3  244.13    7.87
   4   1   3    9.60    0.49
   4   1   3    9.62    0.50
   4   1  -3    9.43    0.51
   4   1  -3    9.66    0.48
  -4  -1  -3   10.03    0.48
  -4  -1  -3    9.74    0.47
   4   2   3   81.50    2.95
   4   2   3   84.99    2.93
  -4  -2  -3   84.36    2.96
  -4  -2  -3   84.15    2.92
   4   2  -3   82.36    2.94
   4   2  -3   83.35    2.95
   4   2  -3   85.07    2.93
  -4   3  -3    5.33    0.59
  -4   3  -3    3.69    0.42
   4   3   3    5.14    0.64
   4   3   3    3.72    0.59
   4   3  -3    4.95    0.70
   4   3  -3    3.62    0.54
  -4   4  -3    0.99    0.79
   4   4   3    1.45    0.77
   4   4  -3    0.15    0.81
   5   0   3   -0.11    0.16
  -5   0  -3   -0.03    0.17
   5   1   3  153.92    5.24
   5   1   3  154.31    5.25
   5   1  -3  150.94    5.24
  -5  -1  -3  157.91    5.25
   5   1  -3  158.57    5.25
   5   2   3    5.93    0.49
   5   2   3    4.43    0.53
  -5  -2   3    3.94    0.52
   5   2  -3    4.83    0.51
   5   2  -3    5.69    0.47
  -5  -2  -3    5.98    0.46
   5   2  -3    5.69    0.48
  -5  -2  -3    3.69    0.50
   5   3   3    3.34    0.62
   5   3   3    4.75    0.72
   5   3  -3    5.14    0.74
   5   3  -3    3.16    0.56
   5   4   3    4.87    0.84
   5   4  -3    3.75    0.82
  -6   0  -3   11.60    0.51
   6   1   3   67.40    2.41
   6   1   3   66.72    2.42
  -6  -1  -3   69.63    2.41
   6   1  -3   70.41    2.42
   6   1  -3   70.15    2.42
  -6  -2   3   70.94    2.53
   6   2   3   69.41    2.49
   6   2   3   72.07    2.52
  -6  -2  -3   70.88    2.52
   6   2  -3   72.47    2.52
  -6  -2  -3   64.85    2.49
   6   2  -3   65.30    2.50
   6   2  -3   70.48    2.50
   6   3   3    1.72    0.91
   6   3   3    1.91    0.55
   6   3  -3    3.16    0.63
   6   3  -3    1.57    0.55
   6   4   3    7.41    1.08
   6   4  -3    5.72    0.88
   6   4  -3    9.58    1.16
   7   0   3   -0.22    0.22
  -7   0  -3   -0.25    0.20
   7   1   3   20.56    0.85
   7   1   3   20.42    0.87
   7   1  -3   19.58    0.84
   7   1  -3   20.42    0.85
  -7  -1  -3   19.61    0.84
   7   2   3   30.80    1.28
   7   2   3   32.51    1.31
   7   2  -3   30.64    1.27
  -7  -2  -3   30.71    1.46
   7   2  -3   30.60    1.29
   7   3   3   10.30    1.00
   7   3  -3   12.82    1.24
   7   4   3   -0.66    0.89
   7   4   3    0.95    0.80
   7   4  -3   -0.76    0.81
   7   4  -3    2.32    1.03
   8   0   3   13.00    0.63
   8   1   3   66.92    2.36
   8   1  -3   66.34    2.34
   8   1  -3   65.26    2.33
  -8  -1  -3   64.71    2.39
   8   2   3   22.32    1.05
   8   2   3   22.74    1.04
   8   2  -3   21.40    1.02
   8   2  -3   21.59    1.04
  -8  -2  -3   20.92    1.06
   8   3   3   35.32    1.64
   8   3   3   33.94    1.66
   8   3  -3   35.98    1.63
   8   3  -3   33.41    1.55
   8   4   3    0.76    0.98
   8   4   3    1.22    0.87
   8   4  -3   -0.18    0.86
   8   4  -3   -0.81    0.99
   9   1   3    1.12    0.38
   9   1  -3    1.09    0.33
  -9  -1  -3    1.11    0.31
   9   2   3   23.46    1.10
   9   2   3   22.50    1.10
   9   2  -3   22.97    1.07
   9   2  -3   21.47    1.09
   9   3   3    0.18    0.64
   9   3   3    0.34    0.69
   9   3  -3    0.11    0.69
   9   3  -3    0.41    0.74
   9   4   3    2.94    1.10
   9   4   3    1.61    0.97
   9   4  -3    1.46    1.17
   9   4  -3    1.62    0.94
  10   1   3   60.59    2.12
  10   1  -3   56.51    2.11
 -10  -1  -3   54.14    2.12
  10   2   3   40.49    1.64
  10   2   3   37.88    1.62
  10   2  -3   39.65    1.62
  10   2  -3   37.70    1.61
  10   3   3    3.01    0.73
  10   3   3    4.10    0.85
  10   3  -3    4.32    0.84
  10   3  -3    2.05    0.74
  10   4   3   -0.55    1.16
  10   4   3    1.04    1.29
  10   4  -3   -1.09    1.11
  10   4  -3    1.15    1.34
  11   1   3   16.06    0.95
  11   1  -3   16.05    0.86
 -11  -1  -3   13.57    0.81
  11   2   3   15.00    1.42
  11   2   3   15.49    1.05
  11   2  -3   15.98    0.99
  11   2  -3   13.55    0.97
  11   3   3    6.66    1.09
  11   3   3    5.98    0.94
  11   3  -3    5.14    0.83
  11   3  -3    6.13    1.07
  11   4   3    0.92    1.51
  11   4   3    1.18    1.54
  11   4  -3    0.14    1.75
  11   4  -3    0.42    1.54
  12   1  -3    4.53    0.65
  12   1  -3    3.48    0.58
  12   2   3    4.16    0.77
  12   2   3    3.99    0.69
  12   2  -3    4.26    0.75
  12   2  -3    5.25    0.84
  12   3   3    4.43    1.07
  12   3   3    4.25    1.00
  12   3  -3    3.96    0.90
  12   3  -3    6.58    1.20
  13   1   3   29.65    1.35
  13   1   3   28.99    1.34
  13   1  -3   30.24    1.32
  13   2   3    3.98    0.86
  13   2  -3    4.81    0.80
  13   3   3    3.64    1.04
  13   3   3    3.59    1.16
  13   3  -3    2.30    0.99
  13   3  -3    4.66    1.12
  14   1   3   18.17    1.11
  14   1   3   17.76    1.14
  14   1  -3   18.47    1.20
  14   2   3   23.88    1.44
  14   2   3   21.86    1.41
  14   2  -3   23.76    1.38
  14   2  -3   21.80    1.37
  14   3   3    1.73    1.18
  14   3   3    1.38    1.28
  14   3  -3   -1.52    1.17
  14   3  -3    3.85    1.25
  15   1   3    3.42    0.81
  15   1  -3    3.00    1.12
  15   2   3    8.20    1.31
  15   2   3    7.46    1.22
  15   2  -3    6.31    1.15
  15   2  -3   11.19    1.75
  16   1   3    6.98    1.33
  16   1   3    4.59    1.12
  16   2   3    0.02    1.02
  16   2   3    0.78    1.11
  16   2  -3    1.40    1.19
  17   1   3    0.17    1.02
  17   2   3   -2.45    1.24
  17   2   3    1.76    1.29
  17   2  -3    0.15    1.26
  18   1   3   11.93    1.50
  18   1   3   10.89    1.90
   0   0  -4  755.89   24.52
   0   0  -4  724.48   24.52
   0  -1  -4    0.17    0.16
   0  -1   4    0.46    0.23
   0   1  -4    0.51    0.19
   0   1  -4    0.30    0.17
   0   2  -4  216.79    7.21
   0  -2  -4  216.83    7.20
   0   2  -4  211.86    7.21
   0   2   4  209.90    7.19
   0   3   4   -0.12    0.45
   0  -3  -4    0.18    0.52
   0   3  -4    0.71    0.68
   0   4  -4    4.79    0.97
   0   4   4    2.85    0.72
  -1   0   4   -0.26    0.14
   1   0  -4    0.01    0.14
  -1   0  -4    0.02    0.15
  -1   0  -4    0.06    0.14
  -1   0   4    0.05    0.14
   1   0   4    0.07    0.15
   1   0  -4    0.08    0.14
   1   0   4   -0.10    0.15
   1   1   4   43.32    1.57
  -1  -1   4   44.46    1.58
   1   1   4   42.69    1.57
  -1   1  -4   44.88    1.56
  -1  -1  -4   45.26    1.56
  -1   1   4   43.15    1.55
   1   1  -4   46.62    1.58
   1  -1   4   40.26    1.59
  -1  -1  -4   45.51    1.57
   1  -2  -4   43.62    1.56
  -1   2  -4   42.70    1.57
  -1   2  -4   43.71    1.57
   1   2   4   42.39    1.58
   1   2  -4   42.64    1.59
  -1  -2  -4   43.07    1.57
   1   2  -4   41.88    1.58
  -1   2   4   42.00    1.56
  -1  -2  -4   42.08    1.57
   1   2  -4   43.11    1.57
  -1   3  -4    7.65    0.68
   1   3   4    6.55    1.02
   1  -3  -4    4.80    0.89
   1   3  -4    6.03    0.77
  -1   3   4    5.34    0.62
  -1   4  -4   -0.15    0.97
   1   4   4    1.18    0.81
   1   4  -4    1.38    0.80
  -1   4   4    0.82    0.83
   2   0  -4  565.02   18.38
   2   0   4  541.85   18.41
  -2   0  -4  570.50   18.39
  -2   0   4  517.44   18.37
  -2   0  -4  595.81   18.39
   2   0   4  536.82   18.38
   2  -1  -4  204.94    6.81
  -2  -1   4  201.13    6.84
   2   1   4  197.63    6.84
   2   1   4  198.69    6.83
  -2   1  -4  203.67    6.83
   2   1  -4  211.51    6.85
  -2  -1  -4  207.85    6.84
  -2   1   4  200.11    6.81
  -2  -1  -4  211.00    6.84
  -2   2  -4    8.30    0.50
  -2   2  -4    8.42    0.45
   2   2   4    8.57    0.51
   2  -2  -4    8.09    0.47
   2   2   4    8.15    0.54
  -2  -2  -4    8.51    0.50
   2   2  -4    7.29    0.52
   2   2  -4    7.98    0.52
  -2  -2  -4    7.47    0.50
  -2   2   4    7.75    0.49
   2   2  -4    7.95    0.49
   2  -3  -4    8.30    0.67
  -2   3  -4   10.93    0.73
  -2   3  -4    8.78    0.60
   2   3   4   10.34    0.83
  -2   3   4    9.61    0.70
   2   3  -4   11.65    0.78
   2   4   4    2.93    0.74
  -2   4  -4    2.65    0.90
  -2   4   4    1.88    0.63
   2   4  -4    2.43    0.81
   3   0   4    0.01    0.17
  -3   0   4    0.03    0.15
   3   0  -4   -0.12    0.16
   3   1   4   73.82    2.61
   3   1   4   73.26    2.61
  -3   1  -4   78.65    2.60
  -3  -1   4   76.56    2.62
   3   1  -4   72.59    2.61
   3  -1   4   68.62    2.69
   3   1  -4   79.60    2.63
  -3  -1  -4   78.54    2.61
  -3  -1  -4   77.97    2.62
  -3   2  -4   17.39    0.76
   3   2   4   15.69    0.82
  -3   2  -4   18.65    0.74
   3   2   4   17.22    0.78
   3   2  -4   17.95    0.79
   3   2  -4   17.54    0.80
  -3  -2  -4   17.03    0.79
   3   2  -4   17.39    0.80
  -3  -2  -4   17.89    0.78
   3  -3  -4    3.06    0.53
  -3   3  -4    2.95    0.44
  -3   3  -4    4.82    0.61
   3   3  -4    3.61    0.65
   3   3  -4    3.76    0.55
  -3   4  -4    3.44    0.88
   3   4   4    3.93    0.81
   3   4  -4    4.21    0.87
  -3   4   4    3.41    0.66
   4   0  -4  108.36    3.63
  -4   0   4  102.35    3.62
  -4   0  -4  110.49    3.64
   4   1   4  123.37    4.12
  -4   1  -4  109.48    4.11
   4   1   4  122.50    4.11
   4  -1   4  120.64    4.12
  -4  -1  -4  120.94    4.11
   4   1  -4  120.03    4.11
   4   1  -4  124.46    4.12
  -4  -1  -4  125.27    4.11
  -4   2  -4   14.60    0.70
   4   2   4   15.40    0.73
  -4   2  -4   15.70    0.66
   4   2   4   15.35    0.78
   4   2  -4   14.65    0.73
  -4  -2  -4   14.42    0.74
   4   2  -4   16.06    0.74
  -4  -2  -4   14.85    0.72
   4   2  -4   14.87    0.75
  -4   3  -4    8.41    0.54
   4   3   4    6.73    0.78
   4   3   4    7.34    0.73
   4   3  -4    7.11    0.77
   4   3  -4    9.12    0.78
  -4   4  -4    0.31    0.84
   4   4   4    2.65    0.78
   4   4  -4    1.00    0.82
   4   4  -4   -1.12    1.11
   5   0   4    0.18    0.20
   5   0  -4   -0.34    0.19
  -5   0  -4    0.00    0.16
   5   1   4   15.14    0.67
   5   1   4   14.71    0.67
  -5  -1  -4   14.17    0.65
  -5  -1  -4   14.58    0.66
   5   1  -4   14.79    0.68
   5   1  -4   14.80    0.70
   5   2   4    5.02    0.56
   5   2   4    6.45    0.51
   5   2  -4    5.79    0.54
  -5  -2  -4    5.85    0.66
   5   2  -4    5.91    0.53
   5   2  -4    6.10    0.52
  -5  -2  -4    5.38    0.50
   5   3   4    1.83    0.61
   5   3   4    3.01    0.56
   5   3  -4    2.11    0.57
   5   3  -4    2.90    0.61
   5   4   4    8.39    1.10
   5   4  -4    7.71    1.11
  -6   0  -4  150.18    4.89
   6   0  -4  133.81    4.90
   6   0   4  150.98    4.90
   6   1   4    9.94    0.53
   6   1   4    9.96    0.53
  -6  -1  -4    9.11    0.50
   6   1  -4    8.91    0.52
  -6  -1  -4    9.38    0.52
   6   1  -4    8.79    0.52
   6   2   4    5.10    0.77
   6   2   4    5.61    0.55
  -6  -2  -4    4.99    0.56
   6   2  -4    5.96    0.55
   6   2  -4    5.75    0.59
   6   2  -4    5.99    0.53
  -6  -2  -4    6.07    0.53
   6   3   4   32.29    1.69
   6   3   4   29.69    1.39
   6   3  -4   29.27    1.40
   6   3  -4   30.38    1.41
   6   4   4    3.76    0.87
   6   4  -4    4.20    0.95
   6   4  -4    1.85    0.83
   7   0   4   -0.11    0.24
  -7   0  -4   -0.04    0.21
   7   1   4   18.57    0.80
   7   1   4   18.07    0.82
   7   1  -4   18.15    0.79
   7   1  -4   17.51    0.80
  -7  -1  -4   18.42    0.84
   7   2   4   20.28    0.96
   7   2   4   18.80    0.92
   7   2  -4   19.29    0.91
   7   2  -4   18.25    0.92
  -7  -2  -4   17.25    0.89
   7   3   4   17.56    1.14
   7   3  -4   20.75    1.18
   7   4   4    0.31    0.90
   7   4   4    1.33    0.84
   7   4  -4    0.50    0.83
   7   4  -4    3.15    1.00
  -8   0  -4   37.99    1.37
   8   0   4   36.96    1.39
   8   1   4   23.37    0.99
   8   1   4   23.32    1.00
   8   1  -4   23.28    0.98
   8   1  -4   23.74    0.99
  -8  -1  -4   23.19    0.97
   8   2   4   53.86    2.05
   8   2   4   54.96    2.07
   8   2  -4   53.34    2.03
   8   2  -4   53.28    2.02
   8   3   4    1.09    0.70
   8   3   4    0.62    0.60
   8   3  -4    1.09    0.60
   8   3  -4    1.36    0.69
   8   4   4    1.96    1.02
   8   4   4   -0.87    0.91
   8   4  -4   -1.00    0.91
   8   4  -4    0.31    1.09
   9   0   4    0.35    0.30
  -9   0  -4    0.63    0.27
   9   1   4   13.36    0.73
  -9  -1  -4   13.43    0.69
   9   1  -4   13.19    0.71
   9   1  -4   12.84    0.70
   9   2   4   34.33    1.42
   9   2   4   31.20    1.40
   9   2  -4   31.05    1.37
   9   2  -4   32.18    1.37
   9   3   4    2.59    0.77
   9   3   4    1.96    0.71
   9   3  -4    1.49    0.75
   9   3  -4    1.38    0.83
   9   4   4   -0.29    1.00
   9   4   4    2.60    1.12
   9   4  -4   -0.26    1.00
   9   4  -4    0.17    1.17
 -10   0  -4  166.87    5.64
  10   1   4   69.78    2.54
  10   1  -4   74.94    2.58
 -10  -1  -4   66.12    2.52
  10   2   4    8.94    0.84
  10   2   4    8.51    0.84
  10   2  -4    8.06    0.78
  10   2  -4    8.14    0.78
  10   3   4    3.63    0.87
  10   3   4    1.64    0.75
  10   3  -4    2.16    0.75
  10   3  -4    3.28    0.83
  10   4   4   -0.18    1.20
  10   4   4    3.39    1.36
  10   4  -4    0.50    1.21
  10   4  -4    0.56    1.35
  11   1   4   34.46    1.51
  11   1   4   36.65    1.45
  11   1  -4   34.93    1.43
  11   2   4    0.82    0.62
  11   2  -4    0.79    0.60
  11   3   4    3.17    0.94
  11   3   4    1.16    0.78
  11   3  -4    0.40    0.88
  11   3  -4    1.82    0.77
  12   1   4   55.52    2.11
  12   1   4   55.38    2.10
  12   1  -4   55.07    2.09
  12   2   4    4.31    0.71
  12   2  -4    6.09    0.88
  12   2  -4    4.20    0.69
  12   3   4    2.40    1.01
  12   3   4    3.23    1.05
  12   3  -4    3.34    1.01
  12   3  -4    2.59    0.90
  13   1   4   12.04    0.93
  13   1   4    8.85    0.92
  13   1  -4   11.92    0.84
  13   2   4    1.17    0.80
  13   2   4    2.91    1.00
  13   2  -4    1.76    0.85
  13   2  -4    1.99    0.69
  13   3   4    5.86    1.22
  13   3   4    4.61    1.08
  13   3  -4    5.46    1.13
  13   3  -4    3.41    1.02
  14   1   4   18.68    1.31
  14   1   4   18.56    1.13
  14   1  -4   17.69    1.06
  14   2   4    5.55    0.90
  14   2   4    9.06    1.32
  14   2  -4    6.26    0.90
  14   2  -4    8.47    1.06
  14   3   4    4.18    1.33
  14   3   4    5.22    1.27
  14   3  -4    7.53    1.29
  14   3  -4    5.32    1.28
  15   1   4   17.72    1.30
  15   1   4   20.82    1.31
  15   1  -4   19.66    1.39
  15   2   4    1.01    0.92
  15   2   4    0.33    1.05
  15   2  -4    1.29    1.02
  15   2  -4    1.52    1.02
  16   1   4    1.71    1.00
  16   1   4    2.53    0.88
  16   1  -4    4.62    1.25
  16   2   4    9.70    1.45
  16   2   4   10.04    1.44
  16   2  -4    9.28    1.37
  16   2  -4    6.15    1.16
  17   1   4    0.10    1.37
  17   1   4    0.83    0.94
  18   1   4    6.15    1.44
   0   0  -5   -0.36    0.16
   0   0   5   -0.12    0.19
   0   1   5  266.06    8.89
   0  -1   5  249.09    8.89
   0  -1  -5  274.90    8.89
   0   1  -5  268.03    8.90
   0   1  -5  261.65    8.88
   0  -1  -5  275.99    8.89
   0  -2  -5    0.34    0.28
   0   2   5    0.12    0.26
   0  -2  -5    0.95    0.27
   0   2  -5    0.64    0.28
   0   2  -5    0.56    0.26
   0   3  -5   19.82    1.02
   0   3   5   18.75    0.98
   0   4  -5    0.28    0.78
   1   0  -5   -0.11    0.17
   1   0   5   -0.24    0.21
   1   0   5   -0.22    0.20
  -1   0  -5   -0.04    0.16
  -1   0   5   -0.21    0.18
   1  -1  -5   38.32    1.35
  -1  -1   5   36.84    1.37
   1   1   5   37.06    1.37
  -1   1  -5   36.97    1.35
   1   1   5   37.03    1.36
   1  -1  -5   37.20    1.34
   1   1  -5   37.83    1.37
  -1  -1  -5   37.93    1.36
  -1   1   5   36.57    1.35
   1  -1   5   36.98    1.36
  -1  -1  -5   37.43    1.36
  -1   2  -5    1.32    0.26
  -1   2  -5    1.04    0.29
   1  -2  -5    1.00    0.28
   1   2   5    1.49    0.31
  -1  -2  -5    1.03    0.28
   1   2  -5    1.34    0.32
   1  -2   5    2.17    0.37
  -1   2   5    0.99    0.31
  -1  -2  -5    1.47    0.29
   1   3   5    4.80    0.66
   1  -3  -5    4.30    0.63
  -1   3  -5    4.49    0.66
  -1   3   5    4.16    0.60
   1   3  -5    4.75    0.66
   1   4   5    4.06    0.76
  -1   4  -5    4.10    0.95
  -1   4   5    3.34    0.68
   1   4  -5    3.44    0.83
   2   0  -5  261.00    8.63
   2   0   5  253.61    8.63
  -2   0  -5  260.93    8.63
  -2   0  -5  268.22    8.66
   2   0   5  248.41    8.63
   2  -1  -5  182.18    6.10
   2   1   5  173.04    6.11
   2   1   5  181.42    6.12
  -2   1  -5  184.95    6.12
  -2  -1   5  179.00    6.12
   2  -1   5  176.31    6.11
  -2  -1  -5  186.71    6.12
   2   1  -5  187.50    6.14
  -2  -1  -5  184.98    6.12
  -2   2  -5   39.18    1.43
   2  -2  -5   38.92    1.42
  -2   2  -5   38.41    1.44
   2   2   5   36.64    1.45
   2   2   5   37.47    1.45
   2   2  -5   38.31    1.44
  -2   2   5   38.43    1.43
  -2  -2  -5   38.16    1.44
  -2  -2  -5   37.65    1.45
   2  -2   5   39.08    1.45
   2   2  -5   37.94    1.47
   2   2  -5   39.41    1.47
   2  -3  -5    0.59    0.42
   2   3   5    0.58    0.44
  -2   3  -5    1.21    0.47
   2   3  -5    1.18    0.48
  -2   3   5    1.03    0.41
   2   3  -5    1.03    0.47
   2   4   5    0.34    0.74
  -2   4  -5   -0.10    1.06
  -2   4   5    1.02    0.66
   2   4  -5    0.28    0.80
   3   0   5    0.32    0.19
   3   0  -5   -0.04    0.18
   3   0   5   -0.07    0.21
  -3   0  -5    0.04    0.18
  -3  -1   5   21.12    0.85
   3   1   5   20.10    0.84
   3  -1  -5   19.04    0.80
   3   1   5   21.34    0.84
  -3   1  -5   21.59    0.82
   3  -1   5   21.56    0.83
  -3   1   5   17.81    0.84
   3   1  -5   21.22    1.04
  -3  -1  -5   21.60    0.83
   3   2   5    4.22    0.46
   3  -2  -5    4.41    0.38
   3   2   5    3.92    0.47
   3  -2   5    4.60    0.42
   3   2  -5    4.22    0.46
   3   2  -5    3.75    0.43
  -3   2   5    4.86    0.46
  -3  -2  -5    3.88    0.44
   3   2  -5    3.85    0.49
  -3  -2  -5    3.83    0.44
   3  -3  -5    6.49    0.60
  -3   3  -5    6.80    0.59
   3   3   5    5.71    0.73
  -3   3  -5    8.03    0.71
  -3   3   5    7.50    0.67
   3   3  -5    7.45    0.73
   3   3  -5    7.46    0.74
  -3   4  -5    3.94    0.96
   3   4   5    3.89    1.12
   3   4  -5    3.80    0.86
  -3   4   5    4.54    0.71
  -4   0   5  969.93   32.36
   4   0   5  988.61   32.34
   4   0  -5 1000.00   32.33
   4   0   5  946.31   32.33
  -4   0  -5  977.27   32.33
  -4   1  -5   15.70    0.65
   4   1   5   15.57    0.70
   4   1   5   15.58    0.70
  -4  -1   5   15.93    0.69
   4   1  -5   15.78    0.70
   4   1  -5   14.84    0.68
  -4  -1  -5   16.07    0.69
  -4  -1  -5   14.58    0.66
   4  -1   5   15.88    0.68
  -4   2  -5   12.26    0.59
   4   2   5   13.33    0.71
   4   2   5   12.56    0.70
   4   2  -5   13.17    0.71
   4   2  -5   13.89    0.68
   4   2  -5   10.67    0.73
  -4  -2  -5   12.59    0.67
   4  -2   5   13.70    0.65
  -4  -2  -5   11.98    0.68
   4   3   5    0.52    0.50
  -4   3  -5   -0.02    0.37
  -4   3  -5    1.14    0.45
   4   3   5    0.64    0.52
   4   3  -5   -0.81    0.50
   4   3  -5    0.09    0.52
  -4   4  -5    3.19    0.92
   4   4   5    1.88    0.76
   4   4  -5    3.12    0.86
   5   0   5    0.09    0.23
  -5   0  -5    0.09    0.19
  -5   0   5    0.14    0.22
   5   0  -5   -0.18    0.21
   5   1   5   33.91    1.46
  -5   1  -5   35.25    1.29
   5   1   5   36.22    1.34
   5  -1   5   36.10    1.32
  -5  -1  -5   35.85    1.33
   5   1  -5   34.15    1.32
  -5  -1  -5   36.24    1.33
   5   1  -5   35.86    1.33
   5   2   5   -0.19    0.34
   5   2   5   -0.27    0.32
  -5   2  -5    0.16    0.25
  -5  -2  -5    0.05    0.35
   5   2  -5    0.03    0.31
  -5  -2  -5   -0.14    0.32
   5   2  -5   -0.13    0.36
   5  -2   5    0.08    0.30
   5   2  -5   -0.01    0.31
   5   3   5   22.40    1.13
  -5   3  -5   18.12    0.90
   5   3   5   21.20    1.17
   5   3  -5   21.05    1.12
   5   4   5    1.41    0.83
  -5   4  -5    1.68    0.91
   5   4  -5    0.72    0.82
   5   4  -5    2.47    0.88
  -6   0  -5   35.43    1.27
   6   0  -5   33.88    1.27
   6   0   5   34.21    1.28
   6   1   5   94.93    3.32
   6   1   5   96.69    3.32
  -6  -1  -5   93.13    3.31
   6   1  -5   96.08    3.34
  -6  -1  -5   99.90    3.31
   6   1  -5   93.84    3.32
   6   2   5   13.55    0.79
   6   2   5   13.83    0.76
   6   2  -5   13.75    0.75
  -6  -2  -5   13.85    0.77
   6   2  -5   12.81    0.77
   6   3   5    3.14    0.77
   6   3  -5    3.93    1.02
   6   4   5    4.03    0.93
   6   4   5    6.42    1.10
   6   4  -5    3.38    0.88
   6   4  -5    2.88    1.01
   7   0   5    0.13    0.25
   7   0  -5   -0.04    0.26
   7   0  -5    0.01    0.24
  -7   0   5   -0.03    0.25
  -7   0  -5    0.07    0.22
   7   1   5    4.09    0.43
   7   1   5    4.00    0.43
   7   1  -5    3.61    0.42
   7   1  -5    3.28    0.45
  -7  -1  -5    4.35    0.37
   7   2   5   22.41    1.08
   7   2   5   23.31    1.32
   7   2  -5   22.17    1.05
   7   2  -5   22.60    1.04
   7   3   5    2.63    0.59
   7   3   5    2.34    0.69
   7   3  -5    2.97    0.72
   7   3  -5    2.02    0.67
   7   4   5    3.96    0.99
   7   4   5    3.73    0.93
   7   4  -5    5.21    1.07
   7   4  -5    2.71    0.91
  -8   0  -5   55.72    1.97
   8   0   5   54.97    1.99
   8   1   5   32.48    1.26
   8   1   5   32.59    1.25
   8   1  -5   28.50    1.22
   8   1  -5   31.59    1.24
  -8  -1  -5   30.58    1.23
   8   2   5    3.12    0.58
   8   2   5    4.39    0.65
   8   2  -5    4.41    0.61
   8   3   5   13.71    1.06
   8   3   5   15.09    1.14
   8   3  -5   14.44    1.03
   8   3  -5   16.55    1.06
   8   4   5   -0.05    1.01
   8   4   5   -0.17    1.03
   8   4  -5    1.79    1.11
   8   4  -5   -0.31    0.95
  -9   0  -5   -0.02    0.29
   9   0   5   -0.08    0.31
   9   1   5   46.04    1.71
   9   1   5   47.50    1.73
   9   1  -5   42.33    1.69
  -9  -1  -5   42.97    1.69
   9   1  -5   45.67    1.71
   9   2   5    1.40    0.49
   9   2   5    1.17    0.50
   9   2  -5   -0.09    0.48
   9   2  -5    0.68    0.48
   9   3   5    2.51    0.81
   9   3   5    2.24    0.72
   9   3  -5    3.86    0.82
   9   3  -5    3.07    0.69
   9   4   5    3.31    1.13
   9   4   5    4.63    1.22
   9   4  -5    3.55    1.26
   9   4  -5    3.09    1.15
  10   0   5    1.34    0.40
 -10   0  -5    2.39    0.37
  10   1   5   67.82    2.46
  10   1   5   67.23    2.62
  10   1  -5   70.42    2.46
 -10  -1  -5   64.52    2.58
  10   2   5    9.98    1.28
  10   2   5   10.45    0.89
  10   2  -5   10.03    0.83
  10   2  -5    9.24    0.82
  10   3   5    0.49    0.81
  10   3   5   -0.90    0.72
  10   3  -5    0.46    0.73
  10   3  -5    0.01    0.80
  10   4   5   -1.68    1.35
  10   4   5    1.33    1.33
  10   4  -5   -0.68    1.46
  10   4  -5    1.57    1.37
 -11   0  -5   -0.14    0.37
  11   1   5    4.23    0.63
  11   1  -5    3.22    0.54
  11   1  -5    3.17    0.50
  11   2   5    3.62    0.63
  11   2   5    2.87    0.76
  11   2  -5    3.48    0.64
  11   2  -5    3.06    0.68
  11   3   5   12.03    1.27
  11   3  -5   10.04    1.17
  11   3  -5   11.75    1.23
 -12   0  -5   87.20    3.05
  12   1   5    2.80    0.51
  12   1   5    2.27    0.53
  12   1  -5    2.90    0.73
  12   2   5    4.15    0.68
  12   2   5    6.68    1.16
  12   2  -5    3.45    0.69
  12   3   5    1.27    0.94
  12   3   5    0.68    1.05
  12   3  -5    1.33    0.95
  12   3  -5    1.83    1.00
  13   1   5    1.32    0.68
  13   1   5    2.15    0.64
  13   1  -5    2.84    0.62
  13   2   5    5.25    0.81
  13   2   5    9.13    1.05
  13   2  -5    7.82    1.00
  13   3   5    0.94    1.07
  13   3   5    0.58    1.20
  13   3  -5   -0.45    1.12
  13   3  -5    0.19    1.00
  14   1   5    7.35    1.29
  14   1   5    5.52    0.92
  14   1  -5    6.99    1.17
  14   2   5   16.56    1.35
  14   2   5   16.45    1.33
  14   2  -5   15.16    1.28
  14   3   5    0.17    1.35
  14   3   5   -0.27    1.27
  14   3  -5    1.10    1.21
  14   3  -5   -1.33    1.24
  15   1   5    1.72    0.79
  15   1   5    2.97    0.92
  15   1  -5    2.03    0.76
  15   2   5    3.63    0.98
  15   2   5    4.66    1.14
  15   2  -5    5.25    1.00
  16   1   5   11.13    1.59
  16   1   5    7.44    1.23
  16   1  -5   10.28    1.22
  16   2   5   -0.23    1.10
  16   2   5   -1.04    1.17
  16   2  -5    1.60    1.08
  17   1   5    1.52    0.99
  17   1   5    1.07    1.20
   0   0   6  253.26    8.56
   0   0  -6  262.93    8.57
   0   0   6  249.26    8.56
   0   0  -6  258.94    8.57
   0   1  -6    0.26    0.20
   0  -1  -6   -0.02    0.17
   0   1  -6   -0.21    0.19
   0   1   6    0.13    0.20
   0  -1  -6    0.16    0.21
   0   1   6   -0.05    0.21
   0  -1   6    0.09    0.24
   0  -2   6    5.38    0.47
   0  -2  -6    4.94    0.42
   0   2  -6    5.96    0.82
   0  -2  -6    4.99    0.47
   0   2  -6    5.18    0.44
   0   2   6    4.73    0.48
   0   2  -6    5.28    0.48
   0   3  -6    0.56    0.51
   0   3   6   -0.27    0.44
   0   4  -6    5.80    0.92
   0   4   6    4.72    0.74
  -1   0  -6   -0.27    0.17
   1   0  -6   -0.21    0.17
   1   0   6   -0.13    0.19
   1   0   6   -0.21    0.21
  -1   0  -6   -0.14    0.17
  -1   0   6   -0.14    0.19
  -1   0   6   -0.13    0.34
   1   0  -6    0.01    0.18
   1   1   6   50.34    1.78
  -1   1  -6   50.35    1.79
  -1  -1   6   48.92    1.79
   1  -1  -6   49.33    1.76
   1   1   6   50.43    1.79
  -1  -1  -6   51.31    1.91
   1  -1   6   50.30    1.79
   1   1  -6   48.99    1.78
  -1  -1  -6   48.85    1.78
   1   1  -6   48.80    1.79
  -1   1   6   49.13    1.77
   1  -2  -6   33.05    1.46
  -1   2  -6   32.99    1.29
   1   2   6   34.01    1.30
   1   2   6   33.77    1.31
   1  -2   6   33.70    1.30
  -1  -2  -6   34.08    1.30
  -1   2   6   33.96    1.30
  -1  -2  -6   31.78    1.30
   1   2  -6   34.07    1.32
   1   2  -6   32.09    1.31
   1   3   6    5.38    0.69
  -1   3  -6    6.25    0.74
   1   3  -6    6.00    0.68
  -1   3   6    5.28    0.75
   1   4   6    1.22    0.68
  -1   4  -6    0.75    0.79
   1   4  -6    2.15    0.83
   2   0   6   67.22    2.42
   2   0  -6   70.64    2.41
  -2   0  -6   72.46    2.41
  -2   0   6   66.85    2.41
  -2   0  -6   70.05    2.41
   2   0   6   68.47    2.42
   2   0  -6   69.50    2.41
   2  -1  -6   45.34    1.60
  -2  -1   6   44.87    1.64
  -2   1  -6   45.38    1.62
   2   1   6   43.98    1.63
   2   1   6   43.76    1.63
  -2  -1  -6   45.39    1.66
  -2   1   6   44.46    1.61
   2  -1   6   43.55    1.62
  -2  -1  -6   45.89    1.63
   2   1  -6   46.17    1.66
   2   2   6   60.18    2.17
  -2   2  -6   55.99    2.23
   2   2   6   60.91    2.17
   2  -2  -6   58.66    2.13
  -2  -2  -6   59.02    2.16
  -2  -2  -6   57.74    2.17
   2   2  -6   59.24    2.18
  -2   2   6   61.86    2.15
   2   2  -6   64.60    2.46
   2  -2   6   60.99    2.16
   2  -3  -6    1.80    0.52
  -2   3  -6    2.23    0.53
  -2   3   6    3.70    0.63
   2   3  -6    2.80    0.55
   2   3  -6    2.16    0.53
   2   4   6    2.20    1.01
  -2   4  -6    3.60    1.09
  -2   4   6    3.81    0.83
   2   4  -6    3.06    0.84
  -3   0  -6    0.12    0.21
   3   0   6   -0.40    0.21
   3   0  -6    0.30    0.20
  -3   0   6    0.02    0.21
   3   0  -6   -0.02    0.20
   3   0   6    0.20    0.21
   3  -1  -6   22.97    0.90
   3   1   6   23.23    0.95
   3   1   6   22.94    0.95
  -3   1  -6   24.05    0.93
  -3  -1   6   23.48    0.95
  -3  -1  -6   22.87    0.93
   3   1  -6   23.96    0.95
   3  -1   6   23.33    0.94
  -3  -1  -6   24.39    0.94
  -3   1   6   23.99    0.93
   3   2   6    7.94    0.56
  -3   2  -6    7.17    0.47
   3  -2  -6    6.73    0.48
   3   2   6    7.82    0.55
   3   2  -6    7.40    0.59
  -3  -2  -6    7.00    0.55
  -3  -2  -6    6.28    0.54
  -3   2   6    8.63    0.56
   3  -2   6    8.02    0.53
   3   2  -6    7.44    0.59
   3   3   6   20.12    1.08
   3  -3  -6   17.31    0.98
  -3   3  -6   21.82    1.07
   3   3  -6   21.16    1.09
   3   3  -6   21.10    1.14
  -3   3   6   21.99    1.01
   3   4   6    5.78    0.96
  -3   4   6    6.51    0.97
   3   4  -6    4.73    0.89
  -4   0  -6   86.60    2.92
  -4   0   6   78.68    2.90
   4   0   6   84.17    2.92
   4   0  -6   86.39    2.91
   4   0   6   86.03    2.92
   4   1   6  194.81    6.59
  -4   1  -6  197.91    6.56
  -4  -1   6  189.87    6.58
   4   1   6  198.02    6.59
   4  -1   6  191.24    6.56
   4   1  -6  201.85    6.60
  -4  -1  -6  179.75    6.68
  -4  -1  -6  205.04    6.58
   4   2   6    3.15    0.47
   4   2   6    3.95    0.51
  -4   2  -6    3.72    0.39
   4  -2   6    3.96    0.46
  -4  -2  -6    3.60    0.54
  -4  -2  -6    3.98    0.51
   4   2  -6    4.28    0.53
   4   2  -6    3.90    0.70
  -4   3  -6   14.69    0.89
   4   3   6   16.77    1.03
  -4   3  -6   18.10    0.95
   4   3   6   16.06    1.02
   4   3  -6   15.82    1.03
   4   3  -6   17.11    1.02
  -4   4  -6    2.40    0.96
   4   4   6    0.53    0.76
   4   4  -6    1.51    0.84
   5   0   6    0.17    0.24
   5   0  -6   -0.07    0.23
  -5   0   6   -0.04    0.23
  -5   0  -6    0.05    0.20
   5   1   6    3.90    0.40
  -5   1  -6    3.21    0.34
  -5  -1   6    3.78    0.37
   5  -1   6    4.05    0.42
  -5  -1  -6    3.30    0.33
   5   1  -6    3.04    0.39
   5   1  -6    3.43    0.39
  -5  -1  -6    3.40    0.40
   5   2   6   21.45    0.99
  -5   2  -6   19.72    0.85
   5   2   6   19.41    0.95
   5  -2   6   20.18    0.90
   5   2  -6   19.08    0.95
  -5  -2  -6   19.53    0.94
   5   3   6    3.05    0.63
   5   3   6    1.94    0.59
  -5   3  -6    2.05    0.43
   5   3  -6    2.79    0.78
   5   4   6    3.71    0.87
   5   4  -6    4.42    1.09
   5   4  -6    3.32    0.86
   6   0  -6  158.61    5.33
   6   0   6  158.79    5.35
  -6   0   6  152.62    5.32
  -6   0  -6  160.83    5.34
   6   1   6  128.47    4.42
  -6   1  -6  132.50    4.38
   6   1   6  127.59    4.43
   6  -1   6  131.79    4.40
   6   1  -6  128.01    4.43
   6   1  -6  124.18    4.40
  -6  -1  -6  129.25    4.42
   6   2   6   22.08    1.04
  -6   2  -6   22.36    0.91
   6   2   6   21.09    1.02
   6   2  -6   21.47    1.04
   6   3   6   -0.20    0.59
   6   3   6    0.94    0.69
   6   3  -6    0.53    0.55
   6   3  -6    0.31    0.63
   6   4   6    0.94    0.92
   6   4  -6    0.20    0.85
   6   4  -6    1.65    0.96
   7   0   6    0.37    0.30
  -7   0  -6    0.16    0.24
   7   0  -6   -0.11    0.28
  -7   0   6    0.16    0.25
   7   1   6   33.46    1.28
   7   1   6   31.12    1.28
  -7   1  -6   33.48    1.22
  -7  -1  -6   30.40    1.25
   7  -1   6   33.35    1.26
   7   1  -6   31.16    1.27
   7   1  -6   31.78    1.27
   7   2   6    8.44    0.73
   7   2   6    9.85    0.76
   7   2  -6    8.81    0.69
   7   3   6   13.84    1.06
   7   3   6   12.71    1.00
   7   3  -6   11.82    1.01
   7   3  -6   12.28    0.98
   7   4   6   -0.48    0.98
   7   4   6    0.05    0.93
   7   4  -6    1.03    0.96
   7   4  -6    1.21    1.07
  -8   0  -6  135.32    4.38
   8   0   6  129.64    4.39
   8   0  -6  118.52    4.39
   8   1   6    1.84    0.38
   8   1   6    1.49    0.39
  -8  -1  -6    2.90    0.43
   8   1  -6    1.82    0.58
   8   1  -6    1.90    0.41
   8   2   6   32.56    1.40
   8   2   6   30.27    1.37
   8   2  -6   30.57    1.34
   8   2  -6   31.60    1.36
   8   3   6    5.79    1.08
   8   3   6    4.65    0.75
   8   3  -6    4.77    0.85
   8   3  -6    6.18    0.92
   8   4   6    1.57    1.10
   8   4   6    1.50    1.06
   8   4  -6    0.65    1.14
   8   4  -6    1.81    1.03
  -9   0  -6   -0.11    0.31
   9   0   6    0.32    0.37
   9   1   6   11.45    0.72
   9   1   6   10.52    0.73
   9   1  -6   10.40    0.72
   9   1  -6   10.68    0.70
   9   2   6   35.79    1.53
   9   2   6   33.79    1.53
   9   2  -6   35.52    1.52
   9   2  -6   35.67    1.50
   9   3   6    1.44    0.79
   9   3   6    0.76    0.71
   9   3  -6    1.32    0.69
   9   3  -6    1.61    0.79
   9   4   6    3.09    1.27
   9   4   6   -0.06    1.20
   9   4  -6    0.22    1.22
   9   4  -6    1.47    1.39
  10   0   6   17.68    1.14
 -10   0  -6   17.73    0.81
  10   1   6   14.10    0.85
  10   1   6   14.81    0.87
  10   1  -6   12.71    0.83
  10   1  -6   14.45    0.83
  10   2   6    8.10    0.85
  10   2   6    8.53    0.87
  10   2  -6    7.11    0.84
  10   3   6    3.20    0.90
  10   3   6    1.43    0.79
  10   3  -6    2.65    0.86
  10   3  -6    1.10    0.75
  10   4   6    6.01    1.69
  10   4   6    4.32    1.57
  10   4  -6    4.81    1.81
 -11   0  -6   -0.22    0.41
  11   0   6   -0.44    0.43
  11   1   6    8.65    0.75
  11   1  -6    6.54    0.70
  11   2   6    0.18    0.59
  11   2   6    1.59    0.74
  11   2  -6   -0.87    0.69
  11   2  -6    0.59    0.59
  11   3   6    2.67    0.89
  11   3   6    2.03    0.96
  11   3  -6    1.82    0.97
  11   3  -6    0.46    0.93
  12   0   6   24.50    1.13
 -12   0  -6   23.00    1.08
  12   1   6    8.13    0.87
  12   1   6    8.85    0.84
  12   1  -6    8.43    0.79
  12   2   6    0.41    0.67
  12   2   6    2.57    1.00
  12   2  -6    0.18    0.72
  12   2  -6   -0.12    0.91
  12   3   6    8.24    1.39
  12   3   6    8.58    1.37
  12   3  -6    6.65    1.04
  12   3  -6    7.72    1.32
 -13   0  -6   -0.48    0.65
  13   0   6    0.00    0.56
  13   1   6    1.69    0.72
  13   1  -6    2.31    0.63
  13   2   6    5.07    0.92
  13   2   6    3.61    0.80
  13   2  -6    2.48    0.76
  13   2  -6    3.54    0.85
  13   3   6   -0.36    1.15
  13   3   6    2.41    1.23
  13   3  -6   -0.30    1.09
  13   3  -6    2.29    1.20
  14   1   6   20.57    1.28
  14   1   6   20.65    1.36
  14   1  -6   21.15    1.23
  14   2   6    1.84    0.88
  14   2   6    3.19    0.98
  14   2  -6    3.49    1.07
  14   3   6    5.59    1.48
  14   3   6    3.06    1.92
  14   3  -6    0.75    1.53
  14   3  -6    3.93    1.36
  15   1  -6    3.03    0.89
  15   2   6    1.14    1.05
  15   2   6    2.62    1.67
  15   2  -6    4.03    1.04
  16   1   6    1.51    0.94
  16   1   6    0.12    1.06
  16   1  -6   -0.70    1.12
  16   2   6   13.53    1.64
  16   2   6    9.30    1.42
  16   2  -6   10.72    1.55
  16   2  -6   11.06    1.41
  17   1   6    2.62    1.14
   0   0  -7    0.20    0.20
   0   0   7    0.31    0.23
   0   0   7    0.09    0.20
   0   0  -7   -0.01    0.20
   0   1   7  244.72    8.54
   0   1  -7  258.34    8.57
   0  -1  -7  260.84    8.57
   0  -1   7  245.23    8.56
   0   1  -7  263.39    8.56
   0  -1  -7  255.94    8.55
   0   2  -7    0.13    0.31
   0   2   7    0.49    0.35
   0  -2  -7   -0.38    0.28
   0  -2  -7   -0.12    0.58
   0  -2   7    0.24    0.30
   0   3   7   16.58    0.97
   0   3  -7   16.06    0.99
   0   4   7    2.86    0.80
   0   4  -7    0.02    0.97
   1   0  -7   -0.10    0.20
  -1   0   7    0.26    0.23
  -1   0   7   -0.05    0.19
  -1   0  -7    0.14    0.21
   1   0  -7    0.10    0.21
   1   0   7    0.08    0.22
   1   0   7   -0.07    0.23
  -1   0  -7    0.10    0.30
  -1  -1   7   28.53    1.14
  -1   1  -7   29.58    1.14
  -1   1  -7   30.25    1.15
   1   1   7   29.49    1.14
   1   1   7   28.56    1.14
   1  -1  -7   28.86    1.12
   1  -1   7   29.42    1.15
  -1   1   7   29.90    1.13
   1   1  -7   29.34    1.13
  -1  -1  -7   29.43    1.12
  -1  -1  -7   29.12    1.13
   1   1  -7   29.58    1.14
   1  -2  -7   20.87    1.13
  -1   2  -7   20.58    0.90
   1  -2  -7   19.75    0.87
  -1  -2   7   20.96    0.93
   1   2   7   20.45    0.93
   1   2  -7   20.08    0.93
   1  -2   7   20.62    0.91
  -1  -2  -7   19.92    0.91
   1   2  -7   20.70    0.94
  -1   2   7   21.72    0.94
   1   2  -7   20.03    0.94
  -1  -2  -7   18.78    0.89
   1   3   7   18.06    1.03
  -1   3  -7   17.93    1.05
   1   3  -7   16.89    1.03
  -1   3   7   17.96    0.98
  -1   4  -7    6.17    0.93
   1   4   7    5.72    1.02
  -1   4   7    7.02    1.00
   1   4  -7    5.07    0.92
  -2   0   7  193.14    6.86
  -2   0  -7  201.95    6.87
   2   0  -7  207.51    6.91
   2   0   7  200.99    6.88
   2   0   7  204.02    6.87
  -2   0  -7  212.05    6.87
   2   0  -7  208.58    6.87
   2  -1  -7   36.42    1.37
  -2   1  -7   37.65    1.39
   2   1   7   37.82    1.41
  -2  -1   7   36.83    1.40
   2   1   7   37.63    1.41
   2   1  -7   36.55    1.40
   2  -1   7   36.72    1.39
   2   1  -7   38.33    1.41
   2  -1   7   36.92    1.40
  -2   1   7   38.40    1.39
  -2  -1  -7   37.16    1.40
  -2  -1  -7   36.63    1.39
   2   2   7   34.05    1.35
   2  -2  -7   34.59    1.30
  -2  -2   7   33.97    1.36
   2   2   7   32.78    1.34
  -2   2  -7   32.34    1.31
   2  -2   7   34.07    1.34
  -2   2   7   35.40    1.33
  -2  -2  -7   31.52    1.33
   2   2  -7   34.83    1.41
   2   2  -7   34.50    1.35
  -2  -2  -7   31.93    1.37
   2   3   7    9.23    0.81
  -2   3  -7    7.81    0.84
   2   3  -7    9.52    0.89
   2   3  -7    9.27    0.85
  -2   3   7    8.81    0.79
  -2   4  -7    2.61    0.88
   2   4   7    3.17    0.78
   2   4  -7    1.86    0.87
  -2   4   7    3.96    0.99
   3   0  -7    0.25    0.22
  -3   0  -7   -0.06    0.23
   3   0   7    0.21    0.22
  -3   0   7   -0.09    0.23
   3   0   7    0.00    0.23
   3   0  -7   -0.22    0.21
  -3  -1   7  169.81    5.79
   3  -1  -7  170.42    5.75
   3   1   7  168.82    5.79
   3   1   7  169.59    5.78
  -3   1  -7  176.76    5.78
   3   1  -7  168.75    5.79
  -3   1   7  171.43    5.76
  -3  -1  -7  167.12    5.78
   3  -1   7  169.05    5.77
  -3  -1  -7  172.61    5.98
   3  -2  -7    5.18    0.45
   3   2   7    6.19    0.57
  -3   2  -7    5.36    0.53
   3   2   7    6.14    0.71
   3   2  -7    6.24    0.56
   3  -2   7    7.03    0.59
  -3   2   7    5.86    0.54
  -3  -2  -7    5.23    0.57
   3   2  -7    6.95    1.02
   3  -3  -7    8.14    0.70
   3   3   7    7.76    0.82
  -3   3  -7    7.97    0.84
  -3   3   7    9.93    0.78
   3   3  -7    8.36    0.85
   3   3  -7    9.19    0.94
  -3   4  -7    2.14    0.90
   3   4   7    3.39    0.80
   3   4  -7    3.26    0.90
  -4   0   7    9.74    0.52
   4   0   7    9.89    0.56
   4   0  -7   10.24    0.72
  -4   0  -7   11.28    0.54
   4   0   7   10.09    0.56
   4   0  -7   11.21    0.55
   4   1   7    1.19    0.29
  -4   1  -7    2.44    0.34
   4  -1  -7    1.75    0.27
  -4  -1   7    1.86    0.32
   4   1   7    2.04    0.34
   4  -1   7    2.43    0.39
   4   1  -7    1.72    0.30
  -4   1   7    1.68    0.30
  -4  -1  -7    1.45    0.27
  -4  -1  -7    1.63    0.28
  -4   2  -7   45.54    1.72
   4   2   7   45.83    1.78
   4   2   7   47.11    1.79
   4  -2  -7   47.46    1.87
  -4   2   7   48.08    1.74
   4   2  -7   44.55    1.79
   4  -2   7   47.43    1.75
   4   3   7    1.51    0.59
   4   3   7    1.88    0.56
  -4   3  -7    2.32    0.58
   4  -3  -7    0.86    0.48
   4   3  -7    1.78    0.98
   4   3  -7    1.59    0.95
  -4   4  -7    3.22    0.98
   4   4   7    4.21    0.84
   4   4  -7    4.10    0.87
   5   0   7   -0.17    0.26
   5   0   7    0.42    0.23
  -5   0   7    0.06    0.23
   5   0  -7   -0.08    0.25
  -5   0  -7    0.37    0.24
  -5  -1   7    0.30    0.25
   5   1   7    0.49    0.31
  -5   1  -7    0.42    0.25
   5   1   7    0.45    0.27
  -5  -1  -7    0.28    0.27
   5  -1   7    0.69    0.33
  -5  -1  -7    0.28    0.26
   5   1  -7    0.58    0.30
  -5   2  -7   42.21    1.65
   5   2   7   44.31    1.73
   5   2   7   44.98    1.76
   5   2  -7   44.99    1.75
   5  -2   7   46.38    1.69
  -5   3  -7    0.96    0.55
   5   3   7    0.95    0.73
   5   3  -7    1.11    0.64
   5   3  -7    1.24    0.58
   5   4   7    0.70    0.85
   5   4  -7   -0.01    0.87
   5   4  -7   -0.61    0.91
  -6   0  -7   46.96    1.66
   6   0  -7   42.40    1.56
   6   0   7   42.14    1.58
   6   0   7   40.90    1.58
  -6   0   7   38.84    1.54
  -6  -1   7    3.18    0.43
  -6   1  -7    2.46    0.38
   6   1   7    2.60    0.45
   6   1   7    2.77    0.42
   6   1  -7    2.29    0.40
  -6  -1  -7    1.88    0.33
  -6  -1  -7    2.20    0.32
   6   1  -7    2.79    0.43
   6  -1   7    3.14    0.41
   6   2   7   30.40    1.33
  -6   2  -7   30.86    1.21
   6  -2   7   32.35    1.26
   6   2  -7   30.17    1.33
  -6   3  -7    8.08    0.82
   6   3   7    5.42    0.99
   6   3   7    8.44    0.88
   6   3  -7    6.65    0.92
   6   3  -7    6.74    0.89
  -6   4  -7   -0.95    1.01
   6   4   7    3.25    0.94
   6   4   7    2.57    0.91
   6   4  -7    1.58    1.01
   6   4  -7    0.00    0.89
   7   0   7    0.03    0.31
  -7   0   7    0.08    0.28
  -7   1  -7   21.50    0.88
   7   1   7   20.87    0.97
   7   1   7   21.22    0.95
   7  -1   7   21.39    0.93
  -7  -1  -7   19.01    0.91
   7   1  -7   20.05    0.94
   7   1  -7   19.31    0.94
   7   2   7    4.62    0.69
   7   2   7    3.69    0.69
   7  -2   7    4.32    0.55
   7   2  -7    4.01    0.65
   7   3   7   -0.20    0.64
   7   3   7    1.03    0.70
   7   3  -7   -0.78    0.61
   7   3  -7    1.17    0.69
   7   4   7    3.55    1.04
   7   4   7    2.29    1.03
   7   4  -7    1.60    1.08
   7   4  -7    1.51    1.00
  -8   0   7   31.23    1.25
   8   0  -7   32.17    1.28
   8   0   7   33.96    1.31
  -8   0  -7   32.62    1.26
   8   1   7   66.37    2.41
  -8   1  -7   66.59    2.32
   8   1   7   66.03    2.39
   8   1  -7   66.31    2.39
  -8  -1  -7   63.06    2.55
   8   1  -7   62.20    2.39
   8  -1   7   67.17    2.36
   8   2   7    9.18    0.85
   8   2   7    9.09    0.85
   8   2  -7    9.15    0.78
   8   3   7    9.14    1.08
   8   3   7   12.14    1.09
   8   3  -7    9.65    0.98
   8   3  -7    8.59    1.03
   8   4   7    0.28    1.08
   8   4   7    1.25    1.19
   8   4  -7    2.56    1.29
   8   4  -7   -0.07    1.10
   9   0   7   -0.21    0.57
   9   0  -7    0.28    0.34
  -9   0  -7    0.21    0.36
   9   0  -7   -0.32    0.49
   9   1   7   28.58    1.26
   9   1   7   28.69    1.22
  -9   1  -7   27.16    1.11
   9  -1   7   28.32    1.19
   9   1  -7   27.63    1.22
   9   2   7   15.08    1.03
   9   2  -7   13.60    0.98
   9   3   7    2.08    0.80
   9   3   7    3.77    0.86
   9   3  -7    2.33    0.81
   9   3  -7    1.97    0.71
   9   4   7   -1.03    1.37
   9   4   7    1.41    1.50
   9   4  -7   -0.01    1.32
   9   4  -7   -2.99    1.49
  10   0   7   87.50    3.09
 -10   0  -7   86.09    3.07
  10   1   7   32.05    1.50
  10   1   7   35.00    1.47
  10   1  -7   36.05    1.52
  10   2   7   12.57    1.61
  10   2   7   11.46    1.00
  10   2  -7   11.71    0.98
  10   2  -7   10.81    0.89
  10   3   7    8.36    1.18
  10   3   7    9.12    1.23
  10   3  -7   10.06    1.13
  10   3  -7    7.75    1.11
 -11   0  -7   -0.62    0.48
  11   0   7    0.24    0.47
  11   1   7   13.90    0.98
  11   1   7   14.88    0.95
  11   1  -7   13.43    0.89
  11   2   7   11.03    1.07
  11   2   7   15.22    1.12
  11   2  -7   12.51    0.97
  11   2  -7   12.54    1.31
  11   3   7    3.19    1.04
  11   3   7    2.84    0.98
  11   3  -7    1.84    0.91
  11   3  -7    3.40    1.03
  12   0   7   54.08    2.07
  12   1   7    3.98    0.71
  12   1  -7    3.52    0.67
  12   2   7   30.51    1.53
  12   2   7   26.94    1.52
  12   2  -7   26.64    1.44
  12   2  -7   26.99    1.42
  12   3   7    1.16    1.11
  12   3   7    1.64    1.17
  12   3  -7    1.40    0.98
  12   3  -7    0.02    1.12
  13   0   7    2.16    0.94
  13   1   7    0.71    0.69
  13   1   7    1.04    0.76
  13   1  -7   -0.39    0.66
  13   2   7    8.22    1.25
  13   2   7    7.85    1.19
  13   2  -7    7.59    1.15
  13   3   7    3.03    1.40
  13   3   7    4.42    1.45
  13   3  -7    0.90    1.17
  13   3  -7    3.15    1.24
  14   0   7    7.48    0.95
  14   1   7   10.23    1.59
  14   1  -7   11.53    1.08
  14   2   7    2.17    1.02
  14   2   7    1.55    1.07
  14   2  -7    1.21    0.96
  14   2  -7    0.61    0.87
  15   1   7    0.95    0.90
  15   1   7    0.55    0.95
  15   1  -7   -0.46    0.91
  15   2   7    1.30    1.17
  15   2   7   -0.67    1.13
  15   2  -7    0.91    1.04
  16   1   7    2.49    1.04
  16   1   7    3.68    1.43
  16   1  -7    0.98    1.71
  17   1   7   -0.22    1.24
  17   1   7   -1.78    2.25
   0   0   8  363.72   12.41
   0   0   8  364.20   12.40
   0   0  -8  362.92   12.40
   0   0  -8  394.40   12.58
   0   1   8   -0.11    0.25
   0   1   8    0.62    0.27
   0  -1  -8    0.26    0.23
   0   1  -8    0.23    0.26
   0  -1   8    0.05    0.26
   0   1  -8   -0.19    0.25
   0  -1  -8    0.47    0.26
   0  -2   8   19.78    0.93
   0  -2  -8   19.88    0.92
   0   2   8   20.15    0.97
   0   2  -8   20.77    0.96
   0  -2  -8   19.42    0.96
   0   2  -8   19.97    0.99
   0   3  -8   -0.30    0.59
   0   3   8    0.11    0.54
   0   4   8    1.77    0.81
   0   4  -8    1.47    0.88
   1   0  -8    0.08    0.23
  -1   0  -8    0.06    0.22
  -1   0   8    0.13    0.22
  -1   0  -8   -0.06    0.23
   1   0  -8   -0.08    0.23
   1   0   8   -0.06    0.22
  -1   0   8   -0.29    0.25
   1   0   8    0.26    0.25
   1  -1  -8   21.29    0.89
   1   1   8   22.13    0.92
  -1   1  -8   22.27    0.92
   1   1   8   21.12    0.92
  -1  -1   8   21.79    0.93
  -1   1  -8   22.45    0.94
   1  -1  -8   22.53    0.93
  -1   1   8   21.88    0.92
  -1  -1  -8   20.87    0.92
  -1  -1  -8   21.23    0.89
   1   1  -8   22.33    0.93
   1  -1   8   21.66    0.93
   1   1  -8   21.58    0.93
   1  -2  -8    3.45    0.46
  -1   2  -8    3.42    0.52
   1   2   8    4.71    0.57
  -1  -2   8    3.87    0.51
  -1  -2  -8    4.04    0.53
  -1   2   8    4.90    0.58
  -1  -2  -8    3.64    0.54
   1   2  -8    4.20    0.58
   1  -2   8    4.08    0.51
  -1   3  -8    8.07    0.90
   1   3   8    6.91    0.84
   1   3  -8    7.11    0.87
  -1   3   8    8.05    0.84
   1   4   8    3.53    0.83
  -1   4  -8    2.91    0.89
   1   4  -8    1.41    0.91
  -1   4   8    2.16    0.82
  -2   0  -8   16.81    0.76
  -2   0   8   16.87    0.76
   2   0   8   17.36    0.77
   2   0  -8   17.11    0.76
   2   0   8   16.80    0.77
   2   0  -8   17.34    0.75
   2   1   8   47.24    1.74
  -2   1  -8   47.97    1.74
   2  -1  -8   47.70    1.73
   2  -1  -8   45.75    1.71
  -2   1  -8   47.82    1.74
  -2  -1   8   46.13    1.74
   2   1   8   45.52    1.73
   2  -1   8   48.41    1.76
   2   1  -8   45.74    1.73
   2  -1   8   46.93    1.73
  -2  -1  -8   47.33    1.73
  -2  -1  -8   45.64    1.72
  -2   1   8   47.49    1.73
   2   1  -8   47.74    1.75
   2  -2  -8   69.30    2.55
   2   2   8   74.07    2.75
  -2  -2   8   70.26    2.60
  -2   2  -8   69.00    2.58
   2   2  -8   73.73    2.60
   2  -2   8   74.07    2.60
  -2   2   8   71.58    2.57
  -2   3  -8    1.42    0.63
   2   3   8    1.01    0.58
   2   3  -8    0.68    0.58
  -2   3   8    1.47    0.60
   2   3  -8    1.11    0.57
  -2   4  -8    1.91    0.91
   2   4   8    2.72    0.85
   2   4  -8    1.36    0.90
  -2   4   8    4.14    0.90
   3   0  -8    0.15    0.25
   3   0   8   -0.34    0.25
  -3   0  -8   -0.40    0.24
   3   0   8   -0.06    0.23
  -3   0   8   -0.21    0.24
   3   0  -8   -0.12    0.24
  -3   0  -8   -0.37    0.24
   3   1   8   15.56    0.76
  -3   1  -8   16.16    0.72
   3   1   8   15.59    0.77
  -3  -1   8   15.81    0.75
   3  -1  -8   15.09    0.70
   3   1  -8   15.72    0.76
   3  -1   8   16.73    0.76
  -3  -1  -8   15.32    0.74
   3  -1   8   16.01    0.74
   3   1  -8   15.92    0.76
  -3   1   8   15.44    0.75
  -3  -1  -8   14.95    0.73
   3  -2  -8   36.71    1.42
  -3  -2   8   38.23    1.50
   3   2   8   38.00    1.51
   3   2   8   37.06    1.48
  -3   2  -8   35.94    1.46
   3  -2   8   37.52    1.48
   3   2  -8   36.54    1.48
  -3   2   8   36.72    1.45
  -3   3  -8    3.04    0.63
   3   3   8    3.20    0.66
  -3   3   8    4.67    0.78
  -3   4  -8    3.00    0.92
   3   4   8    4.06    0.90
   3   4  -8    1.96    0.95
   4   0   8   11.55    0.63
  -4   0  -8   11.58    0.59
   4   0  -8   10.99    0.59
  -4   0   8   11.47    0.60
   4   0   8   11.36    0.62
  -4   0  -8   11.72    0.63
  -4  -1   8   17.35    0.80
  -4   1  -8   16.15    0.75
   4   1   8   16.98    0.82
   4   1   8   18.32    0.82
   4  -1  -8   15.01    0.72
  -4   1   8   16.75    0.77
   4  -1   8   18.57    0.80
  -4  -1  -8   16.23    0.78
  -4  -1  -8   14.65    0.77
   4   1  -8   15.70    0.80
  -4   2  -8    3.09    0.51
   4   2   8    4.58    0.60
   4   2   8    3.98    0.58
   4  -2  -8    2.52    0.44
  -4   2   8    4.06    0.51
   4  -2   8    3.74    0.53
   4   2  -8    3.42    0.58
  -4   3  -8   49.50    1.97
   4  -3  -8   46.96    2.17
   4   3   8   42.04    2.14
  -4   3   8   47.96    1.89
   4   3  -8   49.25    1.95
   4   3  -8   51.68    2.20
   4   4   8    0.86    0.91
  -4   4  -8    0.59    0.92
  -4   4   8    0.45    0.96
   4   4  -8    0.17    0.95
  -5   0  -8    0.19    0.26
  -5   0   8   -0.13    0.25
   5   0   8    0.38    0.27
   5   0   8   -0.06    0.29
   5   0  -8   -0.07    0.29
   5   1   8   18.70    0.87
   5  -1  -8   17.61    0.78
  -5  -1   8   18.01    0.84
   5   1   8   17.83    0.88
  -5   1  -8   19.05    0.82
  -5  -1  -8   17.50    0.84
  -5   1   8   18.07    0.81
   5  -1   8   18.89    0.87
  -5  -1  -8   16.36    0.82
   5   1  -8   17.28    0.85
  -5   2  -8   12.52    0.74
   5   2   8   13.60    0.86
   5   2   8   15.17    0.87
   5  -2   8   14.31    0.79
   5   2  -8   15.40    0.89
  -5   3  -8   10.74    0.97
   5   3   8    7.54    0.94
   5   3   8    9.98    0.98
   5   3  -8    9.34    0.95
   5   3  -8    8.60    0.92
  -5   4  -8    4.28    0.99
   5   4   8    1.39    0.98
   5   4  -8    0.26    0.88
   5   4  -8    2.06    1.03
   6   0   8   40.54    1.48
  -6   0   8   38.25    1.44
   6   0   8   39.02    1.48
  -6   0  -8   36.06    1.44
   6   0  -8   36.47    1.44
   6  -1  -8   62.52    2.25
  -6  -1   8   63.94    2.31
   6   1   8   65.24    2.34
  -6   1  -8   64.03    2.28
   6   1   8   66.38    2.33
  -6  -1  -8   64.11    2.32
   6  -1   8   65.66    2.31
  -6   1   8   61.09    2.26
   6   1  -8   60.45    2.32
  -6  -1  -8   62.73    2.52
   6   2   8   18.65    1.02
   6   2   8   18.83    1.01
  -6   2  -8   17.75    0.86
   6   2  -8   18.00    1.01
   6  -2   8   19.24    0.91
  -6   3  -8    3.07    0.70
   6   3   8    1.57    0.66
   6   3   8    2.08    0.73
   6   3  -8    2.70    0.80
   6   3  -8    1.82    0.63
  -6   4  -8    0.06    1.02
   6   4   8   -1.17    0.95
   6   4   8   -0.58    1.04
   6   4  -8    2.35    1.05
   6   4  -8    0.12    0.97
  -7   0   8    0.47    0.33
   7   0   8   -0.16    0.35
   7   0  -8    0.28    0.34
  -7   0  -8    0.62    0.31
  -7  -1   8   10.55    0.71
   7   1   8   11.28    0.75
   7   1   8   12.28    0.74
  -7   1  -8   11.67    0.66
   7   1  -8   12.02    0.72
  -7  -1  -8   10.79    0.74
   7  -1   8   12.34    0.72
   7   1  -8   10.73    0.78
   7   2   8    6.54    0.78
   7   2   8    7.39    0.79
  -7   2  -8    7.05    0.60
   7  -2   8    7.78    0.65
   7   2  -8    6.82    0.76
   7   3   8    5.66    0.88
   7   3   8    4.28    0.75
   7   3  -8    5.39    1.00
   7   3  -8    5.13    0.73
   7   4   8    0.12    1.17
   7   4   8   -0.39    1.11
   7   4  -8    1.76    1.10
   7   4  -8    0.87    1.17
  -8   0  -8  155.15    5.58
   8   0  -8  160.78    5.54
   8   0   8  170.43    5.57
   8   1   8    5.70    0.63
  -8   1  -8    6.81    0.55
   8   1   8    6.11    0.66
   8  -1   8    6.40    0.62
   8   1  -8    6.22    0.65
   8   2   8   16.21    1.04
  -8   2  -8   15.00    0.81
   8  -2   8   15.89    0.88
   8   2  -8   16.96    1.02
   8   3   8    5.17    0.94
   8   3  -8    6.87    1.05
   8   3  -8    5.29    0.95
   8   4   8   -1.04    1.23
   8   4   8   -0.53    1.37
   8   4  -8    1.90    1.28
   8   4  -8   -0.37    1.32
   9   0  -8    0.35    0.42
   9   0   8   -0.16    0.54
  -9   0   8   -0.20    0.37
  -9   0  -8   -0.17    0.42
   9   1   8   27.09    1.24
   9   1   8   27.02    1.26
  -9   1  -8   25.86    1.11
   9   1  -8   26.56    1.21
   9  -1   8   26.67    1.17
   9   2   8    9.06    0.91
   9   2  -8   10.17    0.92
   9   3   8    2.59    0.95
   9   3   8    1.07    0.87
   9   3  -8    0.07    0.82
   9   3  -8    1.77    0.79
 -10   0  -8    3.22    0.68
  10   0  -8    2.88    0.49
  10   0  -8    2.22    0.50
  10   0   8    2.96    0.52
  10   1   8   39.55    1.68
 -10   1  -8   37.28    1.52
  10   1   8   42.07    1.70
  10   1  -8   40.83    1.62
  10   2   8   36.73    1.67
  10   2   8   37.75    1.68
  10   2  -8   35.81    1.79
  10   3   8   -0.32    0.86
  10   3   8    1.46    1.01
  10   3  -8   -0.48    0.82
  10   3  -8   -1.29    0.87
  11   0   8    0.30    0.52
  11   1   8   34.14    1.59
  11   1  -8   35.21    1.73
  11   2   8    8.90    1.08
  11   2   8   10.01    1.09
  11   2  -8    9.20    1.03
  11   3   8   -0.10    1.00
  11   3   8    2.08    1.14
  11   3  -8    1.42    1.01
  11   3  -8    0.28    0.90
  12   0   8    3.44    0.66
  12   1   8   18.29    1.16
  12   1   8   16.72    1.32
  12   1  -8   17.70    1.12
  12   2   8    0.46    0.88
  12   2   8    1.23    0.81
  12   2  -8    0.97    0.74
  12   2  -8    1.31    0.84
  12   3   8    5.93    1.34
  12   3  -8    7.95    1.45
  12   3  -8    4.85    1.14
  13   0   8    0.57    0.76
  13   1   8    3.00    0.75
  13   1  -8    2.64    0.76
  13   2   8    3.26    0.98
  13   2   8    3.84    1.06
  13   2  -8    4.47    0.94
  13   2  -8    3.16    0.85
  13   3   8    3.36    1.56
  13   3  -8    1.45    1.40
  13   3  -8   -0.18    1.65
  14   0   8   10.34    1.10
  14   1   8   15.08    1.30
  14   1   8   14.78    1.36
  14   1  -8   14.30    1.26
  14   2   8    1.06    1.11
  14   2   8    2.44    1.14
  14   2  -8    1.85    1.01
  15   0   8    1.29    0.98
  15   1   8   -0.04    1.10
  15   1   8    0.40    0.97
  15   1  -8    1.80    1.53
  15   2   8   -0.47    1.40
  15   2   8   -2.26    1.24
  15   2  -8   -2.16    1.10
  16   1   8    0.84    1.39
  16   1   8    1.72    1.05
  16   1  -8   -0.91    1.10
   0   0  -9   -0.13    0.26
   0   0  -9    0.17    0.26
   0   0   9    0.11    0.26
   0   0   9   -0.03    0.27
   0   1  -9   37.04    1.39
   0  -1   9   34.56    1.38
   0  -1  -9   34.02    1.36
   0  -1  -9   35.80    1.38
   0   1   9   34.75    1.38
   0   1   9   35.49    1.39
   0   1  -9   35.65    1.40
   0  -2   9    0.43    0.36
   0   2  -9    0.00    0.51
   0   2   9   -0.11    0.42
   0   3  -9    8.78    1.24
   0   3   9   12.32    1.06
   0   4   9    1.64    0.89
   0   4  -9    1.64    0.99
   1   0  -9   -0.29    0.26
   1   0   9    0.11    0.26
  -1   0   9   -0.20    0.26
  -1   0  -9   -0.06    0.25
   1   0   9   -0.15    0.27
   1   0  -9    0.01    0.27
  -1   0  -9    0.38    0.27
  -1   0   9   -0.25    0.28
   1   1   9   31.73    1.28
   1   1   9   32.29    1.28
  -1   1  -9   31.48    1.29
   1  -1  -9   33.07    1.35
  -1   1  -9   32.46    1.31
  -1  -1   9   31.66    1.27
   1  -1  -9   32.76    1.27
  -1   1   9   32.42    1.27
   1  -1   9   32.67    1.28
  -1  -1  -9   29.47    1.25
  -1  -1  -9   31.17    1.27
   1   1  -9   31.61    1.28
   1   1  -9   31.23    1.30
   1   2   9    6.45    0.67
   1  -2  -9    6.52    0.66
  -1  -2   9    6.95    0.62
   1  -2  -9    8.66    0.93
   1  -2   9    7.41    0.62
  -1   2   9    7.46    0.63
  -1   3  -9    1.13    0.65
   1   3   9    1.52    0.64
  -1   3   9    1.43    0.66
  -1   4  -9    1.85    0.97
   1   4   9    2.34    0.92
  -1   4   9    2.73    0.98
   1   4  -9    3.01    0.97
  -2   0  -9   40.61    1.51
   2   0  -9   39.13    1.50
  -2   0   9   38.72    1.51
  -2   0  -9   39.28    1.51
   2   0   9   40.29    1.52
   2   0  -9   39.87    1.51
   2   0   9   40.78    1.53
   2  -1  -9   27.46    1.13
   2   1   9   28.52    1.15
  -2   1  -9   27.82    1.13
  -2  -1   9   27.39    1.14
   2   1   9   29.42    1.15
   2  -1  -9   22.73    1.10
   2  -1   9   27.20    1.13
  -2   1   9   28.73    1.20
   2   1  -9   27.47    1.13
   2   1  -9   27.85    1.17
  -2  -1  -9   26.07    1.14
   2  -1   9   28.50    1.14
  -2  -1  -9   25.89    1.12
   2  -2  -9    7.50    0.59
   2   2   9    6.27    0.70
   2   2   9    6.01    0.68
  -2  -2   9    5.95    0.63
   2  -2   9    7.97    0.63
  -2   2   9    7.01    0.62
  -2   3  -9   13.39    1.11
   2   3   9   13.16    1.53
  -2   3   9   12.73    1.14
   2   3  -9   13.12    1.01
  -2   4  -9    5.23    1.03
   2   4   9    5.12    0.96
   2   4  -9    3.46    0.96
  -2   4   9    1.92    1.04
  -3   0   9    0.13    0.31
   3   0   9   -0.30    0.30
   3   0  -9    0.04    0.29
   3   0  -9   -0.20    0.27
  -3   0  -9   -0.32    0.28
  -3   0  -9    0.04    0.30
   3   0   9    0.18    0.28
   3   1   9    8.67    0.60
   3   1   9    8.61    0.62
  -3  -1   9    8.80    0.59
   3  -1  -9    8.06    0.51
  -3   1  -9    8.34    0.56
  -3  -1  -9    7.71    0.60
   3  -1   9    8.99    0.57
   3  -1   9    8.55    0.59
  -3   1   9    7.74    0.60
  -3  -1  -9    8.59    0.55
   3   1  -9    9.31    0.63
   3   1  -9    7.51    0.61
   3   2   9   31.90    1.39
   3   2   9   31.91    1.36
   3  -2  -9   29.48    1.33
  -3  -2   9   33.06    1.45
   3   2  -9   31.91    1.36
  -3   2   9   31.19    1.31
   3  -2   9   31.94    1.33
  -3   3  -9    6.04    1.12
   3   3   9    7.67    0.91
   3   3  -9    6.73    0.93
   3   3  -9    5.75    0.88
  -3   3   9    7.64    0.84
   3   4   9    4.33    0.98
  -3   4  -9    5.66    1.03
  -3   4   9    2.26    1.32
   3   4  -9    3.83    1.06
  -4   0  -9  145.86    5.22
   4   0  -9  150.44    5.22
   4   0   9  155.68    5.23
   4   0  -9  148.77    5.22
  -4   0  -9  154.33    5.22
   4   0   9  160.63    5.26
  -4   1  -9    2.93    0.45
   4   1   9    3.55    0.58
  -4  -1   9    2.79    0.50
   4  -1  -9    3.18    0.41
   4   1   9    3.28    0.50
  -4  -1  -9    2.60    0.42
  -4  -1  -9    2.85    0.49
   4  -1   9    3.77    0.50
   4   1  -9    3.35    0.53
   4   1  -9    3.52    0.45
  -4   1   9    3.12    0.41
   4  -1   9    4.01    0.49
   4  -2  -9   52.20    1.99
   4   2   9   53.72    2.08
   4   2   9   53.92    2.11
  -4  -2   9   54.26    2.09
   4   2  -9   52.77    2.07
   4  -2   9   56.55    2.05
  -4   2   9   55.96    2.03
  -4   3  -9    9.18    1.04
   4   3   9    8.40    0.95
   4   3   9    6.83    0.94
   4   3  -9    7.88    0.93
  -4   3   9    7.54    1.07
   4   3  -9    7.75    0.91
  -4   4  -9    6.16    1.09
   4   4   9    6.29    1.05
   4   4  -9    3.46    1.12
   4   4  -9    4.25    0.93
  -5   0   9    0.08    0.31
   5   0   9    0.10    0.34
   5   0   9    0.27    0.31
   5   0  -9   -0.24    0.31
  -5   0  -9    0.27    0.33
  -5   0  -9    0.41    0.34
  -5   1  -9   18.49    0.88
  -5  -1   9   20.37    1.00
   5   1   9   20.35    0.96
   5   1   9   20.43    0.96
   5  -1  -9   18.77    0.85
  -5  -1  -9   19.47    0.95
   5  -1   9   19.99    0.96
   5  -1   9   21.34    0.94
  -5   1   9   20.45    0.90
   5   1  -9   18.46    0.98
   5   2   9    7.78    0.78
   5   2   9    7.82    0.80
   5  -2   9    8.24    0.88
   5   2  -9    8.23    0.77
  -5   2   9    7.49    0.67
   5   3   9   10.64    1.01
   5   3   9    8.66    0.98
  -5   3  -9    9.88    1.05
   5   3  -9    7.92    0.94
   5   3  -9    7.32    1.03
   5   4   9    1.36    1.08
   5   4   9    0.46    0.98
  -5   4  -9    1.05    1.06
   5   4  -9   -0.67    1.08
   5   4  -9    0.18    0.95
   6   0   9  143.04    4.81
   6   0   9  148.43    4.94
  -6   0   9  137.31    4.76
   6   0  -9  133.47    4.77
  -6   0  -9  132.62    4.78
  -6   1  -9   85.27    2.99
   6   1   9   87.85    3.02
  -6  -1   9   81.01    3.04
   6  -1  -9   71.45    3.05
   6   1   9   85.65    3.03
   6  -1   9   88.75    3.00
   6  -1   9   87.99    3.00
  -6   1   9   82.99    2.94
   6   2   9   18.18    1.07
   6  -2   9   19.20    0.95
   6   2  -9   18.80    1.08
   6   3   9    9.39    1.05
  -6   3  -9    9.59    1.06
   6   3   9    6.68    1.00
   6   3  -9    8.04    0.96
   6   3  -9    9.16    1.04
  -6   4  -9    2.91    1.20
   6   4   9    2.36    1.11
   6   4   9    4.64    1.17
   6   4  -9    0.68    1.05
   6   4  -9    1.80    1.20
   7   0   9   -0.16    0.35
   7   0  -9    0.19    0.39
   7   0   9   -0.74    0.42
  -7   0   9    0.08    0.37
  -7   0  -9    0.45    0.50
   7   1   9   15.80    0.89
   7   1   9   16.60    0.88
  -7  -1   9   15.37    0.96
  -7   1  -9   14.44    0.84
   7  -1   9   16.11    1.02
   7   2   9    3.69    0.68
   7  -2   9    4.08    0.58
   7   2  -9    4.45    0.78
   7   3   9    2.14    0.79
   7   3   9    1.22    0.75
  -7   3  -9    2.24    0.79
   7   3  -9    0.30    0.69
   7   3  -9   -0.35    0.82
  -7   4  -9    6.47    1.64
   7   4   9    1.74    1.33
   7   4   9    2.07    1.25
   7   4  -9    4.42    1.67
   7   4  -9    3.91    1.35
   8   0   9   37.02    1.48
   8   0  -9   33.78    1.43
   8   0   9   37.03    1.51
  -8   0   9   36.76    1.43
   8   1   9   41.81    1.71
   8   1   9   41.75    1.71
  -8   1  -9   41.43    1.64
   8   1  -9   43.44    1.71
   8  -1   9   41.85    1.66
   8   2   9    1.35    0.61
   8   2   9    1.43    0.72
   8  -2   9    2.39    0.54
   8   2  -9    1.50    1.00
   8   3   9    4.74    0.93
   8   3   9    4.15    1.17
   8   3  -9    3.67    0.77
   8   3  -9    3.16    0.90
   9   0  -9   -0.49    0.45
  -9   0   9   -0.12    0.40
   9   0   9   -0.54    0.46
   9   1   9   13.08    0.97
   9   1   9   14.37    0.94
  -9   1  -9   14.47    0.86
   9   1  -9   14.53    0.90
   9  -1   9   14.58    0.87
   9   2   9    1.86    0.66
   9   2   9    1.41    0.70
   9   2  -9    1.01    0.67
   9   3   9    3.84    0.91
   9   3   9    5.85    1.06
   9   3  -9    4.77    0.99
   9   3  -9    5.22    0.87
  10   0   9   75.79    2.70
  10   0  -9   70.13    2.64
  10   1   9    7.66    0.94
  10  -1   9    8.78    0.82
  10   1  -9    9.99    0.84
  10   2   9    7.72    1.00
  10   2   9    7.53    1.22
  10   2  -9    7.18    1.16
  10   3   9    7.90    1.33
  10   3   9    5.99    1.23
  10   3  -9    6.23    0.98
  10   3  -9    6.62    1.12
  11   0   9    0.76    0.87
  11   0  -9    0.59    0.55
  11   1   9   12.76    1.05
  11   1   9   13.66    1.07
  11  -1   9   13.24    1.01
  11   1  -9   13.02    0.99
  11   2   9    7.56    1.16
  11   2   9    5.31    0.83
  11   2  -9    7.75    1.07
  11   3   9    5.34    1.20
  11   3   9    5.14    1.16
  11   3  -9    3.07    1.10
  11   3  -9    4.66    1.18
  12   0   9   16.08    1.10
  12   1   9   14.61    1.15
  12   1   9   14.50    1.21
  12   1  -9   14.36    1.18
  12   2   9   13.24    1.28
  12   2   9   14.46    1.36
  12   2  -9   11.41    1.23
  12   3   9    4.99    1.50
  12   3   9    5.47    1.44
  12   3  -9    2.88    1.46
  12   3  -9    3.03    1.28
  13   0   9    1.32    0.80
  13   1   9    0.97    0.77
  13   1   9    0.71    0.89
  13   1  -9    1.86    0.86
  13   2   9    7.45    1.37
  13   2   9    4.27    1.09
  13   2  -9    7.50    1.18
  13   2  -9    7.29    1.07
  14   0   9   27.18    1.58
  14   1   9   10.27    1.51
  14   1   9   10.08    1.77
  14   2   9    4.04    1.24
  14   2   9    5.46    1.28
  14   2  -9    3.23    1.08
  14   2  -9    4.85    1.06
  15   1   9    1.75    1.07
  15   1   9    1.12    1.04
  15   1  -9   -0.65    0.97
  15   2   9    1.15    1.40
  15   2  -9   -2.30    1.16
  16   0   9    3.15    1.30
  16   1   9    8.97    1.56
  16   1   9   10.19    1.68
  16   1  -9    9.73    1.48
   0   0  10  250.57    8.22
   0   0 -10  227.88    8.20
   0   0  10  241.96    8.20
   0   0 -10  251.01    8.24
   0   1  10   -0.35    0.33
   0   1  10    0.20    0.34
   0  -1 -10    0.24    0.33
   0  -1  10    0.44    0.34
   0  -1 -10   -0.32    0.36
   0   1 -10   -0.29    0.35
   0   1 -10   -0.44    0.44
   0   2  10   39.81    1.62
   0  -2  10   40.48    1.62
   0   3  10    0.52    0.76
   0   3 -10    0.30    0.71
   0   4 -10    0.38    1.02
   0   4  10    3.06    1.09
   1   0  10    0.45    0.34
   1   0  10   -0.04    0.32
  -1   0  10   -0.27    0.34
   1   0 -10    0.01    0.34
   1   0 -10   -0.37    0.31
  -1   0  10   -0.50    0.30
  -1   0 -10   -0.42    0.32
  -1   0 -10   -0.02    0.34
   1   1  10    1.05    0.38
   1  -1 -10    1.44    0.39
  -1   1 -10    0.21    0.35
  -1   1 -10    0.28    0.43
   1  -1 -10    0.95    0.35
   1   1  10    1.00    0.37
  -1  -1  10    1.22    0.36
   1   1 -10    1.05    0.38
  -1  -1 -10    0.96    0.61
   1  -1  10    1.04    0.39
  -1   1  10    1.33    0.38
  -1  -1 -10    0.79    0.38
   1   2  10   13.24    0.86
  -1  -2  10   12.52    0.82
   1   2  10   13.76    0.84
  -1   2  10   13.46    0.84
   1  -2  10   12.34    0.80
  -1   3 -10    9.46    1.01
   1   3 -10    7.88    0.97
  -1   3  10    7.31    1.06
  -1   4 -10    2.22    1.02
   1   4  10    1.76    1.07
  -1   4  10    0.80    1.07
   1   4 -10    1.40    1.10
  -2   0 -10  115.39    4.07
  -2   0 -10  107.44    3.93
   2   0  10  115.54    3.95
   2   0 -10  112.77    3.94
   2   0 -10  109.31    3.93
  -2   0  10  113.29    3.93
   2   0  10  116.36    3.94
  -2   1 -10   66.48    2.44
   2  -1 -10   61.67    2.41
   2  -1 -10   65.66    2.45
   2   1  10   67.18    2.46
   2   1  10   67.98    2.46
  -2  -1  10   66.59    2.45
  -2   1 -10   70.01    2.71
   2   1 -10   64.78    2.47
   2  -1  10   67.18    2.45
  -2  -1 -10   73.34    2.71
   2  -1  10   67.71    2.44
  -2   1  10   67.34    2.45
   2   2  10    2.06    0.53
  -2  -2  10    1.69    0.47
  -2   2  10    2.26    0.51
   2  -2  10    3.20    0.58
   2   3  10    6.16    1.00
  -2   3 -10    4.78    1.06
   2   3 -10    4.72    0.79
   2   3 -10    3.93    0.69
  -2   3  10    5.72    0.90
  -2   4 -10    5.34    1.09
   2   4  10    3.43    1.04
   2   4 -10    5.02    1.16
  -2   4  10    5.38    1.16
  -3   0 -10    0.41    0.34
   3   0 -10    0.30    0.35
   3   0  10    0.91    0.34
   3   0  10    0.55    0.35
  -3   0 -10    0.17    0.38
  -3   0  10    0.12    0.35
   3   0 -10   -0.13    0.35
   3  -1 -10   18.78    0.96
   3   1  10   20.52    0.96
   3   1  10   22.02    1.18
  -3  -1  10   19.26    0.94
  -3   1 -10   20.34    0.99
   3  -1 -10   18.20    0.89
  -3  -1 -10   20.31    1.07
  -3   1  10   19.66    0.95
   3  -1  10   19.04    0.93
   3   1 -10   20.25    1.15
   3  -1  10   19.60    0.96
  -3  -2  10    2.35    0.49
   3   2  10    2.71    0.53
   3   2  10    2.05    0.59
   3  -2  10    2.98    0.49
  -3   2  10    4.00    0.65
   3   3  10   12.75    1.08
   3   3 -10   10.47    1.05
  -3   3  10   10.09    0.95
   3   3 -10   10.22    0.98
   3   4  10    2.32    1.07
  -3   4 -10    3.67    1.06
   3   4 -10    2.46    1.14
  -3   4  10    1.79    1.02
  -4   0  10   13.63    0.72
   4   0  10   13.91    0.77
  -4   0 -10   11.29    0.83
   4   0  10   13.26    0.77
   4   0 -10   14.28    0.77
   4   0 -10   11.54    0.72
  -4   0 -10   12.42    0.76
   4   1  10   72.89    2.66
   4   1  10   72.96    2.66
   4  -1 -10   68.49    2.60
  -4  -1  10   72.74    2.64
  -4   1 -10   76.43    2.75
  -4   1  10   72.85    2.62
   4  -1  10   73.27    2.65
   4  -1  10   73.12    2.64
   4  -2 -10    4.96    0.58
   4   2  10    6.39    0.82
  -4  -2  10    6.24    0.70
   4   2  10    5.38    0.78
   4  -2  10    7.40    0.67
  -4   2  10    5.52    0.70
   4   2 -10    6.17    0.78
  -4   3 -10    7.01    1.00
   4   3  10    5.39    0.99
   4   3  10    4.80    0.79
   4  -3  10    4.30    0.81
   4   3 -10    4.87    0.85
   4   3 -10    5.47    0.73
  -4   3  10    4.82    0.85
   4   4  10   -0.51    1.13
  -4   4 -10    2.09    1.07
  -4   4  10   -0.09    0.95
   4   4 -10    0.78    1.15
   5   0  10    0.41    0.35
   5   0 -10   -0.09    0.40
   5   0 -10    0.17    0.39
   5   0  10   -0.25    0.46
  -5   0  10   -0.09    0.37
   5   1  10    3.43    0.52
  -5  -1  10    3.28    0.50
   5  -1 -10    2.43    0.41
   5   1  10    3.70    0.56
   5  -1  10    4.63    0.56
  -5   1  10    3.47    0.54
   5  -1  10    3.21    0.59
   5   2  10   20.93    1.20
   5  -2 -10   19.11    0.93
   5   2  10   18.82    1.09
  -5   2  10   19.49    1.02
   5  -2  10   19.79    1.03
   5   2 -10   21.73    1.13
   5   3  10    0.54    0.69
   5   3  10    0.81    0.76
  -5   3 -10    1.98    0.82
   5  -3  10    1.15    0.68
   5   3 -10    0.39    0.66
   5   3 -10    1.00    0.73
  -5   4 -10    8.82    1.49
   5   4  10    5.24    1.30
   5   4  10    5.64    1.16
   5   4 -10    5.14    1.08
   5   4 -10    3.88    1.32
  -6   0  10   12.99    0.75
   6   0  10   13.45    0.78
   6   0  10   13.68    0.83
   6   0 -10   13.80    0.79
   6  -1 -10   22.41    1.04
   6   1  10   25.86    1.18
   6   1  10   25.21    1.19
  -6  -1  10   25.91    1.13
   6  -1  10   24.72    1.16
  -6   1  10   24.65    1.10
   6  -1  10   25.18    1.16
   6   2  10   19.25    1.18
   6  -2 -10   18.27    0.93
   6   2 -10   23.21    1.35
   6  -2  10   20.71    1.05
  -6   3 -10    3.38    0.99
   6   3  10    1.56    0.77
   6   3  10    3.15    0.86
   6   3 -10    2.28    0.84
   6  -3  10    1.88    0.70
   6   3 -10    1.46    0.68
   6   4  10   -0.58    1.35
  -6   4 -10    1.32    1.18
   6   4  10    0.60    1.18
   6   4 -10   -0.19    1.18
   6   4 -10   -2.50    1.39
   7   0 -10   -0.05    0.44
   7   0  10    0.00    0.38
   7   0  10    0.31    0.47
  -7   0  10    0.15    0.39
   7   1  10   11.04    0.87
  -7  -1  10   11.41    0.80
   7   1  10   11.90    0.83
   7  -1 -10   10.51    0.67
   7  -1  10   12.59    0.81
  -7   1  10   11.17    0.71
   7   2  10    9.69    0.93
   7   2  10   11.40    1.33
   7  -2  10   11.79    0.87
   7   2 -10   11.13    1.23
   7   3  10   11.04    1.19
   7   3  10    7.11    0.92
   7   3 -10    6.53    1.08
   7  -3  10    8.66    1.17
   7   3 -10    9.40    1.15
   8   0 -10   63.37    2.49
   8   0  10   71.57    2.54
   8   0  10   69.03    2.58
  -8   0  10   68.20    2.48
   8   1  10    2.43    0.56
  -8  -1  10    2.00    0.52
   8   1  10    2.65    0.60
   8  -1  10    2.12    0.55
   8   1 -10    3.14    0.56
   8   2  10    6.31    0.99
   8   2  10    3.90    0.87
   8  -2  10    4.56    0.65
   8   2 -10    4.27    0.74
   8   3  10    0.91    0.84
   8   3  10    1.27    0.97
  -8   3 -10    2.22    0.95
   8   3 -10   -0.84    0.96
   8  -3  10    2.27    0.77
   8   3 -10    0.64    0.80
  -9   0  10    0.34    0.43
   9   0  10    0.09    0.51
   9   0  10    0.23    0.55
   9   1  10   17.21    1.36
   9   1  10   22.20    1.18
   9   1 -10   20.12    1.09
   9  -1  10   20.84    1.09
   9   2  10   11.98    1.18
   9   2  10   11.99    1.08
   9  -2  10   13.44    1.08
   9   2 -10   11.82    1.06
   9   3  10    5.69    1.01
   9   3  10    7.28    1.19
   9   3 -10    6.35    1.11
   9   3 -10    6.21    0.97
  10   0  10   19.57    1.11
 -10   0  10   18.65    0.96
  10   1  10    3.92    0.65
  10  -1  10    5.57    0.85
  10   1 -10    5.71    0.86
  10   2  10    6.44    0.97
  10   2  10    5.04    0.85
  10   2 -10    6.45    0.91
  10  -2  10    6.67    1.02
  10   3  10    2.69    1.22
  10   3  10    0.68    1.07
  10   3 -10    2.72    1.11
  10   3 -10    0.38    1.01
  11   0  10   -0.57    0.67
  11   0 -10    1.33    0.66
  11   1  10   18.32    1.20
  11   1  10   16.63    1.21
  11  -1  10   16.60    1.34
  11   1 -10   17.70    1.18
  11   2  10   13.52    1.29
  11   2  10   15.18    1.40
  11   2 -10   15.08    1.25
  11   3  10   -1.00    1.37
  11   3  10    0.05    1.36
  11   3 -10    0.87    1.25
  11   3 -10    1.52    1.23
  12   0  10    6.73    1.07
  12   0 -10    7.94    0.92
  12   1  10   13.54    1.17
  12   1  10   13.66    1.19
  12   1 -10   11.06    1.36
  12  -1  10   10.97    1.12
  12   2  10    3.19    1.12
  12   2  10    1.54    0.98
  12   2 -10    1.92    0.97
  13   0  10   -0.28    1.51
  13   1  10    2.79    0.90
  13   1  10    3.51    1.34
  13  -1  10    3.12    0.88
  13   1 -10    2.46    1.08
  13   2  10    7.77    1.30
  13   2  10    4.81    1.15
  13   2 -10    5.00    1.38
  14   0  10    3.02    1.06
  14   1  10   17.87    1.52
  14   1  10   16.91    1.49
  14   1 -10   17.78    1.45
  14   2  10    5.34    1.47
  14   2  10    7.19    1.52
  14   2 -10    5.72    1.30
  14   2 -10    4.68    1.20
  15   0  10    0.70    1.13
  15   1  10   -1.70    1.19
  15   1  10    1.59    1.18
  15   1 -10   -0.11    1.89
  16   0  10   25.57    2.36
   0   0  11    0.00    0.39
   0   0  11    0.50    0.35
   0   1  11   71.41    2.61
   0  -1  11   70.46    2.59
   0   1  11   70.66    2.65
   0  -2  11    1.00    0.50
   0   2  11    0.64    0.51
   0   3  11   22.05    1.40
   0   3 -11   25.79    1.42
   0   4  11    1.51    1.17
   0   4 -11    0.37    1.16
  -1   0  11   -0.15    0.36
   1   0  11    0.68    0.36
   1   0 -11   -0.38    0.41
  -1   0 -11    0.18    0.44
   1   0  11    0.11    0.42
   1   1  11   30.51    1.31
   1   1  11   30.51    1.30
  -1  -1  11   29.86    1.29
   1  -1  11   28.50    1.29
  -1   1  11   30.66    1.31
  -1  -2  11    4.27    0.70
   1   2  11    4.36    0.74
   1  -2  11    4.98    0.70
  -1   2  11    5.41    0.75
   1   3  11    6.00    0.93
  -1   3 -11    8.72    1.08
   1   3 -11    6.59    1.04
  -1   3  11    5.83    1.15
  -1   4 -11    1.65    1.11
   1   4  11    2.64    1.19
  -1   4  11    3.08    1.15
   1   4 -11    3.09    1.21
  -2   0  11   38.28    1.56
   2   0  11   39.93    1.58
  -2   0 -11   39.90    1.68
   2   0  11   40.15    1.60
   2   1  11   65.59    2.44
   2   1  11   66.53    2.44
  -2  -1  11   63.98    2.42
  -2   1  11   67.47    2.44
   2  -1  11   64.49    2.43
  -2  -2  11   22.71    1.15
   2   2  11   21.72    1.19
   2   2  11   22.63    1.19
  -2   2  11   22.36    1.15
   2  -2  11   22.98    1.14
   2   3  11    2.79    0.85
  -2   3 -11    3.42    0.85
   2  -3  11    1.27    0.69
  -2   3  11    1.84    0.72
   2   3 -11    1.69    0.75
  -2   4 -11    3.74    1.12
   2   4 -11    3.44    1.30
  -2   4  11    3.78    0.95
   3   0  11    0.13    0.37
   3   0  11    0.19    0.44
  -3   0  11   -0.16    0.38
  -3   0 -11   -0.11    0.49
   3   1  11   38.18    1.57
  -3  -1  11   36.97    1.54
   3   1  11   37.65    1.56
   3  -1  11   37.19    1.54
  -3   1  11   38.29    1.56
   3  -1  11   38.19    1.55
  -3  -2  11    8.15    1.14
   3   2  11    7.89    0.94
   3   2  11    9.52    0.87
  -3   2  11    7.25    0.80
   3  -2  11    8.25    0.78
  -3   3 -11   11.55    1.18
   3   3  11   11.29    1.18
  -3   3  11    8.33    0.98
   3  -3  11    8.78    1.01
   3   3 -11    9.25    1.08
   3   4  11    4.37    1.33
  -3   4 -11    1.66    1.11
   3   4 -11    1.79    1.36
  -3   4  11    1.96    1.02
   4   0  11  158.95    5.38
  -4   0  11  152.45    5.34
   4   0  11  153.78    5.37
  -4  -1  11    4.31    0.63
   4  -1 -11    4.70    0.63
   4   1  11    5.86    0.69
   4   1  11    5.09    0.67
   4  -1  11    6.22    0.61
   4  -1  11    6.84    0.65
  -4   1  11    6.11    0.63
   4   2  11    5.11    1.13
  -4   2  11    6.09    0.77
   4  -2  11    5.62    0.74
  -4   3 -11    1.53    0.86
   4   3  11    1.48    0.87
   4   3 -11    1.94    0.78
   4  -3  11    0.60    0.66
  -4   3  11    1.74    0.73
  -4   4 -11    3.49    1.18
   4   4  11    0.09    1.11
   4   4  11    2.92    1.37
   4   4 -11    2.44    1.41
  -4   4  11    3.18    1.20
  -5   0  11    0.32    0.54
   5   0  11   -0.02    0.40
   5   0  11   -0.07    0.44
   5   1  11    3.10    0.55
   5  -1 -11    3.23    0.55
   5   1  11    3.70    0.69
  -5  -1  11    4.00    0.54
   5  -1  11    4.18    0.64
   5  -1  11    3.64    0.64
  -5   1  11    3.27    0.62
   5   2  11    1.61    0.69
   5   2  11    3.01    0.61
  -5  -2  11    3.06    0.62
   5  -2  11    3.23    0.60
  -5   2  11    2.72    0.56
   5   2 -11    3.08    0.74
   5   3  11    1.05    0.89
   5   3  11    2.14    0.80
   5  -3  11    0.32    0.69
   5   3 -11    1.14    0.80
   5   3 -11    0.83    0.69
  -5   3  11    0.38    0.74
  -6   0  11    3.97    0.60
   6   0  11    3.83    0.64
   6   0  11    4.41    0.58
   6   1  11   19.58    1.16
  -6  -1  11   20.28    1.04
   6   1  11   20.39    1.11
   6  -1 -11   19.40    1.03
  -6   1  11   19.79    1.01
   6  -1  11   21.67    1.07
   6  -1  11   21.59    1.08
   6   2  11   11.21    1.08
   6   2  11   11.45    0.99
   6   2 -11   12.18    0.98
  -6   2  11   11.43    0.86
   6  -2  11   12.07    0.90
   6   3  11    2.48    0.84
   6   3  11    1.58    1.00
   6   3 -11    2.08    0.77
   6   3 -11    0.96    0.87
   6  -3  11    1.62    0.73
   7   0  11   -0.18    0.50
   7   0  11    0.34    0.46
  -7   0  11    0.34    0.46
   7   1  11    5.28    0.71
  -7  -1  11    4.61    0.71
   7  -1 -11    5.55    0.63
  -7   1  11    4.16    0.63
   7  -1  11    4.37    0.75
   7  -1  11    4.71    0.75
   7   2  11   11.10    1.11
   7   2 -11   12.02    1.03
   7  -2  11   12.47    0.97
   7   3  11    3.67    1.07
   7   3  11    2.23    0.87
   7   3 -11    3.95    0.88
   7   3 -11    2.75    1.01
   7  -3  11    1.51    0.77
   8   0  11   21.18    1.14
   8   0  11   21.94    1.16
  -8   0  11   21.12    1.06
   8  -1 -11    8.07    0.79
   8   1  11    9.79    1.14
  -8  -1  11   10.46    0.86
   8   1  11   10.25    0.92
   8  -1  11   10.73    0.85
   8  -1  11    9.36    0.87
  -8   1  11    9.38    0.72
   8   2  11    0.37    0.82
   8   2  11    0.14    0.64
   8  -2  11    0.57    0.90
   8   2 -11    1.14    0.76
   8   3  11   14.23    1.54
   8   3  11   12.20    1.37
   8   3 -11   16.62    1.48
   8  -3  11   10.91    1.23
   8   3 -11   14.68    1.31
   9   0  11    0.40    0.65
  -9   0  11    0.27    0.48
   9   1  11    4.05    0.66
   9   1  11    4.71    0.81
   9  -1  11    4.74    0.83
   9   1 -11    4.33    0.88
   9   2  11    2.62    0.91
   9   2  11    1.36    0.74
   9   2 -11    2.24    0.86
   9  -2  11    2.21    0.74
   9   3  11    2.37    1.23
   9   3  11    0.71    1.11
   9   3 -11    1.26    1.15
   9   3 -11   -0.67    1.00
 -10   0  11    3.28    0.57
  10   0  11    2.30    0.82
  10   1  11   24.09    1.33
  10   1  11   24.90    1.40
  10  -1  11   23.76    1.52
  10   1 -11   23.04    1.42
  10   2  11    7.37    1.16
  10   2  11    7.25    1.26
  10   2 -11    6.98    1.13
  10  -2  11    7.43    0.94
  10   3  11    1.99    1.32
  10   3  11    2.98    1.43
  10   3 -11    2.38    1.30
  10   3 -11    1.91    1.23
  11   0  11   -0.34    0.66
  11   0  11    1.34    1.13
  11   0 -11   -0.43    0.83
  11   1  11    0.21    0.72
  11   1  11    1.16    0.95
  11   1 -11    0.07    1.09
  11  -1  11    0.42    0.79
  11   2  11   -0.63    1.07
  11   2  11    0.53    0.96
  11   2 -11    1.75    1.00
  12   0  11   47.88    2.14
  12   0  11   42.61    2.15
  12   0 -11   53.07    2.22
  12   1  11    3.42    0.92
  12   1  11    1.26    0.82
  12   1 -11    3.09    0.90
  12  -1  11    2.97    0.89
  12   2  11    5.99    1.12
  12   2  11    7.48    1.37
  12   2 -11    8.29    1.25
  13   0  11   -0.11    0.93
  13   1  11    1.28    0.92
  13   1  11    1.75    1.07
  13   1 -11    2.08    0.99
  13  -1  11    1.40    1.07
  13   2  11    5.57    1.42
  13   2  11    3.28    1.28
  13   2 -11    4.60    1.22
  14   0  11   12.04    1.55
  14   1  11    7.23    1.19
  14   1  11    5.47    1.13
  14   1 -11    6.66    1.25
  15   0  11   -0.15    1.83
  15   1  11    6.18    1.47
  15   1  11    2.70    1.23
  15   1 -11    5.07    1.24
   0   0  12   11.38    0.77
   0   0  12   11.42    0.78
   0   1  12    0.07    0.51
   0  -1  12   -0.07    0.42
   0   1  12   -0.26    0.46
   0   2  12   50.07    2.05
   0   3 -12    1.63    0.85
   0   3  12    2.85    0.86
   1   0  12    0.66    0.40
  -1   0  12   -0.03    0.44
  -1  -1  12   36.51    1.53
   1   1  12   35.94    1.56
   1   1  12   36.91    1.54
  -1   1  12   37.10    1.55
   1  -1  12   36.26    1.54
   1   2  12   47.82    1.99
   1   2  12   48.06    1.99
  -1  -2  12   47.60    2.24
  -1   2  12   48.99    2.00
   1   3  12    5.19    0.83
  -1   3 -12    7.24    1.15
  -1   3  12    5.05    0.80
   1  -3  12    5.77    1.05
   1   3 -12    6.45    1.12
   2   0  12  108.51    3.88
   2   0  12  113.36    4.15
  -2   0  12  106.51    3.86
   2   1  12   11.37    0.83
   2   1  12   11.98    0.86
  -2  -1  12   11.57    0.81
   2  -1  12   11.59    0.82
  -2   1  12   10.68    0.83
  -2  -2  12   12.97    0.91
   2   2  12   10.68    0.97
  -2   2  12   11.22    0.98
   2  -2  12   11.90    1.09
   2   3  12    9.47    1.16
  -2   3 -12    8.57    1.18
   2   3 -12    6.76    1.11
   2  -3  12    6.29    0.99
  -2   3  12    5.56    1.13
   3   0  12    0.67    0.49
  -3   0  12    0.11    0.48
   3   0  12    0.17    0.43
   3   1  12   39.20    1.65
  -3  -1  12   40.40    1.63
   3   1  12   38.22    1.64
   3  -1  12   37.36    1.62
   3  -1  12   39.46    1.62
  -3   1  12   38.28    1.62
  -3  -2  12    1.34    0.55
   3   2  12    1.10    0.68
   3   2  12    1.65    0.64
  -3   2  12    1.16    0.61
   3  -2  12    1.85    0.62
  -3   3 -12    2.21    0.97
   3   3  12    2.54    0.93
  -3   3  12    1.45    0.86
   3  -3  12    2.35    0.76
   3   3 -12    2.15    0.85
   4   0  12    9.15    0.80
   4   0  12    7.06    0.78
  -4   0  12    9.56    0.73
  -4  -1  12   41.48    1.76
   4   1  12   45.74    2.07
   4   1  12   41.82    1.80
  -4   1  12   43.98    1.75
   4  -1  12   44.29    1.77
   4  -1  12   41.37    1.75
  -4  -2  12    5.59    0.69
   4   2  12    4.75    0.82
   4   2  12    5.04    0.89
   4  -2  12    4.28    0.80
  -4   2  12    5.99    0.88
   4   3  12    3.64    1.00
   4   3  12    2.15    0.81
   4  -3  12    2.33    0.81
   4   3 -12    2.66    0.88
  -5   0  12    0.80    0.50
   5   0  12    1.25    0.55
   5   0  12    0.01    0.48
   5   1  12   20.57    1.15
  -5  -1  12   18.52    1.12
   5  -1  12   23.21    1.12
  -5   1  12   20.76    1.08
   5  -1  12   20.57    1.11
   5   2  12    2.67    0.71
  -5  -2  12    1.35    0.58
   5   2  12    1.14    0.63
   5  -2  12    1.71    0.67
  -5   2  12    1.37    0.62
   5   2 -12    1.59    0.70
   5   3  12    1.94    1.01
   5   3  12    3.09    0.87
   5  -3  12    1.03    1.21
   5   3 -12    3.69    0.93
  -5   3  12    2.77    0.86
   6   0  12   31.36    1.49
  -6   0  12   32.20    1.41
   6   0  12   34.41    1.50
   6   1  12   14.79    1.00
  -6  -1  12   14.98    0.99
  -6   1  12   14.60    0.94
   6  -1  12   16.38    1.00
   6  -1  12   15.46    1.51
  -6  -2  12    7.89    0.93
   6   2  12    5.85    0.96
   6   2 -12    5.85    0.95
  -6   2  12    6.46    0.83
   6  -2  12    4.87    0.92
   6   3  12   12.48    1.43
   6   3  12   10.57    1.25
   6  -3  12   12.38    1.19
   6   3 -12   11.08    1.33
  -7   0  12    0.05    0.52
   7   0  12   -0.53    0.61
   7   1  12    9.96    1.04
   7   1  12    9.30    0.89
  -7  -1  12    9.17    0.86
   7  -1  12    9.03    0.91
  -7   1  12    7.42    0.79
   7   2  12   11.48    1.10
   7   2  12   12.07    1.21
   7  -2  12   13.20    1.34
   7   2 -12   12.26    1.12
   7   3  12    4.61    1.19
   7   3  12    0.62    1.01
   7   3 -12    0.01    1.05
   7  -3  12    1.92    0.93
   7   3 -12    0.10    0.90
   8   0  12   23.13    1.28
   8   0  12   22.24    1.22
  -8   0  12   22.11    1.15
   8   1  12    5.86    0.92
   8   1  12    7.41    0.91
   8  -1  12    6.99    1.12
  -8   1  12    4.89    0.72
   8  -1  12    5.49    0.93
   8   2  12   25.25    1.54
   8   2  12   22.52    1.43
   8   2 -12   26.25    1.46
   8   3  12    3.37    1.27
   8   3  12    0.52    1.11
   8  -3  12    0.70    1.45
   8   3 -12    2.64    1.03
   8   3 -12    0.50    1.12
   9   0  12    0.49    0.59
  -9   0  12    0.21    0.54
   9   1  12    2.78    0.71
  -9  -1  12    1.62    0.67
   9   1  12    2.87    0.80
   9  -1  12    1.63    0.73
  -9   1  12    1.31    0.57
   9   1 -12    2.15    0.84
   9   2  12    1.58    0.85
   9   2  12    3.33    0.94
   9   2 -12    2.42    0.90
   9   3  12    3.28    1.34
   9   3  12    5.40    1.58
   9  -3  12    4.32    1.04
   9   3 -12    2.87    1.37
   9   3 -12    4.41    1.27
  10   0  12   33.91    1.67
 -10   0  12   38.37    1.58
  10   0  12   37.66    1.77
  10   1  12   16.30    1.25
  10   1  12   15.78    1.29
  10   1 -12   18.49    1.24
  10  -1  12   18.93    1.80
  10   2  12    2.89    1.07
  10   2  12    3.06    0.97
  10   2 -12    3.76    1.14
  10  -2  12    2.53    1.05
 -11   0  12   -0.18    0.64
  11   0  12   -0.74    0.88
  11   0 -12    0.20    0.85
  11   1  12   -0.03    0.91
  11   1  12   -1.05    0.79
  11  -1  12    1.16    1.07
  11   1 -12    1.04    0.91
  11   2  12    1.15    1.04
  11   2  12    0.89    1.22
  11  -2  12    0.26    1.41
  11   2 -12    1.21    1.04
  12   0  12    5.57    1.15
  12   0 -12    5.82    1.24
  12   1  12   12.84    1.43
  12   1  12   13.04    1.42
  12  -1  12   14.57    1.35
  12   1 -12   14.82    1.83
  12   2  12    0.54    1.21
  12   2  12    1.65    1.32
  12  -2  12   -1.47    1.49
  12   2 -12    0.16    1.28
  13   0  12   -1.30    1.04
  13   1  12   -0.26    1.06
  13   1  12    3.73    1.18
  13   1 -12   -0.50    1.23
  13  -1  12    0.77    1.04
  14   0  12    4.08    1.25
  14   1  12    2.73    1.28
  14   1  12    3.93    1.32
  14   1 -12    2.97    1.29
   0   0  13   -0.58    0.49
   0   0  13   -0.13    0.52
   0   1  13    5.82    0.85
   0   1  13    6.64    0.82
   0  -1  13    6.45    0.76
   0  -2  13    0.09    0.56
   0   2  13    1.82    0.73
   0  -3  13   37.40    1.89
   0   3 -13   41.63    1.93
   0   3  13   34.59    1.78
   1   0  13   -0.19    0.48
  -1   0  13   -0.98    0.49
   1   1  13   10.15    1.23
   1   1  13   12.21    0.94
  -1  -1  13   11.57    0.85
  -1   1  13    9.14    0.89
   1  -1  13   10.08    0.89
  -1   1  13    9.98    0.87
  -1  -2  13   12.16    1.00
   1   2  13   12.39    1.04
   1  -2  13   13.47    0.97
   1   3  13    0.90    0.82
  -1   3 -13    1.91    0.93
   1  -3  13    0.64    0.79
   1   3 -13    1.15    0.87
  -1   3  13    2.34    0.84
  -2   0  13   28.48    1.31
   2   0  13   29.36    1.43
   2   0  13   26.41    1.37
  -2  -1  13   35.99    1.62
   2   1  13   32.27    1.52
   2   1  13   32.33    1.49
   2  -1  13   32.97    1.50
  -2   1  13   31.85    1.50
   2   2  13   12.87    1.06
   2   2  13   11.93    1.07
  -2  -2  13   13.21    1.00
  -2   2  13   12.64    1.11
   2  -2  13   14.89    1.02
  -2   3 -13    0.47    0.94
   2   3  13    1.05    0.86
   2   3 -13    1.35    0.91
  -2   3  13    1.81    0.84
   2  -3  13   -0.03    0.80
   3   0  13    1.29    0.52
   3   0  13    0.79    0.56
  -3   0  13    0.41    0.54
  -3  -1  13    1.35    0.58
   3   1  13    1.52    0.80
   3  -1  13    1.60    0.58
  -3   1  13    0.59    0.57
   3  -1  13    1.92    0.73
  -3  -2  13    4.53    0.77
   3   2  13    5.25    0.94
   3   2  13    3.03    0.68
  -3   2  13    4.05    0.78
   3  -2  13    5.06    0.74
   3   3  13    1.32    0.87
   3   3  13    3.66    0.93
   3  -3  13    3.11    0.83
   3   3 -13    5.21    0.98
  -3   3  13    3.50    0.90
   4   0  13  187.59    6.43
  -4   0  13  182.50    6.39
   4   1  13    5.38    0.80
   4   1  13    5.39    1.05
  -4   1  13    6.63    0.81
   4  -1  13    5.22    0.81
   4  -1  13    4.78    0.78
   4   2  13    7.19    1.01
   4   2  13    6.62    0.94
  -4  -2  13    6.04    0.86
   4  -2  13    7.30    0.93
  -4   2  13    8.36    1.01
   4   3  13    2.07    0.86
   4   3  13    1.38    1.01
  -4   3  13    1.50    0.93
   4  -3  13    1.14    0.81
   4   3 -13    1.22    0.94
   5   0  13    0.24    0.55
   5   0  13    0.59    0.65
  -5   0  13    0.24    0.58
   5   1  13    8.79    1.21
   5   1  13    7.77    0.88
   5  -1  13    7.69    0.82
   5  -1  13    7.72    1.11
  -5   1  13   10.46    0.85
  -5  -2  13    0.92    0.61
   5   2  13    0.22    0.77
   5   2  13    1.75    0.66
   5  -2  13   -0.07    0.65
  -5   2  13    0.69    0.66
   5   3  13    0.75    0.89
   5   3  13    1.45    1.14
   5  -3  13    0.97    0.79
  -5   3  13    2.30    1.55
   5   3 -13    2.19    1.02
   6   0  13    4.08    0.65
  -6   0  13    4.48    0.79
   6   1  13   46.77    2.04
   6   1  13   48.40    2.03
  -6  -1  13   48.70    1.99
   6  -1  13   48.60    1.98
  -6   1  13   46.35    1.93
   6   2  13   40.83    1.91
   6   2  13   36.35    1.76
  -6  -2  13   40.07    1.78
  -6   2  13   38.05    1.73
   6   2 -13   41.83    1.86
   6  -2  13   38.79    1.79
   6   3  13    1.99    1.17
   6   3  13    0.36    1.00
   6  -3  13    0.41    0.81
   6   3 -13   -0.23    1.05
   7   0  13    0.15    0.72
  -7   0  13   -0.44    0.61
   7   0  13   -0.02    0.57
   7   1  13    1.69    0.67
  -7  -1  13    1.95    0.59
   7   1  13    2.80    0.76
  -7   1  13    1.79    0.64
   7  -1  13    1.72    0.94
   7  -1  13    1.12    0.63
   7   2  13    6.55    1.03
   7   2  13    6.59    1.13
   7  -2  13    6.71    1.05
  -7   2  13    6.75    1.01
   7   2 -13    6.50    1.10
   7   3  13    1.94    1.35
   7   3  13    1.88    1.22
   7   3 -13    0.08    1.15
   7  -3  13    0.72    0.88
   8   0  13    0.23    0.80
   8   0  13   -0.21    0.57
  -8   0  13   -0.13    0.63
   8   1  13   14.91    1.14
  -8  -1  13   15.49    1.06
   8   1  13   17.34    1.21
   8  -1  13   14.70    1.16
  -8   1  13   13.75    1.01
   8  -1  13   14.75    1.13
   8   2  13    3.30    1.01
   8  -2  13    2.35    0.87
   8   2 -13    3.45    0.96
   8   3  13    6.14    1.70
   8   3  13    8.29    1.47
   8  -3  13    6.38    1.04
   8   3 -13    8.36    1.46
   9   0  13   -0.38    0.80
  -9   0  13    0.16    0.62
   9   0  13   -0.29    0.65
   9   1  13    1.90    0.88
   9   1  13    1.99    0.75
  -9  -1  13    0.67    0.76
  -9   1  13    1.35    0.67
   9  -1  13    1.72    0.70
   9   1 -13    0.45    0.84
   9  -1  13    1.60    0.80
   9   2  13    0.20    0.92
   9   2  13    0.05    1.05
   9   2 -13    0.37    0.97
   9  -2  13    0.64    0.84
  10   0  13    9.60    1.22
 -10   0  13    7.84    0.94
  10   0  13    7.45    1.08
  10   1  13    2.47    0.85
  10   1  13    2.64    0.99
  10  -1  13    3.39    0.92
 -10   1  13    2.55    0.74
  10  -1  13    2.51    0.80
  10   1 -13    4.11    1.02
  10   2  13   -0.40    1.19
  10   2  13   -0.08    1.08
  10  -2  13   -1.72    1.18
  10   2 -13    0.31    1.06
  11   0  13    0.02    1.10
  11   0  13    0.32    0.80
  11   1  13   -1.25    0.93
  11   1  13   -0.50    1.24
  11   1 -13    0.04    0.98
  11  -1  13    0.69    0.93
  11   2  13    0.01    1.26
  11   2  13    2.34    1.36
  11   2 -13    0.18    1.15
  11  -2  13   -1.78    1.32
  12   0  13    1.11    0.87
  12   0 -13    0.92    1.24
  12   0  13    3.07    1.09
  12   1  13    1.49    1.11
  12   1  13    3.32    1.14
  12  -1  13    1.34    1.21
  12   1 -13    2.39    1.13
  13   0  13   -1.12    1.15
  13   1  13    3.72    1.31
  13   1  13    1.71    1.28
  13   1 -13    1.59    1.24
  13  -1  13    3.85    2.06
   0  -1  14   -0.06    0.56
   0   1  14   -0.56    1.00
   0  -2  14   25.74    1.38
   0   2  14   22.73    1.41
   0   3 -14    0.87    1.09
   0  -3  14    0.52    0.90
   0   3  14    1.37    0.91
  -1   0  14    0.27    0.71
   1   0  14    0.84    0.68
   1   1  14    8.58    1.07
  -1  -1  14    9.43    0.88
   1   1  14    9.96    0.93
   1  -1  14    9.13    0.91
   1   2  14    9.80    1.10
  -1  -2  14   10.01    1.01
  -1   2  14    9.21    1.10
   1  -2  14   10.16    1.01
   1   3  14    3.81    1.00
  -1  -3  14    2.70    0.97
  -1   3 -14    2.46    1.16
   1  -3  14    2.70    0.90
  -1   3  14    3.25    0.99
   1   3 -14    4.07    1.10
   2   0  14   18.14    1.47
  -2   0  14   19.27    1.29
   2   0  14   20.80    1.17
   2   1  14   23.81    1.34
  -2  -1  14   25.41    1.26
   2   1  14   22.88    1.27
  -2   1  14   21.61    1.61
   2  -1  14   24.76    1.28
   2   2  14    5.64    0.84
  -2  -2  14    5.91    0.94
  -2   2  14    5.19    0.85
   2  -2  14    4.94    0.76
   2   3  14    1.85    0.99
   2   3  14    3.12    0.92
   2  -3  14    2.36    0.86
  -2   3  14    4.15    0.98
  -3   0  14    0.93    0.79
   3   0  14    0.24    0.62
   3   0  14   -0.20    0.54
  -3  -1  14    8.51    0.86
   3   1  14    4.95    0.88
   3   1  14    9.33    0.96
   3  -1  14    6.94    0.87
  -3   1  14    6.57    0.90
   3   2  14    0.75    0.71
   3   2  14    0.43    0.77
  -3  -2  14    0.74    0.67
  -3   2  14   -0.06    0.75
   3  -2  14    0.89    0.72
   3   3  14    1.43    0.93
   3   3  14   -0.14    1.07
   3  -3  14   -0.97    0.80
  -3   3  14    0.23    0.98
   3   3 -14    0.77    1.07
   4   0  14    3.68    0.66
  -4   0  14    4.43    1.11
   4   0  14    3.34    0.76
   4   1  14   15.97    1.11
  -4  -1  14   15.69    1.06
   4   1  14   17.04    1.20
   4  -1  14   17.47    1.12
   4  -1  14   16.87    1.11
  -4   1  14   15.41    1.10
   4   2  14    0.01    0.72
  -4  -2  14   -0.20    0.61
   4   2  14   -1.01    0.81
  -4   2  14    1.46    0.87
   4  -2  14    0.23    0.70
   4   3  14    2.21    1.13
   4   3  14    2.72    1.03
   4  -3  14    2.62    0.98
   4   3 -14    4.60    1.17
  -4   3  14    3.84    1.03
   5   0  14    0.14    0.60
   5   0  14    0.54    0.66
   5   1  14    5.90    0.95
   5   1  14    5.91    1.04
  -5  -1  14    5.42    0.88
  -5   1  14    6.12    0.92
   5  -1  14    6.63    0.88
   5  -1  14    6.98    0.94
   5   2  14    0.24    0.73
   5   2  14    0.06    0.86
  -5  -2  14    0.89    0.66
   5  -2  14   -0.40    0.71
   5   3  14    1.68    1.07
   5   3  14   -0.20    1.22
   5  -3  14    1.07    0.90
  -5   3  14   -1.41    1.03
   5   3 -14   -0.13    1.20
   6   0  14    9.85    1.05
   6   0  14    9.22    0.99
   6   1  14    8.03    1.11
  -6  -1  14    6.97    0.93
   6   1  14    8.94    0.97
  -6   1  14    7.03    0.94
   6  -1  14    8.28    0.93
   6  -1  14   10.11    1.42
   6   2  14    3.48    0.83
   6   2  14    2.07    0.96
  -6  -2  14    4.38    0.76
   6  -2  14    3.81    0.86
   6   2 -14    4.35    0.99
   6   3  14    1.25    1.15
   6   3  14    1.33    1.38
   6   3 -14    1.80    1.33
   6  -3  14    1.88    0.94
  -6   3  14    2.61    1.18
   7   0  14   -0.48    0.78
   7   0  14   -1.03    0.61
  -7   0  14   -0.23    0.79
   7   1  14    7.19    1.02
   7   1  14    7.91    1.14
  -7  -1  14    7.95    0.93
  -7   1  14    6.63    0.97
   7  -1  14    7.88    1.04
   7  -1  14    7.25    1.01
   7   2  14    2.40    0.86
   7   2  14    4.55    1.09
   7   2 -14    5.32    1.01
   7  -2  14    3.90    0.90
  -7   2  14    3.42    1.01
  -8   0  14   14.01    1.05
   8   0  14   13.63    1.18
   8   0  14   18.35    1.29
   8   1  14    0.98    0.76
  -8  -1  14    0.90    0.67
   8   1  14   -0.20    0.89
   8  -1  14    0.15    0.72
   8  -1  14    0.41    1.10
   8   2  14    5.39    1.20
   8   2  14    4.27    0.97
   8  -2  14    6.62    1.23
   8   2 -14    5.70    1.12
   9   0  14    0.07    0.74
  -9   0  14   -0.89    0.88
   9   0  14    2.03    0.92
   9   1  14   -1.80    0.96
   9   1  14    0.86    1.09
  -9  -1  14    0.17    0.72
   9  -1  14    0.44    0.84
   9  -1  14   -0.86    0.86
  -9   1  14    0.22    0.79
   9   1 -14   -0.16    0.95
   9   2  14    1.27    1.19
   9   2  14    2.25    1.09
   9  -2  14   -0.91    0.96
   9   2 -14    0.62    1.12
  10   0  14    4.65    0.90
 -10   0  14    5.06    0.79
  10   0  14    7.39    1.31
  10   1  14    3.15    0.97
  10   1  14    0.75    1.09
 -10   1  14    3.50    0.86
  10   1 -14    3.98    1.10
  10  -1  14    3.41    0.94
  10  -1  14    2.71    0.89
  10   2  14    6.84    1.48
  10   2  14    8.36    1.46
  10   2 -14    7.55    1.34
  10  -2  14    6.43    1.10
  11   0  14    0.41    1.16
  11   0  14    1.23    0.90
 -11   0  14   -0.96    0.80
  11   1  14    2.83    1.21
  11   1  14    1.81    1.05
  11  -1  14    0.46    1.00
  11   1 -14    3.18    1.12
  12   0 -14   -0.83    2.06
  12   0  14    4.12    1.21
  12   0  14   -0.30    1.01
  12   1  14    6.55    1.33
  12   1  14    6.58    1.37
  12  -1  14    7.85    1.22
  13   0  14    1.11    1.53
  13   0  14    0.07    1.13
  13   0 -14    0.71    1.36
   0   0  15   -0.01    0.65
   0   1  15   44.92    1.96
   0  -1  15   47.11    2.08
   0   1  15   43.07    1.94
   0  -2  15    0.27    0.70
   0   2  15   -0.04    0.86
   0  -3  15    3.03    1.05
   0   3 -15    3.63    1.31
   0   3  15    4.51    1.11
  -1   0  15    0.48    0.66
   1   0  15    0.32    0.63
   1   0  15    1.17    0.69
  -1  -1  15    3.90    0.81
   1   1  15    3.19    0.71
   1   1  15    3.99    0.80
  -1   1  15    3.27    0.73
   1  -1  15    3.75    0.76
   1   2  15   -0.84    0.86
  -1  -2  15   -0.40    0.68
   1  -2  15    0.65    0.71
  -1   2  15   -0.77    0.83
   1   3  15   -0.16    1.12
  -1   3 -15   -0.34    1.29
  -1  -3  15    0.46    1.09
   1  -3  15    0.64    0.97
  -1   3  15   -0.44    1.06
   1   3 -15   -0.03    1.27
   2   0  15   28.93    1.50
   2   0  15   30.15    1.48
  -2   0  15   29.58    1.46
   2   1  15   13.68    1.13
   2   1  15   13.37    1.16
  -2  -1  15   12.93    1.21
  -2   1  15   12.95    1.07
   2  -1  15   15.96    1.10
   2   2  15    6.02    1.13
  -2  -2  15    7.12    1.05
  -2   2  15    5.36    0.95
   2  -2  15    8.52    0.93
   2   3  15    3.80    1.20
   2   3  15   -0.43    1.00
  -2   3  15    0.99    1.12
   2  -3  15   -0.60    0.97
   2   3 -15    1.29    1.24
   3   0  15   -0.31    0.70
   3   0  15    1.00    0.76
  -3   0  15    0.18    0.65
   3   1  15    1.99    1.01
   3   1  15    0.85    0.65
  -3  -1  15    2.13    0.67
   3  -1  15    2.44    0.71
  -3  -2  15    0.80    0.74
   3   2  15    1.96    1.05
   3   2  15    1.20    0.76
  -3   2  15   -0.27    0.83
   3  -2  15    1.17    0.78
   3   3  15    3.80    1.10
   3   3  15    4.15    1.31
   3   3 -15    4.92    1.42
  -3   3  15    5.84    1.18
   3  -3  15    2.77    1.22
   4   0  15   25.85    1.42
  -4   0  15   26.74    1.38
   4   0  15   27.64    1.45
   4   1  15   -1.38    0.80
  -4  -1  15   -0.10    0.65
   4   1  15   -0.83    0.65
   4  -1  15    0.42    0.72
  -4   1  15   -0.25    0.70
   4  -1  15    0.67    0.68
  -4  -2  15    3.31    0.78
   4   2  15    3.32    0.82
   4   2  15    4.02    0.98
   4  -2  15    5.32    0.92
  -4   2  15    4.00    0.85
   4   3  15   -0.66    1.37
   4   3  15    0.65    1.16
   4  -3  15   -0.41    1.44
   4   3 -15    0.66    1.45
  -4   3  15   -1.35    1.26
   5   0  15    0.98    0.77
  -5   0  15   -0.58    0.67
   5   0  15    0.61    0.69
   5   1  15    0.39    0.69
  -5  -1  15    0.30    0.67
   5   1  15   -1.27    0.85
   5  -1  15    0.09    0.66
  -5   1  15   -0.84    0.74
  -5  -2  15    1.50    0.77
   5   2  15    3.51    1.00
   5   2  15    0.61    0.85
  -5   2  15    1.76    0.84
   5  -2  15    2.29    1.13
   6   0  15    3.77    0.78
   6   0  15    6.24    0.90
  -6   0  15    6.38    0.99
   6   1  15    3.75    0.80
   6   1  15    3.35    0.94
  -6  -1  15    4.67    0.78
   6  -1  15    4.02    0.79
   6  -1  15    4.39    0.88
  -6   1  15    3.96    0.82
   6   2  15    2.78    0.96
  -6  -2  15    0.74    0.81
   6   2  15    1.84    1.07
  -6   2  15    0.66    0.92
   6  -2  15    1.23    1.00
   6   2 -15    2.58    1.12
   7   0  15    0.69    0.74
   7   0  15    0.45    0.86
  -7   0  15    0.48    0.73
   7   1  15    3.09    0.99
  -7  -1  15    3.35    0.74
   7   1  15    2.22    0.81
   7  -1  15    3.12    0.93
  -7   1  15    1.80    0.79
   7  -1  15    3.89    0.79
  -7  -2  15   -1.12    0.89
   7   2  15   -0.58    1.16
   7   2  15    1.59    1.00
   7   2 -15    3.03    1.09
   7  -2  15    0.27    1.10
  -7   2  15    1.23    0.96
   8   0  15    1.15    0.79
   8   0  15    1.77    0.99
   8   1  15    7.59    1.34
  -8  -1  15    5.13    0.83
   8   1  15    5.78    0.98
   8  -1  15    7.77    1.05
  -8   1  15    4.45    0.87
   8  -1  15    7.48    1.21
   8   2  15    0.52    1.31
   8   2  15   -0.39    1.17
   8  -2  15    0.48    0.98
   8   2 -15    0.24    1.21
  -8   2  15   -0.28    0.99
   9   0  15    0.44    1.54
   9   0  15   -1.26    0.87
  -9   0  15   -1.10    0.75
   9   1  15    1.61    1.20
  -9  -1  15   -0.29    0.81
   9   1  15    0.99    0.97
   9  -1  15    1.84    0.91
   9  -1  15    0.99    1.08
  -9   1  15    0.28    0.87
   9   2  15    4.12    1.53
   9   2  15    4.32    1.55
   9  -2  15    2.79    1.10
   9   2 -15    6.61    1.37
  10   0  15    2.30    1.00
  10   0  15    4.16    1.17
 -10   0  15    2.62    0.84
  10   1  15    5.71    1.33
  10   1  15    4.65    1.17
 -10  -1  15    4.65    0.95
  10  -1  15    7.97    1.38
  10   1 -15    7.70    1.29
 -10   1  15    6.14    1.04
  10  -1  15    5.29    1.09
  11   0  15    0.01    1.53
  11   0  15    0.36    1.06
 -11   0  15    0.40    0.86
  11   1  15    7.82    1.50
  11   1  15    4.72    1.35
  11  -1  15    4.95    1.18
  11   1 -15    7.58    1.47
   0   0  16   45.03    1.99
   0  -1  16   -0.78    0.72
   0   1  16    0.95    0.79
   0   2  16    6.73    1.26
   0  -2  16    5.66    0.97
   1   0  16    0.25    0.73
  -1   0  16    0.37    0.72
  -1  -1  16    2.67    0.72
   1   1  16    1.23    0.78
   1   1  16    1.83    0.74
  -1   1  16    0.92    0.75
   1  -1  16    1.59    0.77
  -1  -2  16    0.72    0.87
   1   2  16    0.22    0.97
  -1   2  16   -2.01    1.26
   1  -2  16    0.07    0.81
   2   0  16   16.02    1.24
   2   0  16   15.21    1.18
  -2   0  16   17.73    1.19
   2   1  16    6.90    1.10
  -2  -1  16   10.07    1.01
   2   1  16    8.56    1.03
   2  -1  16   10.02    1.07
  -2   1  16    6.29    1.04
   2   2  16    1.16    1.03
  -2  -2  16    1.44    0.85
   2  -2  16    1.12    0.92
  -2   2  16    0.21    0.92
   3   0  16   -0.04    0.68
  -3   0  16    0.89    0.74
   3   0  16    1.83    0.82
  -3  -1  16    2.51    0.75
   3   1  16    1.77    0.76
   3   1  16    1.37    0.86
   3  -1  16    0.38    0.76
  -3   1  16   -0.55    0.79
  -3  -2  16    1.71    0.83
   3   2  16    1.88    0.88
   3   2  16    2.95    1.14
  -3   2  16    0.01    0.92
   3  -2  16    1.44    0.95
  -4   0  16   -0.40    0.73
   4   0  16   -0.16    0.70
   4   0  16    0.98    0.84
  -4  -1  16   14.83    1.24
   4   1  16   14.23    1.37
   4   1  16   13.94    1.25
  -4   1  16   14.44    1.21
   4  -1  16   16.83    1.25
  -4  -2  16    2.58    0.83
   4   2  16    2.59    0.96
   4   2  16    1.63    1.12
   4  -2  16    3.15    0.99
  -4   2  16    1.53    0.91
  -5   0  16    0.75    0.75
   5   0  16   -0.86    0.81
   5   0  16    0.10    0.75
  -5  -1  16    3.72    0.80
   5   1  16    2.58    0.83
   5   1  16    3.16    1.04
  -5   1  16    1.99    0.84
   5  -1  16    3.23    0.88
   5  -1  16    3.76    0.95
   5   2  16    2.92    1.15
   5   2  16    1.58    1.02
  -5  -2  16    0.41    0.86
  -5   2  16   -0.07    0.96
   5  -2  16    0.54    0.94
   6   0  16    6.51    1.16
  -6   0  16    5.69    0.99
   6   0  16    6.47    0.99
   6   1  16   15.37    1.84
   6   1  16   16.06    1.39
  -6  -1  16   17.58    1.27
   6  -1  16   18.11    1.41
  -6   1  16   16.42    1.30
   6  -1  16   12.88    1.39
  -6  -2  16    7.91    1.12
   6   2  16    9.52    1.71
   6   2  16   10.11    1.58
   6   2 -16   12.02    1.71
  -6   2  16   11.18    1.45
   6  -2  16   10.91    1.45
   7   0  16   -0.15    0.88
   7   0  16    1.51    1.03
  -7   0  16    1.89    0.85
  -7  -1  16    3.21    0.85
   7   1  16    2.05    1.17
   7   1  16    1.78    0.94
   7  -1  16    0.93    0.97
  -7   1  16    0.25    0.91
   7  -1  16    0.61    0.90
  -7  -2  16   -1.29    1.10
   7   2  16    1.01    1.51
   7   2  16    1.80    1.29
  -7   2  16    0.60    1.11
   7   2 -16    1.41    1.38
   7  -2  16   -0.06    1.15
   8   0  16   41.66    2.14
  -8   0  16   41.33    1.94
   8   0  16   38.94    2.09
   8   1  16    0.86    1.08
   8   1  16    1.37    1.24
  -8  -1  16    1.43    0.83
  -8   1  16    1.19    0.92
   8  -1  16    2.63    0.96
   8  -1  16    1.47    0.98
  -9   0  16   -0.80    0.89
   9   0  16    0.99    1.07
   9   0  16   -0.12    1.19
   9   1  16    0.29    1.16
  -9  -1  16    1.32    0.93
   9   1  16    2.34    1.38
   9  -1  16    0.51    1.05
  -9   1  16    0.20    1.01
   9  -1  16    0.78    1.39
  10   0  16    4.37    1.25
 -10   0  16    1.91    0.96
  10   0  16    2.42    1.34
   0   0  17   -0.63    0.86
   0   1  17    2.01    0.88
   0  -1  17    3.56    0.86
   0   1  17    3.91    0.87
   0   2  17   -0.16    1.15
   0  -2  17   -0.08    0.95
  -1   0  17    0.30    0.89
   1   0  17    1.22    0.84
   1   1  17    1.40    0.85
   1   1  17    0.97    0.89
  -1  -1  17    0.60    0.81
  -1   1  17   -0.07    0.88
   1  -1  17    0.50    0.86
   1   2  17    5.14    1.26
  -1  -2  17    4.04    1.07
  -1   2  17    3.55    1.14
   1  -2  17    3.88    1.05
   2   0  17    0.34    0.82
  -2   0  17    2.56    0.80
   2   0  17    1.05    0.89
   2   1  17    2.35    0.85
   2   1  17    2.31    0.93
  -2   1  17    3.36    0.90
   2  -1  17    3.49    0.95
   2   2  17    1.48    1.22
   2   2  17    0.23    1.08
  -2  -2  17    0.97    0.98
   2  -2  17    1.33    1.02
  -2   2  17    2.23    1.05
   3   0  17    0.17    0.91
   3   0  17   -0.37    0.80
  -3   0  17    1.00    0.80
   3   1  17    0.39    1.03
   3   1  17   -0.49    0.89
  -3  -1  17    1.41    0.84
   3  -1  17    0.64    0.92
  -3   1  17   -0.06    0.93
   3   2  17    1.69    1.29
   3   2  17   -0.05    1.14
  -3  -2  17    0.02    1.00
  -3   2  17   -0.58    1.00
   3  -2  17   -1.55    1.04
   4   0  17   10.77    1.20
  -4   0  17    9.08    1.16
   4   0  17   11.05    1.73
  -4  -1  17    3.19    0.90
   4   1  17    2.59    1.07
   4   1  17    3.27    0.95
  -4   1  17    1.09    0.97
   4  -1  17    3.43    1.01
   4   2  17   10.20    1.56
  -4  -2  17    8.99    1.22
   4   2  17    8.49    1.30
   4  -2  17   10.40    1.54
  -4   2  17    7.59    1.19
   5   0  17   -1.24    0.97
  -5   0  17    0.76    0.85
   5   0  17   -0.90    0.84
   5   1  17    2.04    0.99
   5   1  17    2.12    1.15
  -5  -1  17    3.02    0.94
  -5   1  17    2.32    0.97
   5  -1  17    2.52    1.08
   6   0  17   27.47    1.81
  -6   0  17   33.27    1.68
   6   0  17   31.16    1.88
   6   1  17    7.30    1.22
   6   1  17   10.30    1.60
  -6  -1  17    7.86    1.33
  -6   1  17    8.60    1.28
   6  -1  17    7.70    1.43
   6  -1  17    8.88    1.51
   7   0  17    1.41    1.16
  -7   0  17    0.69    0.93
   7   0  17   -0.65    1.03
   7   1  17    0.93    1.20
  -7  -1  17    3.82    1.00
   7   1  17    2.49    1.36
  -7   1  17    3.17    1.07
   7  -1  17    1.96    1.14
   7  -1  17    3.53    1.15
   8   0  17    1.55    1.25
   8   0  17    1.61    1.22
  -8   0  17    1.23    0.95
  -8  -1  17   14.21    1.45
   8   1  17   10.56    1.97
  -8   1  17    8.51    1.31
   8  -1  17   14.27    1.77
   8  -1  17   11.01    1.80
   0   0  18   14.58    1.43
   0  -1  18    0.29    0.93
   0   1  18    0.79    1.03
  -1   0  18   -0.79    0.97
   1   0  18    0.77    0.98
  -1  -1  18    2.04    0.95
   1   1  18    3.55    1.08
   1   1  18    3.62    1.09
  -1   1  18    2.53    1.07
   1  -1  18    0.60    0.99
   2   0  18    7.67    1.16
  -2   0  18    9.18    1.31
   2   1  18    2.80    1.09
   2   1  18    4.44    1.14
  -2  -1  18    4.89    1.00
   2  -1  18    4.65    1.11
   3   0  18   -0.30    1.05
  -3   0  18    1.02    0.98
   3   0  18   -0.87    1.05
   3   1  18   -1.18    1.13
  -3  -1  18    1.02    0.98
   3   1  18    1.65    1.09
  -3   1  18    0.10    1.09
   3  -1  18    0.41    1.09
  -4   0  18    0.87    1.02
   4   0  18   -0.35    1.04
   4   0  18    0.16    1.11
   4   1  18    6.00    1.28
  -4  -1  18    8.17    1.18
   4   1  18   10.01    1.59
   4  -1  18    9.09    1.53
  -4   1  18    7.27    1.20
   5   0  18   -1.03    1.15
  -5   0  18    1.96    1.02
   5   0  18    1.39    1.07
   5   1  18    3.06    1.29
   5   1  18    0.74    1.50
  -5  -1  18    0.11    1.15
   5  -1  18    4.05    1.24
  -5   1  18    2.34    1.15
   6   0  18    1.92    1.29
   6   0  18    3.85    1.35
  -6   0  18    5.29    1.13
   0   0  19   -0.71    1.25
  -1   0  19    0.74    1.22
   1   0  19   -2.12    1.23
   2   0  19    3.55    1.37
  -2   0  19    2.48    1.23
   3   0  19    1.50    1.42
  -3   0  19   -0.50    1.51
   0   0   0    0.00    0.00
;
_shelx_hkl_checksum              91092
loop_
_space_group_symop_operation_xyz
'x, y, z'
'-x, -y, z+1/2'
'x+1/2, -y+1/2, z'
'-x+1/2, y+1/2, z+1/2'
loop_
_atom_site_label
_atom_site_type_symbol
_atom_site_fract_x
_atom_site_fract_y
_atom_site_fract_z
_atom_site_U_iso_or_equiv
_atom_site_adp_type
_atom_site_occupancy
_atom_site_site_symmetry_order
_atom_site_calc_flag
_atom_site_refinement_flags_posn
_atom_site_refinement_flags_adp
Cl1 Cl -0.06146(7) -0.2154(3) -0.83292(10) 0.0447(3) Uani 1 1 d . .
O1 O -0.2043(2) -0.4370(11) -0.7112(2) 0.0519(10) Uani 1 1 d . .
H1A H -0.2457 -0.5076 -0.6776 0.078 Uiso 1 1 calc R U
O2 O -0.1543(3) -0.1781(10) -1.1028(2) 0.0605(11) Uani 1 1 d . .
O3 O -0.0422(2) -0.4396(9) -1.0263(2) 0.0430(8) Uani 1 1 d . .
C1 C -0.1668(3) -0.3875(10) -0.8670(3) 0.0284(9) Uani 1 1 d . .
C2 C -0.2305(3) -0.4777(12) -0.7997(3) 0.0347(10) Uani 1 1 d . .
C3 C -0.3159(3) -0.6070(11) -0.8244(4) 0.0392(10) Uani 1 1 d . .
H3A H -0.3577 -0.6752 -0.7795 0.047 Uiso 1 1 calc R U
C4 C -0.3402(3) -0.6364(13) -0.9147(3) 0.0426(12) Uani 1 1 d . .
H4A H -0.3985 -0.7204 -0.9307 0.051 Uiso 1 1 calc R U
C5 C -0.2779(3) -0.5411(13) -0.9817(3) 0.0375(11) Uani 1 1 d . .
H5A H -0.2947 -0.5613 -1.0427 0.045 Uiso 1 1 calc R U
C6 C -0.1909(3) -0.4160(12) -0.9591(3) 0.0301(10) Uani 1 1 d . .
C7 C -0.1279(3) -0.3286(11) -1.0357(3) 0.0336(10) Uani 1 1 d . .
C8 C 0.0207(4) -0.3692(16) -1.1017(4) 0.0555(14) Uani 1 1 d . .
H8A H 0.0810 -0.4608 -1.0878 0.083 Uiso 1 1 calc R U
H8B H -0.0026 -0.4773 -1.1561 0.083 Uiso 1 1 calc R U
H8C H 0.0251 -0.1231 -1.1110 0.083 Uiso 1 1 calc R U
loop_
_atom_site_aniso_label
_atom_site_aniso_U_11
_atom_site_aniso_U_22
_atom_site_aniso_U_33
_atom_site_aniso_U_23
_atom_site_aniso_U_13
_atom_site_aniso_U_12
Cl1 0.0351(6) 0.0632(7) 0.0358(5) 0.0041(7) -0.0054(6) -0.0145(5)
O1 0.044(2) 0.088(3) 0.0231(16) 0.0059(18) -0.0028(14) -0.0175(18)
O2 0.048(3) 0.099(3) 0.0347(19) 0.024(2) -0.0002(16) 0.019(2)
O3 0.0305(18) 0.066(2) 0.0326(16) 0.0094(16) 0.0059(12) 0.0093(15)
C1 0.027(2) 0.026(2) 0.032(2) 0.0018(16) -0.0042(17) 0.0004(17)
C2 0.037(3) 0.040(2) 0.026(2) 0.0051(17) -0.0009(18) 0.000(2)
C3 0.031(2) 0.050(3) 0.036(3) 0.000(3) 0.006(2) -0.0049(17)
C4 0.028(3) 0.057(3) 0.043(3) -0.005(2) -0.005(2) -0.002(2)
C5 0.029(3) 0.054(3) 0.030(2) -0.010(2) -0.0060(19) 0.005(2)
C6 0.030(3) 0.032(2) 0.028(2) 0.001(2) -0.0032(18) 0.0075(18)
C7 0.035(3) 0.039(3) 0.026(2) -0.0013(19) -0.0017(18) 0.0063(19)
C8 0.040(3) 0.078(4) 0.048(3) 0.007(3) 0.015(2) 0.003(3)
loop_
_atom_type_symbol
_atom_type_description
_atom_type_scat_dispersion_real
_atom_type_scat_dispersion_imag
_atom_type_scat_source
C C 0.0033 0.0016 'International Tables Vol C Tables 4.2.6.8 and 6.1.1.4'
H H 0.0000 0.0000 'International Tables Vol C Tables 4.2.6.8 and 6.1.1.4'
O O 0.0106 0.0060 'International Tables Vol C Tables 4.2.6.8 and 6.1.1.4'
Cl Cl 0.1484 0.1585 'International Tables Vol C Tables 4.2.6.8 and 6.1.1.4'
loop_
_geom_angle_atom_site_label_1
_geom_angle_atom_site_label_2
_geom_angle_atom_site_label_3
_geom_angle
C7 O3 C8 116.4(4)
C2 C1 C6 120.1(4)
C2 C1 Cl1 118.0(3)
C6 C1 Cl1 121.8(3)
O1 C2 C3 122.8(4)
O1 C2 C1 117.7(4)
C3 C2 C1 119.6(4)
C4 C3 C2 120.7(4)
C3 C4 C5 119.9(4)
C4 C5 C6 120.8(4)
C5 C6 C1 118.9(4)
C5 C6 C7 116.9(4)
C1 C6 C7 124.1(4)
O2 C7 O3 122.7(4)
O2 C7 C6 122.3(4)
O3 C7 C6 114.9(4)
loop_
_geom_bond_atom_site_label_1
_geom_bond_atom_site_label_2
_geom_bond_distance
Cl1 C1 1.729(4)
O1 C2 1.360(6)
O2 C7 1.204(5)
O3 C7 1.313(5)
O3 C8 1.455(6)
C1 C2 1.392(6)
C1 C6 1.399(6)
C2 C3 1.376(6)
C3 C4 1.374(7)
C4 C5 1.379(7)
C5 C6 1.383(6)
C6 C7 1.483(7)
