#------------------------------------------------------------------------------
#$Date: 2019-11-10 01:50:40 +0200 (Sun, 10 Nov 2019) $
#$Revision: 225602 $
#$URL: file:///home/coder/svn-repositories/cod/cif/4/51/54/4515448.cif $
#------------------------------------------------------------------------------
#
# This file is available in the Crystallography Open Database (COD),
# http://www.crystallography.net/
#
# All data on this site have been placed in the public domain by the
# contributors.
#
data_4515448
loop_
_publ_author_name
'Shao, Feng'
'Qin, Peng'
'Wang, Dong'
'Zhang, Guoqing'
'Wu, Bo'
'He, Jianqiao'
'Peng, Wei'
'Sum, Tze Chien'
'Wang, Deliang'
'Huang, Fuqiang'
_publ_section_title
;
 Enhanced Photovoltaic Performance and Thermal Stability of
 CH<sub>3</sub>NH<sub>3</sub>PbI<sub>3</sub> Perovskite through Lattice
 Symmetrization.
;
_journal_issue                   1
_journal_name_full               'ACS applied materials &amp; interfaces'
_journal_page_first              740
_journal_page_last               746
_journal_paper_doi               10.1021/acsami.8b17068
_journal_volume                  11
_journal_year                    2019
_chemical_formula_sum            'C H5 I3 N Pb'
_chemical_formula_weight         618.95
_space_group_crystal_system      cubic
_space_group_IT_number           215
_space_group_name_Hall           'P -4 2 3'
_space_group_name_H-M_alt        'P -4 3 m'
_atom_sites_solution_hydrogens   difmap
_audit_creation_method           SHELXL-2014/7
_cell_angle_alpha                90
_cell_angle_beta                 90
_cell_angle_gamma                90
_cell_formula_units_Z            1
_cell_length_a                   6.3029(8)
_cell_length_b                   6.3029(8)
_cell_length_c                   6.3029(8)
_cell_measurement_temperature    293(2)
_cell_volume                     250.39(6)
_computing_structure_refinement  'SHELXL-2014/7 (Sheldrick, 2014)'
_diffrn_ambient_temperature      293(2)
_diffrn_measured_fraction_theta_full 1.000
_diffrn_measured_fraction_theta_max 1.000
_diffrn_radiation_type           MoK\a
_diffrn_radiation_wavelength     0.71073
_diffrn_reflns_av_R_equivalents  0.0472
_diffrn_reflns_av_unetI/netI     0.0143
_diffrn_reflns_Laue_measured_fraction_full 1.000
_diffrn_reflns_Laue_measured_fraction_max 1.000
_diffrn_reflns_limit_h_max       8
_diffrn_reflns_limit_h_min       -8
_diffrn_reflns_limit_k_max       6
_diffrn_reflns_limit_k_min       -8
_diffrn_reflns_limit_l_max       8
_diffrn_reflns_limit_l_min       -8
_diffrn_reflns_number            4600
_diffrn_reflns_point_group_measured_fraction_full 1.000
_diffrn_reflns_point_group_measured_fraction_max 1.000
_diffrn_reflns_theta_full        25.242
_diffrn_reflns_theta_max         27.261
_diffrn_reflns_theta_min         3.232
_exptl_absorpt_coefficient_mu    26.009
_exptl_crystal_density_diffrn    4.105
_exptl_crystal_F_000             259
_refine_diff_density_max         0.728
_refine_diff_density_min         -0.730
_refine_diff_density_rms         0.098
_refine_ls_abs_structure_details
;
 Refined as an inversion twin.
;
_refine_ls_abs_structure_Flack   0.5(3)
_refine_ls_extinction_coef       0.017(2)
_refine_ls_extinction_expression Fc^*^=kFc[1+0.001xFc^2^\l^3^/sin(2\q)]^-1/4^
_refine_ls_extinction_method     'SHELXL-2014/7 (Sheldrick 2014'
_refine_ls_goodness_of_fit_ref   1.173
_refine_ls_hydrogen_treatment    refxyz
_refine_ls_matrix_type           full
_refine_ls_number_parameters     14
_refine_ls_number_reflns         137
_refine_ls_number_restraints     2
_refine_ls_restrained_S_all      1.166
_refine_ls_R_factor_all          0.0153
_refine_ls_R_factor_gt           0.0153
_refine_ls_shift/su_max          0.018
_refine_ls_shift/su_mean         0.007
_refine_ls_structure_factor_coef Fsqd
_refine_ls_weighting_details
'w=1/[\s^2^(Fo^2^)+0.9621P] where P=(Fo^2^+2Fc^2^)/3'
_refine_ls_weighting_scheme      calc
_refine_ls_wR_factor_gt          0.0350
_refine_ls_wR_factor_ref         0.0350
_reflns_Friedel_coverage         0.612
_reflns_Friedel_fraction_full    1.000
_reflns_Friedel_fraction_max     1.000
_reflns_number_gt                137
_reflns_number_total             137
_reflns_threshold_expression     'I > 2\s(I)'
_cod_data_source_file            am8b17068_si_002.cif
_cod_data_source_block           P-43m
_cod_original_cell_volume        250.39(10)
_cod_database_code               4515448
_shelx_shelxl_version_number     2014/7
_shelx_space_group_comment
;
The symmetry employed for this shelxl refinement is uniquely defined
by the following loop, which should always be used as a source of
symmetry information in preference to the above space-group names.
They are only intended as comments.
;
_shelx_res_file
;

    P-43m.res created by SHELXL-2014/7


TITL test1 in P-43m
CELL 0.71073   6.30290   6.30290   6.30290  90.0000  90.0000  90.0000
ZERR    1.00   0.00080   0.00080   0.00080   0.0000   0.0000   0.0000
LATT -1
SYMM -X, -Y, Z
SYMM -X, Y, -Z
SYMM X, -Y, -Z
SYMM Z, X, Y
SYMM Z, -X, -Y
SYMM -Z, -X, Y
SYMM -Z, X, -Y
SYMM Y, Z, X
SYMM -Y, Z, -X
SYMM Y, -Z, -X
SYMM -Y, -Z, X
SYMM Y, X, Z
SYMM -Y, -X, Z
SYMM Y, -X, -Z
SYMM -Y, X, -Z
SYMM X, Z, Y
SYMM -X, Z, -Y
SYMM -X, -Z, Y
SYMM X, -Z, -Y
SYMM Z, Y, X
SYMM Z, -Y, -X
SYMM -Z, Y, -X
SYMM -Z, -Y, X
SFAC C  H  N  I  Pb
UNIT 1  5  1  3  1
LIST 4
L.S. 4
ACTA
BOND $H
FMAP 2
PLAN 2
TWIN
TEMP 20
DFIX 0.82 0.02 C1 H1 C1 H2
EADP C1 N1
EADP H1 H2
EXYZ C1 N1
WGHT    0.000000    0.962100
EXTI    0.017359
BASF   0.53309
FVAR       0.63798
PB1   5    0.500000    0.500000    0.500000    10.04167    0.02932    0.02932 =
         0.02932    0.00000    0.00000    0.00000

I1    4    0.000000    0.500000    0.500000    10.12500    0.02080    0.17498 =
         0.17498    0.00000    0.00000    0.00000
C1    1    0.043387    0.043387    0.112610    10.04167    0.02577    0.02577 =
         0.04825    0.01839    0.01839    0.00383
N1    3    0.043387    0.043387    0.112610    10.04167    0.02577    0.02577 =
         0.04825    0.01839    0.01839    0.00383
H1    2    0.134127    0.134127    0.134127    10.04167   10.02000
H2    2    0.000000    0.000000    0.224789    10.16667   10.02000
HKLF 4

REM  test1 in P-43m
REM R1 =  0.0153 for     137 Fo > 4sig(Fo)  and  0.0153 for all     137 data
REM     14 parameters refined using      2 restraints

END

WGHT      0.0000      0.9621

REM Highest difference peak  0.728,  deepest hole -0.730,  1-sigma level  0.098
Q1    1   0.0000  0.3827  0.5000  10.50000  0.05    0.73
Q2    1   0.0001  0.1618  0.1618  10.50000  0.05    0.26
;
_shelx_res_checksum              29841
_shelx_hkl_file
;
  -1   0   0 3590.14  171.48
   0   0  -1 3079.79  172.08
   0   0   1 3326.37  172.18
   0   0   1 3184.28  171.58
   1   0   0 3579.74  171.48
  -1  -1   0  503.95   26.20
  -1  -1   0  494.45   26.50
  -1  -1   0  514.65   26.90
  -1   0  -1  487.25   26.90
  -1   0  -1  489.85   26.50
  -1   0  -1  499.65   26.90
  -1   0   1  512.05   27.50
  -1   0   1  491.65   26.70
  -1   1   0  478.15   26.50
  -1   1   0  493.85   26.40
  -1   1   0  514.45   26.50
  -1   1   0  518.15   26.50
   0  -1  -1  503.85   26.30
   0  -1  -1  475.65   26.70
   0  -1  -1  537.95   26.10
   0  -1   1  487.75   26.60
   0  -1   1  508.25   26.70
   0  -1   1  518.45   26.40
   0   1  -1  493.15   26.60
   0   1  -1  518.95   26.70
   0   1  -1  507.85   26.40
   0   1   1  508.15   26.20
   0   1   1  510.75   26.60
   0   1   1  551.34   26.10
   1  -1   0  503.85   26.50
   1  -1   0  500.25   26.40
   1  -1   0  483.85   26.40
   1  -1   0  540.95   26.50
   1   0  -1  439.96   27.30
   1   0  -1  481.85   27.40
   1   0   1  490.45   26.60
   1   0   1  488.75   26.50
   1   0   1  522.75   26.90
   1   1   0  495.45   26.50
  -1  -1  -1 1136.69   61.79
  -1  -1  -1 1168.78   62.19
  -1  -1  -1 1187.78   61.99
  -1  -1  -1 1281.27   62.19
   1   1  -1 1268.27   61.59
   1  -1   1 1259.97   62.49
   1   1  -1 1261.87   62.49
   1   1  -1 1146.19   62.79
   1  -1   1 1265.67   62.29
   1  -1   1 1152.18   61.89
  -1   1   1 1103.19   62.49
   1  -1   1 1213.38   62.09
  -1   1  -1 1183.28   61.99
   1  -1  -1 1178.98   62.29
   1  -1  -1 1121.49   62.69
  -1   1  -1 1181.68   61.89
  -1   1  -1 1227.28   62.09
  -1  -1   1 1158.88   62.79
  -1  -1   1 1153.68   61.69
  -1  -1   1 1170.88   62.89
  -1  -1   1 1121.29   62.59
   1   1   1 1196.08   61.69
   1   1   1 1243.28   62.29
   1   1   1 1312.57   62.19
  -2   0   0 9999.00  477.45
   0   0  -2 8266.67  478.25
   0   0  -2 9293.27  477.55
   0   0   2 9883.61  478.65
   0   0   2 9267.77  477.55
   1   0  -2 3077.49  171.48
   1   0  -2 3118.79  170.38
   1   0   2 3169.18  170.08
   1   0   2 3418.36  170.88
   1   0   2 3246.18  170.18
   1   0   2 3397.26  170.38
   2  -1   0 3443.96  170.28
   2  -1   0 3287.07  169.98
   2  -1   0 3295.17  169.68
   2  -1   0 3423.66  169.78
   2   1   0 3404.16  169.68
   2   1   0 3227.18  169.88
   2   1   0 3517.75  170.28
  -1   0   2 3023.50  171.08
  -1   0   2 3284.27  171.48
   0  -2  -1 3650.53  169.28
   0  -2   1 3205.68  169.58
   0  -2   1 3540.25  169.48
   0  -2   1 3327.07  169.38
   0   2  -1 3429.66  169.48
   0   2   1 3379.96  169.58
   1   0  -2 3228.38  170.98
  -1   0  -2 3243.68  170.18
  -1   0  -2 3177.58  170.78
  -1   0  -2 3158.98  170.08
  -1   0  -2 3268.67  170.38
  -2   1   0 3280.37  169.68
  -2   1   0 3466.95  170.08
  -2   1   0 3326.07  170.08
  -2   1   0 3142.99  170.08
  -2  -1   0 3346.77  170.48
  -2  -1   0 3287.07  170.18
  -2  -1   0 3326.17  169.78
   2   0   1 3479.25  168.88
   2   0   1 3241.78  168.08
   2   0   1 3182.88  168.58
   2   0  -1 3396.76  168.48
   2   0  -1 3274.67  169.38
   2   0  -1 3198.28  169.08
   1  -2   0 3472.55  168.08
   1  -2   0 3250.07  167.78
   1  -2   0 3287.27  168.28
   1   2   0 3450.95  169.38
   0  -1   2 3083.39  168.88
   0  -1   2 3499.05  169.88
   0  -1   2 3366.16  168.68
   0   1  -2 3298.97  168.88
   0   1  -2 3060.19  169.28
   0   1  -2 3289.37  168.58
   0   1   2 3170.18  168.38
   0   1   2 3214.58  169.38
   0   1   2 3410.76  168.08
  -2   0  -1 3275.57  168.58
  -2   0  -1 3202.28  168.78
  -2   0  -1 3131.59  167.98
  -2   0  -1 3442.46  169.18
  -2   0   1 2907.01  169.08
  -2   0   1 3384.56  169.38
  -2   0   1 3390.26  168.78
  -1  -2   0 3416.86  167.48
  -1  -2   0 3441.46  169.18
  -1   2   0 3330.77  168.28
   0  -1  -2 3262.77  168.58
   0  -1  -2 3082.69  169.88
   0  -1  -2 3040.80  169.18
  -2  -1  -1  755.02   41.20
  -2  -1  -1  812.62   41.70
  -2  -1  -1  774.02   40.70
  -2  -1  -1  824.12   42.10
   1   2  -1  815.62   40.50
   1  -1   2  739.23   41.60
   1  -1   2  822.92   42.30
   1  -1   2  784.82   41.50
   1  -1   2  742.43   42.10
   2  -1   1  799.82   41.50
   2  -1   1  791.22   41.70
  -2   1   1  681.33   42.40
  -2   1   1  772.32   41.80
  -1  -2  -1  803.22   40.60
  -1  -2  -1  759.82   41.00
  -1  -2  -1  828.92   41.40
   1  -2   1  833.12   41.00
   1  -2   1  794.82   41.10
   1   1  -2  744.33   42.60
   1   1  -2  726.53   43.20
  -1  -1  -2  791.52   41.40
  -1  -1  -2  755.52   42.20
  -1  -1  -2  771.42   41.90
  -1  -1  -2  813.92   41.60
   2   1  -1  797.52   41.90
   2   1  -1  785.22   42.50
   2   1  -1  751.92   42.00
   1   1  -2  813.92   41.50
   1  -2   1  781.62   41.20
  -1   2   1  748.53   40.50
  -1   1   2  730.73   42.00
  -1   1   2  807.62   42.60
   2  -1   1  760.52   41.20
   2  -1   1  808.02   41.90
  -1   2   1  802.42   40.50
  -1   1  -2  804.02   41.60
  -1   2  -1  808.82   41.30
   1  -2  -1  752.52   41.60
   1  -2  -1  756.52   40.90
  -1  -2   1  744.53   41.30
  -1  -2   1  782.52   41.70
  -1   1  -2  762.42   42.10
   1  -1  -2  788.22   42.20
   1  -1  -2  735.03   42.70
  -2  -1   1  810.12   42.70
  -2  -1   1  752.72   42.20
  -2   1  -1  769.32   41.50
  -2   1  -1  793.52   41.70
  -1  -2   1  816.42   40.50
  -1  -2   1  794.32   42.80
  -1   1  -2  814.92   41.80
   1   1   2  761.52   41.30
   1   1   2  794.62   42.60
   1   1   2  735.23   41.90
   1   1   2  837.52   41.60
  -2  -1   1  711.13   41.70
   1   2   1  837.62   41.50
   2  -1  -1  730.83   42.40
   2  -1  -1  746.53   41.70
   2  -1  -1  818.32   40.80
  -2   1  -1  761.62   41.20
  -2   1  -1  790.12   42.10
  -1   2  -1  809.62   40.90
  -1   2  -1  801.02   40.90
  -1  -1   2  727.73   42.70
  -1  -1   2  729.83   42.70
  -1  -1   2  750.32   41.50
   2   1   1  764.02   41.20
   2   1   1  813.92   41.70
   2   1   1  851.11   41.10
   2   1   1  844.32   41.80
  -2  -2   0 6466.55  323.07
  -2  -2   0 6385.06  323.57
  -2  -2   0 6335.47  324.37
  -2   0  -2 6020.80  323.87
  -2   0  -2 6250.67  323.47
  -2   0  -2 6310.27  324.37
  -2   0   2 6663.63  325.57
  -2   0   2 6342.27  323.97
  -2   2   0 5664.33  323.37
  -2   2   0 6302.77  323.37
  -2   2   0 6384.76  323.57
   0  -2  -2 5790.32  324.17
   0  -2  -2 6560.54  322.57
   0  -2   2 5894.61  323.77
   0  -2   2 6585.24  324.27
   0  -2   2 6356.06  323.27
   0   2  -2 6262.67  323.77
   0   2  -2 6332.97  323.67
   0   2  -2 6325.27  323.37
   0   2   2 6366.36  323.07
   0   2   2 6597.04  322.57
   2  -2   0 6436.06  323.57
   2  -2   0 6048.59  323.27
   2  -2   0 6226.68  323.37
   2  -2   0 6481.95  323.27
   2   0  -2 6426.46  325.27
   2   0  -2 6502.45  325.47
   2   0   2 5985.20  323.77
   2   0   2 6683.73  324.57
   2   0   2 6114.19  323.57
   2   0   2 6469.35  324.17
   2   2   0 5799.22  323.17
   2   2   0 6727.33  322.87
   2   2   0 6724.93  324.37
  -2  -2  -1 2736.73  140.59
  -2  -2  -1 2673.93  139.99
  -2  -2  -1 2802.42  141.39
   2   2  -1 2627.74  141.39
   2  -2   1 2848.31  141.39
   1   2  -2 2809.92  140.39
  -2  -1  -2 2757.42  141.19
  -2  -1  -2 2688.73  141.49
  -2  -1  -2 2723.33  140.79
  -2  -1  -2 2874.81  141.69
   2  -1   2 2844.82  141.79
   2   1  -2 2500.05  141.99
   2   1  -2 2627.44  142.69
   2   1  -2 2578.74  140.59
   2  -2   1 2679.83  140.89
   2  -2   1 2686.73  140.79
  -1  -2  -2 2958.50  140.89
  -2   1   2 2386.06  142.39
  -2   1   2 2868.21  142.19
  -2   1   2 2873.91  140.29
   2  -1   2 2836.12  141.79
   2  -1   2 2673.93  140.89
   2   2  -1 2937.31  140.39
  -2   2   1 2313.87  141.49
  -2   2   1 2770.72  140.69
  -2   2   1 2821.32  140.09
  -1  -2  -2 2747.43  140.49
  -1  -2  -2 2503.25  141.29
  -1  -2  -2 2692.73  141.49
   1  -2   2 2725.03  140.79
  -1   2   2 2564.74  140.39
   1   2  -2 2574.04  141.49
   1   2  -2 2540.55  141.19
   1  -2   2 2928.01  141.49
   2  -2   1 2771.82  140.69
   2  -1   2 2637.94  141.19
   1  -2   2 2669.23  140.99
  -1   2   2 2822.02  140.69
   1  -2  -2 2744.23  141.29
   1  -2  -2 2793.42  141.89
  -2   2  -1 2710.93  140.79
  -1   2  -2 2706.03  140.49
  -1   2  -2 2615.44  140.69
  -1  -2   2 2850.81  140.59
  -1  -2   2 2819.52  142.19
  -2  -2   1 2813.12  142.39
  -1   2  -2 2781.22  140.89
   1   2   2 2900.91  140.69
   2  -2  -1 2453.05  141.49
   2  -2  -1 2666.53  140.79
   2  -2  -1 2740.63  140.99
   2  -2  -1 2905.51  139.79
  -2   1  -2 2750.92  141.99
  -2   1  -2 2658.73  141.19
  -2   1  -2 2749.12  140.89
  -2  -2   1 2948.70  142.29
   2  -1  -2 2790.72  142.79
   2  -1  -2 2692.13  142.29
   1   2   2 2620.94  139.89
  -2   2  -1 2672.03  140.69
  -2   2  -1 2708.63  140.69
  -2  -1   2 2613.14  142.79
  -2  -1   2 2896.91  143.29
  -2  -1   2 2851.41  142.19
  -2   1  -2 2648.03  140.99
   2   1   2 2709.53  140.89
   2   1   2 2899.91  141.89
   2   1   2 2653.03  140.99
   2   1   2 2942.71  141.39
  -1  -2   2 2576.74  141.99
  -2  -2   1 2637.84  140.89
   2   2   1 2699.03  140.09
   2   2   1 2626.04  140.49
   2   2   1 2991.80  141.39
  -2  -2  -2 4164.98  212.18
  -2  -2  -2 3946.31  212.48
  -2  -2  -2 3998.50  211.98
  -2  -2  -2 4391.66  212.88
   2  -2   2 4292.97  213.38
   2   2  -2 4051.39  212.78
   2   2  -2 4027.50  213.98
   2   2  -2 4285.27  211.28
   2  -2   2 4038.40  212.18
   2  -2   2 4326.07  212.98
  -2   2   2 3856.81  213.18
  -2   2   2 4082.49  212.48
   2  -2  -2 4018.90  212.88
   2  -2  -2 4197.88  213.98
  -2   2  -2 4124.69  212.28
  -2   2  -2 4113.69  212.38
  -2  -2   2 3978.20  213.78
  -2  -2   2 4067.09  213.98
  -2  -2   2 4220.28  213.98
  -2   2  -2 3996.80  212.18
   2   2   2 4056.19  211.48
   2   2   2 4250.47  212.88
   2   2   2 4378.46  212.48
  -3   0   0 1241.78   65.49
  -3   0   0 1256.77   65.79
  -3   0   0 1208.88   64.19
  -3   0   0 1242.58   65.79
   0  -3   0 1269.87   64.39
   0   0  -3 1265.47   65.79
   0   0  -3 1153.08   67.19
   0   0   3 1203.98   65.79
   0   0   3 1283.67   67.29
   0   0   3 1174.58   65.89
   0   0   3 1272.97   65.69
   3   0   0 1259.27   65.39
   3   0   0 1177.88   65.19
   3   0   0 1227.68   64.29
   3   0   0 1313.77   65.19
   3  -1   0  197.68   12.00
   3  -1   0  207.68   12.20
   3   1   0  197.08   12.30
   3   1   0  194.18   12.50
   3   1   0  202.58   11.00
  -1   0   3  194.98   14.40
   0  -3  -1  197.88   11.60
   0  -3   1  209.98   11.60
   0  -3   1  200.58   11.20
   0  -3   1  200.18   11.60
   0   3  -1  214.18   11.90
   1   0  -3  196.38   13.40
   1   0  -3  191.68   15.40
   1   0  -3  205.88   13.30
   1   0   3  158.78   12.40
   1   0   3  204.98   14.40
   1   0   3  191.88   13.10
   3  -1   0  204.58   13.00
  -1   0  -3  206.18   12.80
  -3  -1   0  187.58   12.50
  -3  -1   0  191.88   12.90
  -3  -1   0  195.58   13.40
  -3   1   0  208.78   13.00
  -3   1   0  202.68   13.00
  -3   1   0  193.58   11.90
  -3   1   0  210.68   13.20
  -1   0  -3  178.18   13.70
   2   0   3 1175.78   62.79
   2   0   3 1145.69   62.39
  -3  -2   0 1170.68   61.69
  -3  -2   0 1166.58   62.39
  -3  -2   0 1120.69   62.89
  -3   2   0 1077.69   62.09
  -3   2   0 1168.78   61.99
  -3   2   0 1230.18   62.39
  -2   0  -3 1167.68   62.39
  -2   0  -3 1108.49   63.09
  -2   0  -3 1175.68   62.19
  -2   0  -3 1187.38   62.99
  -2   0   3 1095.89   64.29
  -2   0   3 1240.38   64.99
  -2   0   3 1202.18   62.49
   0  -3  -2 1218.48   60.99
   0  -3  -2 1041.10   61.79
   0  -3  -2 1201.08   60.49
   0  -3   2 1085.69   61.69
   0  -3   2 1244.68   62.09
   0  -3   2 1169.68   61.29
   0   3  -2 1222.58   61.39
   0   3   2 1205.48   61.09
   2   0  -3 1205.58   64.19
   2   0  -3 1116.49   64.49
   2   0   3 1146.79   62.29
   2   0   3 1175.28   63.29
   3  -2   0 1206.28   61.59
   3   2   0 1132.79   62.09
   3   2   0 1180.18   62.59
   3  -2   0 1180.08   62.29
   3  -2   0 1159.78   61.89
   3  -2   0 1182.38   61.79
  -3   0  -1  162.98   12.10
   3   0   1  205.48   12.20
   3   0   1  175.68   12.10
   3   0   1  201.78   11.60
   3   0   1  184.68   12.40
   0   1  -3  175.68   13.70
   0   1  -3  218.88   12.90
   0   1   3  184.98   12.30
  -3   0  -1  199.88   12.90
  -3   0  -1  193.58   11.40
   0  -1  -3  203.78   12.60
   0  -1  -3  183.68   14.60
   0  -1   3  176.78   12.80
   0  -1   3  191.58   14.20
   0  -1   3  212.88   12.80
  -1  -3   0  188.98   12.80
  -1  -3   0  196.18   10.90
  -3   0  -1  189.08   13.30
   0   1   3  182.68   13.70
   0   1   3  207.58   12.30
   1  -3   0  218.78   11.00
   1  -3   0  204.78   11.80
   3   0  -1  192.18   13.30
   3   0  -1  200.08   11.60
   3   0  -1  187.98   12.00
  -3   0   1  191.78   12.80
  -3   0   1  193.18   13.20
   1  -1   3   56.69    6.00
   1  -1   3   77.89    7.50
   3  -1   1   56.69    5.60
   3  -1   1   55.89    5.60
   3  -1   1   54.59    5.20
   3  -1   1   56.59    6.30
   3   1  -1   61.29    6.40
  -1  -3  -1   60.59    5.50
   3   1  -1   68.89    4.50
  -3   1   1   49.10    6.80
  -3   1   1   57.79    6.10
  -3   1   1   52.49    5.80
  -3  -1  -1   58.99    6.00
  -3  -1  -1   60.89    4.40
  -3  -1  -1   51.19    6.70
  -3  -1  -1   59.49    5.40
   1  -1   3   51.09    5.80
  -1  -1  -3   72.29    6.00
  -1  -1  -3   54.69    7.00
  -1  -1  -3   51.29    6.40
  -1  -1  -3   56.99    6.10
   3   1  -1   52.29    6.00
   1  -3   1   61.79    5.10
   1  -3   1   69.69    4.90
   1  -1   3   70.39    7.40
   1   3  -1   64.49    4.70
   1   1  -3   46.70    8.30
  -1   1   3   56.19    6.30
  -1   1   3   60.09    7.60
   3   1  -1   58.79    6.70
   1   1  -3   61.09    7.00
   1   1  -3   60.39    6.10
   1  -3   1   61.89    4.60
   1  -3  -1   75.59    5.80
   1  -3  -1   51.59    5.30
  -1  -1   3   59.99    7.60
   1  -1  -3   60.29    6.40
   1  -1  -3   48.00    8.20
   3  -1  -1   51.69    6.90
   3  -1  -1   56.49    5.70
   3  -1  -1   58.09    5.60
  -1   1  -3   68.09    6.00
  -1  -1   3   64.69    6.60
  -1   1  -3   65.09    6.10
   1  -3  -1   61.49    4.40
   1   1   3   52.89    5.50
   1   1   3   60.09    7.90
   1   1   3   63.79    6.40
  -1   1  -3   50.79    6.70
   1   3   1   56.59    6.10
  -1  -3   1   59.49    5.50
  -1  -3   1   60.09    4.20
  -1  -3   1   48.90    6.80
   3  -1  -1   61.89    5.10
  -3  -1   1   55.69    6.60
  -3  -1   1   52.19    6.60
  -3   1  -1   64.09    5.90
  -3   1  -1   66.79    6.20
  -1   3  -1   60.99    5.40
  -3   1  -1   56.09    6.90
  -1  -1   3   55.39    7.10
   3   1   1   52.19    5.20
   3   1   1   64.29    6.40
   3   1   1   56.09    4.90
   3   1   1   51.69    5.70
  -1  -3   1   59.19    5.10
  -3   1  -1   60.19    5.20
  -3   2   1  376.56   21.50
  -2  -1  -3  376.06   22.20
  -2  -1  -3  377.46   22.70
   2   1  -3  372.26   22.00
  -3  -2  -1  382.06   22.00
  -3  -2  -1  365.96   20.00
  -3  -2  -1  384.36   23.00
  -2  -1  -3  419.66   22.40
  -2  -1  -3  343.87   22.90
   3  -2   1  376.46   21.80
   3  -2   1  379.06   21.90
   3  -2   1  373.96   21.60
   3  -2   1  385.76   22.30
   3   2  -1  388.36   21.60
   3   2  -1  392.46   23.00
   3   2  -1  373.96   22.90
  -1  -3  -2  395.86   20.80
  -1  -3  -2  353.76   21.80
   2  -1   3  381.36   22.40
   2  -1   3  377.36   23.10
   2  -1   3  381.86   22.20
   2  -1   3  366.06   23.00
   2   1  -3  393.96   23.90
  -3   2   1  347.27   23.30
  -3   2   1  385.06   22.10
  -3  -2  -1  373.76   21.40
   2   1  -3  363.26   25.00
   1  -3   2  376.16   21.60
   1  -3   2  392.86   21.90
   1  -3   2  361.56   21.30
   1   3  -2  389.36   20.90
  -2   1   3  342.27   23.80
  -2   1   3  394.16   23.90
  -2   1   3  387.36   21.30
  -1  -3  -2  400.86   21.40
   3  -2  -1  373.86   23.10
   3  -2  -1  364.36   21.90
   2   1   3  374.66   21.90
  -3  -2   1  377.96   23.10
   2   1   3  405.66   23.70
   2   1   3  379.76   22.50
   3  -2  -1  395.96   20.80
  -2   1  -3  379.16   22.10
   1   3   2  385.76   21.60
   2  -1  -3  361.06   23.80
   2  -1  -3  385.56   24.30
   3   2   1  393.86   22.40
  -2  -1   3  369.26   24.40
  -2  -1   3  374.36   23.00
  -2   1  -3  380.36   22.30
  -2   1  -3  363.86   23.00
  -3  -2   1  345.27   23.10
  -1   3  -2  367.46   21.10
  -1   3  -2  384.46   21.70
   1  -3  -2  381.76   21.70
   1  -3  -2  366.36   22.00
   2   1   3  333.07   22.20
  -3   2  -1  360.26   21.90
  -3   2  -1  379.96   22.00
  -3   2  -1  381.76   21.70
  -3   2  -1  400.96   23.10
  -1   3  -2  368.56   20.70
  -1  -3   2  384.16   20.80
   3  -2  -1  378.06   21.90
  -1  -3   2  386.36   22.80
  -1  -3   2  336.37   22.30
  -2  -1   3  368.06   24.30
   3   2   1  372.56   21.30
   3   2   1  391.76   21.90
  -3   0  -2 1179.08   62.59
  -3   0  -2 1129.89   60.69
  -3   0  -2 1180.78   61.99
   3   0   2 1154.98   60.99
   0   2  -3 1192.28   61.39
   2  -3   0 1218.18   60.89
   2   3   0 1208.58   62.69
   3   0  -2 1078.09   62.89
  -3   0   2 1159.48   63.19
   0  -2   3 1064.29   61.89
  -3   0  -2 1120.39   61.29
  -2  -3   0 1195.98   59.99
  -2  -3   0 1162.68   60.79
  -2  -3   0 1156.68   62.29
   0  -2  -3 1160.78   61.29
   0  -2  -3 1010.60   63.09
   3   0  -2 1104.79   62.79
   0  -2   3 1241.08   63.19
   0  -2   3 1145.19   61.19
   0   2  -3 1166.58   61.79
   0   2  -3 1049.70   62.09
   3   0   2 1207.28   61.89
  -3   0   2 1128.39   61.69
   0   2   3 1127.69   60.69
   0   2   3 1187.08   62.19
   0   2   3 1209.08   60.29
   2  -3   0 1186.78   60.89
   2  -3   0 1178.18   60.59
   2  -3   0 1180.68   61.09
   3   0  -2 1124.39   61.39
   3   0   2 1140.59   61.49
   3   0   2 1167.78   62.19
   3   1  -2  374.96   23.70
  -3  -1  -2  370.76   20.90
  -3  -1  -2  378.06   23.00
   2  -3   1  396.46   21.10
  -3   1   2  352.26   23.90
  -3  -1  -2  359.96   21.50
   1  -2   3  365.16   22.10
   3  -1   2  384.56   22.20
   3  -1   2  381.86   22.80
   3  -1   2  372.86   21.50
   3  -1   2  392.66   22.70
   3   1  -2  362.06   23.30
  -3   1   2  377.36   23.00
  -3   1   2  362.96   21.30
  -2  -3  -1  383.56   20.80
  -1   2   3  363.36   21.70
   2  -3   1  378.66   21.20
   2  -3   1  367.36   21.30
   2  -3   1  384.16   22.20
  -3  -1  -2  378.26   22.20
  -1  -2  -3  370.86   22.60
  -1  -2  -3  385.56   21.60
  -1  -2  -3  372.46   21.50
   1  -2   3  391.06   22.90
   1  -2   3  358.46   21.60
   1  -2   3  370.16   23.30
   1   2  -3  371.86   23.10
   1   2  -3  368.76   23.40
   1   2  -3  403.36   21.70
  -1   2   3  391.96   22.60
  -1  -2  -3  354.86   23.00
  -2  -3  -1  378.86   22.10
  -2  -3  -1  374.16   20.70
   3   1   2  378.66   22.10
   1   2   3  399.06   21.50
   3  -1  -2  354.26   21.00
   1   2   3  369.46   22.60
   3  -1  -2  356.16   23.70
   3  -1  -2  344.07   22.70
  -1  -2   3  354.16   23.30
  -1  -2   3  391.26   23.80
  -1  -2   3  389.46   21.70
  -1   2  -3  378.06   21.90
  -1   2  -3  395.36   22.80
  -1   2  -3  370.56   21.90
   3   1   2  354.16   21.50
   1   2   3  361.16   21.00
   1  -2  -3  370.66   22.30
   2   3   1  387.96   22.20
   3   1   2  365.96   21.60
   3   1   2  402.16   22.80
  -3  -1   2  332.67   23.10
  -3  -1   2  416.96   24.20
  -3  -1   2  391.56   23.00
  -3   1  -2  351.16   21.80
  -3   1  -2  384.56   22.30
  -3   1  -2  371.06   21.40
  -3   1  -2  364.56   23.10
   2  -3  -1  341.37   21.90
   2  -3  -1  362.76   21.00
   2  -3  -1  367.56   21.70
   2  -3  -1  385.36   20.20
  -2   3  -1  381.16   20.60
  -2   3  -1  381.36   21.60
  -2  -3   1  372.96   21.10
  -2  -3   1  373.56   22.30
  -2  -3   1  361.76   23.20
  -2   3  -1  352.26   20.80
  -3  -2  -2 1012.50   54.19
  -3  -2  -2 1041.10   54.99
  -3  -2  -2 1021.10   53.59
  -3  -2  -2 1065.49   55.89
   2   3  -2 1039.50   53.59
   2   3  -2 1015.00   54.29
   2   3  -2 1057.09   53.09
   2  -2   3 1067.09   56.09
   2  -2   3  955.50   54.59
   2  -2   3  989.00   55.99
   2   2  -3 1118.39   56.09
  -3   2   2  930.01   56.39
  -3   2   2 1053.29   55.49
  -3   2   2 1001.10   53.49
  -2  -3  -2 1070.89   54.19
  -2  -3  -2  996.80   54.49
  -2  -3  -2 1008.80   54.29
  -2  -3  -2 1082.99   55.09
   2  -3   2 1042.70   54.99
   2  -3   2  990.60   54.39
   2  -3   2 1039.80   55.79
   2   2  -3  975.60   57.29
  -2  -2  -3 1053.09   54.89
  -2  -2  -3  939.61   55.49
  -2  -2  -3 1074.39   55.19
  -2  -2  -3 1028.80   55.09
   3  -2   2 1035.80   55.59
   3   2  -2 1026.60   55.29
   3   2  -2  963.70   56.29
   3   2  -2 1057.49   53.19
  -2   3   2  984.80   53.79
  -2   2   3  974.90   55.79
  -2   2   3 1057.59   55.59
   3  -2   2 1017.30   54.99
   3  -2   2 1039.70   55.69
   3  -2   2  981.40   54.49
   2  -3   2 1011.00   54.59
  -2   3   2 1042.30   53.59
   2  -2   3  997.20   55.09
   2   2  -3 1076.99   54.19
  -2   2  -3 1063.49   55.09
  -2  -3   2  988.20   55.79
  -2  -3   2  928.31   55.59
  -2  -3   2 1068.39   53.39
   2  -2  -3 1025.80   56.59
   2  -2  -3 1065.89   56.89
   2  -3  -2 1057.69   56.09
  -3   2  -2  994.00   54.79
  -3   2  -2 1030.40   54.89
  -3   2  -2  963.70   54.39
  -3   2  -2 1041.40   56.09
  -2  -3   2  989.30   56.59
   2  -3  -2  960.80   54.69
   2   2   3 1010.80   54.09
   2   2   3 1077.69   56.39
   2   2   3 1061.39   54.79
  -3  -2   2  962.80   55.89
  -3  -2   2 1076.29   56.99
  -3  -2   2 1021.90   56.49
   2   3   2 1092.19   54.89
   3  -2  -2 1000.90   56.49
   3  -2  -2  913.41   55.19
   3  -2  -2  981.00   53.19
  -2   3  -2  985.30   53.99
  -2   3  -2 1038.90   54.09
  -2   3  -2  984.20   54.49
  -2  -2   3  981.10   56.89
  -2  -2   3  962.10   56.69
  -2  -2   3 1038.80   56.59
  -2   2  -3  949.71   54.59
   3   2   2  968.40   53.89
   3   2   2 1050.99   55.19
   3   2   2  949.80   54.19
   3   2   2 1089.79   55.19
  -3  -3   0  179.08   11.70
  -3  -3   0  191.18   12.60
  -3  -3   0  181.18   13.80
  -3   0  -3  179.48   12.50
  -3   0  -3  177.68   12.80
  -3   0  -3  178.78   12.10
  -3   0  -3  184.48   14.10
  -3   0   3  168.58   15.10
  -3   0   3  198.88   15.20
  -3   0   3  172.88   13.00
  -3   3   0  164.58   12.90
  -3   3   0  186.08   11.70
   0  -3  -3  189.48   12.00
   0  -3  -3  145.59   14.00
   0  -3  -3  178.18   10.70
   0  -3   3  176.38   13.00
   0  -3   3  175.98   13.60
   0  -3   3  179.98   11.90
   0   3  -3  176.48   12.80
   0   3  -3  175.08   12.40
   0   3  -3  183.88   12.10
   0   3   3  176.78   10.80
   3  -3   0  179.58   12.30
   3  -3   0  166.48   11.90
   3  -3   0  176.88   12.20
   3  -3   0  173.88   11.90
   3   0  -3  200.58   14.80
   3   0  -3  198.78   15.50
   3   0   3  168.38   12.70
   3   0   3  175.38   13.80
   3   0   3  180.08   12.70
   3   0   3  182.58   13.70
   3   3   0  175.08   13.50
  -3  -3  -1   40.90    5.00
  -3  -3  -1   43.30    5.70
  -3  -3  -1   42.00    6.50
   3  -1   3   52.69    6.70
   3  -1   3   45.70    7.50
   3  -1   3   41.50    6.00
  -3  -1  -3   49.20    6.40
  -3  -1  -3   44.80    6.00
  -3  -1  -3   41.30    6.80
   3   1  -3   46.70    6.20
   3  -3   1   39.40    5.60
   3  -3   1   50.49    5.90
   3  -3   1   47.80    7.20
   1   3  -3   40.30    5.90
   3   3  -1   48.70    7.10
   1  -3   3   43.00    6.20
  -3   1   3   54.59    9.40
  -3   1   3   51.09    8.20
  -3   1   3   55.69    6.40
   3   1  -3   51.59    9.00
   3   1  -3   41.40    8.20
  -1   3   3   46.90    4.70
  -3   3   1   45.40    7.10
  -3   3   1   54.89    5.70
  -1  -3  -3   42.70    5.30
  -1  -3  -3   42.60    7.60
  -1  -3  -3   50.49    7.50
  -1  -3  -3   56.79    6.20
   3  -1   3   56.59    8.40
   1   3  -3   43.50    6.90
   1   3  -3   40.90    7.00
   1  -3   3   45.10    7.10
   3  -3   1   44.10    5.60
  -1   3   3   48.50    5.10
   1  -3   3   39.90    5.60
  -1   3  -3   50.09    6.40
   1  -3  -3   50.29    6.40
   1  -3  -3   52.49    8.30
  -3   1  -3   40.70    7.10
  -1   3  -3   44.50    5.50
  -3   3  -1   43.30    6.20
  -1  -3   3   47.90    5.70
  -1  -3   3   52.09    8.40
  -3   1  -3   44.80    6.40
   1   3   3   46.40    5.70
   3  -3  -1   40.90    7.50
   3  -3  -1   42.30    5.60
   3  -3  -1   50.99    6.70
   3  -3  -1   51.29    4.70
  -1   3  -3   50.39    6.20
  -3  -1   3   46.80    8.50
  -3  -1   3   51.69    7.90
  -3   1  -3   38.60    6.10
   3  -1  -3   50.49    8.70
   3  -1  -3   51.59    8.90
  -3  -3   1   31.10    5.60
  -3  -3   1   45.70    7.10
  -3  -3   1   42.10    7.00
  -1  -3   3   53.79    8.00
  -3   3  -1   45.30    6.20
  -3   3  -1   52.59    5.60
  -3  -1   3   41.20    7.90
   3   1   3   44.20    6.20
   3   1   3   50.99    8.00
   3   1   3   58.49    7.20
   3   1   3   36.90    5.90
  -3   1  -3   41.00    6.00
   3   3   1   43.80    6.90
  -3  -3  -2  273.97   17.40
  -3  -3  -2  285.27   16.20
  -3  -3  -2  279.57   18.70
   2   3  -3  273.97   18.80
   2   3  -3  307.67   16.70
   3  -2   3  261.97   18.00
  -3  -2  -3  288.47   18.10
  -3  -2  -3  257.77   18.50
  -3  -2  -3  280.77   17.20
  -3  -2  -3  293.47   19.30
   3   2  -3  258.97   21.00
   3   2  -3  287.27   16.80
   3  -3   2  287.37   18.40
   3  -3   2  261.77   17.30
   3  -3   2  287.87   19.00
   3   3  -2  285.47   16.90
  -3   2   3  250.97   20.00
  -3   2   3  281.27   18.90
   3  -2   3  275.27   19.00
   3  -2   3  273.37   17.60
   3  -2   3  276.67   19.50
  -3   3   2  243.28   18.60
  -3   3   2  279.67   17.20
  -2  -3  -3  289.77   17.30
  -2  -3  -3  264.17   18.20
  -2  -3  -3  279.07   17.90
  -2  -3  -3  294.57   18.10
   2  -3   3  270.47   17.50
   3   3  -2  272.97   19.00
   2   3  -3  264.07   17.90
   2  -3   3  275.57   19.80
   3   2  -3  274.27   19.40
   3  -3   2  269.87   17.60
   2  -3   3  287.07   18.70
  -2   3   3  274.97   17.20
  -2   3   3  282.47   17.10
   2  -3   3  267.27   17.80
   2  -3  -3  272.07   19.60
   2  -3  -3  270.37   19.40
  -2   3  -3  264.07   17.60
  -2   3  -3  282.47   17.40
  -2  -3   3  281.97   20.10
  -2  -3   3  294.87   16.90
  -3  -3   2  257.97   18.50
  -3  -3   2  284.57   19.70
   2   3   3  261.97   15.60
   2   3   3  267.77   16.70
   2   3   3  288.87   17.70
   3  -3  -2  293.47   19.60
   3  -3  -2  262.07   17.80
   3  -3  -2  260.97   18.00
  -2  -3   3  272.47   19.60
  -3  -2   3  255.77   19.20
  -3   2  -3  249.58   17.60
  -3   2  -3  283.97   18.00
   3  -2  -3  308.57   20.40
   3  -2  -3  235.18   19.40
  -3  -3   2  288.27   20.20
  -3   3  -2  268.07   17.30
  -3   3  -2  303.47   17.50
  -3   3  -2  278.27   17.60
  -2   3  -3  259.67   17.10
  -3  -2   3  293.77   20.60
  -3  -2   3  282.87   20.50
   3   2   3  264.37   17.00
   3   2   3  294.87   19.40
   3   2   3  274.67   18.00
  -3   2  -3  267.77   17.70
  -2  -3   3  278.27   19.40
   3   3   2  299.27   18.10
  -3  -3  -3  142.69   11.50
  -3  -3  -3  136.19   12.50
  -3  -3  -3  137.99   11.00
  -3  -3  -3  161.38   13.50
   3  -3   3  137.69   14.60
   3   3  -3  149.59   12.30
   3   3  -3  135.59   14.30
   3   3  -3  153.78   10.00
   3  -3   3  142.59   11.50
   3  -3   3  136.09   12.60
  -3   3   3  131.69   12.90
  -3   3   3  145.99   11.60
   3  -3   3  128.69   11.80
   3  -3  -3  140.49   13.70
   3  -3  -3  167.28   14.80
  -3   3  -3  148.29   12.00
  -3   3  -3  150.78   11.40
  -3  -3   3  122.39   13.70
  -3  -3   3  135.19   14.40
  -3  -3   3  147.29   13.90
  -3   3  -3  129.49   11.50
   3   3   3  134.79    9.70
   3   3   3  131.89   12.30
   3   3   3  122.79   11.90
  -4   0   0 3331.57  177.58
  -4   0   0 3385.56  177.98
  -4   0   0 3412.96  178.18
   0  -4   0 3503.05  175.98
   0  -4   0 3330.17  177.58
   0   0  -4 3465.65  177.98
   0   0  -4 3047.09  179.48
   0   0  -4 3509.95  178.18
   0   0   4 3251.97  177.88
   0   0   4 3707.13  179.88
   0   0   4 3590.34  178.08
   4   0   0 3544.75  177.58
   4   0   0 3198.18  176.98
   4   0   0 3494.35  175.98
   4   0   0 3527.15  176.88
   1   0   4 1892.21  103.19
   1   0   4 1879.21  103.09
   4  -1   0 2038.10  103.09
   4  -1   0 1832.32  102.29
   4  -1   0 1935.71  101.69
   4  -1   0 2046.00  101.99
   4   1   0 2016.50  102.39
   4   1   0 1852.91  102.29
   4   1   0 1974.80  100.69
   4   1   0 1948.71  102.39
  -4   1   0 1849.21  102.79
  -4   1   0 2014.40  103.39
  -4   1   0 1937.91  103.29
  -1   0  -4 2017.90  103.09
  -1   0  -4 1692.13  104.09
  -1   0  -4 2071.29  103.49
  -1   0   4 1922.31  104.09
  -1   0   4 1955.20  105.09
   0  -4  -1 2038.90  101.59
   0  -4  -1 2031.60  101.59
   0  -4   1 1978.90  101.19
   1   0  -4 2041.70  103.79
   1   0  -4 1814.62  105.99
   1   0  -4 1896.11  103.29
   1   0   4 1844.02  102.79
   1   0   4 2115.19  105.59
  -4  -1   0 1957.00  103.79
  -4  -1   0 1952.80  102.79
  -4  -1   0 2036.50  103.59
  -2   0  -4 2260.87  118.29
   0  -4  -2 2056.79  116.89
   0  -4  -2 2363.06  115.99
   0  -4   2 2162.58  116.99
   0  -4   2 2375.16  117.29
   0  -4   2 2254.47  116.69
   0   4  -2 2364.36  116.99
   4  -2   0 2392.76  118.49
   4  -2   0 2170.08  117.69
   4  -2   0 2308.17  117.49
   4  -2   0 2378.16  117.19
   4   2   0 2331.97  116.99
   4   2   0 2177.38  117.79
   4   2   0 2260.17  118.19
  -2   0   4 2178.88  120.49
  -2   0   4 2292.17  121.09
   0  -4  -2 2308.37  116.09
   2   0  -4 2006.90  121.19
   2   0  -4 2370.96  118.69
   2   0   4 2117.79  118.09
   2   0   4 2365.16  120.19
   2   0   4 2262.47  118.49
   2   0   4 2262.57  118.69
  -2   0  -4 2338.97  118.59
  -2   0  -4 2005.30  119.19
  -4  -2   0 2154.38  119.19
  -4   2   0 2062.89  118.09
  -4   2   0 2314.37  118.29
  -4   2   0 2236.98  118.39
  -4  -2   0 2227.98  117.69
  -4  -2   0 2322.27  118.79
  -4  -3   0  753.02   46.50
  -4   3   0  712.83   44.90
  -4   3   0  811.62   44.60
   3   0  -4  828.62   48.80
   3   0  -4  909.81   45.80
   4  -3   0  826.62   45.30
   4  -3   0  811.52   44.60
   4  -3   0  832.92   44.00
   4   3   0  883.01   44.70
   3   0   4  771.42   45.90
   4  -3   0  764.22   44.50
  -4  -3   0  834.82   45.60
   3   0   4  745.13   45.00
   3   0   4  918.31   47.60
   3   0   4  788.22   45.40
   3   0  -4  875.51   47.50
  -4  -3   0  784.42   44.20
  -4   3   0  817.92   45.30
  -3   0  -4  806.32   45.50
  -3   0  -4  717.93   46.10
  -3   0  -4  732.43   44.80
  -3   0  -4  788.62   46.40
  -3   0   4  732.63   47.90
  -3   0   4  879.51   48.40
  -3   0   4  816.62   45.10
   0  -4  -3  833.52   43.90
   0  -4  -3  690.13   45.40
   0  -4  -3  830.32   42.50
   0  -4   3  768.82   44.90
   0  -4   3  842.32   45.80
   0  -4   3  819.32   43.80
   0   4  -3  828.52   44.20
   4   3   0  794.42   45.70
   4   3   0  828.62   43.90
  -4   0  -1 2032.10  103.29
   4   0   1 2013.20  102.39
   0  -1   4 2035.40  102.99
   0   1  -4 2032.40  103.19
   0   1  -4 1724.83  104.19
  -4   0  -1 1841.52  102.39
   0  -1  -4 1825.02  105.19
  -1  -4   0 1991.80  100.59
  -1  -4   0 1971.70  102.99
   0  -1  -4 2025.80  102.99
   1  -4   0 2044.70  101.59
   0  -1  -4 1924.11  103.49
   0  -1   4 1858.81  103.29
   0  -1   4 2104.89  105.29
   0   1   4 2005.40  102.19
   0   1   4 1907.41  102.59
   4   0  -1 2012.90  103.49
   4   0  -1 1858.11  102.69
  -4   0  -1 1920.81  100.99
  -4   0  -1 1936.51  103.59
  -4   0   1 1768.32  102.69
  -4   0   1 1992.10  103.89
  -4   0   1 1828.02  102.89
   4   0  -1 1968.10  101.89
   4   0   1 2038.20  102.29
   4   0   1 1839.02  102.09
   4   0   1 1914.21  101.19
   0   1  -4 2110.39  102.99
   4   0  -1 2028.20  101.29
   0   1   4 1866.11  104.19
  -4  -1  -1 1114.29   59.59
  -4  -1  -1 1094.19   58.79
  -4  -1  -1 1133.79   60.39
   4   1  -1 1068.29   58.69
   1  -4   1 1169.58   56.99
   1  -4   1 1102.69   57.19
   1  -4   1 1058.89   57.79
   4  -1   1 1122.49   58.09
   4  -1   1 1131.99   58.79
  -4  -1  -1 1073.39   56.89
   4   1  -1 1176.18   59.59
   4   1  -1 1041.70   59.39
   4   1  -1 1154.38   56.99
  -1  -4  -1 1121.19   57.29
   1  -1   4 1098.89   59.19
   1  -1   4 1096.59   60.19
   1   1  -4 1116.09   60.09
   1   1  -4 1034.30   61.79
  -1   1   4 1046.10   59.69
  -1   1   4 1130.19   61.49
  -1   1   4 1101.79   58.59
  -1  -4  -1 1128.09   58.39
   1   1  -4 1115.69   59.29
   4  -1   1 1118.69   58.79
   4  -1   1 1064.79   58.69
  -4   1   1 1141.49   59.99
  -1  -1  -4 1120.59   59.09
  -1  -1  -4  951.80   60.39
  -1  -1  -4 1156.38   59.99
   1  -1   4 1135.29   61.19
   1  -1   4 1031.20   59.19
  -4   1   1 1064.89   59.09
  -4  -1   1 1096.09   60.19
  -4   1  -1 1094.19   59.99
  -1   4  -1 1135.39   58.19
  -1  -4   1 1099.89   56.99
   1  -1  -4 1121.99   59.79
   1  -1  -4  917.01   61.79
   1  -1  -4 1043.30   59.79
  -4  -1   1 1025.60   59.19
  -1  -1   4 1071.89   60.59
  -1  -1   4 1122.39   61.39
  -1   1  -4 1121.79   59.29
  -1   1  -4  963.80   60.29
  -1   1  -4 1134.49   59.39
   1  -4  -1 1124.89   56.79
   1   1   4 1056.09   58.79
   1   1   4 1157.58   61.39
   1   1   4 1105.69   58.99
   4  -1  -1 1121.69   60.09
   4  -1  -1  962.60   58.69
   4  -1  -1 1095.99   58.19
   4  -1  -1 1146.09   57.99
   1  -4  -1 1094.99   58.09
   1  -4  -1 1092.79   57.39
  -4  -1   1  968.30   59.59
  -4   1  -1 1007.10   58.79
  -4   1  -1 1109.19   59.39
  -4   1  -1 1060.19   57.79
   4   1   1 1082.99   57.29
  -1  -4   1 1077.49   60.29
   4   1   1 1009.50   58.19
   4   1   1 1165.08   59.49
   4   1   1 1136.29   58.89
   2  -1   4 1463.05   78.39
   4  -2   1 1499.05   77.89
   4   2  -1 1538.85   77.79
   4   2  -1 1428.36   78.69
   4   2  -1 1466.55   78.59
  -2   1   4 1509.35   77.29
  -1  -4  -2 1507.25   75.99
  -2  -1  -4 1304.07   79.39
  -2  -1  -4 1545.15   78.69
  -2  -1  -4 1443.06   78.49
   1  -4   2 1482.15   77.09
   4  -2   1 1505.05   77.89
   4  -2   1 1451.05   77.89
   2  -1   4 1417.26   79.19
  -1  -4  -2 1333.27   76.79
  -1  -4  -2 1533.95   76.99
   2  -1   4 1401.16   78.39
   2  -1   4 1541.95   80.09
  -4  -2  -1 1426.26   77.59
  -4  -2  -1 1505.15   78.49
  -4  -2  -1 1445.46   75.39
  -4  -2  -1 1488.85   79.59
  -4   2   1 1443.26   77.79
   2   1  -4 1530.45   80.09
   2   1  -4 1320.17   81.59
   2   1  -4 1455.95   78.19
  -2   1   4 1593.84   80.89
  -4   2   1 1503.45   78.59
   1  -4   2 1554.64   77.39
   1  -4   2 1424.26   76.99
   1   4  -2 1562.34   76.59
  -4   2   1 1331.97   78.89
  -2   1   4 1326.57   79.79
  -2  -1  -4 1480.85   78.29
   4  -2   1 1445.26   77.39
   4  -2  -1 1313.27   77.69
  -1  -4   2 1438.26   76.19
   2   1   4 1582.54   80.69
   2   1   4 1345.57   78.59
  -4   2  -1 1437.56   78.19
  -4   2  -1 1494.55   78.29
  -4   2  -1 1469.35   77.39
  -4   2  -1 1526.25   79.19
  -1   4  -2 1476.95   77.29
  -1  -4   2 1523.25   78.29
  -4  -2   1 1377.46   77.99
   4  -2  -1 1530.35   76.59
   4   2   1 1399.86   75.89
   4   2   1 1486.65   78.09
  -1  -4   2 1422.56   77.79
  -2  -1   4 1418.36   80.79
  -2  -1   4 1481.25   80.99
  -2   1  -4 1496.15   78.49
  -2   1  -4 1349.47   79.29
  -2   1  -4 1487.35   78.39
   4  -2  -1 1489.55   77.69
   2   1   4 1383.96   77.79
   4   2   1 1364.46   77.19
   4   2   1 1574.64   78.19
   2  -1  -4 1403.36   81.19
   2  -1  -4 1665.73   79.59
   2  -1  -4 1502.05   79.99
   4  -2  -1 1486.05   79.29
   1   4   2 1499.85   77.89
  -4  -2   1 1545.55   79.69
   1  -4  -2 1479.95   77.19
   1  -4  -2 1373.86   76.89
  -4  -2   1 1355.76   79.29
   2   1   4 1499.25   78.39
   4  -3   1  574.54   32.40
   1  -4   3  533.25   31.50
   1   4  -3  586.14   31.20
   4   3  -1  532.25   33.60
  -4  -3  -1  532.85   31.50
  -3  -1  -4  579.54   33.90
   4  -3   1  568.94   32.10
   1  -4   3  536.85   32.10
   1  -4   3  563.04   32.70
  -3   1   4  579.94   31.70
  -1  -4  -3  580.34   31.00
  -4   3   1  509.05   33.90
  -3   1   4  484.15   35.20
  -3   1   4  605.24   35.30
   3  -1   4  532.35   32.80
   3  -1   4  586.74   34.60
   4   3  -1  591.34   30.90
   4   3  -1  550.14   32.70
  -1  -4  -3  572.64   31.20
  -3  -1  -4  568.84   33.00
  -4  -3  -1  553.94   34.10
   3   1  -4  600.74   32.50
  -3  -1  -4  470.65   33.50
   3   1  -4  589.74   34.40
  -4   3   1  546.25   32.10
   4  -3   1  565.04   32.20
   4  -3   1  528.15   32.00
   3  -1   4  535.85   33.90
  -4   3   1  560.44   32.20
   3  -1   4  558.24   32.70
  -1  -4  -3  502.55   32.40
  -3  -1  -4  557.94   32.40
   3   1  -4  537.85   36.50
  -4  -3  -1  569.44   32.60
  -4  -3   1  596.64   34.10
   1  -4  -3  578.24   32.30
  -1  -4   3  540.55   33.10
  -3  -1   4  557.74   35.90
   4  -3  -1  553.14   32.40
  -1   4  -3  539.05   30.30
  -4   3  -1  517.05   32.20
  -4   3  -1  576.34   32.20
  -4   3  -1  562.04   32.00
   4  -3  -1  492.05   32.00
  -3  -1   4  569.34   36.00
  -3  -1   4  584.74   33.70
  -3   1  -4  488.05   32.20
  -3   1  -4  589.24   33.10
   1  -4  -3  587.84   34.00
  -1   4  -3  573.34   32.10
  -1  -4   3  514.55   30.80
   4   3   1  538.45   31.50
   4   3   1  573.34   31.60
   4   3   1  568.14   33.00
   1   4   3  579.24   31.60
   3  -1  -4  615.54   35.30
   3  -1  -4  593.84   36.20
   4  -3  -1  587.94   30.60
   3   1   4  591.74   35.10
   3   1   4  535.25   33.20
   3   1   4  568.44   33.10
   3   1   4  540.05   32.40
  -3   1  -4  548.35   32.60
   4  -3  -1  559.14   33.60
  -1  -4   3  574.54   33.90
  -4  -3   1  527.85   32.10
  -1   4  -3  556.94   31.20
   4   0   2 2328.77  117.69
   4   0  -2 2197.48  119.19
  -4   0  -2 2114.79  117.29
   4   0   2 2240.58  116.59
  -2  -4   0 2219.58  118.19
   0  -2  -4 2347.17  117.69
  -4   0   2 2438.36  119.79
   0   2   4 2135.59  116.79
   0   2  -4 2285.87  117.99
   0   2  -4 2087.59  118.89
   0   2  -4 2435.26  117.69
   2  -4   0 2326.67  116.19
  -4   0  -2 2199.08  116.09
   0  -2   4 2263.77  117.39
   2  -4   0 2363.86  116.59
   0  -2  -4 1996.30  119.89
   0  -2  -4 2145.39  118.59
  -4   0   2 2086.29  117.69
   0  -2   4 2136.89  118.29
   0  -2   4 2326.67  120.09
  -4   0  -2 2285.77  118.99
  -4   0   2 1963.00  118.69
   2  -4   0 2258.57  115.99
   2  -4   0 2293.37  116.79
  -2  -4   0 2332.17  116.19
  -2  -4   0 2267.07  114.79
   4   0  -2 2203.48  116.99
   4   0   2 2138.29  117.19
   4   0   2 2334.77  118.39
   4   0  -2 2116.19  118.59
  -4   0  -2 2224.48  117.99
   0   2   4 2366.26  119.09
   0   2   4 2366.56  116.39
   1  -2   4 1493.65   79.69
   4   1  -2 1424.16   78.99
   2  -4   1 1427.46   76.29
   2  -4   1 1444.56   76.79
   2  -4   1 1457.95   77.59
   1  -2   4 1398.56   77.49
  -4   1   2 1373.16   77.29
  -2  -4  -1 1520.75   75.69
  -2  -4  -1 1514.05   75.29
  -2  -4  -1 1517.15   77.79
  -1  -2  -4 1222.98   78.79
  -1  -2  -4 1477.65   78.69
   4  -1   2 1374.76   77.39
   2  -4   1 1508.25   76.09
  -1   2   4 1436.26   77.59
  -1   2   4 1595.54   79.29
   1  -2   4 1502.65   79.49
   1   2  -4 1572.74   77.59
  -4   1   2 1319.17   79.29
   1   2  -4 1480.75   78.79
   4   1  -2 1423.26   77.89
   1   2  -4 1375.56   79.49
  -4  -1  -2 1430.36   77.39
  -4  -1  -2 1486.05   78.29
  -4  -1  -2 1371.36   75.79
  -4  -1  -2 1466.35   79.09
   4  -1   2 1453.75   76.89
   4  -1   2 1488.45   77.99
  -1  -2  -4 1483.75   76.99
  -1  -2  -4 1525.85   77.59
  -1   2   4 1502.25   75.79
   1  -2   4 1391.96   78.09
   4   1  -2 1497.15   79.09
   4  -1   2 1553.74   78.79
  -4   1   2 1522.55   79.29
   4  -1  -2 1286.57   77.89
  -1  -2   4 1582.34   80.39
  -1   2  -4 1315.87   78.59
   4  -1  -2 1489.05   76.59
  -4   1  -2 1441.06   76.69
  -1   2  -4 1499.75   77.99
   4  -1  -2 1352.56   79.29
   4  -1  -2 1423.46   77.09
   1   2   4 1428.56   76.89
  -1  -2   4 1584.44   77.89
   1   2   4 1558.44   77.09
   2  -4  -1 1381.86   76.99
  -2  -4   1 1374.66   75.89
  -2  -4   1 1393.46   77.09
  -2  -4   1 1467.55   74.89
  -2  -4   1 1448.36   79.19
  -2   4  -1 1520.35   77.19
  -1  -2   4 1409.66   79.39
  -4  -1   2 1302.67   78.59
   4   1   2 1543.65   78.49
   4   1   2 1426.46   76.59
   4   1   2 1469.65   77.69
  -4   1  -2 1443.86   79.09
  -4  -1   2 1499.55   79.79
  -4  -1   2 1456.15   78.89
   4   1   2 1400.36   77.09
   2  -4  -1 1458.55   76.19
   2  -4  -1 1525.75   77.29
   2  -4  -1 1512.45   75.59
  -1   2  -4 1512.85   77.89
   1  -2  -4 1539.65   78.49
   1  -2  -4 1253.07   80.19
   1   2   4 1464.15   78.79
  -4   1  -2 1494.45   78.29
   2   4   1 1526.55   78.59
  -4   1  -2 1359.36   77.59
  -4  -2  -2 1394.96   79.09
  -4  -2  -2 1451.25   77.59
  -4  -2  -2 1522.45   81.39
   2  -2   4 1471.35   79.79
   2  -2   4 1444.66   81.39
   4   2  -2 1584.14   80.39
  -4  -2  -2 1529.25   80.29
   4  -2   2 1444.46   79.19
   4  -2   2 1511.35   80.29
  -2  -2  -4 1341.47   80.99
  -2  -2  -4 1498.45   80.29
  -2  -2  -4 1530.35   79.99
   4  -2   2 1384.86   79.59
   2   4  -2 1582.84   77.59
   2  -4   2 1550.34   79.49
  -2  -2  -4 1538.05   79.89
  -2  -4  -2 1550.74   79.49
   2   2  -4 1539.45   79.29
  -4   2   2 1464.65   78.89
  -2  -4  -2 1584.24   78.39
  -2  -4  -2 1505.05   78.69
  -4   2   2 1381.96   81.69
  -4   2   2 1562.64   80.89
   2   2  -4 1408.66   82.69
   2  -2   4 1387.96   80.09
   2  -2   4 1591.74   81.59
  -2  -4  -2 1473.25   78.99
   2  -4   2 1479.55   80.69
   2   2  -4 1656.83   81.59
  -2   2   4 1447.96   80.79
  -2   2   4 1593.14   81.29
   4   2  -2 1593.84   81.59
   4   2  -2 1544.25   77.29
   2  -4   2 1444.56   78.99
   2  -4   2 1497.75   79.09
   2  -4  -2 1451.85   79.59
   4   2   2 1515.65   79.89
  -2  -2   4 1438.06   82.49
   2  -2  -4 1546.75   81.69
   2  -2  -4 1491.35   82.89
   2   2   4 1583.34   81.79
   2   2   4 1546.75   79.69
  -4  -2   2 1351.66   80.49
  -4  -2   2 1616.54   82.39
  -4  -2   2 1452.85   81.49
   2   2   4 1454.65   78.99
  -2  -4   2 1517.05   80.19
  -2  -4   2 1494.15   80.09
  -2  -4   2 1515.65   77.59
  -2  -4   2 1444.76   81.69
   4   2   2 1406.76   78.49
   2   4   2 1556.74   79.99
   4  -2  -2 1406.86   81.49
   4  -2  -2 1331.47   79.99
   4  -2  -2 1465.35   79.69
   4  -2  -2 1455.05   77.99
  -4   2  -2 1557.64   80.19
  -2  -2   4 1524.55   82.69
  -2   2  -4 1565.24   80.19
  -2   2  -4 1472.55   79.89
  -2   4  -2 1465.55   79.29
   2  -4  -2 1639.94   80.59
   4   2   2 1366.06   78.59
   4   2   2 1624.54   80.39
  -4   2  -2 1417.96   79.09
  -4   2  -2 1434.26   81.19
  -4   2  -2 1379.26   79.79
  -4   3   2  625.14   34.80
   3  -2   4  628.64   36.40
  -4   3   2  662.93   36.60
  -2  -4  -3  649.34   36.20
  -2  -4  -3  672.03   36.20
   2  -4   3  632.54   36.20
   2  -4   3  631.74   36.80
   2  -4   3  627.24   35.70
   2  -4   3  593.54   38.00
   2   4  -3  661.13   34.40
  -4   3   2  609.34   38.10
   4  -3   2  598.34   36.10
   4  -3   2  628.54   35.90
   4  -3   2  645.74   37.10
   4   3  -2  641.64   35.40
   4   3  -2  595.14   37.50
  -4  -3  -2  611.24   35.40
  -4  -3  -2  646.34   36.50
  -4  -3  -2  629.24   33.60
  -4  -3  -2  648.04   38.00
  -3  -2  -4  632.64   36.20
   3  -2   4  607.54   38.20
   3   2  -4  736.53   38.90
   3   2  -4  573.34   40.30
   3  -2   4  579.14   36.60
   3  -2   4  668.93   38.30
  -3   2   4  545.15   38.40
  -3   2   4  666.13   38.10
  -2  -4  -3  656.73   35.20
  -3  -2  -4  646.44   36.60
  -3  -2  -4  556.34   37.40
  -2  -4  -3  614.04   36.20
  -3  -2  -4  655.73   37.60
   3   2  -4  628.94   35.50
  -3  -2   4  635.34   39.70
  -3  -2   4  654.03   39.70
  -3   2  -4  546.35   36.10
  -3   2  -4  671.23   37.00
  -3   2  -4  605.24   36.40
   2   4   3  647.24   36.00
   3  -2  -4  702.93   39.30
   3  -2  -4  649.74   39.50
  -4  -3   2  555.34   36.70
   4   3   2  598.34   34.70
   4   3   2  662.53   36.30
   4   3   2  613.14   36.40
  -4   3  -2  592.54   35.80
  -2  -4   3  621.14   37.60
  -2  -4   3  660.13   37.70
  -2  -4   3  661.33   34.60
  -2  -4   3  640.84   38.80
   2  -4  -3  634.64   37.80
  -3  -2   4  655.83   38.10
   3   2   4  610.94   35.50
   3   2   4  666.93   38.90
   3   2   4  625.44   36.50
   4  -3  -2  593.44   38.00
   4  -3  -2  577.84   36.40
   4  -3  -2  607.44   36.50
   4  -3  -2  621.44   33.70
  -2   4  -3  602.64   34.80
  -4   3  -2  647.34   36.10
  -2   4  -3  632.24   36.10
  -2   4  -3  623.94   35.10
  -4   3  -2  600.74   36.20
   2  -4  -3  594.04   37.30
  -4  -3   2  696.13   38.90
  -4  -3   2  622.24   38.60
  -4   0  -3  772.92   44.70
  -4   0  -3  808.92   45.50
   0  -3   4  711.83   45.30
   4   0   3  740.53   45.10
   0  -3   4  790.72   44.30
   0   3  -4  836.42   45.20
   0   3  -4  748.83   45.30
   0   3  -4  872.71   44.80
   0   3   4  774.32   43.00
   0   3   4  891.01   44.40
   0   3   4  793.12   42.60
   3  -4   0  836.52   44.10
   3  -4   0  792.82   43.80
   3  -4   0  774.12   44.10
   3  -4   0  834.12   43.70
   3   4   0  812.12   46.30
   4   0  -3  877.41   47.60
   4   0  -3  749.82   46.70
   4   0   3  750.62   44.50
   4   0   3  849.81   46.40
   4   0   3  789.32   44.40
  -4   0   3  885.81   47.80
   0  -3  -4  832.32   44.70
   0  -3  -4  662.13   46.90
   0  -3  -4  715.33   45.90
  -4   0  -3  902.31   44.20
  -4   0  -3  784.62   46.50
  -4   0   3  752.42   47.30
  -3  -4   0  764.92   46.10
  -4   0   3  791.42   45.30
  -3  -4   0  816.62   43.10
  -3  -4   0  834.72   44.20
   0  -3   4  842.32   47.30
   1   3  -4  607.04   33.80
  -1  -3  -4  563.64   32.10
  -4   1   3  577.94   35.00
  -4   1   3  520.75   32.10
  -3  -4  -1  565.94   30.80
  -3  -4  -1  557.44   31.50
  -3  -4  -1  558.54   33.50
   4   1  -3  586.84   35.30
   4   1  -3  560.64   35.20
   4   1  -3  650.23   32.10
   3  -4   1  562.94   32.00
   3  -4   1  578.44   31.60
   3  -4   1  555.04   31.80
  -1  -3  -4  471.45   33.80
   1  -3   4  545.35   33.20
   1  -3   4  561.64   34.40
   1  -3   4  546.75   32.40
   4  -1   3  571.74   32.40
  -4  -1  -3  504.45   32.20
  -4  -1  -3  560.84   33.30
  -4  -1  -3  575.34   31.50
  -4  -1  -3  577.64   34.70
   4  -1   3  547.85   33.60
   1   3  -4  609.54   32.30
  -1   3   4  577.64   32.20
   4  -1   3  515.25   32.70
   4  -1   3  586.64   34.30
  -1  -3  -4  526.95   33.60
   3  -4   1  566.34   32.60
  -4   1   3  521.05   35.30
  -1   3   4  533.75   31.30
   1   3  -4  549.95   33.90
  -1  -3  -4  565.64   31.70
  -4   1  -3  536.55   32.00
  -4   1  -3  502.45   32.60
  -3  -4   1  604.84   33.40
   4   1   3  583.44   34.20
   4   1   3  554.94   32.40
   4   1   3  559.34   33.00
  -4  -1   3  567.44   34.00
  -3  -4   1  546.05   31.60
   1   3   4  550.34   30.90
   1   3   4  568.64   32.40
   1   3   4  583.34   31.50
   3  -4  -1  580.84   32.90
   3  -4  -1  547.75   31.70
   3  -4  -1  565.44   32.50
   3  -4  -1  577.94   30.40
  -3   4  -1  575.74   30.60
  -3   4  -1  567.14   32.30
  -3   4  -1  499.15   31.40
  -4   1  -3  571.04   34.90
   3   4   1  556.24   33.50
   4  -1  -3  626.24   35.70
   4  -1  -3  487.65   34.30
  -3  -4   1  526.45   34.40
  -4   1  -3  590.34   33.40
  -1  -3   4  524.45   34.20
  -4  -1   3  517.95   35.00
  -4  -1   3  618.84   35.90
  -1  -3   4  614.84   32.30
  -1   3  -4  585.14   32.70
  -1   3  -4  594.74   32.90
   1  -3  -4  478.95   35.00
   4   1   3  525.35   32.10
   1  -3  -4  603.64   33.40
  -1  -3   4  605.44   35.40
   3  -4   2  612.74   37.20
  -2  -3  -4  546.65   37.20
   3  -4   2  626.04   35.80
  -2  -3  -4  651.23   36.40
   4  -2   3  579.74   36.50
   4  -2   3  666.43   38.00
   4  -2   3  626.94   36.00
   4  -2   3  608.64   37.60
   4   2  -3  594.74   37.80
   4   2  -3  627.24   39.20
   4   2  -3  630.24   34.70
  -2   3   4  648.64   36.30
  -2  -3  -4  674.83   36.30
  -3  -4  -2  673.63   35.60
   2  -3   4  595.64   36.80
  -2  -3  -4  664.93   37.40
  -4  -2  -3  564.44   35.70
  -4  -2  -3  664.73   37.20
  -4  -2  -3  616.74   34.80
  -4  -2  -3  662.63   38.40
   3  -4   2  619.04   35.80
   3  -4   2  659.83   36.70
   2  -3   4  601.14   36.00
   2  -3   4  606.14   38.70
   2   3  -4  713.93   37.50
   2   3  -4  632.84   38.20
   2   3  -4  670.03   35.50
   2  -3   4  620.84   37.70
  -3  -4  -2  653.23   37.20
  -4   2   3  586.34   34.90
  -4   2   3  646.74   38.10
  -3  -4  -2  643.34   34.40
  -2   3   4  610.34   36.10
  -4   2   3  596.64   38.90
  -4  -2   3  632.94   39.00
  -4  -2   3  632.54   38.30
  -4   2  -3  576.94   36.40
  -4   2  -3  661.53   37.00
  -4   2  -3  624.24   36.10
  -4   2  -3  630.34   38.50
  -4  -2   3  705.13   39.90
   3  -4  -2  623.94   37.60
   2   3   4  647.44   35.90
   4   2   3  571.84   35.80
   3  -4  -2  583.74   35.80
   2   3   4  609.14   36.20
  -3  -4   2  601.74   36.80
  -3  -4   2  661.13   38.00
  -3  -4   2  620.64   38.80
  -3   4  -2  596.64   35.10
  -3   4  -2  644.74   34.80
  -3   4  -2  624.24   36.20
   4   2   3  690.63   38.10
   3   4   2  616.74   36.70
   4  -2  -3  722.93   39.60
   4  -2  -3  554.74   37.80
  -2  -3   4  633.04   39.30
  -2  -3   4  687.33   39.20
  -2  -3   4  709.53   36.20
  -2   3  -4  577.04   35.80
  -2   3  -4  676.73   36.50
  -2   3  -4  624.44   36.60
   3  -4  -2  611.94   36.50
   4   2   3  599.44   35.40
   2  -3  -4  635.74   38.20
   2  -3  -4  639.24   39.50
   4   2   3  633.24   36.70
   2   3   4  606.24   34.50
  -4  -3  -3  325.57   21.60
  -4  -3  -3  373.36   23.20
  -4  -3  -3  357.26   20.60
  -4  -3  -3  370.46   24.90
   3  -3   4  304.87   22.80
   3  -3   4  314.67   23.80
   4  -3   3  316.27   22.70
   4  -3   3  327.37   23.60
   4  -3   3  336.17   22.30
   4  -3   3  334.47   24.60
  -4   3   3  311.87   24.70
  -4   3   3  362.16   23.40
  -3  -4  -3  363.56   22.00
  -3  -4  -3  331.77   22.60
  -3  -4  -3  350.76   21.30
  -3  -4  -3  363.46   23.60
   3  -3   4  347.37   22.40
   3  -3   4  329.87   25.30
   3   3  -4  389.16   24.20
  -3  -3  -4  361.56   22.50
  -3  -3  -4  323.17   23.90
  -3  -3  -4  372.76   22.60
  -3  -3  -4  338.17   23.70
   4   3  -3  327.27   25.90
   3   4  -3  366.96   19.70
   3  -4   3  313.47   22.20
   3   3  -4  315.37   25.20
   3   3  -4  347.07   21.00
   3  -4   3  320.07   24.60
  -3   3   4  330.67   23.80
  -3   3   4  357.36   23.00
   3  -4   3  367.76   23.40
   4   3  -3  366.06   23.10
   3  -4   3  346.67   22.20
  -3   4   3  348.07   20.90
  -3   4   3  359.86   20.60
  -3   4  -3  318.07   22.30
   3  -4  -3  304.87   23.70
  -3  -3   4  378.76   25.30
  -3   4  -3  304.77   21.40
   3  -4  -3  377.86   24.70
  -3   3  -4  316.47   22.40
   3  -3  -4  374.66   25.60
   3  -3  -4  380.76   26.60
  -4  -3   3  338.17   25.00
  -4  -3   3  386.26   25.70
  -3  -4   3  351.26   24.70
  -3  -4   3  337.27   24.50
  -3  -4   3  355.96   25.40
  -3   3  -4  323.07   22.40
  -3   3  -4  360.86   22.60
   3   3   4  315.17   20.50
   3   3   4  352.46   23.50
   3   3   4  344.97   22.60
  -3  -3   4  378.46   26.00
   3   4   3  345.17   22.70
   4  -3  -3  393.16   25.70
   4  -3  -3  303.07   24.10
  -4  -3   3  358.46   25.50
  -4   3  -3  324.57   22.60
  -4   3  -3  357.46   22.60
  -4   3  -3  312.97   22.20
  -3   4  -3  358.66   21.40
  -3  -3   4  334.57   25.70
   4   3   3  317.77   20.60
   4   3   3  349.47   23.70
   4   3   3  328.17   22.80
  -4  -4   0  807.22   44.20
  -4  -4   0  830.92   45.40
  -4  -4   0  785.22   47.30
  -4   0  -4  690.83   45.10
  -4   0  -4  849.32   46.20
  -4   0  -4  798.22   44.80
  -4   0  -4  691.43   46.80
  -4   0   4  787.22   48.60
  -4   0   4  716.03   47.80
  -4   0   4  856.11   45.90
  -4   4   0  764.82   45.60
  -4   4   0  844.02   43.80
   0  -4  -4  858.01   45.00
   0  -4  -4  738.73   47.90
   0  -4   4  747.13   45.80
   0  -4   4  859.31   47.80
   0  -4   4  788.32   44.30
   0   4  -4  740.93   43.30
   0   4  -4  884.01   45.20
   0   4  -4  817.82   44.80
   4  -4   0  840.12   45.20
   4  -4   0  790.72   44.60
   4  -4   0  796.62   44.90
   4  -4   0  841.42   44.00
   4   0  -4  825.52   47.90
   4   0  -4  792.62   48.50
   4   0   4  762.62   45.40
   4   0   4  848.12   47.60
   4   0   4  771.22   45.50
   4   0   4  804.62   46.30
   4   4   0  778.62   46.70
  -4  -4  -1  686.83   37.80
  -4  -4  -1  694.43   38.80
  -4  -4  -1  635.94   40.60
   4  -1   4  664.73   39.20
   4  -1   4  633.04   40.50
  -4  -1  -4  584.14   38.60
  -4  -1  -4  704.43   40.00
  -4  -1  -4  651.53   38.30
  -4  -1  -4  660.83   41.00
   4  -4   1  659.63   38.70
   1   4  -4  713.63   38.20
   4   1  -4  748.13   38.60
   4  -1   4  598.54   39.30
   4  -1   4  709.33   41.40
   1  -4   4  664.73   38.30
   1   4  -4  728.13   38.50
  -4   1   4  617.14   42.20
  -4   1   4  719.63   42.10
  -4   1   4  642.04   38.30
   1  -4   4  733.73   41.00
   4  -4   1  693.03   38.70
  -4   4   1  625.14   39.10
  -4   4   1  713.43   37.60
  -1  -4  -4  703.63   38.30
  -1  -4  -4  597.04   39.90
  -1  -4  -4  651.73   40.30
  -1  -4  -4  695.93   37.50
   4   1  -4  694.03   43.10
   1   4  -4  656.43   38.40
   4  -4   1  699.23   38.40
   4  -4   1  663.33   38.40
   1  -4   4  690.43   39.70
  -1   4  -4  671.23   38.90
   1  -4  -4  710.33   39.60
   1  -4  -4  594.84   41.40
  -4   4  -1  722.23   37.80
  -4   4  -1  594.04   38.30
  -4   1  -4  640.84   38.70
  -4   1  -4  680.03   41.50
  -4  -1   4  688.93   40.30
  -4  -1   4  772.62   43.50
   1   4   4  683.33   37.60
   4  -4  -1  677.63   39.70
   4  -4  -1  639.84   38.50
   4  -4  -1  691.93   39.20
   4  -4  -1  710.93   36.60
  -1  -4   4  679.83   38.00
  -1   4  -4  630.04   37.40
  -1   4  -4  689.03   38.50
  -4  -1   4  628.84   42.20
   4  -1  -4  755.52   42.10
   4  -1  -4  630.24   41.90
  -4   1  -4  700.03   40.00
  -4  -4   1  637.54   38.40
  -4  -4   1  703.13   40.20
  -4  -4   1  629.54   41.50
  -1  -4   4  729.53   41.10
  -1  -4   4  719.73   41.70
   4   1   4  613.74   38.50
   4   1   4  731.33   41.80
   4   1   4  667.33   39.40
   4   1   4  653.03   39.50
   4   4   1  641.94   39.90
  -4  -4  -2  553.04   31.90
  -4  -4  -2  592.44   33.20
  -4  -4  -2  549.25   29.70
  -4  -4  -2  566.94   35.30
  -4   4   2  586.14   31.90
   4  -4   2  539.55   32.90
   4  -4   2  547.55   32.80
  -4  -2  -4  469.65   32.50
  -4  -2  -4  574.84   34.10
  -4  -2  -4  576.44   32.40
  -4  -2  -4  484.35   35.00
   4   2  -4  650.93   36.50
   4   2  -4  533.95   38.10
   4   2  -4  579.34   31.90
   2  -4   4  532.75   32.60
  -4   2   4  504.45   36.50
  -4   2   4  602.14   35.80
  -4   2   4  501.25   31.00
   2  -4   4  528.75   33.60
   4  -2   4  582.54   35.80
  -4   4   2  532.65   33.40
   2   4  -4  533.55   32.40
  -2  -4  -4  549.85   32.40
  -2  -4  -4  500.85   33.80
  -2  -4  -4  608.34   34.20
  -2  -4  -4  575.34   33.00
   2   4  -4  528.95   33.00
   4  -2   4  546.65   33.30
   2  -4   4  576.74   34.80
   2   4  -4  594.04   31.80
   4  -4   2  570.44   34.30
  -2   4  -4  585.84   32.70
  -2   4  -4  468.55   32.70
   2  -4  -4  592.64   35.30
   2  -4  -4  563.04   36.40
  -4   4  -2  508.25   32.50
  -2  -4   4  602.94   32.20
  -4   2  -4  470.15   33.20
  -4  -4   2  527.25   33.90
  -2  -4   4  550.54   35.80
  -2  -4   4  580.34   36.00
   2   4   4  571.94   32.50
   4  -4  -2  529.55   34.80
   4  -4  -2  507.65   33.00
   4  -4  -2  541.05   34.00
  -4  -4   2  601.44   35.30
  -4  -4   2  521.45   35.90
  -2   4  -4  508.95   32.00
   4  -2  -4  612.04   36.30
  -4   4  -2  604.34   32.40
  -2  -4   4  622.84   36.00
  -4  -2   4  580.24   37.00
  -4  -2   4  597.74   35.70
  -4   2  -4  523.35   33.80
   4   2   4  529.85   32.30
   4   2   4  646.14   36.50
   4   2   4  545.65   34.10
   4   2   4  520.15   33.60
   4   4   2  538.85   33.90
  -4  -4  -3  321.67   21.70
  -4  -4  -3  361.56   23.20
  -4  -4  -3  334.27   20.20
  -4  -4  -3  355.76   25.50
   3  -4   4  330.27   22.60
   4  -3   4  358.26   25.60
   4  -3   4  329.07   22.80
  -4  -3  -4  354.36   23.60
  -4  -3  -4  354.76   21.70
  -4  -3  -4  346.57   25.80
   3  -4   4  351.76   24.80
   4   4  -3  332.97   23.40
   4  -4   3  367.86   24.40
   4   4  -3  342.47   21.10
  -4   3   4  313.67   25.90
  -4   3   4  366.66   24.50
  -3   4   4  323.77   21.70
   4   3  -4  354.66   24.50
  -4   4   3  308.17   23.20
  -4   4   3  342.17   22.00
  -3  -4  -4  341.57   22.40
  -3  -4  -4  305.47   24.10
  -3  -4  -4  311.87   22.50
  -3  -4  -4  342.87   24.40
   3   4  -4  348.27   20.60
   4   3  -4  269.47   26.70
   4   3  -4  339.57   20.70
   3   4  -4  299.07   21.90
   3   4  -4  300.27   23.20
   4  -4   3  325.17   22.40
  -3   4   4  344.27   21.20
   3  -4  -4  402.76   26.90
  -4   4  -3  291.67   22.60
  -4  -3   4  365.36   26.50
  -4  -4   3  318.97   25.50
  -3   4  -4  296.87   22.30
  -3   4  -4  357.86   22.60
  -4  -3   4  343.77   26.10
   3   4   4  336.37   23.10
   4  -4  -3  360.26   26.10
   4  -4  -3  277.47   24.50
   4  -4  -3  299.37   23.50
  -4   3  -4  310.47   23.30
   3  -4  -4  337.87   27.00
   4  -3  -4  338.57   26.00
  -4  -4   3  277.47   24.50
  -4  -4   3  329.27   26.10
  -4   4  -3  363.66   22.40
  -3  -4   4  348.47   26.30
  -3  -4   4  385.06   26.20
   4   3   4  318.87   20.90
   4   3   4  376.36   25.60
   4   3   4  332.17   23.10
  -4   3  -4  364.86   23.50
  -3  -4   4  344.17   26.60
   4   4   3  328.37   23.30
  -4  -4  -4  240.58   19.60
  -4  -4  -4  238.78   17.60
  -4  -4  -4  248.38   23.60
   4   4  -4  234.48   15.40
   4   4  -4  230.68   19.00
   4   4  -4  190.28   20.90
   4  -4   4  254.77   21.90
  -4   4   4  241.88   20.50
  -4   4   4  252.17   18.90
   4  -4   4  231.08   18.90
  -4   4  -4  248.28   18.90
   4  -4  -4  278.37   23.50
  -4  -4   4  251.97   23.30
  -4   4  -4  215.78   19.60
  -4  -4   4  242.98   22.20
  -5   0   0  137.79   12.80
  -5   0   0  161.58   13.80
  -5   0   0  146.69   14.80
   0  -5   0  171.28   10.80
   0  -5   0  144.39   12.80
   0   0  -5  167.58   13.30
   0   0  -5  136.19   16.10
   0   0  -5  166.48   14.30
   0   0   5  149.69   13.60
   0   0   5  165.08   15.80
   0   0   5  164.08   15.20
   5   0   0  165.88   13.20
   5   0   0  136.19   11.80
   5   0   0  160.68   11.10
   5   0   0  163.48   12.20
   5   1   0   75.69    8.70
   5  -1   0   79.19    8.80
  -5  -1   0   73.99    9.20
  -5  -1   0   85.99   10.40
  -5  -1   0  101.29   12.90
  -5   1   0   73.39    9.50
  -5   1   0   79.19   10.10
  -5   1   0   87.39   12.10
  -1   0  -5   84.89    9.30
  -1   0  -5   76.99   12.40
  -1   0  -5   85.69   10.80
  -1   0   5   66.89   10.90
  -1   0   5   76.29   12.10
   0  -5  -1   81.39    7.80
   0  -5  -1   87.69    8.20
   0  -5   1   77.29    7.10
   1   0  -5   78.99   10.20
   1   0  -5   85.29   14.20
   1   0  -5   81.59   10.90
   1   0   5   69.09    9.50
   1   0   5   88.79   13.00
   1   0   5   75.49   10.70
   1   0   5   79.79   10.60
   5  -1   0   89.49    9.80
   5   1   0   72.29    8.70
   5  -1   0   84.19    8.40
   5  -1   0   82.89    8.70
   5   1   0   88.29    9.60
   5   1   0   80.99    7.00
   2   0   5  197.98   15.30
   2   0  -5  198.88   16.20
   2   0   5  203.38   16.60
   2   0   5  205.18   17.80
   5  -2   0  217.58   15.80
   5  -2   0  180.08   14.40
   5  -2   0  205.48   14.60
   5  -2   0  215.78   14.30
   5   2   0  213.58   14.30
   5   2   0  177.28   14.80
   5   2   0  182.68   15.10
   2   0   5  235.48   19.30
   0  -5   2  194.68   13.10
   0   5  -2  214.88   14.10
   2   0  -5  229.88   17.90
   2   0  -5  147.29   20.70
   0  -5   2  191.68   13.60
   0  -5   2  212.48   14.00
  -2   0   5  184.88   18.10
   0  -5  -2  216.08   12.70
  -2   0  -5  170.38   17.50
  -5  -2   0  180.98   15.00
  -5  -2   0  205.58   16.50
  -5  -2   0  178.38   17.30
  -5   2   0  164.88   15.50
  -5   2   0  196.78   15.60
  -5   2   0  195.98   17.10
  -2   0  -5  203.48   15.30
  -2   0   5  200.68   18.30
  -2   0  -5  205.28   16.10
  -5  -3   0  104.89   15.00
   5  -3   0   94.09   11.00
  -5  -3   0  119.19   13.00
   5   3   0  123.79   11.80
   5   3   0  100.49   12.30
   3   0   5  111.39   12.30
   3   0   5   80.69   14.80
   3   0   5   98.99   13.10
   3   0   5   96.59   14.20
   5  -3   0  106.49   10.50
   5   3   0  107.29   11.80
   3   0  -5  142.89   13.20
   0  -5  -3  116.09   10.10
   0  -5  -3  105.39   13.20
   0  -5  -3  114.89    8.50
   0  -5   3  111.39   11.40
   0  -5   3  139.59   13.00
   0  -5   3  109.19    9.70
   0   5  -3  121.49   10.90
   3   0  -5  141.19   15.00
   3   0  -5  101.89   17.50
  -3   0   5  114.69   15.20
  -3   0   5  101.19   11.90
  -3   0  -5  116.09   12.50
   5  -3   0  105.49   12.10
   5  -3   0  102.19   11.00
  -3   0   5  118.89   16.50
  -3   0  -5   83.29   13.70
  -5  -3   0  112.89   11.80
  -5   3   0  113.49   13.70
  -3   0  -5  112.59   12.10
  -5   3   0   82.79   12.60
  -5   3   0  120.19   11.90
   0  -5  -4  213.58   16.60
   0  -5  -4  189.28   21.00
  -5  -4   0  185.68   20.60
  -4   0  -5  235.08   18.00
  -4   0   5  212.78   18.00
  -5   4   0  172.48   19.40
  -5   4   0  232.48   16.70
   5  -4   0  238.18   17.90
   5  -4   0  180.88   16.20
   5  -4   0  245.58   17.50
   5  -4   0  196.88   15.70
   4   0  -5  247.28   20.20
   4   0  -5  247.38   18.10
   4   0   5  250.07   22.10
   4   0   5  192.68   18.50
  -5  -4   0  214.48   17.20
  -5  -4   0  234.38   18.70
  -4   0   5  243.58   21.40
   0  -5   4  223.18   20.50
   0  -5   4  201.88   15.70
   0   5  -4  205.18   16.90
  -4   0  -5  201.98   20.30
   0  -5   4  203.18   18.40
   1  -5   0   81.79    7.70
   0   1   5   81.49   10.70
  -5   0  -1   87.59   10.20
  -5   0  -1   79.89    7.20
  -5   0  -1   76.19   11.00
  -5   0   1   68.19    9.60
   0   1   5   74.29   11.70
   5   0  -1   93.59   11.00
  -1  -5   0   82.49    6.70
   5   0  -1   60.19    8.90
   5   0  -1   95.59    8.20
   5   0  -1   80.49    8.60
   5   0   1   73.99    8.70
   5   0   1   72.49    8.20
   5   0   1   88.49    8.10
   5   0   1   66.59    9.00
  -5   0   1   74.59   10.50
  -5   0   1   91.59   12.50
   0  -1  -5   80.09   11.10
   0  -1  -5   65.89   12.10
  -1  -5   0   96.09   10.40
   0  -1   5   69.19   10.20
   0  -1   5   76.79   10.10
   0  -1   5  100.19   12.90
  -5   0  -1   75.99    9.10
   0   1  -5   70.59   11.40
   0   1  -5   79.49   10.10
   0   1   5   76.69    9.90
   0   1  -5   85.59    9.70
   0  -1  -5   77.69    9.50
   0  -1   5   72.09   10.90
  -1  -5  -1   32.90    4.60
  -5  -1  -1   28.20    5.90
  -5  -1  -1   31.80    7.00
  -5  -1  -1   34.10    4.90
  -5   1   1   31.10    7.60
   5  -1   1   42.70    6.80
   1  -5   1   36.00    4.90
   1  -5   1   31.10    5.20
  -1   1   5   33.20    7.40
  -1  -1  -5   28.20    8.30
   1   1  -5   24.60    7.20
   5   1  -1   34.80    4.70
  -1   1   5   27.80    7.80
   1  -1   5   30.30    6.70
  -1  -5  -1   38.50    6.20
  -5   1   1   35.50    7.70
  -5   1   1   30.70    6.90
   5   1  -1   36.60    7.10
   5  -1   1   36.20    6.00
   5  -1   1   36.80    6.20
   5  -1   1   30.00    5.50
  -5  -1  -1   28.40    8.00
   1  -5   1   34.90    4.30
  -1  -1  -5   36.00    8.20
  -1   1   5   37.00    9.20
  -1  -1  -5   42.80    7.40
   1  -1   5   44.80    9.80
   1  -1   5   36.00    7.00
   5   1  -1   23.50    5.40
   5   1  -1   39.50    7.40
   1  -1   5   31.20    8.70
   1   1  -5   35.50    7.30
   1   1  -5   32.70    9.50
   5  -1  -1   32.50    7.40
   1   1   5   32.50    6.40
   1   1   5   36.30    9.00
   1   1   5   33.50    7.50
   5  -1  -1   42.70    6.50
  -1  -1   5   31.70    8.00
  -5   1  -1   38.90    7.50
   1  -1  -5   27.50    6.80
  -5   1  -1   31.20    8.10
  -1   1  -5   39.40    7.00
  -1   1  -5   26.00    7.60
   5   1   1   36.30    5.20
   5   1   1   36.30    6.00
   5  -1  -1   25.90    5.70
  -1  -1   5   34.00    7.60
  -5   1  -1   33.50    6.80
   1  -5  -1   40.90    6.10
   1  -5  -1   38.40    5.30
  -5  -1   1   27.80    6.80
  -5  -1   1   38.20    8.20
  -5  -1   1   28.20    7.70
   1  -1  -5   28.20    6.50
   1  -1  -5   29.00    9.90
  -5   1  -1   27.40    5.00
  -1  -5   1   34.90    4.80
  -1   1  -5   44.30    7.80
  -1  -5   1   31.10    7.60
   5   1   1   31.50    5.70
   5  -1  -1   36.40    5.50
   5   2  -1  132.99   13.80
   2  -1   5  119.89   15.20
   5   2  -1  144.09   12.40
   5   2  -1  129.39   12.90
   2   1  -5  119.29   12.80
   1  -5   2  138.59   10.60
   1   5  -2  141.49   10.80
  -2   1   5  133.69   14.90
  -2   1   5  162.98   16.00
   5  -2   1  139.59   11.70
   2  -1   5  121.19   12.70
   2  -1   5  150.28   15.60
   2  -1   5  129.29   12.70
   2   1  -5  122.29   17.60
  -5  -2  -1  130.89   12.00
  -5  -2  -1  132.69   13.00
  -5  -2  -1  131.39    8.50
  -5  -2  -1  115.49   14.60
   5  -2   1  126.89   11.60
   2   1  -5  148.89   14.80
   1  -5   2  138.89   10.60
  -5   2   1  122.49   14.00
  -5   2   1  139.09   13.30
  -5   2   1  128.19   13.40
  -2  -1  -5  151.68   12.40
  -2  -1  -5  121.39   15.30
  -2  -1  -5  135.69   13.80
   1  -5   2  141.09   11.00
  -1  -5  -2  135.59   10.80
   5  -2   1  117.19   11.90
   5  -2   1  144.49   12.30
  -5   2  -1  138.19   12.60
   2  -1  -5  134.19   13.40
  -2   1  -5  145.69   12.50
  -2  -1   5  144.49   15.50
  -1  -5   2  139.49   12.00
  -1  -5   2  149.59   12.50
  -5   2  -1  140.59   15.20
  -1  -5   2  132.99   14.60
  -1   5  -2  136.69   11.70
   1  -5  -2  137.59   11.70
   1  -5  -2  143.49   11.00
  -5   2  -1  133.69   11.30
   5  -2  -1  142.79   10.80
  -2  -1   5  142.59   16.00
   2   1   5  123.49   12.20
   2   1   5  142.49   16.30
   2  -1  -5  154.08   14.80
   2  -1  -5  117.89   18.20
  -1  -5   2  126.99    9.50
   2   1   5  148.09   14.40
   5  -2  -1  114.29   11.80
   5  -2  -1  130.39   12.20
   5  -2  -1  156.78   14.20
   5   2   1  126.19    9.60
  -2   1  -5  109.99   14.80
  -2   1  -5  142.39   13.00
   5   2   1  126.89   12.90
   1  -5  -2  135.69   11.70
   5   2   1  115.79   11.80
  -5  -2   1  137.59   14.90
   5   2   1  125.79   11.20
  -5  -2   1  131.99   12.80
  -5  -2   1  157.08   14.20
   2   1   5  125.99   14.10
  -5   2  -1  128.29   12.90
   5   3  -1  114.59   10.20
   5   3  -1  115.39   13.00
   5  -3   1  103.99   11.20
   5  -3   1   97.69   11.70
  -5   3   1   97.69   12.60
  -5  -3  -1  119.39   12.40
  -3  -1  -5   80.29   13.50
   3   1  -5  107.49   12.40
  -1  -5  -3   90.99   11.20
  -3  -1  -5  123.39   12.90
   5  -3   1  112.89   11.50
   5  -3   1   81.69   10.70
  -5  -3  -1   86.09   13.40
  -5   3   1  125.19   12.20
   1  -5   3  118.79   12.10
  -3   1   5  112.59   14.70
  -3   1   5  102.49   11.20
   3  -1   5  117.89   15.30
   3  -1   5  102.39   12.90
   3  -1   5   81.09   12.40
   3   1  -5  122.39   14.80
  -3  -1  -5  108.49   11.70
   1  -5   3  106.59   10.80
  -5  -3  -1  104.19   11.10
   1   5  -3   96.59   10.00
  -1  -5  -3  104.79   10.00
  -3   1   5   94.39   16.30
   3   1  -5   61.89   15.10
  -5   3   1   78.59   14.30
  -1  -5  -3  111.19    9.10
  -3  -1  -5  102.99   13.60
   1  -5   3   97.59    9.80
   1  -5  -3  102.99   13.60
  -1   5  -3  108.39   11.60
  -3  -1   5  101.69   15.30
  -3  -1   5  114.69   13.20
  -3   1  -5   94.19   11.50
   1  -5  -3  103.89   11.60
  -5   3  -1   99.19   11.30
  -5   3  -1   99.29   12.40
   5  -3  -1  106.19    9.30
   3  -1  -5  119.79   14.80
  -1  -5   3  110.79   13.10
   5  -3  -1   97.39   11.00
   5  -3  -1  120.59   12.20
   3   1   5   94.39   13.80
   5  -3  -1   96.29   12.80
  -5  -3   1   97.79   14.60
   5   3   1  100.99   11.10
   5   3   1  121.19   12.10
   3  -1  -5  106.99   12.70
  -5  -3   1   98.89   13.20
  -5   3  -1  100.79   11.60
  -1  -5   3  102.79   12.00
  -5  -3   1  114.09   12.20
  -5   3  -1  104.69   14.50
  -1  -5   3   99.29    9.30
   3   1   5  101.89   11.40
   3   1   5  101.89   15.90
   3   1   5   95.79   13.70
   5  -4   1  199.98   16.80
  -1  -5  -4  192.28   14.90
   4   1  -5  219.78   16.90
  -1  -5  -4  200.08   15.20
  -1  -5  -4  203.38   18.10
  -5  -4  -1  221.18   17.70
  -1  -5  -4  179.98   18.70
   1  -5   4  181.88   15.00
   1   5  -4  201.78   15.70
  -4  -1  -5  201.28   19.90
  -5  -4  -1  175.88   20.10
  -5  -4  -1  186.58   16.00
   1  -5   4  191.68   17.20
   1  -5   4  193.48   18.70
  -5   4   1  210.18   16.10
  -4  -1  -5  205.98   17.60
   4   1  -5  254.27   20.60
  -4   1   5  209.08   20.70
  -4   1   5  189.78   16.50
   4  -1   5  198.38   20.40
   5  -4   1  202.78   16.30
   5  -4   1  204.78   16.50
  -5   4   1  196.88   19.20
   4  -1   5  178.28   17.70
  -5  -4   1  212.18   18.90
   1  -5  -4  207.78   17.40
   4  -1  -5  199.78   19.00
   1  -5  -4  147.89   20.70
  -5  -4   1  188.38   17.20
  -1  -5   4  198.68   19.50
   1   5   4  160.98   15.80
  -4  -1   5  204.08   20.40
  -4  -1   5  200.08   18.50
   4   1   5  196.88   19.00
   5  -4  -1  186.38   17.70
   5  -4  -1  208.28   17.20
   5  -4  -1  185.88   13.80
  -5   4  -1  203.08   15.80
  -5  -4   1  185.38   20.30
  -4   1  -5  215.98   17.50
  -1  -5   4  196.38   18.60
  -1  -5   4  198.78   14.90
   4   1   5  231.38   22.20
  -5   4  -1  168.88   17.20
   5   0   2  170.08   14.20
   5   0   2  212.68   15.70
   0  -2   5  220.68   18.90
   5   0  -2  195.28   14.80
   0  -2   5  194.78   16.90
   0   2   5  224.18   15.10
   2  -5   0  207.18   12.90
   2  -5   0  200.48   12.90
   2  -5   0  202.28   14.00
   2  -5   0  198.58   14.30
  -5   0  -2  203.48   15.80
  -5   0  -2  196.78   13.30
   5   0   2  194.98   14.10
   0  -2  -5  160.38   19.20
   0  -2  -5  187.68   16.90
   5   0  -2  205.68   14.40
  -5   0  -2  194.98   15.10
   0  -2  -5  206.78   15.50
  -5   0  -2  186.68   17.90
  -5   0   2  183.58   17.30
   0   2   5  208.28   17.70
   0  -2   5  207.18   15.70
   0   2  -5  208.98   15.90
   0   2  -5  191.08   18.50
   0   2  -5  214.28   15.90
   0   2   5  184.78   14.80
   5   0  -2  211.58   17.80
   5   0  -2  177.48   16.20
  -2  -5   0  203.68   11.70
  -2  -5   0  204.58   16.20
  -5   0   2  210.98   17.40
   5   0   2  203.28   16.50
  -5   0   2  173.48   16.70
   1   2  -5  139.19   14.10
   5  -1   2  123.09   11.70
  -1  -2  -5  105.59   15.10
  -1  -2  -5  134.39   14.60
   5  -1   2  131.49   12.80
   5   1  -2  150.18   14.70
   5   1  -2  122.59   14.30
   5   1  -2  138.49   10.50
   1   2  -5  147.59   12.70
  -5   1   2  128.29   14.80
  -5  -1  -2  135.29    9.80
   1  -2   5  122.09   16.70
  -5  -1  -2  125.99   11.80
  -5  -1  -2  141.39   13.10
   1   2  -5  126.69   16.30
   2  -5   1  142.89    9.80
   2  -5   1  129.19   10.20
   2  -5   1  143.39   11.00
  -5   1   2  127.79   13.30
  -2  -5  -1  140.99    9.20
  -2  -5  -1  132.19   12.30
  -1   2   5  134.09   12.90
  -1   2   5  154.08   15.10
  -1   2   5  129.39   11.50
   5  -1   2  125.19   11.50
  -5  -1  -2  118.99   15.10
   5  -1   2  153.28   13.90
   1  -2   5  107.79   12.90
   1  -2   5  152.98   15.80
   1  -2   5  138.69   12.50
   5   1  -2  116.39   12.60
   2  -5   1  138.29   13.10
  -1  -2  -5  142.59   12.20
  -5   1   2  142.39   14.20
   5  -1  -2  135.99   11.30
   1   2   5  132.69   11.80
   1  -2  -5  132.89   18.80
  -2  -5   1  133.29   10.40
  -5  -1   2  152.28   15.10
   1  -2  -5  155.68   14.20
   1   2   5  134.79   12.50
   2  -5  -1  132.09   11.20
   2  -5  -1  147.69   10.20
   2  -5  -1  137.09   11.40
   2  -5  -1  139.29   10.00
  -1  -2   5  126.49   14.40
  -1  -2   5  156.58   15.50
  -1  -2   5  150.18   13.20
  -1   2  -5  131.19   12.50
  -1   2  -5  104.29   14.60
  -1   2  -5  126.99   13.70
   5  -1  -2  136.29   12.40
   1  -2  -5  138.19   12.80
   5   1   2  146.29   11.50
  -5  -1   2  121.19   14.10
   5   1   2  123.99   11.20
   5   1   2  148.49   13.70
  -2  -5   1  120.79   14.20
  -5   1  -2  136.59   12.50
  -5   1  -2  136.39   12.90
  -5   1  -2  134.19   10.80
  -5   1  -2  127.79   15.30
  -2  -5   1  156.18   11.60
  -2  -5   1  134.79    8.50
  -5  -1   2  117.49   14.00
   5  -1  -2  147.89   14.90
   5  -1  -2  110.59   12.70
   1   2   5  126.49   14.30
   5   1   2  149.69   12.60
  -5   2   2  218.58   19.70
   2  -5   2  208.38   18.20
   2  -2   5  193.78   20.10
   2   2  -5  232.98   18.70
  -5   2   2  216.48   17.80
   2  -5   2  232.68   15.60
  -2  -5  -2  210.48   14.30
  -2  -5  -2  227.08   15.90
  -2  -2  -5  210.08   16.20
   2  -5   2  218.38   14.90
  -2  -2  -5  241.88   18.50
  -2  -2  -5  211.18   16.90
   5   2  -2  185.18   17.10
  -5  -2  -2  204.78   13.10
   2  -2   5  186.48   16.80
  -2  -5  -2  230.18   16.10
   2  -2   5  234.18   17.10
  -2   2   5  208.48   18.20
  -2   2   5  244.98   18.90
  -2   2   5  222.38   13.90
  -2   2   5  217.38   14.90
   5  -2   2  216.18   17.10
  -2  -2  -5  191.08   19.00
   2   2  -5  226.08   16.20
   5  -2   2  213.78   15.50
   2  -2   5  230.88   19.40
   2   2  -5  189.18   20.70
   2  -5   2  208.28   15.00
  -5  -2  -2  211.08   15.90
  -5  -2  -2  212.78   16.90
   5  -2   2  191.18   15.90
  -5  -2  -2  217.68   19.90
   5   2  -2  232.48   17.70
   5   2  -2  202.28   18.60
  -5   2   2  180.18   16.30
  -2  -5  -2  228.58   13.80
  -2  -2   5  233.18   20.00
   2  -5  -2  219.78   16.00
   2   2   5  230.48   17.00
  -2   2  -5  217.28   17.40
   2   5   2  189.78   17.50
   5  -2  -2  213.38   16.80
   5  -2  -2  207.78   14.40
  -2  -5   2  205.38   13.10
  -2  -5   2  201.58   18.50
  -2   2  -5  189.48   19.00
  -2  -5   2  232.58   16.80
  -5   2  -2  231.98   17.10
  -5   2  -2  235.38   19.80
   2  -5  -2  232.88   16.80
   2  -5  -2  204.78   14.90
   2  -2  -5  176.38   17.70
   2  -2  -5  161.18   21.50
   2  -2  -5  234.88   18.30
  -5   2  -2  205.78   15.30
   5   2   2  197.68   16.50
  -5  -2   2  209.88   19.00
   5  -2  -2  184.48   16.70
   2   2   5  210.18   15.60
  -5   2  -2  232.68   16.90
  -2   2  -5  233.18   16.90
  -2   5  -2  215.08   16.10
  -5  -2   2  196.08   17.70
  -5  -2   2  223.58   19.00
  -2  -2   5  201.78   20.10
   5   2   2  202.18   15.00
   5   2   2  224.98   17.60
   5   2   2  203.28   14.80
   5  -2  -2  198.38   18.80
  -2  -5   2  217.38   16.20
   2   2   5  228.98   19.60
  -2  -5  -3  146.89   13.50
   3  -2   5  109.99   13.80
  -2  -5  -3  139.89   13.60
  -5  -3  -2  130.19   13.00
  -5  -3  -2  154.78   14.20
  -5  -3  -2  135.79    9.60
  -5  -3  -2  148.09   17.60
   5  -3   2  116.89   15.30
  -2  -5  -3  155.38   11.60
  -2  -5  -3  142.99   13.20
   3  -2   5  148.49   17.20
  -3   2   5  163.68   16.70
   2  -5   3  133.19   12.70
   2  -5   3  144.29   18.00
   2   5  -3  147.39   11.90
   5  -3   2  158.08   13.60
   3   2  -5  166.88   14.10
   2  -5   3  129.29   12.90
   2  -5   3  174.48   14.80
  -5   3   2  124.49   17.30
  -5   3   2  147.69   14.90
  -5   3   2  142.69   14.00
  -3  -2  -5  157.78   13.90
  -3  -2  -5  147.19   15.00
  -3  -2  -5  168.58   16.30
   3   2  -5  171.68   16.20
   3   2  -5  134.59   20.70
  -3   2   5  157.78   13.10
  -3   2   5  138.99   17.90
   5   3  -2  148.39   13.40
   5   3  -2  155.98   16.30
  -2  -5   3  159.98   11.10
  -3   2  -5  158.88   14.30
  -5  -3   2  178.28   17.40
  -5  -3   2  137.99   17.20
  -3  -2   5  146.99   16.00
  -2  -5   3  161.78   15.20
   2   5   3  141.99   14.70
   3  -2  -5  156.28   17.40
  -5  -3   2  131.29   15.20
  -2  -5   3  154.08   15.30
  -3  -2   5  171.78   18.10
  -5   3  -2  144.49   14.80
   2  -5  -3  134.09   16.00
   3   2   5  165.58   18.80
   3   2   5  137.79   15.20
   5  -3  -2  129.29   16.10
   5  -3  -2  156.18   15.20
   2  -5  -3  153.88   16.30
  -5   3  -2  155.08   14.00
   3   2   5  122.89   12.90
   5   3   2  129.09   12.50
   5  -3  -2  127.19   11.20
  -2  -5   3  173.48   17.50
   5   3   2  163.28   15.00
   4   2  -5  234.18   20.60
  -5   4   2  197.68   16.30
  -2  -5  -4  180.08   17.30
   2  -5   4  173.88   17.00
  -2  -5  -4  194.98   16.90
   5  -4   2  217.28   17.00
   4   2  -5  224.98   16.50
  -5  -4  -2  196.58   17.30
  -5   4   2  165.88   19.50
  -4   2   5  212.68   20.40
  -2  -5  -4  188.08   15.10
   5   4  -2  164.98   17.90
  -4  -2  -5  196.28   17.50
   4  -2   5  213.68   17.90
  -4  -2  -5  172.08   19.80
   4  -2   5  192.28   20.40
  -2  -5  -4  185.78   17.60
  -5  -4  -2  188.48   20.60
   2  -5   4  205.58   18.70
   2  -5   4  151.18   15.30
   2   5  -4  196.28   15.00
  -4  -2  -5  183.28   16.70
  -5  -4  -2  162.98   15.90
   4  -2  -5  190.58   19.60
   4   2   5  159.08   15.70
  -2  -5   4  191.88   14.60
  -5  -4   2  153.98   18.20
  -5  -4   2  231.88   20.10
  -2  -5   4  223.78   20.90
   2   5   4  201.58   17.10
  -5   4  -2  201.98   16.30
   4   2   5  231.68   22.70
  -2  -5   4  213.68   20.20
  -5  -4   2  156.68   20.30
   5  -4  -2  159.58   17.80
   2  -5  -4  184.28   21.20
  -4  -2   5  186.58   20.30
  -4  -2   5  200.18   19.50
  -4   2  -5  199.98   17.30
   5  -4  -2  204.78   19.20
   2  -5  -4  205.98   19.70
  -5   4  -2  151.68   17.20
  -2  -5   4  204.08   19.20
   5  -4  -2  186.38   12.80
   3  -5   0  115.99   11.00
  -3  -5   0  118.69    9.20
   5   0  -3  143.09   16.40
   5   0  -3   99.89   14.20
  -3  -5   0  121.79   10.50
   3  -5   0  113.89   11.00
  -5   0   3  107.09   13.80
   5   0   3   95.39   12.30
   0   3  -5  106.89   12.60
  -5   0  -3  118.19   12.40
  -5   0  -3  112.39   10.30
  -5   0  -3   86.99   10.90
   3  -5   0  114.89   10.10
   0  -3  -5   95.19   16.60
   0  -3  -5   99.09   13.80
   0   3   5  117.39   10.00
   5   0   3   86.29   11.10
   5   0   3   92.89   13.30
  -5   0  -3  155.58   16.30
  -5   0   3   82.79   14.40
  -5   0   3  138.99   15.30
  -3  -5   0  114.09   13.90
   0  -3  -5  114.69   11.70
   5   0   3  119.59   12.00
   3  -5   0  109.39   10.20
   0   3   5  145.59   12.80
   0  -3   5  111.39   14.00
   0  -3   5  124.69   15.60
   0  -3   5  112.09   11.60
   0   3  -5  130.69   12.80
   0   3  -5   92.39   14.10
   0   3   5  111.39   10.40
   1   3  -5  100.19   14.40
   1  -3   5   97.79   14.50
  -3  -5  -1  112.59    9.30
  -1  -3  -5  117.99   14.20
   1  -3   5   80.39   13.00
   5  -1   3  123.39   11.60
   1   3  -5  104.39   12.20
  -1  -3  -5  102.89   10.90
  -5   1   3  101.09   14.20
  -1   3   5   92.49   10.60
  -1   3   5  107.29   11.80
   3  -5   1  104.59    9.80
   3  -5   1  110.09   10.50
   3  -5   1   80.29   12.10
  -3  -5  -1  109.29   12.70
  -5   1   3   77.19   12.30
  -3  -5  -1  106.49    8.40
   5  -1   3  106.89   13.30
  -1  -3  -5   93.19   14.70
  -5   1   3   83.69   14.90
   5   1  -3   98.09   15.00
   1  -3   5  102.39   11.90
   1   3  -5  101.89   13.40
   3  -5   1  108.89    9.50
  -5  -1  -3   78.99   10.70
  -5  -1  -3   92.09   12.00
  -5  -1  -3   93.89    9.40
  -5  -1  -3  108.79   15.70
   5   1  -3  109.59   14.90
   3  -5  -1  115.39   11.30
  -5   1  -3  112.59   12.20
  -5   1  -3   94.89   15.10
   1  -3  -5  105.49   18.60
   5  -1  -3  117.69   12.30
  -1   3  -5   87.69   11.70
   1  -3  -5  110.49   12.00
   5  -1  -3  115.19   15.80
  -3  -5   1  108.39    9.80
  -3  -5   1  108.09   11.60
  -3  -5   1   97.39   13.60
   1   3   5   88.49    9.60
   1   3   5  102.89   12.90
   1   3   5  126.69   11.20
  -1  -3   5   96.59   14.10
  -1  -3   5  103.89   15.00
  -1  -3   5  112.09   11.60
  -1   3  -5   94.69   11.50
  -1   3  -5   93.69   14.10
   5   1   3   96.89   10.60
   5   1   3  113.19   13.80
  -5   1  -3  102.99   10.60
   3  -5  -1   99.09    8.70
  -5  -1   3  118.09   15.00
  -5  -1   3  101.59   14.10
   5   1   3  100.09   11.80
   3  -5  -1   97.19    9.70
   3  -5  -1  100.59   11.30
  -2   3   5  137.39   14.20
  -5  -2  -3  141.09   14.60
  -3  -5  -2  155.88   11.40
  -3  -5  -2  159.18   15.00
   2   3  -5  149.49   13.60
  -5   2   3  141.89   14.10
  -3  -5  -2  142.59   10.90
  -2  -3  -5  148.59   13.40
   3  -5   2  159.38   13.70
   3  -5   2  161.88   13.20
   3  -5   2  140.59   12.50
  -3  -5  -2  159.58   12.20
   2   3  -5  171.58   15.80
   2   3  -5  123.99   17.60
   5  -2   3  144.29   15.70
  -2  -3  -5  127.69   16.80
  -2  -3  -5  150.08   16.20
  -5  -2  -3  155.38   18.50
  -5  -2  -3  144.39   11.20
   5  -2   3  159.28   14.00
   5   2  -3  149.99   16.50
   5   2  -3  195.18   18.90
   5   2  -3  143.29   11.60
   3  -5   2  140.49   15.80
  -2   3   5  158.48   14.40
  -5   2   3  155.48   16.50
  -2  -3  -5  140.39   14.50
   2  -3   5  151.58   16.90
   2  -3   5  159.28   14.30
  -5   2   3  167.68   18.40
   5   2  -3  166.18   11.80
   2  -3  -5  121.89   19.90
   2   3   5  139.19   12.10
   2   3   5  115.39   13.60
  -3  -5   2  150.38   14.80
   5  -2  -3  124.59   14.40
  -2  -3   5  153.38   17.10
  -2   3  -5  123.49   13.70
  -2   3  -5  142.69   13.90
   3  -5  -2  171.48   15.20
   3  -5  -2  119.79   12.70
   3   5   2  128.39   15.50
  -3  -5   2  163.08   17.50
  -5   2  -3  168.58   18.40
   3  -5  -2  135.79   15.00
   2  -3  -5  148.89   16.20
  -5   2  -3  169.68   14.60
  -5  -2   3  170.58   17.30
  -5  -2   3  170.28   17.90
   2   3   5  160.68   15.60
   5   2   3  120.79   12.30
   5  -2  -3  151.38   18.10
   5   2   3  151.98   14.00
  -3  -5   2  151.48   15.10
   5   2   3  162.18   16.50
   3  -5   3  143.69   13.30
   3  -3   5  137.99   17.80
   3  -3   5  153.28   14.80
   3   3  -5  174.08   16.70
  -3  -5  -3  131.39   12.50
  -3  -3  -5  155.68   14.20
  -3   3   5  127.59   16.50
   5  -3   3  147.49   16.60
  -5  -3  -3  134.79   10.70
  -5  -3  -3  143.99   18.60
  -3   3   5  139.49   15.50
   3   3  -5  131.69   19.60
   3   3  -5  154.78   13.50
  -5   3   3  119.29   15.60
  -3  -5  -3  147.89   15.90
   3  -5   3  144.79   15.00
   5   3  -3  145.49   18.90
  -5   3   3  129.09   13.30
  -3  -5  -3  163.18   13.20
  -3  -3  -5  115.49   15.20
  -3  -3  -5  150.08   16.70
   5   3  -3  149.19   16.00
  -3  -5  -3  130.39   14.00
   3  -5   3  133.19   13.70
  -5  -3  -3  135.59   14.80
   5  -3   3  141.09   14.30
  -5   3   3  101.29   18.20
   3   3   5  127.19   12.20
   3   3   5  145.09   16.80
  -3  -3   5  156.78   17.50
   3  -3  -5  133.99   17.80
   5  -3  -3  136.29   15.80
  -3  -3   5  162.98   18.40
  -3  -5   3  152.18   16.20
  -5  -3   3  154.18   18.10
  -3   3  -5  107.59   14.00
  -3   3  -5  166.48   14.90
  -3  -5   3  156.88   16.60
   3   5   3  148.69   15.70
   3  -5  -3  145.49   16.20
   3  -5  -3  156.78   16.70
   3  -5  -3  120.89   15.00
  -5   3  -3  139.59   14.20
   5   3   3  122.29   12.20
  -5  -3   3  175.68   18.40
   3   3   5  142.19   15.40
  -3  -5   3  151.88   17.70
   5  -3  -3  152.78   18.80
   5   3   3  158.38   17.00
  -3  -5  -4  177.78   19.20
   3   5  -4  130.79   12.70
   3  -5   4  156.48   14.90
  -4   3   5  112.59   19.50
   4  -3   5  154.28   20.20
  -5  -4  -3  174.08   17.10
  -5  -4  -3  147.99   15.30
  -5  -4  -3  117.49   17.50
   5  -4   3  119.49   15.60
   5   4  -3  159.98   14.50
   4   3  -5  204.68   20.40
  -3  -5  -4  176.38   16.30
  -5   4   3  152.88   19.90
  -5   4   3  168.48   16.60
  -4  -3  -5  183.28   16.80
  -4  -3  -5  141.09   15.90
  -4  -3  -5  169.28   20.30
   5   4  -3  123.89   15.80
   3  -5   4  174.58   18.30
   5  -4   3  166.78   18.30
   4  -3   5  124.09   16.30
  -4   3   5  175.38   18.60
  -3  -5  -4  165.48   15.10
  -3  -5  -4  134.09   17.30
   4   3  -5  163.58   14.40
   5  -4  -3  172.38   20.80
   5  -4  -3  122.29   18.30
  -3   5  -4  154.88   14.50
  -4  -3   5  166.48   19.60
  -5  -4   3  187.98   19.70
  -5  -4   3  154.18   20.10
  -4   3  -5  162.28   16.30
  -3   5  -4  132.59   14.10
  -5   4  -3  137.79   17.80
  -5   4  -3  155.38   15.80
   4   3   5  157.58   21.00
   4   3   5  142.79   13.70
  -3  -5   4  154.98   19.80
   3  -5  -4  177.68   20.50
   3  -5  -4  135.09   20.50
  -4  -3   5  178.78   19.50
   4  -3  -5  183.98   19.70
   3   5   4  170.68   17.60
  -3  -5   4  189.08   20.30
  -5   0   4  233.68   21.50
  -5   0   4  217.38   19.10
  -5   0  -4  175.28   16.40
   0  -4  -5  220.88   17.60
  -5   0  -4  207.78   21.20
   0  -4  -5  195.28   22.20
   0  -4   5  234.18   22.00
   0  -4   5  215.18   16.80
   0   4  -5  238.58   18.50
   0   4  -5  206.08   17.60
   4  -5   0  215.48   16.40
   4  -5   0  196.58   16.30
   4  -5   0  235.28   17.10
   4  -5   0  207.48   15.90
   5   0  -4  232.58   21.00
   5   0   4  230.98   20.70
   5   0   4  213.78   18.30
  -4  -5   0  212.38   15.90
  -5   0  -4  216.68   18.20
  -4  -5   0  219.08   20.50
  -4  -5   0  226.88   17.10
  -1  -4  -5  194.78   16.00
   4  -5   1  191.18   16.90
   4  -5   1  211.08   16.30
  -4  -5  -1  188.78   19.20
   5   1  -4  252.87   21.70
   5   1  -4  216.28   15.70
  -4  -5  -1  190.18   14.50
  -4  -5  -1  210.68   15.80
  -5  -1  -4  171.58   15.20
   1  -4   5  202.48   20.60
   1  -4   5  195.08   16.20
   4  -5   1  200.18   15.20
   1   4  -5  188.18   18.10
   1   4  -5  205.18   17.00
  -5   1   4  225.88   20.60
  -5   1   4  191.68   17.40
   5  -1   4  191.88   17.40
  -5  -1  -4  202.78   17.60
  -1  -4  -5  149.19   19.50
  -5  -1  -4  193.38   20.70
   4  -5   1  216.48   15.90
   5  -1   4  219.58   19.70
   1   4  -5  213.48   17.30
  -4  -5   1  212.08   17.70
   1  -4  -5  162.48   24.00
   5  -1  -4  226.38   20.80
  -5  -1   4  205.68   20.40
  -5  -1   4  171.08   19.10
  -5   1  -4  210.98   17.20
  -5   1  -4  177.88   20.90
   5   1   4  177.58   17.50
   1  -4  -5  179.68   17.40
  -4  -5   1  176.18   15.70
   5   1   4  206.38   20.40
  -1   4  -5  203.58   17.00
   4  -5  -1  195.38   16.90
  -1  -4   5  203.18   15.80
  -1   4  -5  160.08   15.70
  -4  -5   1  187.08   19.80
   4  -5  -1  180.98   16.70
   4  -5  -1  208.08   13.30
  -1  -4   5  212.28   20.40
   1   4   5  217.98   15.30
   4  -5  -1  185.98   15.80
  -2  -4  -5  164.98   19.40
  -5  -2  -4  206.98   17.90
   2  -4   5  184.48   19.80
   2  -4   5  173.38   16.80
   2   4  -5  233.08   18.00
  -2  -4  -5  191.28   17.10
  -2  -4  -5  183.98   16.10
  -2   4   5  172.98   14.60
  -2   4   5  186.48   14.80
   5   2  -4  233.78   20.50
   4  -5   2  170.58   15.80
   4  -5   2  184.98   17.10
   4  -5   2  202.98   16.40
   4  -5   2  214.18   19.20
   5  -2   4  177.48   17.00
   5  -2   4  202.98   19.60
   2   4  -5  178.28   18.90
  -5  -2  -4  199.68   21.30
  -4  -5  -2  177.68   19.40
  -5   2   4  149.88   15.70
   2   4  -5  189.18   15.90
  -5   2   4  215.08   20.40
  -4  -5  -2  200.58   16.00
   5   2  -4  220.98   15.10
  -4  -5  -2  188.98   14.70
  -5  -2  -4  184.28   14.90
   5   2   4  166.18   18.00
   5   2   4  164.18   15.40
   5   2   4  197.18   20.70
   2   4   5  190.18   16.50
  -5  -2   4  204.48   20.50
   5  -2  -4  212.38   21.00
   4  -5  -2  199.18   18.00
  -2  -4   5  193.28   19.90
  -2  -4   5  195.38   16.30
  -2   4  -5  174.98   16.40
  -2   4  -5  194.38   16.60
   4  -5  -2  158.88   18.60
   4  -5  -2  173.88   16.50
   2  -4  -5  199.48   19.60
   2  -4  -5  143.39   23.20
  -5  -2   4  182.58   19.90
  -4  -5   2  239.08   19.00
  -4  -5   2  173.08   20.30
  -4  -5   2  177.08   18.20
  -5   2  -4  197.88   17.30
   3  -4   5  152.98   19.60
  -5  -3  -4  156.98   21.40
  -5   3   4  179.48   19.00
  -4  -5  -3  156.98   14.20
  -4  -5  -3  159.98   15.50
  -4  -5  -3  163.88   12.70
  -4  -5  -3  154.08   19.40
   5   3  -4  160.78   24.40
   4  -5   3  138.29   15.30
   3   4  -5  175.28   14.40
   3  -4   5  159.68   16.40
   5  -3   4  173.18   19.20
  -3  -4  -5  151.08   15.40
  -3  -4  -5  115.19   16.50
  -3  -4  -5  118.19   18.10
  -5  -3  -4  127.99   13.50
   3   4  -5  194.48   18.20
   4  -5   3  120.49   16.50
   5  -3   4  160.58   16.30
  -3   4   5  121.99   15.00
  -3   4   5  152.98   15.00
  -5  -3  -4  182.08   17.10
   3   4  -5  142.59   18.70
   5   3  -4  164.28   19.40
  -3  -4   5  180.58   20.00
  -5  -3   4  183.48   20.00
  -3  -4   5  174.48   20.60
   3   4   5  135.09   16.70
   4  -5  -3  132.49   19.30
   3  -4  -5  180.58   20.80
  -3   4  -5  121.19   16.30
  -4  -5   3  145.89   18.40
   5  -3  -4  172.18   20.30
   5  -3  -4  176.78   18.20
  -4   5  -3  163.58   13.80
  -3   4  -5  157.88   16.10
  -4   5  -3  114.49   14.60
  -4  -5   3  182.98   19.40
   5   3   4  126.49   13.70
   5   3   4  157.88   21.10
  -5  -3   4  154.58   19.30
  -5   3  -4  164.98   16.40
   4  -5  -3  161.68   18.00
  -4  -5   3  120.09   19.40
  -5  -4  -4  142.89   17.00
  -5  -4  -4  116.59   19.10
   4  -5   4  132.59   19.10
   4  -5   4  127.99   15.90
   5  -4   4  134.99   19.40
  -5   4   4  133.49   17.10
  -4  -5  -4  130.79   16.20
  -4  -5  -4  185.68   22.20
   5   4  -4  140.09   16.70
   4  -4   5  132.09   20.70
  -4  -4  -5  118.89   16.60
  -4  -4  -5  110.19   17.00
  -4   4   5  118.29   17.00
   4   4  -5  147.29   18.00
   5  -4   4  101.49   13.70
   4  -4   5  122.79   17.20
  -4  -5   4  148.29   19.60
  -4   4  -5  131.59   16.60
   4  -5  -4  134.79   18.80
  -4   5  -4  145.09   15.00
  -5  -4   4  103.09   16.50
   4  -4  -5  113.09   20.00
  -4  -5   4  117.59   17.80
  -5  -4   4  143.19   19.70
  -4  -4   5  152.38   20.70
   5  -4  -4  167.68   22.20
   5  -4  -4  147.69   20.40
  -5   4  -4  131.09   16.50
   4  -5  -4  158.58   22.20
  -4  -4   5  139.09   20.70
  -5  -5   0  114.29   14.30
  -5  -5   0   97.69   15.10
  -5  -5   0   91.59   16.00
  -5   0  -5  117.29   14.80
  -5   0  -5  110.99   17.20
  -5   0   5  109.89   17.80
  -5   0   5  103.09   16.10
   0  -5  -5  124.69   14.90
   0  -5  -5   82.19   16.20
   0  -5   5   90.49   15.70
   0  -5   5  103.79   13.20
   5  -5   0  112.19   14.10
   5  -5   0  106.69   14.40
   5  -5   0  126.89   12.70
   5   0  -5  137.49   18.30
   5   0   5  132.19   20.70
   5   0   5   92.99   13.60
  -5  -5  -1  121.59   14.20
  -5  -5  -1  135.59   15.50
  -5  -5  -1  116.39   16.90
   5  -5   1   96.99   14.10
   5  -5   1  106.69   13.10
   1   5  -5  124.89   15.00
  -5  -1  -5  116.99   15.60
  -5  -1  -5  118.39   17.10
   5   1  -5  138.99   18.80
   5   1  -5  116.49   14.50
   1  -5   5   99.49   13.50
  -5   1   5  132.29   19.20
  -5   1   5  117.69   16.10
   5  -1   5   89.79   13.60
  -1  -5  -5  108.39   13.80
  -1  -5  -5   79.19   14.60
   5  -1   5  114.99   19.60
   5  -5   1  118.49   13.60
   1  -5   5  111.59   16.90
   1  -5  -5   90.29   19.90
   1  -5  -5  121.49   16.40
  -5   1  -5  130.59   15.50
  -5  -5   1  113.89   17.90
   5  -5  -1  104.69   15.90
   5  -5  -1  115.69   15.50
  -1  -5   5  124.99   13.30
  -5  -5   1   99.49   14.70
  -5  -5   1  115.69   17.00
   5  -1  -5  151.98   19.40
  -1  -5   5  109.39   18.80
  -5   5  -1  108.59   11.70
  -5  -1   5  111.69   18.40
  -5  -1   5  116.89   18.10
   5   1   5  107.09   17.20
   5   1   5   98.69   14.30
  -5  -5  -2  108.29   15.00
  -5  -5  -2  111.39   15.50
  -5  -5  -2  111.59   18.00
   5  -5   2  125.89   14.60
   2  -5   5   92.19   15.50
  -5  -2  -5  113.89   16.20
  -5  -2  -5  127.49   18.20
   5   2  -5  133.69   19.80
   5   2  -5  109.39   13.50
   2  -5   5  102.79   15.20
  -5   2   5  108.89   19.60
  -5   2   5   90.79   12.80
   5  -2   5   98.79   14.00
  -2  -5  -5  124.09   14.30
  -2  -5  -5   77.99   13.70
  -2  -5  -5  103.89   15.40
   2   5  -5   93.69   11.70
   5  -2   5  107.19   16.30
  -2  -5   5  124.19   18.90
  -2  -5   5  104.69   19.00
   2  -5  -5  111.69   19.80
  -5  -5   2  128.19   18.20
  -5   2  -5  106.19   15.60
  -2   5  -5  130.99   15.00
   5  -5  -2  124.79   18.20
   5  -5  -2  102.79   14.00
  -5  -5   2  134.59   18.60
   5  -2  -5  143.09   19.80
  -2  -5   5  123.29   14.30
  -5   5  -2  104.29   12.40
  -5  -2   5  121.39   19.20
  -5  -2   5  126.29   16.20
   5   2   5  111.49   17.70
  -5  -5  -3  111.49   16.50
  -5  -5  -3  117.09   18.80
   5  -3   5   87.19   13.60
   5   3  -5  119.39   19.80
  -5  -3  -5  106.59   16.80
  -5  -3  -5  137.69   19.70
   3  -5   5  114.39   17.20
   5  -3   5  119.49   20.60
   5  -5   3  101.89   17.80
  -5   3   5  109.19   19.90
   3  -5   5  112.69   16.40
  -3  -5  -5  116.69   15.50
  -3  -5  -5  117.49   16.00
   5  -5   3  111.59   15.60
  -3  -5   5  111.69   17.70
  -3   5  -5  119.69   15.00
   3  -5  -5  136.69   19.40
  -5  -3   5  123.49   21.00
  -5   5  -3  108.39   14.00
   5  -5  -3  120.09   21.20
   5  -5  -3  106.99   16.40
  -5   3  -5  106.89   16.20
  -3  -5   5  150.28   21.10
   5  -3  -5  144.29   20.10
  -5  -3   5  119.69   17.20
  -5  -5   3  106.69   16.80
  -5  -5   3   89.99   15.40
   5   3   5  113.59   17.70
  -5  -5  -4   95.29   17.30
  -5  -5  -4   95.49   19.30
   5  -5   4   85.19   16.20
   5  -5   4   61.29   11.80
  -5  -4  -5  109.99   18.60
  -5  -4  -5   82.49   18.90
   5  -4   5   82.89   15.60
   5  -4   5   71.99   13.00
   4  -5   5   82.39   12.40
  -5   4   5   71.59   14.20
  -4  -5  -5   99.09   17.40
  -4  -5  -5   92.69   17.60
   4  -5   5   79.79   17.00
  -4  -5   5  118.09   16.60
   4  -5  -5  115.69   18.70
  -4  -5   5  102.79   18.20
  -5   4  -5  102.79   17.60
   5  -5  -4  114.99   19.40
   5  -5  -4   77.89   14.90
  -5  -5   4   94.89   16.40
  -5  -5   4   84.19   16.50
   5  -4  -5  115.39   18.80
   5  -4  -5   83.79   15.20
  -5  -4   5  125.89   22.30
  -5  -4   5   79.29   16.30
  -6   0   0 1097.29   60.99
  -6   0   0  889.61   60.69
   0  -6   0 1028.30   56.29
   0  -6   0  982.60   58.19
   0   0  -6 1101.69   59.99
   0   0   6 1145.09   62.49
   0   0   6 1116.29   60.99
   6   0   0 1104.79   59.39
   6   0   0 1062.89   56.69
   6   0   0  947.11   57.49
   6  -1   0  883.71   49.20
   6  -1   0  849.72   46.90
   6  -1   0  796.22   46.80
   6   1   0  924.81   48.40
   6   1   0  818.82   45.20
   0  -6   1  762.12   48.80
   1   0  -6  892.01   49.80
   1   0   6  906.01   52.09
   1   0   6  794.62   49.90
   0  -6  -1  804.62   46.10
   0  -6   1  813.32   45.50
   0  -6  -1  811.22   45.80
  -6  -1   0  875.21   50.29
  -6  -1   0  729.13   50.39
  -6   1   0  866.51   50.09
  -6   1   0  729.33   49.90
  -1   0  -6  844.72   48.80
  -1   0   6  900.91   52.09
  -1   0   6  864.11   50.89
  -6  -2   0  756.22   44.00
   0  -6   2  758.62   40.00
   2   0   6  635.94   43.20
   0  -6   2  657.33   38.80
   0   6  -2  719.03   39.90
   2   0  -6  769.52   44.20
   2   0   6  715.23   45.70
   2   0   6  696.33   43.00
   0  -6  -2  699.13   38.30
   6  -2   0  743.43   42.50
   6  -2   0  730.33   40.80
   6  -2   0  664.13   39.70
   6   2   0  573.44   40.80
  -2   0   6  733.23   45.60
  -6  -2   0  603.84   44.40
  -6   2   0  723.33   42.80
  -6   2   0  673.53   43.50
  -2   0  -6  706.83   41.80
   0  -6  -2  695.13   39.50
   0   6  -3  364.16   25.40
   3   0  -6  412.86   29.50
   3   0   6  387.66   28.30
  -6  -3   0  413.06   28.70
  -6  -3   0  322.27   30.00
  -6   3   0  448.56   27.70
  -6   3   0  371.76   28.70
  -3   0  -6  403.06   27.10
  -3   0   6  407.16   30.50
   6  -3   0  410.66   26.40
  -3   0   6  422.66   27.00
   0  -6  -3  413.96   24.60
   0  -6   3  350.46   25.30
   0  -6   3  418.06   27.70
   0  -6   3  366.76   23.80
   6   3   0  315.27   26.10
   6   3   0  421.06   27.30
   0  -6  -3  339.57   26.50
   3   0   6  413.86   31.80
   6  -3   0  354.66   24.60
   6  -3   0  403.36   27.50
  -4   0   6  277.37   22.30
   4   0   6  275.77   27.60
   4   0   6  272.27   23.50
  -4   0  -6  282.27   22.30
   4   0  -6  271.97   23.80
   0  -6  -4  277.27   21.10
  -4   0   6  278.47   26.20
  -6  -4   0  200.38   26.10
  -6   4   0  235.88   25.60
   6  -4   0  262.17   22.00
   6  -4   0  282.57   21.60
  -6  -4   0  294.17   24.40
   0  -6  -4  212.18   23.70
  -6   4   0  272.77   21.40
   0  -6   4  283.67   25.50
   0  -6   4  260.47   19.30
   6  -4   0  249.68   19.30
   0  -6   4  241.68   21.70
   6  -5   0  138.79   16.90
   0  -6   5  142.89   16.30
   5   0  -6  182.38   21.70
   5   0   6  144.19   25.40
   6  -5   0  139.09   17.80
  -6  -5   0  149.99   20.70
  -6  -5   0   80.69   17.50
  -5   0  -6  127.69   18.60
  -5   0   6  144.59   22.50
  -5   0   6  113.39   16.50
   0  -6  -5  145.09   19.00
   0  -6   5  138.39   19.80
   5   0   6  114.29   17.00
   6   0   1  870.41   47.00
   6   0   1  803.92   45.20
  -6   0  -1  764.32   49.80
   0  -1   6  875.21   51.49
   0   1  -6  861.01   48.30
   0   1   6  700.63   47.30
   0   1   6  747.23   49.70
   0   1   6  824.62   47.80
  -1  -6   0  815.92   44.00
  -6   0  -1  846.22   48.70
   6   0  -1  871.71   48.70
   6   0  -1  839.62   45.30
  -6   0   1  864.21   49.80
  -6   0   1  731.53   49.10
   0  -1   6  883.01   50.89
  -1  -6   0  806.52   47.30
   0  -1  -6  882.41   48.40
   1  -6   0  765.92   46.50
   6   0  -1  794.72   46.10
  -6   0  -1  790.32   44.40
   1  -6   0  799.22   45.00
   6  -1   1  708.73   39.30
  -1  -1  -6  694.43   41.00
  -1   1   6  752.82   44.90
   1  -1   6  714.53   41.60
   1  -1   6  686.33   44.40
   1   1  -6  711.03   42.20
   6   1  -1  767.62   42.00
   1  -6   1  689.23   37.50
   6  -1   1  722.33   40.70
  -6  -1  -1  724.33   42.60
  -6  -1  -1  648.64   43.80
   1  -6   1  673.73   38.30
   6   1  -1  700.03   37.50
   1  -1   6  722.93   44.70
   6  -1   1  659.13   39.60
  -1  -6  -1  683.23   39.40
  -6   1   1  721.33   42.90
  -6   1   1  601.74   42.10
  -1  -6  -1  682.53   37.60
  -1   1   6  567.04   41.30
  -1   1   6  697.23   41.70
  -6   1  -1  639.14   43.00
  -1  -1   6  728.63   44.00
  -1  -6   1  666.73   41.80
  -6  -1   1  557.44   42.70
  -6   1  -1  711.53   42.00
   1   1   6  590.44   40.40
   1   1   6  668.03   41.50
   6  -1  -1  716.63   42.50
   6  -1  -1  712.23   39.60
   1  -6  -1  662.63   37.90
   6  -1  -1  652.53   38.80
  -6  -1   1  698.73   43.20
  -6   1  -1  646.94   38.30
   6   1   1  670.43   38.00
  -1  -6   1  660.63   37.20
   1  -6  -1  693.73   38.90
   1  -1  -6  748.63   42.30
  -1   1  -6  720.33   41.60
   1   1   6  641.34   43.30
   2   1  -6  630.14   38.70
  -1  -6  -2  587.74   33.60
   1  -6   2  627.24   34.60
   1  -6   2  608.04   34.10
   2  -1   6  599.34   37.10
  -6  -2  -1  634.84   38.40
  -6  -2  -1  548.15   39.40
   6   2  -1  627.54   36.30
  -6   2   1  579.94   37.90
  -1  -6  -2  610.14   34.10
   6   2  -1  485.35   36.40
  -6   2   1  503.35   36.90
  -2  -1  -6  616.14   36.50
   6  -2   1  622.14   36.40
   1  -6   2  576.44   33.70
  -2   1   6  619.84   40.10
  -2   1   6  605.24   37.50
   6  -2   1  599.74   35.30
   6  -2   1  534.05   34.90
   2  -1   6  613.34   40.50
   1  -6  -2  587.74   34.90
  -2   1  -6  598.04   36.70
  -1  -6   2  617.64   35.20
   6  -2  -1  617.44   38.30
   6  -2  -1  634.24   35.90
   6  -2  -1  570.14   34.00
   1  -6  -2  596.24   34.90
   2   1   6  655.93   40.90
   2   1   6  546.75   37.50
   6   2   1  542.35   32.60
   2  -1  -6  625.14   38.60
  -1  -6   2  566.64   32.80
   6   2   1  653.33   37.40
   6   2   1  510.85   35.00
  -2  -1   6  607.74   40.10
  -6  -2   1  606.14   38.90
  -6  -2   1  488.95   38.50
  -6   2  -1  594.94   36.90
  -6   2  -1  540.15   38.80
  -1  -6   2  586.64   38.10
  -1   6  -2  599.24   35.10
   1  -6   3  345.37   22.60
   3   1  -6  368.86   27.30
  -3   1   6  375.96   28.60
  -3   1   6  344.77   23.60
  -1  -6  -3  361.26   21.70
   3  -1   6  332.47   25.90
   1  -6   3  359.16   24.70
   6  -3   1  393.46   25.00
   6  -3   1  383.86   25.40
  -1  -6  -3  372.16   22.60
  -6   3   1  299.97   26.40
   1  -6   3  352.96   23.80
  -6   3   1  357.36   26.10
   3  -1   6  380.36   30.10
   6   3  -1  315.27   25.60
  -3  -1  -6  347.07   25.10
  -1  -6  -3  303.17   23.00
   1   6  -3  354.46   23.20
  -6  -3  -1  385.46   27.00
  -6  -3  -1  314.77   28.70
   6  -3  -1  365.56   26.90
  -6  -3   1  292.07   28.50
  -6   3  -1  367.86   25.50
  -6   3  -1  353.36   29.00
   1  -6  -3  345.57   25.60
   1  -6  -3  333.47   24.30
   3   1   6  317.47   29.60
  -3  -1   6  395.66   30.00
  -3  -1   6  427.06   26.90
  -3   1  -6  357.56   25.30
   3  -1  -6  372.66   27.90
  -1  -6   3  332.17   21.80
   6  -3  -1  325.47   22.30
   6   3   1  353.56   25.80
  -1  -6   3  351.66   27.70
  -1  -6   3  361.56   25.00
  -1  -6   3  370.06   26.10
  -6  -3   1  383.76   28.40
   6  -3  -1  347.37   24.80
   1  -6  -3  365.46   25.30
   6   3   1  331.87   24.40
  -6  -4  -1  244.38   27.40
  -6   4   1  212.18   25.50
  -6   4   1  285.57   21.80
   1  -6   4  255.17   23.90
  -4   1   6  248.08   20.50
   1  -6   4  260.87   19.10
  -1  -6  -4  248.78   18.00
  -4  -1  -6  255.07   22.30
   4  -1   6  264.07   26.80
   4  -1   6  228.08   22.50
   1   6  -4  263.07   19.80
   1  -6   4  225.88   21.30
   6   4  -1  256.17   19.70
   6  -4   1  257.27   21.40
   6  -4   1  234.08   21.00
  -1  -6  -4  259.87   19.10
   4   1  -6  315.07   24.30
  -4   1   6  271.17   25.30
  -6  -4  -1  277.57   23.60
  -4  -1   6  259.57   23.60
  -1  -6   4  242.38   23.00
   4   1   6  267.97   28.50
   1  -6  -4  267.77   22.80
  -1  -6   4  220.68   18.30
  -1  -6   4  268.57   24.40
  -6   4  -1  241.88   21.20
  -4   1  -6  250.97   21.70
   1  -6  -4  210.28   25.10
   4   1   6  266.87   24.30
   6  -4  -1  253.87   21.90
  -1  -6   4  295.47   24.70
  -6  -4   1  263.87   24.70
  -4  -1   6  273.27   25.80
   4  -1  -6  279.47   23.90
  -6  -4   1  214.78   25.90
   6  -4  -1  255.27   23.10
   6  -4  -1  229.48   21.70
   5  -1   6  133.59   20.90
   6  -5   1  140.89   17.20
  -1  -6  -5  137.89   17.70
   1  -6   5  128.59   19.90
   6  -5   1   97.89   14.90
  -5  -1  -6  108.19   18.70
  -5  -1  -6  142.39   18.70
  -5   1   6  142.89   22.80
   5  -1   6   91.89   15.20
   5   1  -6  174.18   21.80
   1  -6   5  102.49   13.70
  -6  -5  -1   85.59   18.60
  -6  -5  -1  125.99   19.80
  -1  -6   5  110.69   18.40
   5   1   6  132.99   20.50
  -5  -1   6  154.28   22.40
  -5  -1   6  136.19   20.80
   5   1   6  124.39   18.00
   6  -5  -1  123.29   18.70
   6  -5  -1   98.09   15.30
  -6  -5   1  125.49   21.20
   5  -1  -6  129.69   20.90
  -5   1  -6  128.79   18.10
  -6  -5   1   90.89   19.10
  -1  -6   5  130.19   15.60
   1  -6  -5  139.49   18.20
  -2  -6   0  674.63   37.00
   0   2   6  650.33   41.00
  -6   0  -2  671.13   42.00
   0   2   6  702.73   40.60
  -6   0  -2  676.33   44.40
  -6   0  -2  627.74   38.40
  -2  -6   0  678.93   41.70
   0   2  -6  735.93   42.30
   0  -2  -6  710.53   41.80
   2  -6   0  660.83   39.40
   6   0  -2  721.43   43.90
   6   0  -2  736.73   39.80
   2  -6   0  731.33   38.30
   2  -6   0  702.33   37.80
   6   0   2  766.62   43.10
   6   0   2  678.33   39.60
   0  -2   6  735.23   44.90
   2  -6   0  666.63   39.30
  -6   0   2  574.74   42.70
   6   0  -2  637.54   40.20
  -6   0   2  744.33   44.60
   0  -2   6  710.63   41.80
   0   2   6  688.33   43.80
  -1   2   6  624.14   39.10
  -6  -1  -2  613.54   37.50
  -6  -1  -2  577.54   39.70
  -1   2   6  584.14   35.10
   6  -1   2  613.14   38.00
   1  -2   6  595.94   40.00
  -1   2   6  520.35   36.70
   6   1  -2  617.64   38.40
   2  -6   1  622.94   32.80
   2  -6   1  585.94   33.40
   2  -6   1  574.14   34.30
   2  -6   1  555.94   36.00
  -2  -6  -1  590.44   35.90
  -2  -6  -1  593.14   32.30
  -6   1   2  602.64   39.20
  -6  -1  -2  556.84   32.80
   1  -2   6  600.94   36.70
   1   2  -6  622.14   37.90
  -1  -2  -6  623.94   36.60
   6   1  -2  608.14   33.50
   6  -1   2  590.14   35.00
   6  -1  -2  549.74   34.60
   2  -6  -1  554.24   33.00
   6  -1  -2  571.54   35.20
   6  -1  -2  584.84   38.60
  -2  -6   1  574.74   31.90
  -6   1  -2  546.55   34.10
   2  -6  -1  586.04   34.90
  -1  -2   6  654.83   39.80
   1  -2  -6  653.43   37.80
  -6   1  -2  589.54   39.60
  -1   2  -6  609.74   37.00
   1   2   6  588.64   36.20
   2  -6  -1  595.04   33.80
   1   2   6  519.65   35.40
  -6   1  -2  604.34   37.30
   6   1   2  550.64   34.10
   6   1   2  609.04   37.70
   2  -6  -1  587.64   33.00
  -2  -6   1  563.04   38.00
  -6  -1   2  673.83   40.50
   2  -6  -1  584.94   33.00
  -6  -1   2  547.35   38.60
   1   2   6  592.64   38.80
  -2  -6  -2  520.25   30.00
   2  -6   2  485.45   28.30
  -6   2   2  410.76   31.30
   2  -6   2  494.55   29.10
  -6   2   2  481.25   33.00
  -2   2   6  459.45   28.90
   2  -6   2  443.16   32.30
   2   2  -6  510.05   32.80
   2  -2   6  489.15   31.40
   2  -6   2  472.65   28.70
   6  -2   2  509.35   32.80
  -6  -2  -2  481.65   34.80
   6  -2   2  485.25   30.20
   6   2  -2  385.76   31.30
  -2   2   6  481.15   27.90
  -2  -6  -2  467.25   27.00
   2  -2   6  497.15   35.00
  -2  -2  -6  471.15   30.40
   6   2  -2  532.15   32.30
  -6  -2  -2  457.45   26.40
  -2   2   6  545.15   33.90
  -6  -2  -2  483.45   31.90
  -2   2  -6  491.05   31.00
   2  -6  -2  428.96   29.30
   2   2   6  431.46   31.10
   2   2   6  487.25   33.60
   6  -2  -2  454.05   28.20
   6  -2  -2  459.75   33.50
   6  -2  -2  447.06   30.50
  -2  -6   2  479.15   29.80
  -2  -6   2  470.65   29.60
  -2  -6   2  479.25   26.50
  -2  -6   2  505.85   32.90
   6   2   2  474.25   31.70
   6   2   2  445.36   28.00
  -6   2  -2  431.56   33.80
   2  -2  -6  481.85   32.80
   2   2   6  437.06   29.60
  -6  -2   2  510.35   34.30
   6   2   2  392.76   28.70
   2  -6  -2  457.85   29.80
  -2  -2   6  526.25   34.90
  -6  -2   2  433.46   33.70
  -6   2  -2  479.05   31.20
   2  -6  -2  430.16   28.20
  -2  -6  -3  290.97   21.90
   2   6  -3  284.57   19.40
  -3   2   6  333.67   25.90
  -6   3   2  247.48   23.40
   2  -6   3  299.37   20.60
   3  -2   6  276.57   23.20
   2  -6   3  304.17   22.70
   6   3  -2  298.77   22.30
   3   2  -6  315.97   24.30
   2  -6   3  296.77   21.40
  -6  -3  -2  278.27   27.40
  -2  -6  -3  289.87   22.10
   3  -2   6  313.27   27.10
   6   3  -2  318.37   25.50
  -6   3   2  316.87   24.70
  -2  -6  -3  307.37   19.30
  -6  -3  -2  288.67   23.60
   6  -3   2  317.57   22.30
  -2  -6  -3  269.37   20.20
  -3  -2  -6  289.27   22.70
  -3   2  -6  311.67   23.10
   2  -6  -3  247.48   24.10
   2  -6  -3  257.87   22.50
   6  -3  -2  261.47   25.00
  -2  -6   3  294.87   18.80
  -6  -3   2  325.77   26.40
  -6  -3   2  276.77   27.00
  -2  -6   3  297.27   22.90
  -3  -2   6  342.07   25.00
  -6   3  -2  305.37   27.60
   6   3   2  307.07   24.40
   6  -3  -2  292.87   23.50
  -6   3  -2  271.07   22.50
   3  -2  -6  292.37   25.70
  -2  -6   3  289.77   23.90
   6   3   2  232.48   20.60
   6  -3  -2  288.47   19.40
   3   2   6  307.07   27.80
  -2  -6   3  281.47   25.20
  -3  -2   6  312.07   26.90
   2  -6  -3  338.47   24.80
  -6  -4  -2  177.88   25.70
   2  -6   4  173.48   17.10
   4  -2   6  235.98   25.80
  -2  -6  -4  180.18   19.00
  -6   4   2  204.98   20.00
  -6   4   2  163.38   23.30
  -6  -4  -2  195.68   20.70
  -4   2   6  217.48   23.10
  -2  -6  -4  194.28   16.90
   4   2  -6  234.08   22.70
   6  -4   2  189.48   19.00
  -4  -2  -6  170.98   23.50
   2  -6   4  191.08   20.90
  -4  -2  -6  215.28   20.40
  -4  -2   6  266.07   22.40
   4  -2  -6  222.48   23.20
  -6   4  -2  210.58   19.40
  -2  -6   4  183.38   15.80
  -2  -6   4  198.18   22.90
   2  -6  -4  190.28   20.10
   2  -6  -4  203.38   29.30
  -6  -4   2  199.28   23.10
   2  -6  -4  217.48   23.70
  -2  -6   4  165.78   22.20
   6  -4  -2  201.28   22.50
   6  -4  -2  152.68   20.80
  -4  -2   6  226.28   23.40
  -6  -4   2  191.28   24.20
  -2  -6   4  208.48   21.50
   4   2   6  220.68   27.20
  -4   2  -6  207.08   19.60
  -5   2   6  137.19   22.60
  -5  -2  -6  117.19   20.10
  -2  -6  -5   95.69   16.30
   5  -2   6   97.69   15.10
   5   2  -6  123.19   17.80
   6  -5   2   83.09   13.30
  -6  -5  -2  131.89   19.30
  -6  -5  -2  101.39   21.00
   6  -5   2   95.89   15.80
  -5  -2  -6  118.19   17.80
   2  -6   5  105.19   17.90
   5  -2   6  109.29   18.70
   2  -6   5  123.49   17.00
  -2  -6   5  116.39   18.80
   6  -5  -2  113.09   16.20
  -5  -2   6  132.99   18.10
  -5   2  -6   99.29   15.20
   6  -5  -2   75.19   16.60
  -2  -6   5   92.29   15.50
  -2  -6   5   78.79   16.20
  -6  -5   2  130.99   19.60
  -6  -5   2  109.69   17.60
   5   2   6   79.69   20.10
   5  -2  -6  138.59   20.90
  -5  -2   6  156.08   21.30
   2  -6  -5  142.79   25.00
   0   3   6  351.46   25.20
   0   3   6  420.36   28.20
  -6   0  -3  407.76   27.70
   3  -6   0  394.76   24.80
   0  -3  -6  407.66   27.20
   0  -3   6  371.76   30.50
  -6   0  -3  385.06   31.00
   3  -6   0  381.76   24.30
  -3  -6   0  374.96   23.80
  -3  -6   0  383.76   23.20
   6   0   3  404.56   26.20
  -6   0  -3  364.06   24.30
   6   0   3  438.56   29.40
  -6   0   3  415.26   30.90
  -6   0   3  385.06   29.40
   0  -3   6  399.96   26.70
  -3  -6   0  381.96   28.70
   6   0  -3  387.06   25.70
   0   3  -6  388.56   27.70
   6   0  -3  406.46   30.20
   3  -6   0  383.86   24.00
   3  -6   0  374.36   25.10
   0   3   6  365.56   24.10
  -6   1   3  414.86   29.50
   3  -6   1  337.97   22.50
  -6   1   3  298.67   26.20
   1  -3   6  343.07   24.90
  -1   3   6  377.46   26.20
  -3  -6  -1  358.56   21.50
  -1   3   6  318.57   24.40
  -6  -1  -3  345.97   26.20
  -6  -1  -3  311.97   21.70
  -6  -1  -3  327.37   29.20
   1   3  -6  366.06   26.90
   6  -1   3  370.56   27.40
   6  -1   3  368.06   24.70
   6   1  -3  354.96   27.60
   3  -6   1  357.96   22.10
   3  -6   1  333.97   23.40
  -1  -3  -6  368.66   24.90
   1  -3   6  351.26   29.20
  -3  -6  -1  358.16   26.30
   3  -6   1  322.87   24.60
   6   1  -3  357.16   22.80
  -3  -6   1  313.37   26.90
  -1  -3   6  388.66   28.80
  -6  -1   3  409.46   29.60
   1  -3  -6  382.76   26.30
   6   1   3  379.96   27.70
  -1  -3   6  354.56   25.50
  -6   1  -3  370.66   26.10
   1   3   6  316.67   23.00
   1   3   6  362.26   26.90
   1   3   6  298.37   23.30
  -6   1  -3  372.86   29.60
   3  -6  -1  329.77   22.50
   3  -6  -1  359.96   24.20
  -6  -1   3  333.57   28.00
   6   1   3  315.47   24.10
  -3  -6   1  330.87   22.80
  -3  -6   1  377.96   24.10
   3  -6  -1  346.27   23.20
   6  -1  -3  383.56   28.90
  -1   3  -6  401.66   26.00
   3  -6  -1  345.57   20.90
   3  -6   2  263.07   20.60
  -6  -2  -3  254.77   27.90
  -3  -6  -2  305.17   18.60
  -3  -6  -2  289.17   23.40
   2  -3   6  297.37   26.80
   6  -2   3  290.57   24.30
  -6   2   3  258.77   23.50
  -3  -6  -2  288.87   18.10
   3  -6   2  283.37   20.80
  -2  -3  -6  277.47   21.80
   6   2  -3  267.17   18.40
  -6   2   3  310.57   26.10
   2  -3   6  289.17   22.90
  -2   3   6  260.87   23.50
  -3  -6  -2  312.37   19.40
  -3  -6  -2  290.17   17.70
  -6  -2  -3  289.97   18.60
   2   3  -6  315.87   24.10
   6  -2   3  286.47   22.10
  -2   3   6  333.37   23.90
   3  -6   2  297.57   21.40
  -6  -2  -3  265.07   23.30
   6   2  -3  284.07   25.10
  -2   3  -6  300.37   22.70
  -3  -6   2  310.77   23.00
   6  -2  -3  287.37   22.80
   2  -3  -6  312.47   25.40
   6   2   3  311.17   25.30
   6   2   3  280.67   21.80
  -2  -3   6  312.37   26.60
   3  -6  -2  275.97   22.10
   2   3   6  252.67   20.30
  -3  -6   2  297.47   23.10
   2   3   6  275.97   22.10
  -6   2  -3  334.37   23.60
  -6  -2   3  340.77   26.90
  -6  -2   3  306.57   26.50
  -3  -6   2  265.67   25.60
   6  -2  -3  304.07   26.40
   3  -6  -2  262.47   21.00
  -6   2  -3  303.97   27.90
   2   3   6  270.17   25.00
   3  -6  -2  263.67   22.30
   3   3  -6  182.28   18.00
   6  -3   3  191.58   18.80
  -6   3   3  220.18   22.00
  -6  -3  -3  177.58   25.40
  -3   3   6  204.68   21.30
  -3  -3  -6  222.68   22.10
   3  -3   6  193.78   20.20
  -6  -3  -3  200.28   19.90
  -6   3   3  192.68   18.70
   3  -6   3  211.08   17.60
  -3  -3  -6  219.78   19.00
   3  -3   6  191.88   23.80
  -3  -6  -3  203.88   16.60
   6  -3   3  223.08   22.00
   6   3  -3  197.08   21.20
   3  -6   3  226.08   20.40
   3   3  -6  221.78   21.70
  -3  -6  -3  185.08   20.70
  -3  -3   6  235.88   23.40
   6   3   3  218.78   23.00
  -6   3  -3  223.58   19.50
   3  -6  -3  191.38   20.20
   3  -6  -3  160.88   21.10
  -3  -3   6  238.28   22.90
  -3   3  -6  210.98   19.40
  -3  -6   3  196.18   20.70
   6  -3  -3  205.58   23.00
   3   3   6  195.28   22.70
   3  -6  -3  200.18   22.30
   6   3   3  166.98   16.20
   3   3   6  177.98   16.40
  -3  -6   3  184.38   23.00
   6  -3  -3  214.28   21.30
   3  -3  -6  238.68   23.80
   3   6   3  192.18   21.90
  -6  -3   3  233.68   23.90
  -6  -3   3  189.68   24.30
  -3  -6   3  198.68   20.90
  -3  -6  -4  142.29   21.50
  -4  -3  -6  170.48   23.30
   6  -4   3  141.09   18.80
   4  -3   6  142.69   19.80
   3  -6   4  118.89   15.90
   6  -4   3  121.49   20.40
   4   3  -6  152.48   21.50
  -6   4   3  133.19   20.20
  -3  -6  -4  156.98   16.60
   4  -3   6  172.88   25.70
   3  -6   4  151.88   20.40
  -4   3   6  136.99   21.00
  -6  -4  -3  138.59   22.10
  -6  -4  -3  158.08   19.50
  -4  -3  -6  159.08   18.80
  -3  -6   4  111.89   17.40
   4   3   6  160.18   22.90
   6  -4  -3  135.09   23.00
  -4  -3   6  152.38   22.40
  -6  -4   3  114.09   19.50
  -6   4  -3  167.28   18.00
  -3  -6   4  170.08   21.30
  -4   3  -6  154.68   18.40
   3  -6  -4  140.29   22.20
   6  -4  -3  145.49   21.00
  -6  -4   3  173.88   22.60
  -4  -3   6  163.08   21.60
   4  -3  -6  147.59   22.90
   0  -4  -6  274.57   22.50
  -4  -6   0  280.37   20.70
   6   0  -4  316.17   26.10
   6   0   4  257.77   22.30
   0  -4   6  292.17   21.50
   0   4  -6  287.77   23.60
   6   0  -4  291.87   21.70
   6   0   4  276.27   25.40
   4  -6   0  247.98   19.80
  -4  -6   0  285.27   20.00
  -6   0  -4  272.77   26.60
  -6   0   4  330.47   27.20
  -6   0   4  267.97   25.80
  -6   0  -4  259.07   22.70
   0  -4   6  286.67   26.60
  -4  -6   0  240.68   24.90
   0   4  -6  236.08   24.00
   4  -6   0  242.78   20.60
   4  -6   0  231.68   21.20
   4  -6   0  283.57   20.20
   0   4   6  250.27   18.70
  -1   4   6  248.18   18.80
   6  -1   4  250.27   24.90
   4  -6   1  259.07   20.20
  -1  -4  -6  235.98   20.80
  -6  -1  -4  257.27   22.50
   6   1  -4  285.77   19.90
   6   1  -4  274.07   18.50
   1   4  -6  270.67   22.50
   1   4  -6  228.38   24.10
   4  -6   1  243.38   19.80
   1  -4   6  262.57   26.70
   4  -6   1  229.78   20.90
   1  -4   6  245.28   20.90
  -6   1   4  297.67   26.10
  -6   1   4  235.08   23.40
  -4  -6  -1  252.27   19.20
  -4  -6  -1  244.58   23.90
   4  -6   1  256.27   19.00
  -6  -1  -4  212.78   26.60
   6   1  -4  288.37   25.80
   6  -1   4  262.27   22.10
  -1   4  -6  248.28   21.90
   1  -4  -6  282.27   22.90
   6   1   4  234.08   22.20
  -4  -6   1  229.28   19.90
   4  -6  -1  266.67   20.70
  -4  -6   1  267.97   22.00
  -4  -6   1  213.98   25.70
   6   1   4  264.87   25.70
  -6  -1   4  274.97   25.80
  -6  -1   4  255.57   24.60
  -6   1  -4  251.27   21.80
   6  -1  -4  291.17   21.90
  -1  -4   6  265.87   21.00
  -1  -4   6  256.07   25.50
   4  -6  -1  217.48   19.50
   4  -6  -1  246.88   20.40
  -6   1  -4  220.08   26.70
   6  -1  -4  309.27   26.70
   2  -4   6  228.58   25.20
   4  -6   2  194.98   19.30
   6  -2   4  207.58   20.10
   6   2  -4  208.28   23.40
   6   2  -4  223.28   15.50
  -6  -2  -4  179.48   16.60
   2   4  -6  148.59   23.70
   2   4  -6  229.38   21.20
   4  -6   2  239.18   18.80
  -6   2   4  194.98   23.60
  -6   2   4  139.99   19.10
  -4  -6  -2  212.48   17.60
   2  -4   6  181.28   20.10
  -6  -2  -4  173.68   26.20
  -2   4   6  187.68   17.40
  -2  -4  -6  205.88   19.30
  -4  -6  -2  200.28   22.60
  -6  -2  -4  215.08   21.10
   6  -2   4  173.38   22.50
   6  -2  -4  257.37   21.70
   6   2   4  211.78   25.40
  -6   2  -4  183.88   19.70
   6  -2  -4  223.68   24.60
   6   2   4  192.48   20.70
   4  -6  -2  184.88   20.20
   4  -6  -2  184.08   19.80
  -6  -2   4  224.78   24.20
  -4  -6   2  206.88   22.90
   2  -4  -6  173.38   22.10
  -6  -2   4  180.48   23.50
  -2   4  -6  233.88   20.20
  -4  -6   2  198.98   20.90
  -2  -4   6  249.48   24.70
   6  -3   4  156.28   19.00
   6  -3   4  157.98   22.50
   4  -6   3  133.49   16.80
   3  -4   6  145.39   23.80
  -3  -4  -6  140.49   21.40
  -3   4   6  134.69   17.50
  -6   3   4  159.78   22.40
  -4  -6  -3  143.69   16.80
  -4  -6  -3  174.48   22.40
  -6  -3  -4  130.69   20.80
   4  -6   3  134.69   18.70
  -3  -4  -6  152.58   17.50
   3   4  -6  153.28   20.20
   3  -4   6   97.59   15.20
  -6  -3  -4  154.08   19.20
   6   3  -4  121.79   21.70
  -6   3  -4  136.99   17.90
   3  -4  -6  125.59   23.00
  -3   4  -6  140.29   18.50
  -3  -4   6  162.68   23.80
  -6  -3   4  170.68   24.10
   4  -6  -3  157.58   22.60
   4  -6  -3  162.38   21.80
  -4  -6   3  115.59   18.60
  -4  -6   3  144.89   20.30
  -6  -3   4  147.19   22.20
   6  -3  -4  181.28   21.80
  -3  -4   6  145.39   22.10
   6   3   4  129.89   23.30
   6  -3  -4  158.58   24.40
   6   0   5  115.49   16.30
   6   0   5  138.49   24.20
   5  -6   0  125.89   16.60
   5  -6   0  108.29   15.30
   0  -5   6  131.19   16.60
   0  -5  -6  124.19   18.70
   6   0  -5  169.58   23.00
  -6   0  -5  131.19   18.60
  -6   0  -5  108.49   20.30
  -6   0   5  147.39   22.90
  -6   0   5  124.69   17.70
  -5  -6   0  123.59   18.50
  -5  -6   0  144.49   21.20
   0  -5   6  147.29   24.20
   5  -6   1  140.09   16.00
   6   1  -5  181.58   23.60
  -6  -1  -5  144.29   19.00
  -6  -1  -5  121.19   21.20
   1  -5   6  109.59   19.20
   1  -5   6  130.39   17.80
  -5  -6  -1  108.19   17.60
  -5  -6  -1   99.09   18.80
   6  -1   5  130.49   16.90
   5  -6   1  124.19   15.60
  -1  -5  -6  134.09   17.60
   6  -1   5  132.79   24.00
  -6   1   5  115.29   16.00
  -6   1   5  147.19   23.70
   6   1   5  140.99   18.20
  -6  -1   5  125.39   18.50
   5  -6  -1  125.39   18.30
   6   1   5  180.18   25.90
  -6  -1   5  118.99   19.50
  -1  -5   6  173.08   17.90
   1  -5  -6  136.69   20.20
  -5  -6   1  149.88   20.30
  -5  -6   1  112.39   19.80
  -6   1  -5  126.39   18.90
   5  -6  -1  114.09   16.10
  -6   1  -5  117.19   20.20
   6  -1  -5  151.08   22.90
  -1  -5   6  149.49   23.30
  -6  -2  -5   93.79   20.00
   6  -2   5  129.59   21.00
   6  -2   5  124.99   16.00
   6   2  -5  122.59   18.10
  -2  -5  -6  136.49   17.30
   5  -6   2   89.19   15.40
   5  -6   2  121.59   16.40
  -5  -6  -2   64.89   17.20
  -5  -6  -2  109.59   17.10
  -6  -2  -5   96.09   15.10
   2  -5   6  111.09   18.80
   2  -5   6   92.09   14.70
  -6   2   5  103.59   18.40
   6   2   5  107.79   19.50
  -2  -5   6   83.59   16.40
   2  -5  -6  131.59   19.80
   6  -2  -5  120.39   18.50
  -5  -6   2  100.99   17.20
  -5  -6   2   83.19   16.20
   5  -6  -2   68.09   13.30
  -2  -5   6  103.49   18.70
  -6  -2   5  100.09   17.00
  -6  -2   5  153.68   23.10
  -6   2  -5  103.69   18.30
   6  -2  -5  141.19   16.90
   5  -6  -2   94.29   15.90
  -7   0   0   22.70   10.80
  -7   0   0   26.20   12.80
   0  -7   0   25.20    6.10
   0  -7   0   22.00    8.80
   0   0  -7   27.20    8.90
   0   0   7   20.90   10.80
   0   0   7   33.00   13.30
   7   0   0   18.50    9.10
   7   0   0   18.50    7.60
  -7  -1   0   -8.20   11.30
  -7   1   0   29.20   10.60
  -7   1   0   21.30   12.50
  -1   0  -7   18.90    8.60
  -1   0   7   34.30   11.80
  -1   0   7   12.10   14.00
   0  -7  -1   18.00    6.30
   0  -7  -1   27.60    7.60
   0  -7   1   23.90    6.20
   0  -7   1   21.30    9.80
   1   0  -7   30.60   10.00
   1   0   7   22.80   11.90
   7  -1   0   17.40    9.30
   7  -1   0   46.30    9.40
   7   1   0   28.70    9.30
   7   1   0   25.90    6.70
  -7  -1   0   13.10   10.00
  -7   2   0   40.90   11.60
  -7   2   0   33.00   13.20
  -2   0  -7   38.30   10.10
  -2   0   7   53.49   14.10
  -2   0   7   49.60   16.10
   0  -7  -2   44.60    8.80
   0  -7  -2   35.30    7.10
   0  -7   2   37.20    9.10
   0  -7   2   45.80    7.50
   0  -7   2   31.70   11.60
  -7  -2   0   50.49   15.50
   2   0   7   50.99   14.00
   7  -2   0   46.40   11.00
   7  -2   0   53.69   10.30
  -7  -2   0   29.10   12.50
   2   0  -7   49.50   12.40
   0  -7   3   35.60   11.90
  -7  -3   0   41.90   13.40
  -7  -3   0   57.69   16.10
  -7   3   0   38.70   11.20
   3   0  -7   63.89   14.10
   7  -3   0   59.39   12.40
  -7   3   0   46.00   15.70
  -3   0  -7   49.90   11.00
  -3   0   7   40.10   12.70
   0  -7  -3   46.10    9.60
   0  -7   3   48.90   12.20
   0  -7   3   35.60    8.00
   7  -3   0   38.00   11.20
   7   3   0   50.49   13.70
   3   0   7   45.70   15.60
   3   0   7   51.89   14.00
   7   3   0   31.30   13.50
  -3   0   7   62.39   12.20
   7  -4   0   42.80   12.60
   4   0   7   19.40   14.00
   4   0  -7   58.69   13.00
  -4   0  -7   54.29   11.60
   4   0   7   84.09   19.40
  -7   4   0   72.89   13.30
  -7  -4   0   73.29   16.70
   7  -4   0   59.49   13.10
  -7  -4   0   43.60   16.80
   0  -7   4   67.09   10.80
   0  -7   4   96.19   16.40
   0  -7  -4   63.09   12.50
  -4   0   7   61.39   12.80
  -4   0   7   60.79   14.80
   0  -1  -7   38.00    9.60
   7   0  -1   34.20    8.40
   7   0   1   32.00    8.20
   1  -7   0   47.90    9.30
  -7   0  -1   25.10    9.70
   1  -7   0   21.20    6.40
   0   1   7   24.90   12.00
   0   1   7   15.00   12.70
  -7   0  -1    8.60   12.60
  -7   0   1   32.10   10.90
  -1  -7   0   23.60    9.00
   0   1  -7   23.50    9.10
  -1  -7   0   26.20    5.80
   7   0  -1   29.80   10.50
   0  -1   7   19.90   10.60
  -7   0   1   10.80   11.70
   1  -7   1   28.30   10.40
   1  -1   7   27.60   12.10
  -1  -7  -1   13.80    7.60
  -7  -1  -1   32.30   11.10
  -7  -1  -1   15.80   13.20
   7   1  -1   29.00    6.80
  -1   1   7   32.30   13.10
  -1   1   7   28.10   11.80
   1  -1   7   25.90   10.90
  -7   1   1   31.10   11.50
  -7   1   1   25.10   12.30
   1   1  -7   19.10    9.50
   7  -1   1   29.00    8.60
  -1  -7  -1   25.50    6.10
   1  -7   1   27.60    6.90
  -1  -1  -7   26.80    8.80
   7  -1   1   35.10    9.50
   7   1  -1   33.50   10.60
  -7   1  -1   23.00    9.50
   1  -1  -7   26.70    9.70
   1  -7  -1   19.50    6.80
  -1  -7   1   26.20    5.90
  -1  -7   1   14.10   10.10
   1   1   7   -6.50   12.10
   7   1   1   20.00    7.20
  -7   1  -1   25.80   13.20
  -1   1  -7   31.20    9.50
   1  -7  -1   24.00    6.50
   1   1   7   23.30   11.60
  -7  -1   1   31.20   11.40
   7  -1  -1   30.20   11.10
   7  -1  -1   21.00    8.80
  -7  -1   1   11.60   12.20
  -1  -1   7   28.80   11.60
   7   1   1   18.90   11.00
   7  -2   1   29.90    9.60
  -1  -7  -2   41.40    7.50
   2   1  -7   42.10   12.50
  -7  -2  -1   36.80   15.00
   1  -7   2   42.20    8.90
   1  -7   2   47.90    7.80
  -1  -7  -2   31.50    8.40
  -7   2   1   45.40   12.40
  -7   2   1   35.60   13.60
  -2  -1  -7   46.00   10.20
   2  -1   7   50.89   14.80
   7   2  -1   43.20   10.80
   2  -1   7   45.80   11.80
  -2   1   7   45.20   13.20
  -7  -2  -1   34.60   12.30
   7  -2   1   35.00   10.20
  -2  -1   7   59.69   14.60
   2  -1  -7   47.90   12.10
  -1  -7   2   46.50    7.30
  -7   2  -1   46.90   15.20
   1  -7  -2   46.20    9.10
  -7  -2   1   23.50   13.40
  -7  -2   1   51.59   13.00
  -7   2  -1   33.80   10.60
   7  -2  -1   40.50   10.90
   7   2   1   52.19   13.20
   7  -2  -1   35.30   10.60
  -1  -7   2   37.90   11.50
  -2   1  -7   53.09   10.80
   2   1   7   42.40   13.60
  -7  -3  -1   53.09   17.10
  -3   1   7   62.19   10.40
  -7  -3  -1   48.00   13.40
  -3   1   7   49.90   14.10
   3  -1   7   46.50   16.50
   3  -1   7   40.90   12.60
  -7   3   1   68.59   16.00
   7  -3   1   44.60   11.20
   7  -3   1   51.79   11.80
  -1  -7  -3   48.80    9.60
  -7   3   1   40.10   12.30
  -3  -1  -7   61.29   11.90
   3   1  -7   77.69   14.40
   1  -7   3   60.49   12.40
   1  -7   3   58.19    9.30
   7  -3  -1   61.89   13.40
  -7   3  -1   74.59   17.20
  -3   1  -7   63.79   12.20
  -7   3  -1   47.20   11.70
   7  -3  -1   54.69   12.20
  -1  -7   3   47.00    8.00
  -1  -7   3   57.49   13.90
   1  -7  -3   55.09   13.90
   1  -7  -3   48.00   10.90
  -7  -3   1   56.49   15.70
  -1  -7   3   50.09   11.50
   3  -1  -7   47.60   13.50
   3   1   7   60.69   16.20
  -3  -1   7   53.69   14.40
  -3  -1   7   61.99   12.80
  -7  -3   1   72.79   16.30
   7   3   1   24.30   12.50
  -7  -4  -1   38.90   14.60
   1  -7   4   80.19   16.50
   7  -4   1   56.99   11.90
   7  -4   1   65.99   13.30
  -4   1   7   50.69   15.90
   4  -1   7   67.29   13.60
   4   1  -7   69.69   14.50
  -7   4   1   53.69   13.50
   1  -7   4   59.59   10.20
  -7  -4  -1   64.89   18.40
  -4  -1  -7   51.29   11.40
   4  -1   7   63.39   18.10
  -1  -7   4   59.99   10.20
  -7  -4   1   49.40   16.30
  -7   4  -1   78.99   13.90
   4   1   7   60.19   19.10
   7  -4  -1   46.90   13.40
   4  -1  -7   54.59   13.50
   7  -4  -1   46.70   13.50
  -1  -7   4   73.79   15.90
   1  -7  -4   70.59   12.70
  -1  -7   4   51.39   14.60
  -4   1  -7   64.89   12.60
  -7  -4   1   73.89   17.30
  -4  -1   7   60.29   14.80
  -4  -1   7   89.69   15.30
  -7   0  -2   38.40   10.50
   2  -7   0   34.20   11.30
  -2  -7   0   41.30   11.50
   0  -2  -7   49.40   10.90
   0   2   7   46.00   13.50
   2  -7   0   46.70    9.20
   2  -7   0   43.30   10.00
   0   2  -7   59.19   11.70
   7   0  -2   39.50   12.70
   7   0  -2   51.59   10.00
   2  -7   0   50.49    8.00
   0   2   7   28.80   10.60
   7   0   2   56.79   12.90
   7   0   2   36.40    9.70
  -7   0  -2   46.80    8.10
  -7   0  -2   26.90   13.90
  -7   0   2   45.50   13.30
  -7   0   2   35.10   13.50
  -2  -7   0   39.80    5.90
   0  -2   7   40.00   12.80
  -1  -2  -7   34.50    9.50
  -7  -1  -2   37.00   11.10
  -7   1   2   39.50   14.10
  -7   1   2   36.10   13.10
   7  -1   2   39.60   12.30
   7  -1   2   38.80    9.90
   2  -7   1   39.20    7.80
   2  -7   1   42.30    8.00
  -7  -1  -2   40.20   16.00
   1  -2   7   48.90   11.20
   7   1  -2   46.80   12.40
   7   1  -2   32.30    7.60
  -2  -7  -1   42.30    6.50
  -2  -7  -1   58.49   11.30
   1   2  -7   30.80   11.00
  -1   2   7   36.40   12.30
   2  -7   1   35.10   10.90
   1  -2   7   39.70   13.50
   2  -7  -1   43.50    9.20
  -2  -7   1   22.40   11.00
  -7  -1   2   41.10   13.20
  -7  -1   2   49.40   15.20
   2  -7  -1   39.10    6.70
   7  -1  -2   52.29   13.60
   1  -2  -7   57.69   12.20
  -1  -2   7   34.60   11.60
   7  -1  -2   39.00   10.50
  -2  -7   1   43.30    6.00
  -7   1  -2   50.89   11.80
  -7   1  -2   25.60   14.50
   1   2   7   50.49   12.20
   2  -7  -1   42.40    7.20
   1   2   7   23.60   13.00
  -1   2  -7   24.00    9.90
   7   1   2   54.09    9.90
   7   1   2   43.60   12.30
   7  -2   2   48.80   11.30
  -2  -7  -2   51.29   10.40
  -7   2   2   53.19   13.90
   2  -2   7   48.90   16.00
  -2   2   7   61.89   13.80
   7  -2   2   54.99   14.00
  -7  -2  -2   47.10   12.30
  -7  -2  -2   65.49   18.00
   2  -2   7   66.69   12.80
   2   2  -7   66.29   13.20
   2  -7   2   44.20    9.00
  -2  -2  -7   69.79   12.00
   7   2  -2   45.60   12.10
  -7   2   2   32.20   14.60
   2  -7   2   71.19   10.70
  -2  -7  -2   58.29    8.10
   2  -7  -2   51.79   10.30
   7  -2  -2   49.90   11.80
  -7  -2   2   43.50   14.80
   7  -2  -2   50.19   13.90
  -2  -7   2   50.89   10.10
  -2   2  -7   68.99   12.50
   2  -2  -7   64.89   13.60
   2  -7  -2   44.20    9.50
   7   2   2   34.90    8.70
   7  -2  -2   35.20   11.00
  -7  -2   2   60.99   15.10
   2   2   7   56.69   14.30
  -7   2  -2   54.79   12.00
  -2  -2   7   40.60   14.00
   7   2   2   66.89   14.30
  -2  -7   2   38.30   13.10
  -7   2  -2   43.50   16.50
  -7   3   2   46.50   14.10
  -7  -3  -2   69.89   14.20
  -7  -3  -2   39.80   17.80
   3  -2   7   77.09   17.70
   3  -2   7   44.30   12.70
  -3  -2  -7   59.29   12.10
   7  -3   2   63.59   15.30
  -7   3   2   60.69   14.90
   3   2  -7   56.89   13.10
   2  -7   3   69.29   11.20
   7   3  -2   48.90   12.40
  -3   2   7   39.80   14.60
  -2  -7  -3   45.40    8.90
   7  -3   2   66.29   12.50
  -2  -7  -3   62.69   11.50
   2  -7   3   54.99   12.50
   3  -2  -7   60.49   14.70
  -2  -7   3   66.09   15.60
   3   2   7   54.09   16.70
   7  -3  -2   52.89   16.00
  -3  -2   7   62.59   14.10
  -2  -7   3   67.99   12.00
  -7   3  -2   50.19   17.10
   7  -3  -2   31.90   12.00
   2  -7  -3   75.19   13.30
   7   3   2   54.29   14.60
  -7   3  -2   61.99   12.60
  -7  -3   2   71.49   18.50
  -7  -3   2   74.99   16.50
   2  -7  -3   70.29   12.30
  -3   2  -7   50.69   12.30
  -3  -2   7   51.99   15.40
   3  -7   0   66.09   10.20
   0   3   7   52.19   13.00
  -7   0   3   25.40   14.90
   7   0  -3   43.90   14.50
   7   0  -3   45.70   10.70
  -7   0  -3   43.20   16.60
  -3  -7   0   33.00   11.90
   0  -3  -7   39.30   11.60
   0  -3   7   45.00   14.40
  -7   0  -3   52.49   12.00
  -7   0   3   40.00   14.90
   0   3  -7   41.60   11.80
   7   0   3   56.49   11.70
   0  -3   7   54.69   12.20
   3  -7   0   45.00    9.20
   7   0   3   55.69   14.10
   1   3  -7   50.49   13.30
  -7  -1  -3   50.39   12.30
  -3  -7  -1   56.69   12.80
   1  -3   7   56.19   15.70
  -1  -3  -7   54.49   11.40
   7  -1   3   62.19   13.90
   1  -3   7   51.99   12.40
  -1   3   7   59.29   13.20
   7  -1   3   37.80   10.90
   7   1  -3   66.19   14.80
   7   1  -3   51.49    9.00
  -7   1   3   32.80   14.60
  -7  -1  -3   44.90   17.00
   3  -7   1   56.59   10.20
  -7   1   3   34.30   14.50
   1  -3  -7   47.00   12.20
  -3  -7   1   46.50   14.20
   7  -1  -3   52.89   14.60
  -7  -1   3   57.29   15.70
   7   1   3   33.70   13.20
   1   3   7   31.10   13.40
   3  -7  -1   52.79    9.10
  -1  -3   7   46.20   14.00
  -1   3  -7   52.59   11.80
   7  -1  -3   48.40   12.10
   7   1   3   47.30   12.30
  -7  -1   3   48.10   14.60
   3  -7  -1   58.39   10.50
  -7   1  -3   56.99   13.00
  -7   1  -3   32.90   16.00
  -2   3   7   67.49   13.90
   2  -3   7   46.70   12.40
   3  -7   2   49.40   11.00
  -7   2   3   64.69   14.40
   7  -2   3   33.20   13.20
   7  -2   3   77.59   12.80
   7   2  -3   44.70   14.10
  -3  -7  -2   56.89   13.50
   2  -3   7   44.50   16.50
   3  -7   2   55.89   10.70
  -7  -2  -3   47.10   13.60
  -7  -2  -3   66.19   18.60
  -2  -3  -7   60.99   12.00
  -7   2   3   62.19   15.80
   2   3  -7   69.59   13.90
   7  -2  -3   70.69   13.60
   2   3   7   61.59   14.80
   3  -7  -2   55.79   11.10
  -7  -2   3   81.19   17.20
   7  -2  -3   81.49   16.40
  -2   3  -7   57.29   12.50
   2  -3  -7   74.39   15.00
   7   2   3   48.00   14.70
  -3  -7   2   54.59   11.50
  -3  -7   2   77.09   16.40
   3  -7  -2   49.00   11.30
  -2  -3   7   47.90   14.80
  -7  -2   3   56.19   16.40
  -7   2  -3   49.00   12.50
  -7   2  -3   43.90   17.40
   7   0   4   68.39   14.50
   0  -4   7   70.59   17.00
   0   4  -7   78.59   14.80
  -7   0  -4   44.40   11.80
   7   0  -4   88.69   13.20
   7   0   4   55.59   16.30
  -4  -7   0   40.90   16.20
   0  -4   7   64.59   14.20
  -7   0   4   73.19   17.30
  -7   0   4   87.69   17.70
   4  -7   0   56.99   10.10
   4  -7   0   61.09   10.80
   7   0  -4   91.99   16.90
   0  -4  -7   62.79   13.80
  -7   0  -4   49.20   16.00
  -1  -4  -7   70.89   13.70
  -7  -1  -4   78.99   18.80
   7  -1   4   52.89   13.30
   7   1  -4   73.79   16.60
   4  -7   1   61.99   10.70
   1  -4   7   57.69   16.50
   1  -4   7   33.80   12.40
   7  -1   4   43.80   14.90
  -7   1   4   84.09   17.50
   4  -7   1   46.90    9.70
  -7  -1  -4   54.79   12.70
  -4  -7  -1   49.40   15.20
  -7   1   4   28.40   14.30
   1   4  -7   87.99   14.60
   4  -7  -1   60.29   11.00
   7  -1  -4   62.29   14.50
  -4  -7   1   39.90   16.00
   7   1   4   54.49   14.10
   7  -1  -4   84.79   14.20
  -1   4  -7   54.59   13.70
   1  -4  -7   65.39   14.60
  -7  -1   4   70.69   16.60
  -7  -1   4   82.29   18.80
  -7   1  -4   46.20   12.30
  -7   1  -4   44.90   16.60
   4  -7  -1   44.60   10.50
  -1  -4   7   47.70   14.90
   7   1   4   40.40   16.00
  -8   0   0  316.77   30.60
  -8   0   0  209.78   35.10
   0  -8   0  320.17   21.90
   0  -8   0  281.07   25.10
   0   0  -8  317.87   27.10
   0   0   8  313.67   32.10
   8   0   0  353.76   28.70
   8   0   0  305.47   23.40
   0  -8   1  303.37   26.90
   1   0  -8  265.37   26.60
   1   0   8  311.47   31.40
   8  -1   0  323.07   27.10
   8  -1   0  295.37   25.30
   0  -8   1  267.77   20.90
  -1   0  -8  285.07   26.10
  -1   0   8  344.57   31.80
   0  -8  -1  295.37   21.60
  -8   1   0  296.77   29.10
  -8   1   0  215.98   33.20
  -8  -1   0  310.67   29.50
   8   0   1  315.17   31.20
   8   0   1  302.97   23.50
   8   0  -1  294.27   28.70
   8   0  -1  199.28   27.70
   1  -8   0  255.67   21.00
   1  -8   0  243.88   24.00
   0  -1   8  298.77   28.80
   0   1  -8  287.67   26.20
   0   1   8  334.97   31.60
   0  -1  -8  274.87   24.90
  -8   0  -1  284.87   27.60
  -8   0  -1  220.48   30.10
  -8   0   1  276.17   29.50
  -8   0   1  216.68   34.60
  -1  -8   0  282.27   25.60
  -8  -1  -1  249.78   26.50
  -8  -1  -1  223.48   33.80
   8   1  -1  268.57   27.60
   1   1  -8  278.47   26.90
   1  -8   1  216.18   24.00
   1  -8   1  249.97   19.60
  -8   1   1  211.38   27.40
  -8   1   1  162.38   26.10
  -1  -8  -1  246.58   18.70
  -1  -8  -1  221.88   21.80
  -1   1   8  292.17   30.60
  -1  -1  -8  230.18   23.60
   1  -1   8  252.87   28.10
   8  -1   1  267.17   24.40
  -1  -8   1  211.68   25.00
  -1  -1   8  268.47   27.30
  -8   1  -1  202.68   28.40
  -8   1  -1  231.98   25.70
   1  -1  -8  223.98   24.20
   1  -8  -1  259.97   20.40
  -8  -1   1  191.58   28.90
   1   1   8  254.87   30.40
   8  -1  -1  229.48   25.80
   8  -1  -1  241.88   23.30
  -1   1  -8  244.18   23.90
  -8  -1   1  235.08   27.90
   8   1   1  252.57   29.80
   0   0   0    0.00    0.00

_computing_structure_solution     'SHELXT 2014/5 (Sheldrick, 2014)'
;
_shelx_hkl_checksum              35578
loop_
_space_group_symop_operation_xyz
'x, y, z'
'-x, -y, z'
'-x, y, -z'
'x, -y, -z'
'z, x, y'
'z, -x, -y'
'-z, -x, y'
'-z, x, -y'
'y, z, x'
'-y, z, -x'
'y, -z, -x'
'-y, -z, x'
'y, x, z'
'-y, -x, z'
'y, -x, -z'
'-y, x, -z'
'x, z, y'
'-x, z, -y'
'-x, -z, y'
'x, -z, -y'
'z, y, x'
'z, -y, -x'
'-z, y, -x'
'-z, -y, x'
loop_
_atom_site_label
_atom_site_type_symbol
_atom_site_fract_x
_atom_site_fract_y
_atom_site_fract_z
_atom_site_U_iso_or_equiv
_atom_site_adp_type
_atom_site_occupancy
_atom_site_site_symmetry_order
_atom_site_calc_flag
_atom_site_refinement_flags_posn
_atom_site_refinement_flags_adp
_atom_site_refinement_flags_occupancy
Pb1 Pb 0.5000 0.5000 0.5000 0.0293(3) Uani 1 24 d S T P
I1 I 0.0000 0.5000 0.5000 0.1236(8) Uani 1 8 d S T P
C1 C 0.043(4) 0.043(4) 0.113(5) 0.03(2) Uani 0.0833 2 d DS T P
N1 N 0.043(4) 0.043(4) 0.113(5) 0.03(2) Uani 0.0833 2 d S T P
H1 H 0.134(5) 0.134(5) 0.134(5) 0.020 Uiso 0.25 6 d DS U P
H2 H 0.0000 0.0000 0.225(7) 0.020 Uiso 0.6667 4 d DS U P
loop_
_atom_site_aniso_label
_atom_site_aniso_U_11
_atom_site_aniso_U_22
_atom_site_aniso_U_33
_atom_site_aniso_U_23
_atom_site_aniso_U_13
_atom_site_aniso_U_12
Pb1 0.0293(3) 0.0293(3) 0.0293(3) 0.000 0.000 0.000
I1 0.0208(6) 0.1750(13) 0.1750(13) 0.000 0.000 0.000
C1 0.03(2) 0.03(2) 0.05(2) 0.018(12) 0.018(12) 0.004(13)
N1 0.03(2) 0.03(2) 0.05(2) 0.018(12) 0.018(12) 0.004(13)
loop_
_atom_type_symbol
_atom_type_description
_atom_type_scat_dispersion_real
_atom_type_scat_dispersion_imag
_atom_type_scat_source
C C 0.0033 0.0016 'International Tables Vol C Tables 4.2.6.8 and 6.1.1.4'
H H 0.0000 0.0000 'International Tables Vol C Tables 4.2.6.8 and 6.1.1.4'
N N 0.0061 0.0033 'International Tables Vol C Tables 4.2.6.8 and 6.1.1.4'
I I -0.4742 1.8119 'International Tables Vol C Tables 4.2.6.8 and 6.1.1.4'
Pb Pb -3.3944 10.1111 'International Tables Vol C Tables 4.2.6.8 and 6.1.1.4'
loop_
_geom_angle_atom_site_label_1
_geom_angle_atom_site_label_2
_geom_angle_atom_site_label_3
_geom_angle
_geom_angle_site_symmetry_1
_geom_angle_site_symmetry_3
I1 Pb1 I1 90.0 9_556 .
I1 Pb1 I1 90.0 9_556 1_655
I1 Pb1 I1 180.0 . 1_655
I1 Pb1 I1 90.0 9_556 5
I1 Pb1 I1 90.0 . 5
I1 Pb1 I1 90.0 1_655 5
I1 Pb1 I1 90.0 9_556 5_565
I1 Pb1 I1 90.0 . 5_565
I1 Pb1 I1 90.0 1_655 5_565
I1 Pb1 I1 180.0 5 5_565
I1 Pb1 I1 180.0 9_556 9
I1 Pb1 I1 90.0 . 9
I1 Pb1 I1 90.0 1_655 9
I1 Pb1 I1 90.0 5 9
I1 Pb1 I1 90.0 5_565 9
Pb1 I1 Pb1 180.0 1_455 .
N1 C1 N1 59.999(9) 9 5
N1 C1 C1 0.0 9 9
N1 C1 C1 60.0 5 9
N1 C1 C1 60.0 9 5
N1 C1 C1 0.0 5 5
C1 C1 C1 59.999(9) 9 5
N1 C1 C1 120.0 9 2
N1 C1 C1 120.0 5 2
C1 C1 C1 120.015(6) 9 2
C1 C1 C1 119.993(4) 5 2
N1 C1 N1 120.015(6) 9 2
N1 C1 N1 119.993(4) 5 2
C1 C1 N1 120.015(6) 9 2
C1 C1 N1 119.993(4) 5 2
C1 C1 N1 0(6) 2 2
N1 C1 N1 108.7(13) 9 12
N1 C1 N1 94(3) 5 12
C1 C1 N1 108.7(13) 9 12
C1 C1 N1 94(3) 5 12
C1 C1 N1 26(3) 2 12
N1 C1 N1 26(3) 2 12
N1 C1 N1 94(3) 9 7
N1 C1 N1 108.7(13) 5 7
C1 C1 N1 94(3) 9 7
C1 C1 N1 108.7(13) 5 7
C1 C1 N1 26(3) 2 7
N1 C1 N1 26(3) 2 7
N1 C1 N1 30(3) 12 7
N1 C1 C1 93.7 9 7
N1 C1 C1 108.7 5 7
C1 C1 C1 94(3) 9 7
C1 C1 C1 108.7(13) 5 7
C1 C1 C1 26(3) 2 7
N1 C1 C1 26.3 2 7
N1 C1 C1 29.6 12 7
N1 C1 C1 0.0 7 7
N1 C1 C1 108.7 9 12
N1 C1 C1 93.7 5 12
C1 C1 C1 108.7(13) 9 12
C1 C1 C1 94(3) 5 12
C1 C1 C1 26(3) 2 12
N1 C1 C1 26.3 2 12
N1 C1 C1 0.0 12 12
N1 C1 C1 29.6 7 12
C1 C1 C1 30(3) 7 12
N1 C1 N1 34(3) 9 10
N1 C1 N1 75.2(13) 5 10
C1 C1 N1 34(3) 9 10
C1 C1 N1 75.2(13) 5 10
C1 C1 N1 86(3) 2 10
N1 C1 N1 86(3) 2 10
N1 C1 N1 78.1(16) 12 10
N1 C1 N1 60.001(2) 7 10
C1 C1 N1 60.001(2) 7 10
C1 C1 N1 78.1(16) 12 10
N1 C1 C1 75.2 9 6
N1 C1 C1 33.7 5 6
C1 C1 C1 75.2(13) 9 6
C1 C1 C1 34(3) 5 6
C1 C1 C1 86(3) 2 6
N1 C1 C1 86.3 2 6
N1 C1 C1 60.0 12 6
N1 C1 C1 78.1 7 6
C1 C1 C1 78.1(16) 7 6
C1 C1 C1 60.001(1) 12 6
N1 C1 C1 70.4 10 6
N1 C1 H1 68(2) 9 .
N1 C1 H1 68(2) 5 .
C1 C1 H1 68(2) 9 .
C1 C1 H1 68(2) 5 .
C1 C1 H1 170(3) 2 .
N1 C1 H1 170(3) 2 .
N1 C1 H1 161(4) 12 .
N1 C1 H1 161(4) 7 .
C1 C1 H1 161(4) 7 .
C1 C1 H1 161(4) 12 .
N1 C1 H1 101(4) 10 .
C1 C1 H1 101(4) 6 .
N1 C1 H2 149.4(6) 9 .
N1 C1 H2 149.3(6) 5 .
C1 C1 H2 149.4(6) 9 .
C1 C1 H2 149.3(6) 5 .
C1 C1 H2 61(3) 2 .
N1 C1 H2 61(3) 2 .
N1 C1 H2 83(5) 12 .
N1 C1 H2 83(5) 7 .
C1 C1 H2 83(5) 7 .
C1 C1 H2 83(5) 12 .
N1 C1 H2 133(4) 10 .
C1 C1 H2 133(4) 6 .
H1 C1 H2 109(3) . .
loop_
_geom_bond_atom_site_label_1
_geom_bond_atom_site_label_2
_geom_bond_distance
_geom_bond_site_symmetry_2
Pb1 I1 3.1514(4) 9_556
Pb1 I1 3.1514(4) .
Pb1 I1 3.1515(4) 1_655
Pb1 I1 3.1514(4) 5
Pb1 I1 3.1514(4) 5_565
Pb1 I1 3.1514(4) 9
I1 Pb1 3.1514(4) 1_455
C1 N1 0.62(5) 9
C1 N1 0.62(5) 5
C1 C1 0.62(5) 9
C1 C1 0.62(5) 5
C1 C1 0.77(7) 2
C1 N1 0.77(7) 2
C1 N1 1.21(6) 12
C1 N1 1.21(6) 7
C1 C1 1.21(6) 7
C1 C1 1.21(6) 12
C1 N1 1.21(6) 10
C1 C1 1.21(6) 6
C1 H1 0.82(3) .
C1 H2 0.81(3) .
