#------------------------------------------------------------------------------
#$Date: 2019-10-28 17:51:50 +0200 (Mon, 28 Oct 2019) $
#$Revision: 220171 $
#$URL: file:///home/coder/svn-repositories/cod/cif/4/51/50/4515047.cif $
#------------------------------------------------------------------------------
#
# This file is available in the Crystallography Open Database (COD),
# http://www.crystallography.net/
#
# All data on this site have been placed in the public domain by the
# contributors.
#
data_4515047
loop_
_publ_author_name
'Swaminathan, Srividya'
'Haribabu, Jebiti'
'Kalagatur, Naveen Kumar'
'Konakanchi, Ramaiah'
'Balakrishnan, Nithya'
'Bhuvanesh, Nattamai'
'Karvembu, Ramasamy'
_publ_section_title
;
 Synthesis and Anticancer Activity of
 [RuCl<sub>2</sub>(\h<sup>6</sup>-arene)(aroylthiourea)] Complexes-High
 Activity against the Human Neuroblastoma (IMR-32) Cancer Cell Line.
;
_journal_issue                   4
_journal_name_full               'ACS omega'
_journal_page_first              6245
_journal_page_last               6256
_journal_paper_doi               10.1021/acsomega.9b00349
_journal_volume                  4
_journal_year                    2019
_chemical_formula_moiety         'C18 H12 Cl2 N2 O S'
_chemical_formula_sum            'C18 H12 Cl2 N2 O S'
_chemical_formula_weight         375.26
_space_group_crystal_system      triclinic
_space_group_IT_number           2
_space_group_name_Hall           '-P 1'
_space_group_name_H-M_alt        'P -1'
_symmetry_space_group_name_Hall  '-P 1'
_symmetry_space_group_name_H-M   'P -1'
_atom_sites_solution_hydrogens   mixed
_atom_sites_solution_primary     direct
_audit_creation_date             2019-02-25
_audit_creation_method
;
Olex2 1.2
(compiled 2018.05.29 svn.r3508 for OlexSys, GUI svn.r5506)
;
_cell_angle_alpha                92.899(3)
_cell_angle_beta                 101.046(3)
_cell_angle_gamma                105.360(3)
_cell_formula_units_Z            2
_cell_length_a                   7.331(2)
_cell_length_b                   8.111(2)
_cell_length_c                   14.229(4)
_cell_measurement_reflns_used    5117
_cell_measurement_temperature    110.0
_cell_measurement_theta_max      27.478
_cell_measurement_theta_min      2.619
_cell_volume                     796.1(4)
_computing_cell_refinement       'SAINT v8.34A (Bruker, 2013)'
_computing_data_reduction        'SAINT v8.34A (Bruker, 2013)'
_computing_molecular_graphics    'Olex2 (Dolomanov et al., 2009)'
_computing_publication_material  'Olex2 (Dolomanov et al., 2009)'
_computing_structure_refinement  'ShelXL (Sheldrick, 2015)'
_computing_structure_solution    'ShelXT (Sheldrick, 2015)'
_diffrn_ambient_temperature      110.0
_diffrn_measured_fraction_theta_full 0.996
_diffrn_measured_fraction_theta_max 0.982
_diffrn_measurement_device_type  'Bruker APEX-II CCD'
_diffrn_measurement_method       '\f and \w scans'
_diffrn_radiation_type           MoK\a
_diffrn_radiation_wavelength     0.71073
_diffrn_reflns_av_R_equivalents  0.0360
_diffrn_reflns_av_unetI/netI     0.0381
_diffrn_reflns_Laue_measured_fraction_full 0.996
_diffrn_reflns_Laue_measured_fraction_max 0.982
_diffrn_reflns_limit_h_max       9
_diffrn_reflns_limit_h_min       -9
_diffrn_reflns_limit_k_max       10
_diffrn_reflns_limit_k_min       -10
_diffrn_reflns_limit_l_max       18
_diffrn_reflns_limit_l_min       -18
_diffrn_reflns_number            9336
_diffrn_reflns_point_group_measured_fraction_full 0.996
_diffrn_reflns_point_group_measured_fraction_max 0.982
_diffrn_reflns_theta_full        26.000
_diffrn_reflns_theta_max         27.506
_diffrn_reflns_theta_min         2.619
_diffrn_standards_number         0
_exptl_absorpt_coefficient_mu    0.546
_exptl_absorpt_correction_T_max  0.7456
_exptl_absorpt_correction_T_min  0.6340
_exptl_absorpt_correction_type   multi-scan
_exptl_absorpt_process_details
'SADABS-2014/3 (Bruker,2014/3) was used for absorption correction. wR2(int) was 0.1198 before and 0.0455 after correction. The Ratio of minimum to maximum transmission is 0.8503. The \l/2 correction factor is Not present.'
_exptl_crystal_colour            colourless
_exptl_crystal_colour_primary    colourless
_exptl_crystal_density_diffrn    1.565
_exptl_crystal_description       plate
_exptl_crystal_F_000             384
_exptl_crystal_size_max          0.603
_exptl_crystal_size_mid          0.198
_exptl_crystal_size_min          0.102
_refine_diff_density_max         0.371
_refine_diff_density_min         -0.300
_refine_diff_density_rms         0.059
_refine_ls_extinction_method     none
_refine_ls_goodness_of_fit_ref   1.061
_refine_ls_hydrogen_treatment    constr
_refine_ls_matrix_type           full
_refine_ls_number_parameters     217
_refine_ls_number_reflns         3604
_refine_ls_number_restraints     0
_refine_ls_restrained_S_all      1.061
_refine_ls_R_factor_all          0.0352
_refine_ls_R_factor_gt           0.0303
_refine_ls_shift/su_max          0.000
_refine_ls_shift/su_mean         0.000
_refine_ls_structure_factor_coef Fsqd
_refine_ls_weighting_details
'w=1/[\s^2^(Fo^2^)+(0.0300P)^2^+0.3509P] where P=(Fo^2^+2Fc^2^)/3'
_refine_ls_weighting_scheme      calc
_refine_ls_wR_factor_gt          0.0763
_refine_ls_wR_factor_ref         0.0791
_reflns_Friedel_coverage         0.000
_reflns_number_gt                3176
_reflns_number_total             3604
_reflns_threshold_expression     'I > 2\s(I)'
_cod_data_source_file            ao9b00349_si_002.cif
_cod_data_source_block           jhdbnap
_cod_original_cell_volume        796.2(4)
_cod_database_code               4515047
_shelx_shelxl_version_number     2018/3
_shelx_space_group_comment
;
The symmetry employed for this shelxl refinement is uniquely defined
by the following loop, which should always be used as a source of
symmetry information in preference to the above space-group names.
They are only intended as comments.
;
_shelx_estimated_absorpt_t_max   0.946
_shelx_estimated_absorpt_t_min   0.734
_olex2_refinement_description
;
1. Fixed Uiso
 At 1.2 times of:
  All C(H) groups, All N(H) groups
2.a Riding coordinates:
 N1(H1)
2.b Aromatic/amide H refined with riding coordinates:
 N2(H2), C5(H5), C7(H7), C8(H8), C12(H12), C13(H13), C14(H14), C15(H15),
 C16(H16), C17(H17), C18(H18)
;
_shelx_res_file
;
TITL jhdbnap_a.res in P-1
    jhdbnap.res
    created by SHELXL-2018/3 at 11:45:32 on 25-Feb-2019
REM Old TITL JHDBNAP in P-1 #2
REM SHELXT solution in P-1
REM R1 0.111, Rweak 0.006, Alpha 0.030, Orientation as input
REM Formula found by SHELXT: C18 N2 O Cl3
REM Instructions for potential hydrogen bonds
CELL 0.71073 7.3313 8.1114 14.2292 92.899 101.046 105.36
ZERR 2 0.002 0.0022 0.0039 0.003 0.003 0.003
LATT 1
SFAC C H Cl N O S
UNIT 36 24 4 4 2 2
EQIV $1 -X,1-Y,1-Z

L.S. 10
PLAN  20
SIZE 0.102 0.198 0.603
TEMP -163.15
HTAB N2 O1
HTAB N2 O1_$1
BOND $H
MORE -1
htab
CONF
fmap 2
acta 52
OMIT -2 2 7
REM <olex2.extras>
REM <HklSrc "%.\\JHDBNAP.hkl">
REM </olex2.extras>

WGHT    0.030000    0.350900
FVAR       0.68669
CL1   3    0.107014    0.330259    0.154569    11.00000    0.02855    0.01264 =
         0.01498    0.00000    0.00183    0.00357
CL2   3    0.268732    0.963602    0.043662    11.00000    0.04807    0.02195 =
         0.01605    0.01140    0.00716    0.00061
S1    6    0.471414    0.190618    0.452031    11.00000    0.01821    0.01397 =
         0.01541    0.00464    0.00504    0.00898
O1    5    0.088087    0.550586    0.424218    11.00000    0.01785    0.02190 =
         0.01561    0.00860    0.00820    0.01135
N1    4    0.284370    0.402872    0.377294    11.00000    0.01491    0.01393 =
         0.01128    0.00417    0.00485    0.00636
AFIX   3
H1    2    0.366880    0.391592    0.336414    11.00000   -1.20000
AFIX   0
N2    4    0.215950    0.315639    0.522697    11.00000    0.01491    0.01456 =
         0.01165    0.00532    0.00351    0.00706
AFIX  43
H2    2    0.138379    0.382473    0.515542    11.00000   -1.20000
AFIX   0
C1    1    0.315122    0.305363    0.454254    11.00000    0.01229    0.01063 =
         0.01067    0.00107    0.00057    0.00143
C2    1    0.180884    0.520585    0.366450    11.00000    0.01137    0.01228 =
         0.01036    0.00192    0.00126    0.00210
C3    1    0.197446    0.620489    0.281129    11.00000    0.01071    0.01400 =
         0.01172    0.00467    0.00291    0.00412
C4    1    0.171876    0.551227    0.186303    11.00000    0.01186    0.01191 =
         0.01341    0.00141    0.00185    0.00238
C5    1    0.190050    0.655646    0.112555    11.00000    0.01635    0.01896 =
         0.01072    0.00241    0.00310    0.00325
AFIX  43
H5    2    0.170457    0.607383    0.047937    11.00000   -1.20000
AFIX   0
C6    1    0.237427    0.831955    0.135220    11.00000    0.01692    0.01865 =
         0.01357    0.00909    0.00407    0.00292
C7    1    0.262937    0.905368    0.228106    11.00000    0.02013    0.01339 =
         0.01733    0.00408    0.00347    0.00423
AFIX  43
H7    2    0.295305    1.026670    0.242114    11.00000   -1.20000
AFIX   0
C8    1    0.240441    0.798820    0.300408    11.00000    0.01658    0.01577 =
         0.01160    0.00216    0.00316    0.00558
AFIX  43
H8    2    0.254478    0.847772    0.364370    11.00000   -1.20000
AFIX   0
C9    1    0.226064    0.226339    0.606810    11.00000    0.01106    0.01605 =
         0.01206    0.00617    0.00328    0.00527
C10   1    0.268948    0.324590    0.698073    11.00000    0.00839    0.01570 =
         0.01266    0.00492    0.00293    0.00334
C11   1    0.268530    0.235363    0.781677    11.00000    0.01194    0.01981 =
         0.01392    0.00648    0.00394    0.00435
C12   1    0.227460    0.053857    0.771914    11.00000    0.01645    0.01994 =
         0.01671    0.01146    0.00331    0.00480
AFIX  43
H12   2    0.226112   -0.006105    0.827538    11.00000   -1.20000
AFIX   0
C13   1    0.189784   -0.035643    0.683185    11.00000    0.01687    0.01376 =
         0.02249    0.00766    0.00384    0.00311
AFIX  43
H13   2    0.163848   -0.157256    0.677702    11.00000   -1.20000
AFIX   0
C14   1    0.189010    0.050509    0.599832    11.00000    0.01461    0.01568 =
         0.01410    0.00296    0.00171    0.00426
AFIX  43
H14   2    0.162775   -0.013099    0.538495    11.00000   -1.20000
AFIX   0
C15   1    0.313515    0.506922    0.709243    11.00000    0.01193    0.01642 =
         0.01538    0.00584    0.00411    0.00499
AFIX  43
H15   2    0.312672    0.567773    0.653917    11.00000   -1.20000
AFIX   0
C16   1    0.357590    0.595812    0.798663    11.00000    0.01514    0.01794 =
         0.01950    0.00126    0.00293    0.00487
AFIX  43
H16   2    0.389723    0.717829    0.805010    11.00000   -1.20000
AFIX   0
C17   1    0.355680    0.507599    0.881559    11.00000    0.01765    0.02779 =
         0.01285   -0.00033    0.00181    0.00742
AFIX  43
H17   2    0.385664    0.570257    0.943404    11.00000   -1.20000
AFIX   0
C18   1    0.310867    0.332544    0.873056    11.00000    0.01776    0.02787 =
         0.01102    0.00719    0.00343    0.00672
AFIX  43
H18   2    0.307882    0.274405    0.929288    11.00000   -1.20000
AFIX   0
HKLF 4




REM  jhdbnap_a.res in P-1
REM wR2 = 0.0791, GooF = S = 1.061, Restrained GooF = 1.061 for all data
REM R1 = 0.0303 for 3176 Fo > 4sig(Fo) and 0.0352 for all 3604 data
REM 217 parameters refined using 0 restraints

END

WGHT      0.0300      0.3509

REM Instructions for potential hydrogen bonds
HTAB N2 O1
HTAB N2 O1_$1

REM Highest difference peak  0.371,  deepest hole -0.300,  1-sigma level  0.059
Q1    1   0.2006  0.5703  0.3230  11.00000  0.05    0.37
Q2    1   0.2341  0.8671  0.1805  11.00000  0.05    0.29
Q3    1   0.2773  0.2759  0.7388  11.00000  0.05    0.28
Q4    1   0.1822  0.5865  0.2357  11.00000  0.05    0.27
Q5    1   0.3145  0.2835  0.8239  11.00000  0.05    0.26
Q6    1   0.3015  0.5415  0.7572  11.00000  0.05    0.26
Q7    1   0.3526  0.2191  0.4432  11.00000  0.05    0.26
Q8    1   0.2422  0.2799  0.6554  11.00000  0.05    0.25
Q9    1   0.2653  0.4785  0.3803  11.00000  0.05    0.25
Q10   1   0.2502  0.8940  0.0989  11.00000  0.05    0.24
Q11   1   0.2931  0.3710  0.3411  11.00000  0.05    0.24
Q12   1   0.2933  0.3648  0.4175  11.00000  0.05    0.24
Q13   1   0.2024  0.4249  0.3661  11.00000  0.05    0.24
Q14   1   0.3520  0.5493  0.8386  11.00000  0.05    0.23
Q15   1   0.1417  0.6016  0.1456  11.00000  0.05    0.23
Q16   1   0.2296  0.2717  0.5641  11.00000  0.05    0.22
Q17   1   0.1498 -0.0042  0.7183  11.00000  0.05    0.22
Q18   1   0.3233  0.4033  0.7034  11.00000  0.05    0.22
Q19   1   0.2391  0.3596  0.1445  11.00000  0.05    0.21
Q20   1   0.3858  0.4169  0.8794  11.00000  0.05    0.21
;
_shelx_res_checksum              7173
_shelx_hkl_file
;
  -1   0   0    8.30    0.80
  -1   0   0   11.80    0.70
  -1   0   0   11.00    0.80
   1   0   0    9.80    0.70
  -2   0   0 7607.54  306.17
  -2   0   0 8307.07  305.97
  -2   0   0 6840.02  305.77
   2   0   0 6800.42  305.97
  -3   0   0  385.66   16.20
  -3   0   0  346.57   16.90
   3   0   0  384.26   16.30
  -4   0   0  550.44   22.50
  -4   0   0  510.95   23.50
   4   0   0  501.75   22.50
   4   0   0  504.35   23.00
  -5   0   0  180.48    8.50
  -5   0   0  172.58    9.70
   5   0   0  170.68    9.20
   5   0   0  169.38    8.50
  -6   0   0   17.90    2.80
   6   0   0   14.80    2.60
  -7   0   0   43.50    4.80
   7   0   0   39.60    4.20
  -8   0   0   -1.10    1.60
   8   0   0    0.40    1.40
   9  -1   0    0.50    1.60
  -9   1   0    2.00    2.00
   8  -1   0    4.30    2.00
  -8   1   0    0.70    1.80
   7  -1   0   20.70    3.10
  -7   1   0   19.30    3.20
   6  -1   0  689.93   31.00
  -6   1   0  715.83   32.20
   5  -1   0  218.28   10.80
  -5   1   0  226.18   11.20
  -5   1   0  214.68   11.40
  -5   1   0  220.58   10.30
   4  -1   0 1466.25   65.39
  -4   1   0 1523.85   65.89
  -4   1   0 1567.34   65.79
  -4   1   0 1645.54   64.99
   3  -1   0   13.90    1.40
  -3   1   0   14.10    1.60
  -3   1   0   13.20    1.10
  -3   1   0   13.80    1.50
  -2   1   0  158.88    7.70
  -2   1   0  162.48    7.70
  -2   1   0  177.18    7.50
  -2   1   0  174.88    7.80
   1  -1   0   66.19    3.10
  -1   1   0   61.89    3.20
  -1   1   0   63.89    3.10
  -1   1   0   70.59    3.00
   0  -1   0  524.35   22.40
   0  -1   0  531.85   22.40
   0   1   0  548.25   22.40
   0   1   0  540.85   22.40
  -1  -1   0  992.10   44.80
  -1  -1   0 1120.09   44.40
   1   1   0 1014.70   44.60
   1   1   0 1134.69   44.10
  -2  -1   0   26.60    1.70
  -2  -1   0   28.30    2.20
   2   1   0   27.50    1.40
   2   1   0   20.40    1.70
  -3  -1   0  257.57   13.10
  -3  -1   0  296.47   12.40
   3   1   0  257.17   12.60
   3   1   0  284.07   12.00
  -4  -1   0  471.55   20.80
  -4  -1   0  468.15   22.00
   4   1   0  462.25   21.30
   4   1   0  488.25   20.40
  -5  -1   0    4.70    1.60
  -5  -1   0    5.00    1.20
   5   1   0    3.70    1.30
  -6  -1   0   58.39    5.40
   6   1   0   74.99    5.30
  -7  -1   0    2.10    1.90
   7   1   0    0.80    1.30
  -8  -1   0  143.99   10.40
   8   1   0  138.79    9.30
   9  -2   0   29.30    4.00
  -9   2   0   27.50    4.50
  -8   2   0  183.68   11.30
   7  -2   0  270.57   14.30
  -7   2   0  313.97   15.20
  -7   2   0  283.07   15.10
   6  -2   0  292.07   15.00
  -6   2   0  327.17   15.50
  -6   2   0  310.17   15.50
   5  -2   0    2.80    1.10
  -5   2   0    3.10    1.10
  -5   2   0    4.10    1.30
   4  -2   0 1264.87   54.79
   4  -2   0 1248.98   53.89
  -4   2   0 1318.07   54.69
  -4   2   0 1305.47   54.79
   3  -2   0  823.52   35.60
  -3   2   0  840.92   36.20
  -3   2   0  888.71   36.00
  -3   2   0  822.92   36.10
   2  -2   0  443.16   18.70
  -2   2   0  436.16   19.20
  -2   2   0  451.65   18.60
  -2   2   0  418.66   18.90
   1  -2   0  195.08    8.70
  -1   2   0  199.28    8.70
  -1   2   0  197.18    9.00
   0  -2   0   99.09    4.70
   0  -2   0   97.39    4.70
   0   2   0  103.89    4.70
   0   2   0  103.19    4.70
  -1  -2   0 1209.88   50.39
  -1  -2   0 1146.99   50.79
   1   2   0 1264.07   49.99
   1   2   0 1196.28   50.49
  -2  -2   0  339.77   14.50
  -2  -2   0  324.47   15.20
   2   2   0  300.27   14.60
   2   2   0  346.27   13.80
  -3  -2   0   49.50    3.90
  -3  -2   0   56.69    3.30
   3   2   0   57.69    3.60
  -4  -2   0  169.78    9.70
  -4  -2   0  168.58    8.50
   4   2   0  177.08    9.00
  -5  -2   0  170.28    8.50
  -5  -2   0  153.68    9.60
   5   2   0  161.38    9.00
  -6  -2   0   30.80    4.00
   6   2   0   34.60    3.60
  -7  -2   0  139.99   10.00
   7   2   0  146.09    9.10
  -8  -2   0   -0.10    1.80
   8   2   0    0.10    1.40
   8  -3   0    3.30    1.70
  -8   3   0    4.90    1.90
   7  -3   0    4.70    1.70
  -7   3   0   10.40    2.30
  -7   3   0    5.70    1.80
   6  -3   0   28.40    3.10
  -6   3   0   23.90    2.80
  -6   3   0   18.20    2.50
   5  -3   0   40.70    3.60
   5  -3   0   39.80    2.70
  -5   3   0   43.20    3.50
  -5   3   0   41.70    3.30
   4  -3   0   28.20    2.00
  -4   3   0   25.40    2.40
  -4   3   0   28.20    2.20
   3  -3   0   48.60    2.80
  -3   3   0   46.20    2.70
  -3   3   0   46.90    3.10
  -3   3   0   49.80    3.40
   2  -3   0 1261.17   50.09
  -2   3   0 1147.39   50.59
  -2   3   0 1192.08   49.40
  -2   3   0 1170.18   50.29
   1  -3   0  166.18    7.70
  -1   3   0  159.48    7.10
  -1   3   0  171.18    8.00
  -1   3   0  179.98    7.80
   0  -3   0  473.45   21.50
   0  -3   0  509.25   21.60
   0   3   0  515.05   21.60
   0   3   0  510.55   21.50
  -1  -3   0 2842.42  121.99
  -1  -3   0 2912.91  122.49
   1   3   0 2892.01  122.09
   1   3   0 3095.59  121.69
  -2  -3   0  549.95   24.90
  -2  -3   0  547.45   24.00
   2   3   0  580.24   23.30
   2   3   0  542.25   24.30
  -3  -3   0   11.50    2.10
   3   3   0    1.00    0.70
  -4  -3   0   26.60    2.50
  -4  -3   0   25.20    3.20
   4   3   0   33.30    2.90
  -5  -3   0    2.50    1.80
  -5  -3   0   -0.70    0.80
   5   3   0    0.10    0.90
  -6  -3   0   70.89    6.40
   6   3   0   73.09    5.60
  -7  -3   0   26.90    4.60
   7   3   0   39.80    4.20
   9  -4   0  100.79    7.50
  -9   4   0   90.29    7.40
   8  -4   0   29.10    4.00
  -8   4   0   38.20    4.40
   7  -4   0  122.49    7.90
  -7   4   0  106.39    7.40
   6  -4   0  107.79    7.20
  -6   4   0  103.29    6.70
   5  -4   0  128.49    7.90
   5  -4   0  132.59    6.60
  -5   4   0  124.69    7.40
   4  -4   0  263.97   11.70
  -4   4   0  249.58   11.40
  -4   4   0  242.28   12.20
  -4   4   0  254.17   12.70
   3  -4   0   71.79    3.90
  -3   4   0   69.29    4.50
  -3   4   0   65.09    3.10
  -3   4   0   64.79    4.10
   2  -4   0  222.18   10.20
  -2   4   0  216.58   10.30
  -2   4   0  222.88   10.80
   1  -4   0  373.36   16.30
  -1   4   0  347.67   15.60
  -1   4   0  376.66   16.60
  -1   4   0  380.86   16.30
   0  -4   0   66.59    3.80
   0  -4   0   73.59    3.90
   0   4   0   68.39    3.80
   0   4   0   70.09    3.90
  -1  -4   0  603.34   27.00
  -1  -4   0  587.94   26.50
   1   4   0  636.04   26.20
   1   4   0  627.84   26.70
  -2  -4   0  655.63   28.20
  -2  -4   0  630.54   29.00
   2   4   0  661.13   28.40
  -3  -4   0   12.40    2.40
  -3  -4   0   11.60    1.70
   3   4   0   12.50    1.80
  -4  -4   0    1.20    1.50
  -4  -4   0    2.40    1.10
   4   4   0   -0.60    0.80
  -5  -4   0  127.89    9.00
  -5  -4   0  129.19    7.60
   5   4   0  136.59    8.00
  -6  -4   0   14.00    3.50
   6   4   0   22.30    3.30
  -7  -4   0   33.80    5.20
   7   4   0   41.00    4.50
   9  -5   0    4.50    2.60
  -9   5   0    1.20    2.00
   8  -5   0   36.50    4.50
  -8   5   0   26.90    3.80
   7  -5   0    1.10    1.60
  -7   5   0    0.30    1.40
   6  -5   0  203.08   11.70
  -6   5   0  201.78   11.10
   5  -5   0   12.90    1.70
  -5   5   0   11.80    2.20
   4  -5   0   25.00    2.10
  -4   5   0   18.00    2.20
  -4   5   0   23.10    2.70
   3  -5   0  613.24   26.20
  -3   5   0  609.14   27.20
  -3   5   0  581.84   26.60
   2  -5   0    1.20    0.70
  -2   5   0    1.00    0.80
  -2   5   0    2.00    0.90
   1  -5   0  888.41   37.30
  -1   5   0  863.71   37.20
  -1   5   0  915.21   37.70
  -1   5   0  820.02   36.50
   0  -5   0   41.50    2.80
   0  -5   0   43.40    3.00
   0   5   0   40.40    2.90
   0   5   0   42.00    2.90
  -1  -5   0    7.20    1.40
  -1  -5   0    4.80    1.30
   1   5   0    7.50    1.50
  -2  -5   0   68.29    4.30
  -2  -5   0   64.39    4.80
   2   5   0   66.59    4.30
  -3  -5   0    0.60    0.90
  -3  -5   0   -0.70    1.00
   3   5   0    0.70    1.00
  -4  -5   0  455.65   22.70
  -4  -5   0  454.35   21.20
   4   5   0  468.85   21.50
  -5  -5   0    3.30    2.10
  -5  -5   0    9.20    2.10
   5   5   0    3.30    1.70
  -6  -5   0  123.99    9.60
   6   5   0  113.69    7.80
   8  -6   0   33.00    4.80
  -8   6   0   31.30    4.40
   7  -6   0   18.10    3.60
  -7   6   0   17.00    3.30
   6  -6   0    1.10    1.70
  -6   6   0    1.90    1.60
   5  -6   0   54.89    3.80
  -5   6   0   54.29    4.50
   4  -6   0   66.99    4.20
  -4   6   0   60.59    4.60
  -4   6   0   67.49    5.20
   3  -6   0   11.10    1.70
  -3   6   0   13.50    2.30
  -3   6   0   13.10    2.00
   2  -6   0   13.60    1.80
  -2   6   0   12.60    1.90
  -2   6   0   12.90    1.70
   1  -6   0   13.50    1.70
  -1   6   0   10.70    1.80
  -1   6   0   10.40    1.60
   0  -6   0  456.55   21.30
   0   6   0  485.95   21.30
   0   6   0  485.15   21.40
  -1  -6   0   37.90    3.30
  -1  -6   0   33.10    3.10
   1   6   0   39.00    3.10
  -2  -6   0    0.60    1.10
  -2  -6   0   -0.10    0.90
   2   6   0   -0.30    1.00
  -3  -6   0  239.88   13.30
  -3  -6   0  241.58   12.40
   3   6   0  258.57   12.60
  -4  -6   0   10.20    2.30
  -4  -6   0    7.60    2.30
   4   6   0    8.50    2.20
  -5  -6   0   57.89    4.90
  -5  -6   0   50.99    5.70
   5   6   0   53.49    5.00
   8  -7   0  158.98   11.10
  -8   7   0  151.58   10.30
   7  -7   0   48.80    5.50
  -7   7   0   49.60    4.90
   6  -7   0   51.99    5.40
  -6   7   0   59.69    5.10
   5  -7   0   -0.30    0.80
   5  -7   0   -1.00    1.10
  -5   7   0    0.30    1.10
   4  -7   0   90.39    5.30
  -4   7   0   74.89    5.60
   3  -7   0  526.45   23.00
  -3   7   0  470.05   23.10
  -3   7   0  528.55   24.00
   2  -7   0   18.80    2.30
  -2   7   0   17.80    2.30
  -2   7   0   20.00    2.60
   1  -7   0   -0.60    0.80
  -1   7   0    0.60    1.00
  -1   7   0    0.90    1.10
   0  -7   0  190.28   10.00
   0   7   0  198.48   10.00
  -1  -7   0   12.70    2.30
   1   7   0   13.50    2.20
  -2  -7   0    5.70    1.70
   2   7   0    3.40    1.40
  -3  -7   0   48.70    4.30
   3   7   0   49.50    4.40
  -4  -7   0   10.10    2.80
   4   7   0    9.50    2.40
   7  -8   0  101.39    8.60
  -7   8   0  108.29    8.10
   6  -8   0   49.60    5.70
  -6   8   0   43.70    4.80
   5  -8   0   22.40    2.80
   5  -8   0   32.10    4.20
  -5   8   0   25.50    3.40
   4  -8   0   92.09    5.70
  -4   8   0   78.29    5.90
   3  -8   0  121.39    6.90
  -3   8   0  105.59    7.00
   2  -8   0   19.10    2.50
  -2   8   0   16.10    2.60
  -2   8   0   17.00    2.50
   1  -8   0   36.30    3.50
  -1   8   0   42.40    3.70
   0  -8   0  380.46   18.00
   0   8   0  364.86   17.80
  -1  -8   0   54.79    4.70
   1   8   0   54.89    4.60
  -2  -8   0   -0.90    1.30
   2   8   0    1.90    1.60
  -3  -8   0   69.09    5.60
   3   8   0   66.39    5.40
   6  -9   0    1.00    2.10
  -6   9   0    0.40    1.50
   5  -9   0  125.69    7.60
   5  -9   0  123.89    9.10
  -5   9   0  129.29    8.60
   4  -9   0    5.20    1.90
   4  -9   0    7.70    2.50
  -4   9   0    6.00    2.10
   3  -9   0    9.00    2.10
   3  -9   0   12.70    2.80
  -3   9   0    9.90    2.50
   2  -9   0    7.50    2.10
  -2   9   0    9.00    2.30
   1  -9   0    3.30    1.80
  -1   9   0    6.10    2.20
   0  -9   0    7.20    2.40
   0   9   0    7.00    2.40
  -1  -9   0  347.27   17.60
   1   9   0  349.37   17.50
  -2  -9   0   11.00    2.80
   2   9   0    5.40    2.30
   5 -10   0   50.79    4.60
   5 -10   0   54.69    5.90
  -5  10   0   42.60    5.00
   4 -10   0   76.69    5.90
   4 -10   0   73.49    6.70
  -4  10   0   70.59    6.10
   3 -10   0    9.30    2.50
  -3  10   0    9.60    2.70
   2 -10   0  128.99    8.50
  -2  10   0  135.49    8.60
   1 -10   0    1.80    1.80
  -1  10   0    7.40    2.40
   0 -10   0    1.00    3.40
   0  10   0    4.20    4.10
   0  10  -1   58.79    6.20
   0 -10   1   53.59    6.10
  -1  10  -1   36.90    4.30
   1 -10   1   41.40    4.50
  -2  10  -1   31.20    4.10
   2 -10   1   31.50    3.80
  -3  10  -1  189.08   11.40
   3 -10   1  200.38   11.10
  -4  10  -1  123.09    8.50
   4 -10   1  125.99    7.90
   4 -10   1  111.29    8.80
  -5  10  -1   -0.50    2.10
   5 -10   1    1.30    1.50
   5 -10   1   -0.20    2.20
   2   9  -1   87.99    6.50
  -2  -9   1   89.59    6.90
   1   9  -1   31.50    4.00
  -1  -9   1   40.10    4.20
   0   9  -1    4.80    1.90
   0  -9   1    7.00    2.10
  -1   9  -1    3.10    1.70
   1  -9   1    0.90    1.40
  -2   9  -1   53.69    4.60
   2  -9   1   50.59    4.50
  -3   9  -1   32.90    3.80
   3  -9   1   35.60    4.30
   3  -9   1   36.50    3.80
  -4   9  -1   77.99    6.30
   4  -9   1   80.99    6.80
   4  -9   1   91.39    6.00
  -5   9  -1   66.89    5.90
   5  -9   1   64.79    6.40
   5  -9   1   55.59    4.70
  -6   9  -1    4.50    2.10
   6  -9   1    4.80    2.70
   3   8  -1   75.59    5.80
  -3  -8   1   76.99    6.00
   2   8  -1    2.20    1.60
  -2  -8   1    2.70    1.70
   1   8  -1   20.00    2.70
  -1  -8   1   19.20    2.80
   0   8  -1  110.89    6.80
   0  -8   1  106.29    6.80
  -1   8  -1  303.67   15.40
   1  -8   1  331.67   15.60
  -2   8  -1    2.60    1.50
   2  -8   1    2.00    1.60
   2  -8   1    1.70    1.30
  -3   8  -1   22.60    3.00
   3  -8   1   24.50    2.70
   3  -8   1   32.70    3.70
  -4   8  -1   55.99    4.80
   4  -8   1   64.39    4.40
   4  -8   1   54.49    5.30
  -5   8  -1    0.90    1.30
   5  -8   1   -1.00    0.80
   5  -8   1    0.40    1.40
  -6   8  -1   32.10    4.10
   6  -8   1   31.20    4.50
  -7   8  -1    3.60    2.50
   7  -8   1    3.20    2.40
   5   7  -1   19.20    5.30
  -5  -7   1   23.40    4.30
  -5  -7   1   29.30    4.00
   4   7  -1    2.10    1.90
  -4  -7   1    3.40    1.90
  -4  -7   1    0.10    1.80
   3   7  -1  415.06   19.80
  -3  -7   1  411.46   19.80
   2   7  -1    0.70    1.20
  -2  -7   1    0.40    1.40
   1   7  -1   36.30    3.30
  -1  -7   1   37.40    3.30
   0   7  -1   -0.60    0.80
   0  -7   1    2.10    1.20
  -1   7  -1  102.39    6.30
   1  -7   1  122.19    6.60
  -2   7  -1  569.04   26.60
   2  -7   1  620.94   26.60
  -3   7  -1    2.20    1.30
   3  -7   1    4.80    1.70
   3  -7   1    4.10    1.30
  -4   7  -1   37.80    3.60
   4  -7   1   35.20    4.10
   4  -7   1   38.00    3.10
  -5   7  -1  131.79    8.60
   5  -7   1  150.68    7.80
   5  -7   1  147.29    9.50
  -6   7  -1   21.40    3.30
   6  -7   1   19.00    3.70
  -7   7  -1  100.39    7.70
   7  -7   1  121.59    8.80
  -8   7  -1   12.10    3.40
   8  -7   1    5.80    2.80
   5   6  -1   18.00    3.00
  -5  -6   1   18.00    3.20
  -5  -6   1   20.80    4.10
   4   6  -1  174.38    9.50
  -4  -6   1  172.38   10.70
  -4  -6   1  157.98    9.40
   3   6  -1   49.70    4.10
  -3  -6   1   45.30    4.40
  -3  -6   1   43.70    3.80
   2   6  -1  115.69    6.90
  -2  -6   1  123.09    7.00
  -2  -6   1  124.69    7.50
   1   6  -1  484.35   21.30
  -1  -6   1  439.76   21.20
  -1  -6   1  486.35   21.60
   0   6  -1    3.50    1.10
   0  -6   1    1.80    0.90
  -1   6  -1   34.10    2.80
   1  -6   1   38.30    2.90
  -2   6  -1   93.69    5.50
   2  -6   1   94.29    5.40
  -3   6  -1   43.80    3.50
   3  -6   1   37.70    2.90
  -4   6  -1   33.80    3.30
   4  -6   1   31.00    3.60
   4  -6   1   36.60    2.80
  -5   6  -1  261.57   13.70
   5  -6   1  243.38   14.20
   5  -6   1  288.27   12.70
  -6   6  -1   34.00    3.80
   6  -6   1   43.00    4.60
  -7   6  -1   35.80    4.30
   7  -6   1   31.00    4.30
  -8   6  -1  107.89    8.40
   8  -6   1  137.29    9.40
   6   5  -1    1.20    1.60
  -6  -5   1    4.20    2.80
   5   5  -1  183.38   10.10
  -5  -5   1  182.78   10.10
  -5  -5   1  172.58   11.30
   4   5  -1   45.40    3.90
  -4  -5   1   45.90    4.60
  -4  -5   1   43.80    3.70
   3   5  -1    6.90    1.60
  -3  -5   1    3.80    1.30
  -3  -5   1    5.70    2.00
   2   5  -1  483.35   21.90
  -2  -5   1  499.85   22.70
  -2  -5   1  485.75   21.90
   1   5  -1   68.09    4.40
  -1  -5   1   79.59    4.60
  -1  -5   1   80.49    4.80
   0   5  -1  443.36   18.90
   0   5  -1  421.96   18.90
   0  -5   1  411.06   18.90
  -1   5  -1  198.18    9.50
  -1   5  -1  206.68    9.80
  -1   5  -1  191.98    8.70
   1  -5   1  192.08    9.30
  -2   5  -1   25.80    2.50
  -2   5  -1   21.80    2.10
   2  -5   1   24.40    2.00
  -3   5  -1  978.50   44.10
   3  -5   1 1067.99   43.60
  -4   5  -1   14.70    2.00
   4  -5   1   16.00    1.70
   4  -5   1   18.00    2.50
  -5   5  -1   94.59    6.30
   5  -5   1   89.99    6.70
   5  -5   1  108.79    5.50
  -6   5  -1   75.79    5.50
   6  -5   1   67.09    5.70
  -7   5  -1    4.20    1.80
   7  -5   1    1.70    1.80
  -8   5  -1  112.59    8.00
   8  -5   1  104.59    8.00
  -9   5  -1    5.50    2.70
   9  -5   1    8.70    2.90
   7   4  -1    1.60    1.60
  -7  -4   1   -1.50    1.90
   6   4  -1    2.30    1.70
  -6  -4   1    2.20    2.20
   5   4  -1   28.80    3.20
  -5  -4   1   18.70    2.60
  -5  -4   1   22.60    3.50
   4   4  -1    0.70    1.00
  -4  -4   1    0.90    1.30
  -4  -4   1    1.10    1.00
   3   4  -1  101.49    5.90
  -3  -4   1  104.39    6.70
  -3  -4   1  100.99    5.80
   2   4  -1    0.30    0.70
  -2  -4   1    0.30    0.70
  -2  -4   1    0.60    0.70
   1   4  -1   17.30    1.60
  -1  -4   1   18.30    1.90
  -1  -4   1   14.90    1.60
   0   4  -1    4.80    1.00
   0   4  -1    7.60    1.00
   0  -4   1    5.30    0.90
   0  -4   1    5.40    1.00
  -1   4  -1  460.05   19.50
  -1   4  -1  474.35   20.20
  -1   4  -1  466.75   20.40
   1  -4   1  445.46   20.00
  -2   4  -1    0.70    0.70
  -2   4  -1    0.90    0.20
  -2   4  -1    0.90    0.20
  -2   4  -1    1.60    0.70
   2  -4   1    0.80    0.50
  -3   4  -1   91.59    5.20
  -3   4  -1   89.09    4.30
   3  -4   1   90.29    4.70
  -4   4  -1  187.08    8.90
  -4   4  -1  175.38    9.60
   4  -4   1  205.18    9.00
   4  -4   1  181.58   10.00
  -5   4  -1    1.20    0.90
   5  -4   1    0.60    0.60
   5  -4   1   -1.90    0.70
  -6   4  -1  249.58   13.60
   6  -4   1  280.97   14.20
  -7   4  -1   31.50    3.60
   7  -4   1   29.10    3.70
  -8   4  -1   26.20    3.60
   8  -4   1   30.00    3.90
  -9   4  -1   32.80    4.50
   9  -4   1   45.40    4.80
   7   3  -1   12.00    2.70
  -7  -3   1   17.60    3.80
   6   3  -1   88.19    5.90
  -6  -3   1   68.89    6.40
   5   3  -1  498.05   23.00
  -5  -3   1  483.75   24.20
  -5  -3   1  514.45   22.80
   4   3  -1  328.97   15.80
  -4  -3   1  339.87   15.70
  -4  -3   1  345.37   17.00
   3   3  -1   15.40    1.80
  -3  -3   1   16.20    2.20
  -3  -3   1   15.30    1.70
   2   3  -1   21.20    1.80
  -2  -3   1   21.20    2.20
  -2  -3   1   21.30    1.80
   1   3  -1   20.50    1.60
  -1  -3   1   17.30    1.80
  -1  -3   1   18.10    1.50
   0   3  -1  546.15   23.90
   0   3  -1  570.14   24.00
   0  -3   1  538.25   24.00
   0  -3   1  594.94   24.10
  -1   3  -1  334.67   14.50
  -1   3  -1  319.97   14.60
  -1   3  -1  348.87   13.90
   1  -3   1  311.97   14.30
  -2   3  -1  171.28    8.30
  -2   3  -1  179.08    7.60
   2  -3   1  169.98    7.90
  -3   3  -1    5.20    1.10
  -3   3  -1    5.90    0.80
   3  -3   1    5.80    0.80
   3  -3   1    5.10    1.20
  -4   3  -1  167.28    8.40
  -4   3  -1  170.28    8.80
   4  -3   1  174.68    8.00
   4  -3   1  167.68    9.00
  -5   3  -1   57.39    4.50
  -5   3  -1   68.29    4.50
   5  -3   1   69.29    3.70
   5  -3   1   65.19    4.70
  -6   3  -1    4.40    1.70
  -6   3  -1    4.40    1.50
   6  -3   1    3.90    1.60
  -7   3  -1   90.69    6.60
  -7   3  -1   96.79    6.70
   7  -3   1   90.39    6.40
  -8   3  -1    3.40    1.80
   8  -3   1   -0.10    1.30
   8   2  -1   -0.30    1.50
  -8  -2   1    1.60    2.30
   7   2  -1    8.40    2.30
  -7  -2   1   14.60    3.30
   6   2  -1    1.30    1.10
  -6  -2   1    0.90    1.50
  -6  -2   1    1.30    1.20
   5   2  -1  262.17   12.90
  -5  -2   1  240.68   13.70
  -5  -2   1  271.07   12.60
   4   2  -1  486.95   22.00
  -4  -2   1  499.35   21.80
  -4  -2   1  485.35   23.00
   3   2  -1   24.70    2.10
  -3  -2   1   28.00    2.10
  -3  -2   1   23.70    2.60
   2   2  -1   49.99    2.90
  -2  -2   1   43.10    3.20
  -2  -2   1   49.40    2.80
   1   2  -1  775.42   32.20
  -1  -2   1  742.73   31.70
  -1  -2   1  784.92   32.30
  -1  -2   1  755.92   32.60
   0   2  -1    3.40    0.50
   0  -2   1    2.70    0.50
  -1   2  -1 1071.39   46.30
  -1   2  -1 1187.38   45.90
   1  -2   1 1057.79   46.10
  -2   2  -1   33.20    1.90
  -2   2  -1   29.20    2.10
   2  -2   1   36.30    1.90
   2  -2   1   28.60    2.20
  -3   2  -1  148.69    7.10
  -3   2  -1  139.79    7.30
   3  -2   1  142.69    7.40
   3  -2   1  146.39    6.60
  -4   2  -1  285.17   13.10
  -4   2  -1  273.47   13.20
   4  -2   1  284.67   13.30
   4  -2   1  268.67   12.20
  -5   2  -1   41.40    3.50
  -5   2  -1   37.40    3.30
   5  -2   1   39.20    2.50
   5  -2   1   36.20    3.20
  -6   2  -1  501.65   22.90
  -6   2  -1  473.55   22.80
   6  -2   1  482.45   22.40
  -7   2  -1    0.70    1.40
  -7   2  -1    4.70    1.80
   7  -2   1    3.20    1.40
  -8   2  -1   43.90    5.10
  -9   2  -1   31.60    4.90
   9  -2   1   26.10    4.30
   8   1  -1    9.00    2.70
  -8  -1   1    5.90    2.50
   7   1  -1  121.59    7.80
  -7  -1   1  119.29    8.60
   6   1  -1  120.79    7.40
  -6  -1   1  126.09    7.00
  -6  -1   1  121.79    8.30
   5   1  -1    8.80    1.90
  -5  -1   1   10.00    2.20
  -5  -1   1    7.80    1.50
   4   1  -1   20.60    1.60
   4   1  -1   23.30    2.20
  -4  -1   1   23.50    2.00
  -4  -1   1   21.60    2.60
   3   1  -1   30.50    2.30
   3   1  -1   33.10    1.90
  -3  -1   1   33.30    2.30
  -3  -1   1   33.80    2.80
   2   1  -1 1338.07   57.59
   2   1  -1 1334.17   56.99
  -2  -1   1 1365.96   58.09
  -2  -1   1 1461.85   57.49
   1   1  -1  385.46   16.50
  -1  -1   1  388.16   16.80
  -1  -1   1  391.06   16.50
   0   1  -1  102.79    4.60
   0   1  -1  100.19    4.60
   0  -1   1  104.39    4.60
   0  -1   1  114.19    4.60
  -1   1  -1  114.89    5.30
   1  -1   1  105.59    5.30
   1  -1   1  125.09    5.00
  -2   1  -1 5160.68  213.78
  -2   1  -1 4667.73  213.78
   2  -1   1 5541.65  213.88
   2  -1   1 5272.37  213.78
  -3   1  -1 1141.79   49.60
  -3   1  -1 1147.59   49.60
  -3   1  -1 1241.08   48.80
   3  -1   1 1138.19   49.40
  -4   1  -1  190.48    9.70
  -4   1  -1  213.38    8.70
  -4   1  -1  181.18    9.50
   4  -1   1  166.18    9.10
  -5   1  -1 1091.59   46.20
  -5   1  -1 1101.69   44.80
  -5   1  -1 1037.50   46.30
   5  -1   1 1010.10   45.40
  -6   1  -1    0.40    1.10
   6  -1   1    0.50    0.90
  -7   1  -1    3.80    1.80
   7  -1   1    1.40    1.40
  -8   1  -1   29.40    4.20
   8  -1   1   19.40    3.80
  -9   1  -1  108.09    8.90
   9  -1   1  107.49    8.20
   9   0  -1    2.90    2.00
  -9   0   1    5.20    2.90
   8   0  -1   15.40    3.20
  -8   0   1   22.20    3.80
   7   0  -1   10.40    2.40
  -7   0   1   11.80    3.10
   6   0  -1  228.58   12.20
  -6   0   1  241.28   12.90
  -6   0   1  239.88   11.60
   5   0  -1   13.20    1.90
   5   0  -1   15.00    1.60
  -5   0   1   14.60    2.30
  -5   0   1   11.70    1.60
   4   0  -1  243.08   11.40
   4   0  -1  244.28   11.90
  -4   0   1  249.88   12.40
  -4   0   1  266.37   11.60
  -3   0   1  930.31   41.00
  -3   0   1  980.70   40.40
  -2   0   1  450.95   19.60
  -2   0   1  454.95   20.00
  -2   0   1  467.95   19.50
  -1   0   1  427.96   18.60
  -1   0   1  440.66   18.80
  -1   0   1  456.55   18.60
  -1   0  -1    0.20    0.20
  -1   0  -1    0.60    0.10
  -1   0  -1    0.40    0.20
   1   0   1    0.40    0.20
  -2   0  -1 2352.46  100.59
  -2   0  -1 2558.64   99.89
  -2   0  -1 2309.87  100.39
   2   0   1 2419.06  100.09
  -3   0  -1  122.49    6.20
  -3   0  -1  117.99    6.40
  -3   0  -1  113.49    5.50
  -4   0  -1   28.40    2.80
  -4   0  -1   32.40    2.10
   4   0   1   28.70    2.20
  -5   0  -1   56.79    3.30
  -5   0  -1   45.60    4.20
   5   0   1   50.39    4.00
   5   0   1   48.50    3.30
  -6   0  -1    0.30    1.20
   6   0   1    0.60    1.00
  -7   0  -1   87.39    7.10
   7   0   1   92.99    6.70
  -8   0  -1   66.49    6.60
   8   0   1   62.59    5.90
   9  -1  -1    4.10    2.30
  -9   1   1    6.20    2.90
   8  -1  -1   26.50    3.70
  -8   1   1   33.30    4.40
   7  -1  -1   48.50    4.40
  -7   1   1   55.49    5.20
   6  -1  -1  405.66   19.60
  -6   1   1  432.86   20.70
  -6   1   1  448.46   19.40
   5  -1  -1   14.90    1.90
  -5   1   1   16.70    1.70
  -5   1   1   22.20    2.30
  -5   1   1   16.60    2.30
  -4   1   1 4914.31  202.38
  -4   1   1 4728.73  202.58
  -4   1   1 4957.00  201.98
  -3   1   1  531.75   23.00
  -3   1   1  547.35   22.80
  -3   1   1  515.45   23.00
  -3   1   1  529.05   23.20
  -2   1   1 9220.38  360.96
  -2   1   1 7680.33  361.16
  -2   1   1 9999.00  361.76
  -2   1   1 8012.30  361.36
   1  -1  -1  736.63   30.90
   1  -1  -1  678.83   30.60
  -1   1   1  762.12   30.80
  -1   1   1  773.12   31.00
   0  -1  -1 1344.17   54.59
   0  -1  -1 1304.77   54.59
   0   1   1 1265.87   54.49
   0   1   1 1346.37   54.59
  -1  -1  -1 1878.51   73.39
  -1  -1  -1 1752.42   73.89
   1   1   1 1678.73   73.59
   1   1   1 1766.52   73.29
  -2  -1  -1  912.31   36.60
  -2  -1  -1  846.22   37.40
   2   1   1  802.92   37.00
   2   1   1  924.31   36.50
  -3  -1  -1    6.00    0.90
  -3  -1  -1    5.20    1.30
   3   1   1    6.30    0.80
   3   1   1    3.70    1.00
  -4  -1  -1   11.00    2.10
  -4  -1  -1   10.10    1.30
   4   1   1    9.50    1.60
   4   1   1   12.10    1.20
  -5  -1  -1  100.89    5.40
  -5  -1  -1   87.99    6.50
   5   1   1   95.39    6.10
  -6  -1  -1   80.69    6.40
   6   1   1   81.89    5.90
  -7  -1  -1  212.88   13.30
   7   1   1  237.28   12.80
  -8  -1  -1   19.20    4.20
   8   1   1   22.60    3.70
   9  -2  -1   -0.90    1.40
  -9   2   1    2.00    1.90
  -8   2   1  910.01   41.60
   7  -2  -1    2.60    1.40
  -7   2   1    4.10    1.60
  -7   2   1    6.20    2.00
   6  -2  -1   10.20    2.10
  -6   2   1   13.90    2.50
  -6   2   1   10.40    2.00
  -5   2   1  196.68   10.10
  -5   2   1  194.28   10.00
  -4   2   1  425.06   18.30
  -4   2   1  387.96   18.10
  -4   2   1  387.96   18.00
   3  -2  -1   50.99    3.10
  -3   2   1   57.19    3.20
  -3   2   1   59.49    3.60
  -3   2   1   53.09    3.30
   2  -2  -1  604.04   26.50
  -2   2   1  659.13   26.20
  -2   2   1  604.14   26.60
  -2   2   1  628.84   26.90
   1  -2  -1 1329.17   57.09
   1  -2  -1 1399.86   56.59
  -1   2   1 1466.25   56.99
  -1   2   1 1271.97   57.29
   0  -2  -1 1417.56   59.49
   0  -2  -1 1415.46   59.49
   0   2   1 1434.76   59.49
   0   2   1 1444.56   59.49
  -1  -2  -1  295.57   13.70
  -1  -2  -1  303.57   13.20
   1   2   1  330.57   13.10
   1   2   1  286.27   13.40
  -2  -2  -1   70.89    4.50
  -2  -2  -1   77.59    3.80
   2   2   1   69.89    4.10
  -3  -2  -1  841.62   37.80
  -3  -2  -1  894.51   36.60
   3   2   1  843.52   37.10
  -4  -2  -1  188.98    8.80
  -4  -2  -1  174.18   10.00
   4   2   1  173.48    9.30
  -5  -2  -1   48.00    3.50
  -5  -2  -1   42.50    4.40
   5   2   1   51.19    4.10
  -6  -2  -1  228.68   13.20
   6   2   1  220.38   12.10
  -7  -2  -1   -0.20    1.60
   7   2   1    0.40    1.30
  -8  -2  -1    0.60    2.20
   8   2   1    2.70    2.20
   8  -3  -1  140.59    9.00
  -8   3   1  155.48    9.50
   7  -3  -1    6.00    2.00
  -7   3   1    1.30    1.30
  -7   3   1    3.20    1.50
   6  -3  -1   22.00    2.90
   6  -3  -1   24.30    2.30
  -6   3   1   24.30    2.80
  -6   3   1   30.10    2.90
   5  -3  -1  409.86   18.30
  -5   3   1  413.96   18.70
  -5   3   1  387.06   18.90
  -5   3   1  424.66   19.30
   4  -3  -1  144.09    7.30
  -4   3   1  145.29    8.00
  -4   3   1  151.38    7.80
  -4   3   1  157.18    7.40
   3  -3  -1    0.20    0.40
  -3   3   1   -0.10    0.40
  -3   3   1   -0.30    0.50
  -3   3   1    0.80    0.40
   2  -3  -1  607.94   25.40
  -2   3   1  600.84   25.40
  -2   3   1  562.44   25.80
   1  -3  -1   29.90    2.00
   1  -3  -1   30.60    1.60
  -1   3   1   28.50    2.10
  -1   3   1   29.50    1.90
   0  -3  -1  963.80   42.20
   0  -3  -1 1011.50   42.30
   0   3   1 1043.30   42.40
   0   3   1  999.00   42.20
  -1  -3  -1  268.07   12.00
  -1  -3  -1  262.67   12.50
   1   3   1  276.67   11.80
   1   3   1  265.77   12.10
  -2  -3  -1   13.70    1.80
  -2  -3  -1   11.10    1.30
   2   3   1   10.10    1.40
   2   3   1   10.50    1.00
  -3  -3  -1 1592.14   63.59
  -3  -3  -1 1445.46   64.79
   3   3   1 1482.65   63.99
  -4  -3  -1    4.30    1.10
  -4  -3  -1    2.80    1.60
   4   3   1    1.20    1.00
  -5  -3  -1   23.80    3.70
  -5  -3  -1   23.40    2.80
   5   3   1   21.10    2.80
  -6  -3  -1    5.10    2.40
   6   3   1    3.50    1.60
  -7  -3  -1    2.30    2.10
   7   3   1    2.60    1.90
   9  -4  -1   13.00    3.20
  -9   4   1   12.80    2.90
   8  -4  -1    7.80    2.50
  -8   4   1    7.50    2.40
   7  -4  -1  171.68   10.20
  -7   4   1  163.38    9.80
   6  -4  -1   44.30    3.20
  -6   4   1   39.90    3.80
   5  -4  -1   27.40    2.30
  -5   4   1   26.10    2.90
  -5   4   1   25.50    2.70
   4  -4  -1  130.39    6.70
  -4   4   1  128.49    7.20
  -4   4   1  130.19    7.60
  -4   4   1  138.19    6.30
   3  -4  -1 2401.16   97.49
  -3   4   1 2269.77   98.19
  -3   4   1 2317.47   97.69
   2  -4  -1  339.27   15.50
  -2   4   1  340.87   16.00
  -2   4   1  361.66   15.60
   1  -4  -1 3210.88  134.29
   1  -4  -1 3139.39  133.69
  -1   4   1 3299.47  134.69
  -1   4   1 3264.77  134.19
   0  -4  -1   28.50    2.20
   0  -4  -1   33.20    2.30
   0   4   1   39.40    2.40
   0   4   1   31.40    2.30
  -1  -4  -1    3.40    1.00
  -1  -4  -1    2.50    0.80
   1   4   1    3.40    0.90
   1   4   1    2.10    0.70
  -2  -4  -1    3.70    1.30
  -2  -4  -1    5.10    1.10
   2   4   1    6.40    1.40
  -3  -4  -1   11.40    1.60
  -3  -4  -1    8.90    2.00
   3   4   1    6.00    1.50
  -4  -4  -1  330.07   17.10
  -4  -4  -1  330.27   15.50
   4   4   1  332.27   16.00
  -5  -4  -1    1.60    1.80
   5   4   1    0.90    1.20
  -6  -4  -1   33.70    5.00
   6   4   1   30.40    3.80
  -7  -4  -1   -2.80    2.20
   7   4   1    0.50    1.70
   9  -5  -1   -1.30    1.60
  -9   5   1    2.20    2.10
   8  -5  -1   13.50    3.20
  -8   5   1   16.40    3.20
   7  -5  -1  134.69    8.90
  -7   5   1  122.79    8.10
   6  -5  -1   56.39    3.90
  -6   5   1   55.69    4.60
   5  -5  -1   84.59    5.10
  -5   5   1   88.39    6.20
  -5   5   1   92.29    5.90
   4  -5  -1  115.39    6.00
  -4   5   1  105.09    6.70
  -4   5   1  104.19    6.30
   3  -5  -1    4.90    1.10
  -3   5   1    5.10    1.30
  -3   5   1    2.20    1.00
   2  -5  -1  508.65   21.90
  -2   5   1  486.05   21.90
  -2   5   1  495.95   22.50
   1  -5  -1  168.38    7.70
   1  -5  -1  176.68    8.40
  -1   5   1  166.08    8.20
  -1   5   1  165.68    8.60
   0  -5  -1   12.00    1.50
   0  -5  -1   14.80    1.60
   0   5   1   14.30    1.60
   0   5   1   14.60    1.60
  -1  -5  -1  348.97   16.00
  -1  -5  -1  337.47   15.50
   1   5   1  333.77   15.60
  -2  -5  -1   25.90    2.40
  -2  -5  -1   18.70    2.60
   2   5   1   19.30    2.20
  -3  -5  -1   17.00    3.10
  -3  -5  -1   22.90    2.40
   3   5   1   18.40    2.40
  -4  -5  -1    7.30    2.20
  -4  -5  -1    6.50    1.70
   4   5   1    3.10    1.40
  -5  -5  -1   17.50    3.70
   5   5   1   18.80    3.10
  -6  -5  -1   36.90    5.60
   6   5   1   49.00    4.80
   8  -6  -1    1.10    1.90
  -8   6   1    1.40    1.60
   7  -6  -1   60.39    6.10
  -7   6   1   68.59    5.70
   6  -6  -1    2.90    1.20
  -6   6   1    3.90    1.70
   5  -6  -1   71.29    4.50
  -5   6   1   67.39    5.50
  -5   6   1   64.89    5.00
   4  -6  -1   57.29    3.80
  -4   6   1   53.19    4.50
  -4   6   1   48.20    3.90
   3  -6  -1  181.08    9.00
  -3   6   1  175.78    9.80
  -3   6   1  176.78    9.20
   2  -6  -1   20.50    2.10
  -2   6   1   21.90    2.20
  -2   6   1   21.90    2.60
   1  -6  -1   25.50    2.30
  -1   6   1   23.30    2.50
  -1   6   1   19.90    2.10
   0  -6  -1   27.80    2.60
   0   6   1   31.30    2.60
   0   6   1   27.50    2.50
  -1  -6  -1  241.58   12.20
  -1  -6  -1  244.28   11.90
   1   6   1  244.18   11.90
  -2  -6  -1  382.26   18.10
  -2  -6  -1  386.86   18.90
   2   6   1  402.56   18.40
  -3  -6  -1    7.80    1.80
  -3  -6  -1    4.30    1.80
   3   6   1    5.40    1.60
  -4  -6  -1    1.60    1.40
  -4  -6  -1   -0.50    1.40
   4   6   1   -0.10    1.40
  -5  -6  -1   32.70    4.60
   5   6   1   30.00    4.00
   8  -7  -1   12.20    3.60
  -8   7   1   15.50    3.40
   7  -7  -1   59.09    6.10
  -7   7   1   46.00    5.00
   6  -7  -1   21.90    2.50
  -6   7   1   32.60    3.60
   5  -7  -1    1.50    1.00
  -5   7   1   -0.90    1.40
  -5   7   1    0.00    1.10
   4  -7  -1  590.84   26.20
  -4   7   1  570.74   27.40
  -4   7   1  589.64   26.70
   3  -7  -1   15.80    2.10
  -3   7   1   12.00    2.30
  -3   7   1   18.00    2.70
   2  -7  -1    0.90    0.90
  -2   7   1    0.20    1.00
  -2   7   1   -0.50    0.90
   1  -7  -1  149.49    8.20
  -1   7   1  149.19    8.20
  -1   7   1  164.08    8.70
   0  -7  -1   -0.30    1.00
   0   7   1    1.50    1.10
  -1  -7  -1    4.60    1.50
   1   7   1    3.50    1.40
  -2  -7  -1   73.79    5.20
   2   7   1   74.09    5.30
  -3  -7  -1   32.00    3.50
   3   7   1   30.10    3.50
  -4  -7  -1    3.40    1.80
  -4  -7  -1   -0.90    1.80
   4   7   1    0.30    1.50
   7  -8  -1   -0.10    1.90
  -7   8   1    1.40    1.50
   6  -8  -1  175.18   11.70
   6  -8  -1  195.48   10.00
  -6   8   1  185.18   11.10
   5  -8  -1   73.89    5.10
  -5   8   1   72.79    5.80
   4  -8  -1  135.29    7.70
  -4   8   1  141.09    8.90
  -4   8   1  127.89    8.10
   3  -8  -1  113.69    6.90
  -3   8   1  116.89    7.20
  -3   8   1  122.09    7.80
   2  -8  -1  137.19    8.00
  -2   8   1  130.49    8.30
  -2   8   1  146.39    8.10
   1  -8  -1  354.46   17.40
  -1   8   1  370.66   17.40
   0  -8  -1   16.60    2.70
   0   8   1   15.90    2.60
  -1  -8  -1   59.99    5.00
   1   8   1   65.59    5.00
  -2  -8  -1  137.69    8.50
   2   8   1  141.69    8.60
  -3  -8  -1    2.40    2.10
   3   8   1    0.50    1.60
   6  -9  -1    9.80    2.30
   6  -9  -1   15.60    3.90
  -6   9   1   11.00    3.00
   5  -9  -1   62.19    4.80
  -5   9   1   52.79    5.20
   4  -9  -1   63.99    5.00
  -4   9   1   59.39    5.20
   3  -9  -1   34.40    3.60
  -3   9   1   39.00    4.40
  -3   9   1   29.40    3.60
   2  -9  -1   67.69    5.30
  -2   9   1   72.79    5.50
   1  -9  -1   27.70    3.40
  -1   9   1   28.30    3.50
   0  -9  -1   52.69    4.90
   0   9   1   53.09    4.70
  -1  -9  -1    7.70    2.30
   1   9   1    8.10    2.30
  -2  -9  -1    0.60    1.80
   2   9   1    1.50    2.30
   5 -10  -1  101.09    8.50
   5 -10  -1  102.59    7.00
  -5  10   1   99.29    7.80
   4 -10  -1   22.90    4.10
   4 -10  -1   15.30    2.90
  -4  10   1   11.20    2.80
   3 -10  -1  112.39    7.60
  -3  10   1  117.29    7.90
   2 -10  -1    0.80    2.00
  -2  10   1    0.20    1.60
   1 -10  -1    6.00    2.30
  -1  10   1    7.90    2.60
   0  10  -2   22.10    3.60
   0 -10   2   21.50    4.30
  -1  10  -2    9.00    2.40
   1 -10   2    7.20    2.40
  -2  10  -2  116.89    8.20
   2 -10   2  136.89    8.50
  -3  10  -2  129.59    8.90
   3 -10   2  140.19    8.50
  -4  10  -2   30.30    4.40
   4 -10   2   26.30    4.60
   4 -10   2   35.20    3.80
   5 -10   2  121.49    9.30
   2   9  -2   25.70    3.60
  -2  -9   2   21.80    3.60
   1   9  -2   79.29    6.10
  -1  -9   2   89.09    6.50
   0   9  -2   10.00    2.50
   0  -9   2    2.80    1.70
  -1   9  -2  326.67   16.40
   1  -9   2  332.77   16.50
  -2   9  -2   30.70    3.50
   2  -9   2   32.60    3.60
  -3   9  -2   14.30    2.90
   3  -9   2    8.30    2.50
   3  -9   2    9.20    2.30
  -4   9  -2    0.50    1.40
   4  -9   2    1.00    1.90
   4  -9   2   -0.10    1.30
  -5   9  -2   19.10    3.50
   5  -9   2   15.60    3.70
   5  -9   2   10.80    3.40
  -6   9  -2  180.88   11.80
   6  -9   2  209.98   12.90
   3   8  -2   20.30    3.10
  -3  -8   2   10.40    2.80
   2   8  -2   32.50    3.60
  -2  -8   2   33.30    3.70
   1   8  -2    0.40    1.10
  -1  -8   2   -0.10    1.30
   0   8  -2  467.25   22.10
   0  -8   2  489.35   22.40
  -1   8  -2   19.90    2.70
   1  -8   2   15.40    2.40
  -2   8  -2  184.48   10.40
   2  -8   2  208.78   10.40
   2  -8   2  192.28   10.90
  -3   8  -2  119.29    7.60
   3  -8   2  129.39    8.30
   3  -8   2  121.19    7.10
  -4   8  -2   42.90    4.30
   4  -8   2   51.59    4.00
   4  -8   2   51.29    5.10
  -5   8  -2    1.20    1.40
   5  -8   2    4.50    1.70
   5  -8   2    5.00    2.20
  -6   8  -2   81.29    6.70
   6  -8   2   89.69    7.50
  -7   8  -2    4.10    2.30
   7  -8   2   -0.50    1.90
   5   7  -2    9.90    2.70
  -5  -7   2   12.90    3.50
  -5  -7   2    9.50    2.70
   4   7  -2    7.70    2.30
  -4  -7   2   13.10    3.20
  -4  -7   2   14.80    3.00
   3   7  -2    4.30    1.70
  -3  -7   2    3.10    1.60
  -3  -7   2    8.90    3.60
   2   7  -2   46.00    3.80
  -2  -7   2   39.60    3.70
   1   7  -2  337.77   15.90
  -1  -7   2  327.57   16.00
   0   7  -2   16.30    2.20
   0  -7   2   17.40    2.30
  -1   7  -2  180.28    9.50
   1  -7   2  187.48    9.90
   1  -7   2  185.88    9.60
  -2   7  -2   17.90    2.30
   2  -7   2   21.50    2.40
   2  -7   2   25.20    2.90
  -3   7  -2   88.89    6.10
   3  -7   2  107.39    6.00
   3  -7   2  104.19    6.90
  -4   7  -2  232.28   12.50
   4  -7   2  248.88   11.70
   4  -7   2  233.38   13.20
  -5   7  -2   63.19    5.30
   5  -7   2   71.89    5.00
   5  -7   2   66.89    5.90
  -6   7  -2  207.68   12.10
   6  -7   2  215.48   12.80
  -7   7  -2  140.09    9.40
   7  -7   2  138.69    9.90
  -8   7  -2    4.60    2.30
   8  -7   2   11.70    3.30
   6   6  -2    1.70    1.80
  -6  -6   2    2.80    2.50
   5   6  -2   74.29    5.80
  -5  -6   2   70.29    5.90
  -5  -6   2   88.79    7.20
   4   6  -2  219.48   11.60
  -4  -6   2  229.18   13.00
  -4  -6   2  215.08   11.70
   3   6  -2   70.59    5.00
  -3  -6   2   68.49    5.00
  -3  -6   2   76.29    5.90
   2   6  -2   13.40    2.00
  -2  -6   2   11.50    2.10
  -2  -6   2   13.10    2.40
   1   6  -2  100.39    5.80
  -1  -6   2   97.89    5.80
   0   6  -2   17.80    2.00
   0  -6   2   18.70    2.00
   0  -6   2   15.00    1.90
  -1   6  -2  597.04   26.30
   1  -6   2  590.04   26.60
   1  -6   2  602.54   26.30
  -2   6  -2  121.69    6.80
   2  -6   2  128.19    6.60
   2  -6   2  115.39    7.10
  -3   6  -2  115.59    6.80
   3  -6   2  126.79    6.40
   3  -6   2  108.69    7.20
  -4   6  -2   93.39    6.00
   4  -6   2   89.59    6.40
   4  -6   2   88.89    5.10
  -5   6  -2   91.69    6.30
   5  -6   2   97.59    6.70
   5  -6   2   87.69    6.70
  -6   6  -2   68.59    5.70
   6  -6   2   67.59    5.90
  -7   6  -2  126.69    8.90
   7  -6   2  141.69    9.50
  -8   6  -2   53.59    5.70
   8  -6   2   58.49    6.00
   6   5  -2   63.19    5.20
  -6  -5   2   74.49    6.90
  -6  -5   2   53.49    5.20
   5   5  -2    1.60    1.50
  -5  -5   2    3.10    1.90
   4   5  -2   78.49    5.20
  -4  -5   2   66.89    5.10
  -4  -5   2   84.09    6.40
   3   5  -2  343.17   16.10
  -3  -5   2  344.17   17.10
  -3  -5   2  339.17   16.20
   2   5  -2    8.40    1.60
  -2  -5   2   13.70    2.20
  -2  -5   2    8.20    1.60
   1   5  -2   30.80    2.50
  -1  -5   2   31.50    2.60
  -1  -5   2   33.60    2.80
   0   5  -2   30.90    2.40
   0   5  -2   31.70    2.30
   0  -5   2   32.00    2.50
   0  -5   2   33.40    2.50
  -1   5  -2  297.77   14.00
  -1   5  -2  318.67   13.40
   1  -5   2  308.17   14.00
   1  -5   2  302.17   14.40
  -2   5  -2  349.17   16.10
   2  -5   2  356.06   15.60
   2  -5   2  339.97   16.40
  -3   5  -2   64.69    4.30
   3  -5   2   61.59    4.60
   3  -5   2   60.69    3.70
  -4   5  -2   65.69    4.80
   4  -5   2   73.09    4.10
   4  -5   2   72.79    5.30
  -5   5  -2   92.59    6.30
   5  -5   2  101.39    6.80
  -6   5  -2   17.70    2.60
   6  -5   2    9.00    2.50
  -7   5  -2    3.20    1.70
   7  -5   2   -1.10    1.30
  -8   5  -2    6.80    2.70
   8  -5   2    5.00    2.40
   7   4  -2    4.80    2.00
  -7  -4   2    3.10    2.40
   6   4  -2  122.49    7.60
  -6  -4   2  116.99    7.50
  -6  -4   2  113.09    8.90
   5   4  -2    6.40    1.70
  -5  -4   2    6.10    2.60
  -5  -4   2    6.80    1.90
   4   4  -2    2.70    1.20
  -4  -4   2    3.90    1.80
  -4  -4   2    5.50    1.40
   3   4  -2  450.55   20.00
  -3  -4   2  433.36   20.00
  -3  -4   2  440.06   21.00
   2   4  -2    6.60    1.20
  -2  -4   2    6.00    1.30
  -2  -4   2    7.50    1.70
   1   4  -2  221.28   10.60
  -1  -4   2  246.18   11.20
  -1  -4   2  233.78   10.80
  -1  -4   2  224.38   10.20
   0   4  -2  224.08   10.50
   0   4  -2  229.88   10.50
   0  -4   2  227.18   10.60
   0  -4   2  240.28   10.60
  -1   4  -2  199.98    9.20
  -1   4  -2  208.18    8.60
   1  -4   2  187.58    9.00
   1  -4   2  177.68    9.30
  -2   4  -2  503.25   20.20
  -2   4  -2  468.25   21.10
   2  -4   2  481.85   20.70
   2  -4   2  451.25   21.40
  -3   4  -2    2.40    0.90
  -3   4  -2    1.40    0.50
   3  -4   2    0.90    0.80
   3  -4   2    0.60    0.50
  -4   4  -2    6.60    1.20
  -4   4  -2    9.50    1.60
   4  -4   2    5.20    1.50
   4  -4   2    7.00    1.00
  -5   4  -2  384.96   17.30
  -5   4  -2  348.67   17.60
   5  -4   2  371.06   18.00
  -6   4  -2   30.70    3.50
   6  -4   2   35.00    3.80
  -7   4  -2   12.60    2.60
   7  -4   2   11.30    2.60
  -8   4  -2   61.19    5.60
   8  -4   2   55.99    5.30
  -9   4  -2   36.50    4.80
   9  -4   2   50.49    5.20
   8   3  -2  140.79    9.30
   7   3  -2    8.50    2.30
  -7  -3   2    8.20    2.90
   6   3  -2   15.00    2.40
  -6  -3   2   19.10    3.70
  -6  -3   2   16.60    2.50
   5   3  -2  130.49    7.50
  -5  -3   2  129.99    7.50
  -5  -3   2  134.79    8.70
   4   3  -2   46.20    3.50
  -4  -3   2   51.89    4.40
  -4  -3   2   51.59    3.70
   3   3  -2  486.25   21.40
  -3  -3   2  475.95   22.30
  -3  -3   2  483.65   21.50
   2   3  -2   77.99    4.20
  -2  -3   2   72.99    4.80
  -2  -3   2   75.89    4.30
   1   3  -2  527.75   22.90
  -1  -3   2  534.15   22.50
  -1  -3   2  552.44   23.50
  -1  -3   2  525.65   23.10
   0   3  -2   27.10    1.80
   0   3  -2   23.50    1.70
   0  -3   2   28.00    1.80
   0  -3   2   25.80    1.80
  -1   3  -2  509.25   19.90
  -1   3  -2  482.75   20.40
   1  -3   2  426.16   20.50
   1  -3   2  457.65   20.10
  -2   3  -2  811.72   35.60
  -2   3  -2  890.81   35.10
   2  -3   2  750.22   35.80
   2  -3   2  876.91   35.10
  -3   3  -2   12.00    1.30
  -3   3  -2   12.60    1.50
   3  -3   2   12.40    1.10
   3  -3   2    9.80    1.50
  -4   3  -2    0.90    0.70
  -4   3  -2   -0.10    0.50
   4  -3   2    0.80    0.80
   4  -3   2    0.00    0.30
  -5   3  -2   66.19    4.70
  -5   3  -2   68.69    4.50
   5  -3   2   55.09    4.40
  -6   3  -2  135.49    7.90
  -6   3  -2  127.69    7.90
   6  -3   2  122.39    7.70
  -7   3  -2   13.80    2.80
  -7   3  -2   18.30    3.00
   7  -3   2   16.20    2.80
  -8   3  -2   48.30    5.00
   8  -3   2   44.00    4.30
   8   2  -2   19.70    3.30
  -8  -2   2   25.40    4.40
   7   2  -2  405.76   19.30
  -7  -2   2  374.36   20.50
   6   2  -2    5.90    1.70
  -6  -2   2    5.00    1.50
  -6  -2   2    4.10    1.90
   5   2  -2    0.20    0.80
  -5  -2   2   -0.40    0.70
  -5  -2   2   -0.30    0.90
   4   2  -2    1.00    0.70
  -4  -2   2    2.30    1.20
  -4  -2   2    2.10    0.90
   3   2  -2    8.70    1.20
  -3  -2   2   14.30    1.90
  -3  -2   2   11.50    1.50
   2   2  -2 1517.65   62.59
  -2  -2   2 1498.75   62.69
  -2  -2   2 1462.95   63.19
   1   2  -2  121.69    5.90
  -1  -2   2  128.89    6.30
  -1  -2   2  132.59    5.50
  -1  -2   2  127.59    6.00
   0   2  -2  678.63   29.00
   0   2  -2  678.73   29.10
   0  -2   2  707.43   29.10
   0  -2   2  698.83   29.10
  -1   2  -2    1.40    0.30
  -1   2  -2    1.90    0.50
   1  -2   2    1.70    0.40
   1  -2   2    1.40    0.50
  -2   2  -2    0.40    0.40
  -2   2  -2    0.50    0.40
   2  -2   2    0.10    0.40
   2  -2   2    0.50    0.20
  -3   2  -2 1909.91   83.39
  -3   2  -2 2056.79   83.19
   3  -2   2 2061.89   82.39
   3  -2   2 1901.31   83.39
  -4   2  -2   44.00    3.20
  -4   2  -2   35.00    3.00
   4  -2   2   42.00    2.30
   4  -2   2   39.70    3.10
  -5   2  -2   27.90    2.80
  -5   2  -2   33.20    3.00
   5  -2   2   22.30    2.50
  -6   2  -2   57.79    4.70
  -6   2  -2   56.99    4.70
   6  -2   2   58.19    4.40
  -7   2  -2    1.70    1.40
  -7   2  -2   -0.20    1.20
   7  -2   2    0.00    1.10
  -8   2  -2   63.49    6.10
  -9   2  -2   18.50    4.10
   9  -2   2   12.20    3.40
   8   1  -2  181.88   10.90
  -8  -1   2  183.88   12.00
   7   1  -2   72.99    5.60
  -7  -1   2   79.79    6.60
   6   1  -2    7.40    1.80
  -6  -1   2    2.90    1.60
  -6  -1   2    3.60    1.20
   5   1  -2   47.30    3.70
  -5  -1   2   51.39    3.60
  -5  -1   2   49.20    4.30
   4   1  -2   23.80    1.80
   4   1  -2   34.70    2.50
  -4  -1   2   28.70    2.30
  -4  -1   2   24.60    2.70
   3   1  -2  126.59    6.50
  -3  -1   2  134.49    6.60
  -3  -1   2  135.39    7.20
   2   1  -2    0.50    0.30
  -2  -1   2    0.40    0.40
  -2  -1   2   -0.60    0.30
  -2  -1   2    0.20    0.20
   1   1  -2 1101.29   49.99
  -1  -1   2 1126.49   50.19
  -1  -1   2 1376.56   49.90
   0   1  -2  270.47   10.50
   0   1  -2  244.18   10.60
   0  -1   2  239.98   10.50
   0  -1   2  232.08   10.60
  -1   1  -2   14.50    1.10
  -1   1  -2   16.50    1.10
   1  -1   2   14.70    1.20
  -2   1  -2    0.60    0.50
  -2   1  -2    0.10    0.40
   2  -1   2    0.40    0.20
   2  -1   2    0.80    0.40
  -3   1  -2   35.00    2.70
  -3   1  -2   39.50    2.80
   3  -1   2   41.40    2.70
  -4   1  -2  912.71   39.20
  -4   1  -2  930.01   37.80
  -4   1  -2  865.21   39.20
   4  -1   2  891.41   38.70
  -5   1  -2    0.20    0.80
  -5   1  -2    1.80    1.00
   5  -1   2    0.90    0.80
  -6   1  -2   53.69    4.80
   6  -1   2   53.19    3.90
  -7   1  -2   67.49    5.90
   7  -1   2   62.19    5.40
  -8   1  -2   21.50    4.00
   8  -1   2   28.20    4.10
   9   0  -2    3.40    2.10
  -9   0   2    2.60    2.60
   8   0  -2   -0.50    1.40
  -8   0   2    1.10    1.60
   7   0  -2  114.09    7.40
  -7   0   2  113.89    8.20
   6   0  -2   29.30    3.10
  -6   0   2   28.80    2.80
  -6   0   2   36.00    3.70
   5   0  -2   48.70    3.30
   5   0  -2   48.50    3.70
  -5   0   2   51.39    3.50
  -5   0   2   54.59    4.30
   4   0  -2   13.40    1.50
  -4   0   2   10.90    1.30
  -4   0   2   11.20    1.40
  -4   0   2   13.80    2.00
   3   0  -2  286.17   13.70
  -3   0   2  315.17   13.80
  -3   0   2  307.77   14.30
  -3   0   2  325.77   13.70
   2   0  -2 4154.78  190.58
  -2   0   2 4936.31  190.58
  -2   0   2 4900.11  190.98
  -2   0   2 4417.06  190.58
   1   0  -2    2.00    0.40
  -1   0   2    2.10    0.40
  -1   0   2    2.50    0.50
   0   0  -2   95.59    4.40
   0   0  -2  107.09    4.60
  -1   0  -2 1139.79   46.30
  -1   0  -2 1133.29   45.70
  -1   0  -2 1046.10   46.20
   1   0   2 1097.99   46.10
  -2   0  -2  156.68    6.80
  -2   0  -2  155.68    7.70
  -2   0  -2  147.69    7.50
   2   0   2  169.58    7.30
  -3   0  -2   30.70    2.60
  -3   0  -2   30.60    2.40
  -3   0  -2   29.30    1.70
   3   0   2   28.30    2.00
  -4   0  -2  264.77   11.40
  -4   0  -2  238.68   12.70
   4   0   2  260.07   11.80
  -5   0  -2   62.99    4.80
   5   0   2   56.49    3.60
   5   0   2   51.99    4.30
  -6   0  -2   -0.70    1.00
   6   0   2   -1.10    1.10
  -7   0  -2   58.09    5.80
   7   0   2   58.39    5.20
  -8   0  -2    9.60    3.30
   8   0   2    5.20    2.20
   9  -1  -2   56.89    5.50
  -9   1   2   60.79    6.40
   8  -1  -2  149.29    9.20
  -8   1   2  149.19    9.90
   7  -1  -2  401.16   19.70
  -7   1   2  419.66   20.50
   6  -1  -2  510.35   23.80
  -6   1   2  523.75   24.80
  -6   1   2  553.44   23.70
  -5   1   2   36.20    2.90
  -5   1   2   34.80    3.20
  -5   1   2   31.90    2.60
  -4   1   2   36.60    2.80
  -4   1   2   38.40    2.70
  -4   1   2   38.10    2.80
  -4   1   2   45.00    3.30
  -3   1   2   28.50    2.00
  -3   1   2   26.10    2.10
  -3   1   2   31.40    2.20
  -3   1   2   31.60    2.10
  -2   1   2  638.84   27.80
  -2   1   2  660.53   28.00
  -2   1   2  676.93   28.10
   1  -1  -2   51.19    2.30
   1  -1  -2   40.80    2.40
  -1   1   2   47.30    2.20
  -1   1   2   43.70    2.50
   0  -1  -2  500.75   21.00
   0  -1  -2  546.15   21.10
   0   1   2  477.35   21.00
   0   1   2  471.85   20.90
  -1  -1  -2 5860.21  248.08
  -1  -1  -2 5970.40  247.78
   1   1   2 6143.89  247.88
  -2  -1  -2   35.20    2.80
  -2  -1  -2   46.50    2.20
   2   1   2   37.20    2.60
   2   1   2   43.90    2.30
  -3  -1  -2  384.16   15.50
  -3  -1  -2  357.06   16.80
   3   1   2  316.47   16.20
   3   1   2  363.16   15.50
  -4  -1  -2  527.05   22.10
  -4  -1  -2  487.35   23.50
   4   1   2  474.75   23.00
   4   1   2  536.35   22.10
  -5  -1  -2   70.19    5.50
   5   1   2   68.59    5.00
  -6  -1  -2   23.90    3.70
   6   1   2   30.40    3.40
  -7  -1  -2   12.30    3.10
   7   1   2   18.50    3.10
  -8  -1  -2   -1.90    1.70
   8   1   2   -0.50    1.40
   9  -2  -2   30.50    4.20
  -9   2   2   34.90    5.00
   8  -2  -2  249.68   13.80
  -8   2   2  270.77   14.60
   7  -2  -2   92.39    6.50
  -7   2   2  108.09    6.90
  -7   2   2  107.79    7.20
  -6   2   2 1728.83   72.89
  -6   2   2 1676.33   73.79
  -6   2   2 1767.72   73.69
  -5   2   2    5.80    1.20
  -5   2   2    5.10    1.30
  -5   2   2    6.00    1.50
  -5   2   2    4.50    1.20
  -4   2   2   73.09    4.30
  -4   2   2   71.89    4.10
  -4   2   2   67.29    4.40
  -4   2   2   70.59    4.30
   3  -2  -2    0.00    0.40
  -3   2   2    0.30    0.40
  -3   2   2   -0.10    0.30
  -3   2   2    0.00    0.50
   2  -2  -2   19.30    1.30
   2  -2  -2   19.50    1.50
  -2   2   2   21.30    1.50
  -2   2   2   23.50    1.80
   1  -2  -2  196.58    8.00
   1  -2  -2  174.28    8.40
  -1   2   2  191.88    8.10
  -1   2   2  174.78    8.50
   0  -2  -2  246.18   10.60
   0  -2  -2  224.78   10.40
   0   2   2  235.18   10.40
   0   2   2  245.68   10.50
  -1  -2  -2  813.32   34.00
  -1  -2  -2  813.62   34.60
   1   2   2  850.31   34.00
   1   2   2  758.92   34.30
  -2  -2  -2  132.59    6.20
  -2  -2  -2  134.49    7.10
   2   2   2  122.19    6.60
   2   2   2  137.09    6.10
  -3  -2  -2    0.90    0.90
  -3  -2  -2    0.60    0.50
   3   2   2   -0.10    0.60
  -4  -2  -2    2.60    1.30
  -4  -2  -2    1.40    0.70
   4   2   2    1.40    1.00
  -5  -2  -2  408.06   20.00
   5   2   2  387.06   19.00
  -6  -2  -2   27.20    3.90
   6   2   2   27.10    3.40
  -7  -2  -2   13.30    3.50
   7   2   2   21.60    3.30
   8  -3  -2    5.70    2.20
  -8   3   2    7.40    2.10
   7  -3  -2   60.29    5.10
  -7   3   2   59.39    4.80
  -7   3   2   59.89    4.90
   6  -3  -2   34.60    2.90
  -6   3   2   36.10    3.30
  -6   3   2   36.30    3.30
  -6   3   2   33.90    3.40
   5  -3  -2    0.20    0.70
  -5   3   2    0.60    0.90
  -5   3   2    0.70    0.70
  -5   3   2    1.70    1.00
   4  -3  -2   29.30    2.40
  -4   3   2   34.10    2.60
  -4   3   2   35.80    2.40
  -4   3   2   37.00    3.10
   3  -3  -2  861.31   36.40
   3  -3  -2  802.92   35.70
  -3   3   2  854.41   36.90
  -3   3   2  890.21   36.40
   2  -3  -2  609.44   24.10
   2  -3  -2  549.65   24.80
  -2   3   2  590.64   24.70
  -2   3   2  550.54   25.20
   1  -3  -2  583.64   26.20
   1  -3  -2  624.84   25.80
  -1   3   2  652.03   26.10
  -1   3   2  589.34   26.50
   0  -3  -2   44.00    2.60
   0  -3  -2   48.00    2.80
   0   3   2   44.70    2.60
   0   3   2   43.60    2.70
  -1  -3  -2  157.78    8.20
  -1  -3  -2  167.28    7.70
   1   3   2  169.58    7.60
   1   3   2  166.18    8.00
  -2  -3  -2 2999.10  124.09
  -2  -3  -2 2842.52  125.09
   2   3   2 2881.71  124.49
   2   3   2 3198.78  123.79
  -3  -3  -2    3.00    0.90
  -3  -3  -2    2.00    1.10
   3   3   2    4.30    1.20
  -4  -3  -2  237.08   13.40
  -4  -3  -2  259.87   11.90
   4   3   2  256.37   12.70
  -5  -3  -2   71.09    6.10
   5   3   2   69.79    5.20
  -6  -3  -2   15.70    3.80
   6   3   2   15.10    2.90
  -7  -3  -2   57.79    6.50
   7   3   2   65.69    5.80
   9  -4  -2  124.69    9.40
  -9   4   2  137.79    9.20
   8  -4  -2   20.60    3.70
  -8   4   2   24.00    3.30
   7  -4  -2    4.90    1.90
  -7   4   2    5.20    1.70
   6  -4  -2   40.80    3.20
  -6   4   2   46.00    4.20
  -6   4   2   38.30    3.70
   5  -4  -2    0.10    0.60
  -5   4   2    0.90    1.00
  -5   4   2    0.90    0.90
   4  -4  -2   74.89    4.50
  -4   4   2   75.19    4.70
  -4   4   2   77.29    5.20
   3  -4  -2   12.40    1.50
   3  -4  -2   13.10    0.80
  -3   4   2   16.90    2.00
  -3   4   2   17.10    1.70
   2  -4  -2  419.06   18.90
  -2   4   2  442.36   18.80
  -2   4   2  418.06   19.30
   1  -4  -2  158.98    7.90
   1  -4  -2  158.38    7.50
  -1   4   2  174.78    7.80
  -1   4   2  168.98    8.30
   0  -4  -2    8.30    1.10
   0  -4  -2    6.60    1.10
   0   4   2    6.40    1.10
   0   4   2    7.50    1.10
  -1  -4  -2  106.39    6.00
  -1  -4  -2  108.69    5.60
   1   4   2  105.09    5.40
   1   4   2  107.79    5.70
  -2  -4  -2   63.69    4.40
  -2  -4  -2   52.29    3.50
   2   4   2   59.19    3.90
  -3  -4  -2  281.27   13.30
  -3  -4  -2  276.77   14.60
   3   4   2  297.87   13.90
  -4  -4  -2    0.60    0.90
  -4  -4  -2    0.20    1.30
   4   4   2    0.40    1.00
  -5  -4  -2   78.69    6.90
   5   4   2   94.79    6.30
  -6  -4  -2   42.50    5.70
   6   4   2   45.40    4.60
   9  -5  -2   64.29    6.40
  -9   5   2   79.49    6.70
   8  -5  -2  192.88   11.70
  -8   5   2  175.78   10.90
  -7   5   2  247.58   13.30
   6  -5  -2   39.20    3.10
  -6   5   2   36.80    4.00
  -6   5   2   39.00    3.60
   5  -5  -2 1514.25   62.49
  -5   5   2 1443.36   63.69
  -5   5   2 1448.26   62.99
   4  -5  -2    0.40    0.60
  -4   5   2   -0.60    0.60
  -4   5   2    1.10    1.00
   3  -5  -2    2.30    0.90
  -3   5   2    1.70    0.90
  -3   5   2   -0.30    0.70
   2  -5  -2  107.09    5.90
  -2   5   2  109.39    6.40
  -2   5   2  109.79    5.80
   1  -5  -2  202.98    9.50
   1  -5  -2  206.78   10.00
  -1   5   2  214.88    9.90
  -1   5   2  211.68   10.40
   0  -5  -2   99.69    5.40
   0  -5  -2   90.39    5.30
   0   5   2  102.89    5.40
   0   5   2   95.29    5.40
  -1  -5  -2   71.89    5.00
  -1  -5  -2   77.79    4.70
   1   5   2   89.79    5.00
   1   5   2   88.59    4.80
  -2  -5  -2    9.10    2.10
  -2  -5  -2   13.60    1.80
   2   5   2   16.00    2.10
  -3  -5  -2   19.40    3.10
  -3  -5  -2   19.30    2.30
   3   5   2   20.70    2.50
  -4  -5  -2   21.60    3.50
  -4  -5  -2   27.50    2.80
   4   5   2   26.60    3.10
  -5  -5  -2    7.00    2.60
   5   5   2   10.50    2.40
   6   5   2  159.18   10.00
   8  -6  -2   26.60    4.20
  -8   6   2   23.30    3.50
  -7   6   2   71.09    5.70
   6  -6  -2   16.80    2.10
  -6   6   2    7.70    2.30
  -6   6   2   19.00    2.70
   5  -6  -2   12.10    1.90
  -5   6   2   13.60    2.70
  -5   6   2   12.00    2.30
   4  -6  -2  139.09    7.40
  -4   6   2  128.69    8.20
  -4   6   2  137.59    7.70
   3  -6  -2   92.39    5.40
  -3   6   2   86.99    6.00
  -3   6   2   95.59    5.60
   2  -6  -2  234.98   11.50
  -2   6   2  241.18   11.50
  -2   6   2  238.98   12.10
   1  -6  -2   69.29    4.40
  -1   6   2   71.39    4.40
  -1   6   2   65.19    4.60
   0  -6  -2  285.97   13.60
   0   6   2  284.27   13.50
   0   6   2  287.77   13.60
  -1  -6  -2  116.59    6.40
  -1  -6  -2   98.39    6.40
   1   6   2  113.79    6.40
  -2  -6  -2  112.49    6.60
  -2  -6  -2  114.09    7.30
   2   6   2  111.59    6.70
  -3  -6  -2  213.58   12.30
  -3  -6  -2  226.78   11.30
   3   6   2  214.78   11.50
  -4  -6  -2   83.39    5.70
  -4  -6  -2   78.29    6.80
   4   6   2   76.09    5.90
  -5  -6  -2    9.30    3.00
   5   6   2    4.10    2.10
   8  -7  -2   43.90    5.50
  -8   7   2   50.89    5.40
  -7   7   2  182.88   11.00
   6  -7  -2    6.00    1.50
  -6   7   2    5.50    2.30
  -6   7   2    5.40    2.00
   5  -7  -2   29.60    2.90
  -5   7   2   28.40    3.20
  -5   7   2   30.20    3.80
   4  -7  -2   12.30    1.90
  -4   7   2    6.60    2.20
  -4   7   2    8.30    2.10
   3  -7  -2   43.80    3.50
  -3   7   2   41.30    3.50
  -3   7   2   41.40    4.00
   2  -7  -2  292.07   14.10
  -2   7   2  288.47   14.60
  -2   7   2  294.47   14.00
   1  -7  -2  259.87   12.20
  -1   7   2  242.88   12.00
  -1   7   2  224.38   12.20
   0  -7  -2    9.20    1.80
   0   7   2   11.70    2.10
  -1  -7  -2    2.80    1.30
   1   7   2    1.90    1.30
  -2  -7  -2   12.40    2.30
   2   7   2   11.50    2.40
  -3  -7  -2    2.80    1.50
   3   7   2    2.30    1.70
  -4  -7  -2  267.47   15.50
   4   7   2  291.57   14.90
   7  -8  -2   54.99    6.10
  -7   8   2   63.79    5.90
   6  -8  -2  238.38   12.50
  -6   8   2  238.38   13.50
  -6   8   2  269.37   14.70
   5  -8  -2    1.80    1.30
  -5   8   2    3.50    2.00
  -5   8   2    1.30    1.50
   4  -8  -2   16.10    2.40
  -4   8   2   15.80    3.00
  -4   8   2   17.60    2.60
   3  -8  -2   96.29    6.00
  -3   8   2   93.49    6.80
  -3   8   2   90.99    6.10
   2  -8  -2  166.38    9.00
  -2   8   2  147.49    8.80
  -2   8   2  172.98    9.60
   1  -8  -2   23.20    2.90
  -1   8   2   20.80    2.70
   0  -8  -2   10.90    2.30
   0   8   2   11.10    2.30
  -1  -8  -2  416.96   19.90
   1   8   2  410.36   19.80
  -2  -8  -2    5.80    2.00
   2   8   2    8.00    2.30
  -3  -8  -2   47.20    4.70
   3   8   2   42.60    4.50
   6  -9  -2    4.00    1.70
  -6   9   2    5.30    2.30
   5  -9  -2    8.50    2.20
  -5   9   2    8.50    2.70
  -5   9   2    8.00    2.60
   4  -9  -2   21.80    2.90
  -4   9   2   16.80    2.90
  -4   9   2   14.30    3.10
   3  -9  -2  132.19    8.00
  -3   9   2  125.59    8.00
  -3   9   2  132.89    8.70
   2  -9  -2   25.60    3.30
  -2   9   2   24.80    3.20
   1  -9  -2    3.90    1.90
  -1   9   2    3.20    1.80
   0  -9  -2   12.00    2.60
   0   9   2   14.20    2.90
  -1  -9  -2   32.60    4.10
   1   9   2   40.90    4.30
   5 -10  -2   -0.10    1.30
  -5  10   2    0.30    1.80
   4 -10  -2   33.00    3.90
  -4  10   2   32.40    4.10
   3 -10  -2    0.00    1.60
  -3  10   2    1.10    1.60
   2 -10  -2   -3.30    1.40
  -2  10   2   -1.00    1.40
   1 -10  -2  381.36   19.30
  -1  10   2  388.26   19.40
   0  10  -3   22.50    4.50
   0 -10   3   30.20    4.90
  -1  10  -3   49.30    4.70
   1 -10   3   43.60    4.60
  -2  10  -3    1.80    2.00
   2 -10   3    4.60    2.10
  -3  10  -3   12.90    3.10
   3 -10   3    8.30    2.40
  -4  10  -3  110.29    8.10
   4 -10   3  128.29    9.30
   4 -10   3  106.59    7.40
   2   9  -3  107.59    7.40
  -2  -9   3   99.49    7.40
   1   9  -3   11.00    2.70
  -1  -9   3   11.70    2.70
   0   9  -3  634.14   28.50
   0  -9   3  595.34   28.40
  -1   9  -3    6.50    2.00
   1  -9   3    6.90    2.20
  -2   9  -3    1.70    1.40
   2  -9   3    0.50    1.50
  -3   9  -3   43.00    4.40
   3  -9   3   52.39    4.30
   3  -9   3   51.79    5.10
  -4   9  -3   38.90    4.60
   4  -9   3   51.09    5.40
   4  -9   3   44.90    4.00
  -5   9  -3  289.47   16.10
   5  -9   3  309.77   17.00
  -6   9  -3   16.60    3.70
   6  -9   3   27.10    4.40
   4   8  -3   48.60    5.40
  -4  -8   3   37.00    4.80
   3   8  -3  315.37   15.80
  -3  -8   3  304.77   16.10
   2   8  -3   18.90    2.80
  -2  -8   3    9.00    2.40
   1   8  -3    2.30    1.60
  -1  -8   3    1.20    1.40
   0   8  -3   50.39    4.20
   0  -8   3   47.70    4.20
  -1   8  -3   47.40    4.20
   1  -8   3   53.99    4.20
  -2   8  -3   73.29    5.30
   2  -8   3   70.89    4.90
   2  -8   3   70.39    5.50
  -3   8  -3   10.40    2.30
   3  -8   3   12.00    2.70
   3  -8   3    9.50    1.90
  -4   8  -3    4.80    1.90
   4  -8   3    6.10    1.70
   4  -8   3    5.00    2.10
  -5   8  -3    3.90    2.00
   5  -8   3    3.70    2.10
  -6   8  -3    3.00    1.80
   6  -8   3    0.70    2.00
  -7   8  -3   35.80    4.90
   7  -8   3   38.00    5.20
   5   7  -3   16.90    3.20
  -5  -7   3   17.70    3.60
  -5  -7   3   16.50    4.00
   4   7  -3   -1.30    1.30
  -4  -7   3    0.40    1.60
   3   7  -3   14.80    2.50
  -3  -7   3   17.20    3.00
   2   7  -3  468.65   21.50
  -2  -7   3  457.75   21.70
   1   7  -3  105.29    6.20
  -1  -7   3   91.89    6.10
   0   7  -3   30.50    3.00
   0  -7   3   29.10    2.90
  -1   7  -3  783.52   35.20
   1  -7   3  818.72   35.50
   1  -7   3  803.22   35.10
  -2   7  -3  465.45   21.70
   2  -7   3  463.85   22.10
   2  -7   3  482.65   21.40
  -3   7  -3   30.50    3.20
   3  -7   3   33.30    2.90
   3  -7   3   31.90    3.70
  -4   7  -3  132.69    8.40
   4  -7   3  143.69    7.50
   4  -7   3  136.19    8.90
  -5   7  -3  102.29    7.30
   5  -7   3  117.69    8.10
  -6   7  -3   42.00    4.70
   6  -7   3   44.70    5.00
  -7   7  -3    3.20    1.90
   7  -7   3    1.80    2.30
   6   6  -3    9.30    2.60
  -6  -6   3   12.90    3.60
  -6  -6   3    9.00    2.80
   5   6  -3  182.58   10.20
  -5  -6   3  174.28   10.60
  -5  -6   3  188.98   11.90
   4   6  -3   14.80    2.50
  -4  -6   3   13.50    2.70
  -4  -6   3   22.80    3.50
   3   6  -3   33.70    3.30
  -3  -6   3   41.60    4.30
  -3  -6   3   40.90    3.60
   2   6  -3   94.09    5.80
  -2  -6   3  100.09    6.10
   1   6  -3   53.09    4.10
   1   6  -3   61.59    4.10
  -1  -6   3   59.79    4.10
   0   6  -3  132.89    7.00
   0  -6   3  133.19    7.00
   0  -6   3  124.89    7.00
  -1   6  -3  380.76   17.60
   1  -6   3  387.46   17.90
   1  -6   3  387.56   17.50
  -2   6  -3    9.90    1.90
   2  -6   3    8.10    1.80
   2  -6   3    9.60    1.50
  -3   6  -3   27.90    2.90
   3  -6   3   31.30    2.40
   3  -6   3   24.20    3.00
  -4   6  -3  279.57   14.80
   4  -6   3  292.07   15.40
   4  -6   3  319.07   13.80
  -5   6  -3   85.29    6.10
   5  -6   3   80.19    6.30
  -6   6  -3   66.39    5.60
   6  -6   3   72.99    6.20
  -7   6  -3   25.80    4.00
   7  -6   3   29.40    4.20
  -8   6  -3    1.70    2.10
   8  -6   3    1.40    2.30
   6   5  -3   29.30    3.60
  -6  -5   3   38.10    4.20
  -6  -5   3   38.10    5.40
   5   5  -3  216.48   11.50
  -5  -5   3  212.48   11.70
  -5  -5   3  225.08   13.10
   4   5  -3   13.60    2.20
  -4  -5   3   18.10    3.10
  -4  -5   3   16.10    2.70
   3   5  -3  100.29    5.80
  -3  -5   3   96.49    6.60
  -3  -5   3   93.29    5.90
   2   5  -3  802.92   34.00
  -2  -5   3  798.22   34.90
  -2  -5   3  747.53   34.10
   1   5  -3  159.18    8.70
   1   5  -3  178.78    8.50
  -1  -5   3  171.18    8.60
   0   5  -3    8.50    1.30
   0   5  -3    8.90    1.20
   0  -5   3    6.90    1.20
   0  -5   3    8.70    1.30
  -1   5  -3    2.90    0.60
  -1   5  -3    3.50    1.00
   1  -5   3    3.50    0.90
   1  -5   3    3.00    0.90
  -2   5  -3   11.60    1.60
  -2   5  -3   14.00    1.20
   2  -5   3   10.30    1.80
   2  -5   3   12.30    1.50
  -3   5  -3  495.95   23.10
   3  -5   3  541.65   22.30
   3  -5   3  490.05   23.50
  -4   5  -3    3.40    1.30
   4  -5   3    2.70    0.80
   4  -5   3    3.70    1.40
  -5   5  -3   62.29    4.90
   5  -5   3   65.69    5.20
  -6   5  -3    2.00    1.40
   6  -5   3    1.70    1.40
  -7   5  -3    1.10    1.60
   7  -5   3   -1.30    1.30
  -8   5  -3    7.70    2.60
   8  -5   3    4.80    2.40
   7   4  -3   47.30    4.70
  -7  -4   3   45.20    6.00
   6   4  -3  126.39    7.60
  -6  -4   3  108.89    8.70
  -6  -4   3  122.59    7.80
   5   4  -3    5.50    1.70
  -5  -4   3   11.30    2.30
  -5  -4   3    5.90    2.40
   4   4  -3   -0.10    0.80
  -4  -4   3   -0.40    1.00
  -4  -4   3    0.00    1.10
   3   4  -3    2.80    1.00
  -3  -4   3    3.40    1.20
  -3  -4   3    3.00    1.30
   2   4  -3   17.40    1.70
  -2  -4   3   17.80    2.20
  -2  -4   3   16.00    1.90
   1   4  -3 1863.61   85.09
   1   4  -3 2045.60   84.79
  -1  -4   3 2051.59   84.99
  -1  -4   3 2140.89   84.29
   0   4  -3   10.40    1.30
   0   4  -3   14.20    1.40
   0  -4   3   14.90    1.50
   0  -4   3   13.70    1.40
  -1   4  -3   70.89    3.40
  -1   4  -3   65.59    3.80
   1  -4   3   63.49    3.60
   1  -4   3   54.99    3.80
  -2   4  -3  340.57   15.60
  -2   4  -3  366.56   14.80
   2  -4   3  320.07   15.80
   2  -4   3  330.77   14.90
  -3   4  -3  152.28    8.50
  -3   4  -3  169.98    7.80
   3  -4   3  163.28    8.80
   3  -4   3  173.48    7.70
  -4   4  -3  630.34   27.70
  -4   4  -3  605.74   28.40
   4  -4   3  701.03   27.20
   4  -4   3  597.34   28.60
  -5   4  -3    1.50    1.00
  -5   4  -3    0.40    0.80
   5  -4   3    0.70    1.00
  -6   4  -3   33.00    3.60
   6  -4   3   31.90    3.60
  -7   4  -3    5.00    2.20
   7  -4   3    8.20    2.30
  -8   4  -3    4.10    2.00
   8  -4   3    3.10    1.80
   8   3  -3   56.19    5.20
   7   3  -3   58.49    5.00
  -7  -3   3   66.29    6.50
   6   3  -3   21.90    2.70
  -6  -3   3   19.40    3.80
  -6  -3   3   24.80    3.10
   5   3  -3   89.49    5.50
  -5  -3   3   93.49    6.70
  -5  -3   3   77.19    5.40
   4   3  -3  454.55   20.30
  -4  -3   3  445.46   20.50
  -4  -3   3  449.16   21.60
   3   3  -3  196.28    9.30
  -3  -3   3  185.68   10.10
  -3  -3   3  189.28    9.50
   2   3  -3    3.90    0.90
  -2  -3   3    2.80    1.00
  -2  -3   3    2.60    0.80
   1   3  -3  126.39    7.00
   1   3  -3  133.69    6.60
  -1  -3   3  145.39    6.90
  -1  -3   3  155.88    6.30
   0   3  -3  346.67   15.40
   0   3  -3  338.37   15.30
   0  -3   3  360.76   15.40
   0  -3   3  362.46   15.40
  -1   3  -3  498.75   21.10
  -1   3  -3  530.15   20.80
   1  -3   3  444.36   21.20
   1  -3   3  471.65   20.80
  -2   3  -3   52.19    3.40
  -2   3  -3   59.39    3.00
   2  -3   3   46.40    3.40
   2  -3   3   54.39    2.80
  -3   3  -3  236.48   10.50
  -3   3  -3  209.08   10.80
   3  -3   3  216.48   11.00
   3  -3   3  232.28    9.90
  -4   3  -3  210.78    9.90
  -4   3  -3  181.38   10.10
   4  -3   3  207.58    8.90
   4  -3   3  192.18   10.20
  -5   3  -3  163.68    8.80
  -5   3  -3  148.59    8.90
   5  -3   3  170.98    9.00
  -6   3  -3   41.20    3.90
  -6   3  -3   43.70    4.10
   6  -3   3   48.70    4.00
  -7   3  -3  148.59    9.30
  -7   3  -3  153.98    9.40
   7  -3   3  147.89    8.90
  -8   3  -3   11.30    2.80
   8  -3   3   16.00    2.70
   8   2  -3    9.40    2.60
  -8  -2   3    6.10    2.80
   7   2  -3    7.90    2.10
  -7  -2   3    8.10    2.70
   6   2  -3   33.60    3.20
  -6  -2   3   30.80    3.20
  -6  -2   3   23.30    3.50
   5   2  -3    3.90    1.20
  -5  -2   3    3.30    1.40
  -5  -2   3    5.10    1.40
   4   2  -3   79.39    4.80
  -4  -2   3   87.39    5.10
  -4  -2   3   83.29    5.70
   3   2  -3  856.81   36.00
  -3  -2   3  815.82   36.20
  -3  -2   3  851.21   37.00
   2   2  -3   25.60    1.90
  -2  -2   3   25.30    2.00
  -2  -2   3   29.40    1.40
  -2  -2   3   29.90    2.40
   1   2  -3   13.90    1.10
   1   2  -3   11.20    1.30
  -1  -2   3   12.10    1.20
  -1  -2   3   14.10    0.90
   0   2  -3 1831.92   78.09
   0   2  -3 1954.50   77.99
   0  -2   3 1815.52   78.09
   0  -2   3 1902.31   78.09
  -1   2  -3  470.65   20.50
  -1   2  -3  484.85   20.30
   1  -2   3  478.05   20.60
   1  -2   3  468.35   20.10
  -2   2  -3  231.18   11.00
  -2   2  -3  268.37   10.90
   2  -2   3  216.98   11.00
   2  -2   3  239.08   10.20
  -3   2  -3   54.49    3.80
  -3   2  -3   67.69    3.90
   3  -2   3   60.59    3.90
   3  -2   3   61.79    2.90
  -4   2  -3    9.60    1.80
  -4   2  -3   12.40    1.70
   4  -2   3   15.50    1.80
  -5   2  -3  350.46   17.50
  -5   2  -3  364.46   17.50
   5  -2   3  382.76   17.30
  -6   2  -3    0.60    1.10
  -6   2  -3    1.80    1.30
   6  -2   3    0.00    0.90
  -7   2  -3    2.40    1.80
  -7   2  -3    4.20    1.80
   7  -2   3    3.70    1.50
  -8   2  -3   45.90    5.30
   8   1  -3   25.30    3.40
  -8  -1   3   20.60    4.10
   7   1  -3    7.70    1.90
  -7  -1   3    9.40    2.50
  -7  -1   3   10.50    2.50
   6   1  -3   80.09    5.30
  -6  -1   3   69.09    5.80
  -6  -1   3   78.39    5.20
   5   1  -3    8.10    1.60
  -5  -1   3    4.30    1.30
  -5  -1   3    8.30    2.00
   4   1  -3   51.79    3.40
  -4  -1   3   55.89    3.00
  -4  -1   3   51.39    3.50
  -4  -1   3   52.39    4.10
   3   1  -3   18.30    1.60
  -3  -1   3   20.70    1.40
  -3  -1   3   20.40    1.80
  -3  -1   3   16.10    1.90
   2   1  -3    4.70    0.60
  -2  -1   3    1.80    0.70
  -2  -1   3    2.30    0.70
  -2  -1   3    2.00    0.40
   1   1  -3  184.18    9.10
   1   1  -3  206.28    8.60
  -1  -1   3  198.38    9.00
  -1  -1   3  209.58    8.70
   0   1  -3 1357.06   55.19
   0   1  -3 1348.27   55.29
   0  -1   3 1294.37   55.19
   0  -1   3 1308.17   55.29
  -1   1  -3  460.25   18.70
  -1   1  -3  405.06   18.60
   1  -1   3  448.96   18.20
   1  -1   3  422.56   18.70
  -2   1  -3    1.20    0.50
  -2   1  -3    0.70    0.50
   2  -1   3    0.80    0.40
  -3   1  -3   18.30    2.00
  -3   1  -3   21.10    2.10
   3  -1   3   21.80    2.00
   3  -1   3   26.70    1.20
  -4   1  -3   37.30    3.00
  -4   1  -3   32.00    3.00
   4  -1   3   30.70    2.60
  -5   1  -3  373.86   18.00
  -5   1  -3  369.96   17.70
   5  -1   3  362.56   17.00
  -6   1  -3   57.69    5.00
   6  -1   3   47.60    3.80
  -7   1  -3    0.80    1.60
   7  -1   3    2.60    1.80
  -8   1  -3  166.48   11.10
   8  -1   3  161.98   10.60
   9   0  -3   29.50    3.90
  -9   0   3   28.90    4.80
   8   0  -3   43.80    4.50
  -8   0   3   51.49    5.50
   7   0  -3   50.19    4.40
  -7   0   3   58.89    5.30
  -7   0   3   58.59    4.40
   6   0  -3  315.87   15.50
  -6   0   3  325.67   16.50
  -6   0   3  327.57   15.50
   5   0  -3  466.35   21.10
  -5   0   3  465.85   22.00
  -5   0   3  455.15   21.10
  -5   0   3  485.75   20.80
   4   0  -3  646.04   29.50
  -4   0   3  686.03   30.30
  -4   0   3  701.73   29.40
  -4   0   3  697.93   29.70
   3   0  -3  175.78    8.40
  -3   0   3  179.78    9.00
  -3   0   3  184.48    8.70
  -3   0   3  189.38    8.50
   2   0  -3  728.23   32.00
   2   0  -3  733.23   31.50
  -2   0   3  745.43   31.90
  -2   0   3  795.92   31.70
   1   0  -3  855.11   36.50
   1   0  -3  850.11   36.00
  -1   0   3  899.61   36.40
  -1   0   3  873.81   36.60
   0   0  -3  690.23   29.90
   0   0   3  743.03   29.80
   0   0   3  699.23   29.90
  -1   0  -3  830.82   35.20
  -1   0  -3  896.71   34.50
  -1   0  -3  792.92   35.10
   1   0   3  805.72   35.00
  -2   0  -3  355.26   16.60
  -2   0  -3  356.86   16.80
  -2   0  -3  402.06   15.70
   2   0   3  380.36   16.40
  -3   0  -3   51.19    2.50
  -3   0  -3   43.60    3.40
  -3   0  -3   47.70    3.40
   3   0   3   51.69    3.10
  -4   0  -3   18.30    2.40
   4   0   3   24.50    2.00
  -5   0  -3    3.80    1.60
   5   0   3    4.90    1.50
   5   0   3    5.90    1.20
  -6   0  -3  163.58   10.20
   6   0   3  167.48    9.80
  -7   0  -3   29.20    4.10
   7   0   3   18.10    3.50
  -8   0  -3    6.60    2.80
   8   0   3    5.20    2.40
   9  -1  -3   90.19    7.00
  -9   1   3   94.59    7.90
   8  -1  -3   27.00    3.50
  -8   1   3   31.90    4.30
   7  -1  -3   44.40    4.00
  -7   1   3   50.99    4.80
  -7   1   3   44.70    3.80
   6  -1  -3   80.59    5.40
  -6   1   3   97.99    6.30
  -6   1   3   80.69    5.20
  -5   1   3  205.28   10.20
  -5   1   3  204.18   10.10
  -5   1   3  202.78   10.10
  -5   1   3  207.88   10.70
  -4   1   3  782.52   33.90
  -4   1   3  788.42   33.60
  -4   1   3  762.22   33.50
  -4   1   3  775.22   33.40
  -3   1   3  318.17   14.10
  -3   1   3  330.57   14.50
  -3   1   3  310.37   14.40
  -3   1   3  324.17   14.50
   2  -1  -3 1595.24   68.59
  -2   1   3 1645.34   68.79
  -2   1   3 1700.53   68.29
  -2   1   3 1631.64   68.69
   1  -1  -3   28.70    1.60
  -1   1   3   24.60    1.70
  -1   1   3   25.80    1.70
   0  -1  -3   87.39    4.00
   0  -1  -3   80.89    3.90
   0   1   3   81.69    3.80
   0   1   3   74.99    3.90
  -1  -1  -3 1957.40   79.39
  -1  -1  -3 1999.00   80.19
   1   1   3 1779.82   79.79
   1   1   3 1924.41   79.69
  -2  -1  -3   31.80    2.60
   2   1   3   31.00    2.00
   2   1   3   32.30    2.40
  -3  -1  -3  265.47   11.80
  -3  -1  -3  280.07   13.30
   3   1   3  265.07   12.80
  -4  -1  -3   84.49    4.40
  -4  -1  -3   73.09    5.50
   4   1   3   69.49    5.00
   4   1   3   82.89    4.40
  -5  -1  -3   47.40    4.50
   5   1   3   55.39    4.40
  -6  -1  -3   85.29    6.90
   6   1   3   87.09    6.40
  -7  -1  -3   11.40    3.10
   7   1   3   15.10    3.10
  -8  -1  -3   37.20    5.80
   8   1   3   41.10    4.90
   9  -2  -3  110.19    8.00
  -9   2   3  132.29   11.40
   8  -2  -3   61.89    5.30
  -8   2   3   73.19    6.10
   7  -2  -3   26.40    3.10
  -7   2   3   27.50    2.80
  -7   2   3   27.70    3.40
  -7   2   3   32.10    3.40
  -6   2   3   26.80    2.80
  -6   2   3   29.90    3.10
  -6   2   3   28.80    3.20
  -6   2   3   27.50    2.70
  -5   2   3  107.09    6.10
  -5   2   3  108.99    6.40
  -5   2   3  107.69    6.30
  -5   2   3  108.89    6.00
  -4   2   3  319.27   14.80
  -4   2   3  315.97   15.20
  -4   2   3  325.07   14.90
  -4   2   3  341.87   14.90
   3  -2  -3   21.10    1.70
  -3   2   3   22.50    2.00
  -3   2   3   23.20    1.70
   2  -2  -3    6.80    0.90
   2  -2  -3    8.20    0.80
  -2   2   3    6.90    0.80
  -2   2   3    5.90    1.00
   1  -2  -3  395.36   15.30
   1  -2  -3  341.77   15.60
  -1   2   3  350.66   15.70
  -1   2   3  334.87   15.10
   0  -2  -3  946.51   41.70
   0  -2  -3 1072.99   41.90
   0   2   3 1015.00   41.90
   0   2   3  941.51   41.60
  -1  -2  -3   37.40    2.60
  -1  -2  -3   31.80    1.90
   1   2   3   35.10    2.10
   1   2   3   30.60    2.20
  -2  -2  -3 1527.05   61.99
  -2  -2  -3 1448.36   63.19
   2   2   3 1523.55   62.09
   2   2   3 1436.66   62.69
  -3  -2  -3    2.50    1.20
  -3  -2  -3    3.60    0.80
   3   2   3    3.80    0.80
   3   2   3    2.30    0.90
  -4  -2  -3   40.50    2.80
  -4  -2  -3   40.60    3.80
   4   2   3   27.60    3.00
  -5  -2  -3   29.20    3.80
   5   2   3   34.00    3.40
  -6  -2  -3   12.70    3.00
   6   2   3   10.90    2.50
  -7  -2  -3  186.08   12.70
   7   2   3  215.18   12.20
   8  -3  -3   41.90    4.40
  -8   3   3   40.50    4.30
   7  -3  -3   58.89    4.30
  -7   3   3   60.99    4.80
  -7   3   3   60.79    5.30
   6  -3  -3   11.40    1.70
  -6   3   3   12.20    2.00
  -6   3   3    8.90    2.00
  -6   3   3   12.50    2.00
   5  -3  -3   60.09    4.00
  -5   3   3   58.29    4.40
  -5   3   3   61.19    4.10
   4  -3  -3  551.14   25.60
   4  -3  -3  620.64   26.20
  -4   3   3  609.24   26.20
  -4   3   3  612.34   26.80
   3  -3  -3   69.59    4.00
   3  -3  -3   67.69    3.40
  -3   3   3   63.29    4.30
  -3   3   3   69.89    3.90
   2  -3  -3   12.10    0.90
   2  -3  -3   10.40    1.20
  -2   3   3   13.40    1.50
  -2   3   3   12.40    1.20
   1  -3  -3   51.19    3.20
   1  -3  -3   56.29    2.90
  -1   3   3   60.59    3.00
  -1   3   3   50.99    3.30
   0  -3  -3   33.60    2.30
   0  -3  -3   30.80    2.10
   0   3   3   32.60    2.20
   0   3   3   31.50    2.10
  -1  -3  -3  893.91   37.60
  -1  -3  -3  875.61   38.30
   1   3   3  875.61   37.90
   1   3   3  913.01   37.70
  -2  -3  -3  104.89    5.20
  -2  -3  -3   98.89    6.10
   2   3   3   91.29    5.60
   2   3   3  113.79    5.20
  -3  -3  -3   17.40    1.70
  -3  -3  -3   16.50    2.50
   3   3   3   19.40    2.10
  -4  -3  -3   28.50    3.50
  -4  -3  -3   32.40    2.90
   4   3   3   30.30    3.00
  -5  -3  -3    1.00    1.70
   5   3   3   -1.20    0.90
  -6  -3  -3    7.30    2.80
   6   3   3    9.20    2.50
  -7  -3  -3   48.90    6.50
   7   3   3   64.69    5.90
   9  -4  -3    4.90    2.70
  -9   4   3    5.10    2.10
   8  -4  -3    1.50    1.70
  -8   4   3    6.30    2.10
   7  -4  -3   84.59    5.60
  -7   4   3  101.39    6.80
  -7   4   3   86.79    6.10
   6  -4  -3    1.80    0.90
  -6   4   3    2.40    1.30
  -6   4   3    2.30    1.20
   5  -4  -3  114.79    6.30
  -5   4   3  111.79    6.40
  -5   4   3  103.99    6.80
   4  -4  -3   20.20    2.00
  -4   4   3   19.30    2.40
  -4   4   3   18.00    2.00
   3  -4  -3  282.97   13.10
  -3   4   3  265.57   13.50
  -3   4   3  293.37   13.00
   2  -4  -3  352.46   16.40
   2  -4  -3  374.76   15.50
  -2   4   3  374.06   16.10
  -2   4   3  348.37   16.70
   1  -4  -3  621.04   26.90
   1  -4  -3  617.94   27.40
  -1   4   3  665.83   27.10
  -1   4   3  624.24   27.70
   0  -4  -3  499.25   22.60
   0  -4  -3  530.05   22.50
   0   4   3  517.75   22.60
   0   4   3  511.65   22.40
  -1  -4  -3   40.40    3.30
  -1  -4  -3   48.50    3.00
   1   4   3   46.10    2.90
   1   4   3   43.60    3.10
  -2  -4  -3   20.30    1.80
  -2  -4  -3   13.80    2.20
   2   4   3   13.20    1.80
   2   4   3   12.00    1.80
  -3  -4  -3   25.40    2.30
  -3  -4  -3   17.20    2.90
   3   4   3   21.30    2.40
  -4  -4  -3  151.58    9.70
  -4  -4  -3  138.59    9.30
   4   4   3  155.98    8.70
  -5  -4  -3   68.59    6.40
   5   4   3   75.69    5.60
  -6  -4  -3   55.89    6.30
   6   4   3   51.09    5.00
   9  -5  -3  113.69    8.70
   8  -5  -3   86.19    7.20
  -8   5   3   95.29    6.80
   7  -5  -3    1.70    1.10
  -7   5   3    0.00    1.10
  -7   5   3   -0.30    1.30
   6  -5  -3  406.56   18.80
  -6   5   3  403.06   20.00
  -6   5   3  404.06   19.30
   5  -5  -3   29.60    2.70
  -5   5   3   25.10    2.70
  -5   5   3   26.60    3.20
   4  -5  -3    6.20    1.30
  -4   5   3    5.30    1.60
  -4   5   3    6.20    1.40
   3  -5  -3  335.87   15.80
  -3   5   3  346.17   16.50
  -3   5   3  345.57   15.70
   2  -5  -3  159.58    8.40
  -2   5   3  160.48    8.90
  -2   5   3  185.28    8.40
   1  -5  -3  251.97   11.90
   1  -5  -3  247.88   11.40
  -1   5   3  253.07   11.60
  -1   5   3  251.17   12.20
   0  -5  -3  476.85   21.00
   0  -5  -3  445.26   21.00
   0   5   3  478.95   21.20
   0   5   3  492.25   21.00
  -1  -5  -3  109.09    5.70
  -1  -5  -3   94.79    6.00
   1   5   3  104.99    5.80
   1   5   3   98.19    5.50
  -2  -5  -3  104.09    6.90
  -2  -5  -3  108.19    6.10
   2   5   3  112.59    6.40
  -3  -5  -3  198.88   11.80
  -3  -5  -3  212.78   10.50
   3   5   3  216.08   11.00
  -4  -5  -3    2.70    1.80
   4   5   3    7.30    2.00
  -5  -5  -3   14.10    3.50
   5   5   3   14.00    2.90
  -6  -5  -3   -0.70    2.00
   6   5   3   -0.70    1.90
   8  -6  -3   14.70    3.40
  -8   6   3   11.90    2.80
   7  -6  -3  131.29    7.60
  -7   6   3  126.89    8.90
  -7   6   3  135.79    8.50
   6  -6  -3    6.70    1.70
  -6   6   3    5.70    1.80
  -6   6   3    7.60    2.20
   5  -6  -3   71.49    4.60
  -5   6   3   62.29    5.30
  -5   6   3   61.59    4.80
   4  -6  -3    0.40    0.80
  -4   6   3    0.80    1.00
  -4   6   3   -0.20    1.10
   3  -6  -3  301.67   14.50
  -3   6   3  318.87   15.40
  -3   6   3  299.67   14.40
   2  -6  -3  144.49    7.70
  -2   6   3  140.39    7.50
  -2   6   3  147.69    8.20
   1  -6  -3    3.90    1.20
  -1   6   3    4.50    1.40
  -1   6   3    7.00    1.40
   0  -6  -3  178.88    9.20
   0   6   3  179.28    9.10
   0   6   3  178.98    9.30
  -1  -6  -3   -0.10    1.00
  -1  -6  -3   -0.20    0.90
   1   6   3   -1.20    0.90
  -2  -6  -3  274.07   14.70
  -2  -6  -3  302.47   13.90
   2   6   3  281.87   14.10
  -3  -6  -3   56.29    4.40
  -3  -6  -3   67.29    5.60
   3   6   3   62.39    4.90
  -4  -6  -3   20.60    4.00
   4   6   3   14.90    2.90
  -5  -6  -3   76.99    7.20
   5   6   3   74.19    6.10
   8  -7  -3   29.90    4.60
  -8   7   3   29.20    4.30
   7  -7  -3    0.50    1.10
  -7   7   3    0.90    1.40
  -7   7   3   -2.00    1.30
   6  -7  -3   39.60    3.60
  -6   7   3   39.90    4.50
  -6   7   3   40.00    4.00
   5  -7  -3   70.29    4.90
  -5   7   3   71.89    6.00
  -5   7   3   73.59    5.40
   4  -7  -3    9.10    1.80
  -4   7   3    6.80    2.20
  -4   7   3    9.30    2.10
   3  -7  -3    5.60    1.50
  -3   7   3    3.60    1.40
  -3   7   3    4.80    1.70
   2  -7  -3  127.39    7.30
  -2   7   3  124.59    7.80
  -2   7   3  132.59    7.20
   1  -7  -3   50.59    3.90
  -1   7   3   50.79    3.80
  -1   7   3   46.00    4.00
   0  -7  -3   25.20    2.70
   0   7   3   26.50    2.80
  -1  -7  -3  276.97   13.60
   1   7   3  271.07   13.60
  -2  -7  -3   15.40    2.70
   2   7   3   11.10    2.60
  -3  -7  -3   23.00    3.20
   3   7   3   24.00    3.30
   4   7   3    5.80    2.40
   7  -8  -3   26.90    3.10
  -7   8   3   26.70    4.30
  -7   8   3   34.00    4.30
   6  -8  -3    0.90    1.20
  -6   8   3   -0.80    1.80
  -6   8   3    2.20    1.80
   5  -8  -3  231.08   11.50
  -5   8   3  226.48   12.80
  -5   8   3  193.48   11.70
   4  -8  -3   48.10    4.10
  -4   8   3   49.70    4.30
  -4   8   3   54.59    5.10
   3  -8  -3   19.40    2.60
  -3   8   3   19.70    3.40
  -3   8   3   19.80    2.70
   2  -8  -3   19.60    2.60
  -2   8   3   16.70    2.50
  -2   8   3   19.40    3.00
   1  -8  -3   11.50    2.30
  -1   8   3   12.90    2.40
   0  -8  -3  280.77   14.40
   0   8   3  290.97   14.40
  -1  -8  -3    1.10    1.50
   1   8   3    2.30    1.60
  -2  -8  -3    8.30    2.30
   2   8   3   14.80    2.90
   3   8   3   76.39    6.10
   6  -9  -3   -1.40    1.20
  -6   9   3    2.80    1.80
  -6   9   3   -1.00    1.80
   5  -9  -3   11.30    2.40
  -5   9   3    7.80    2.60
  -5   9   3   11.40    2.80
   4  -9  -3  109.59    6.90
  -4   9   3  113.59    8.00
  -4   9   3   91.29    6.90
   3  -9  -3  171.78    9.50
  -3   9   3  158.58    9.50
  -3   9   3  160.18   10.10
   2  -9  -3   40.90    4.10
  -2   9   3   39.60    4.00
   1  -9  -3  290.97   15.40
  -1   9   3  319.87   15.60
   0  -9  -3    2.00    1.70
   0   9   3    3.20    2.00
  -1  -9  -3   24.10    3.50
   1   9   3   22.80    3.50
   4 -10  -3   22.20    3.30
  -4  10   3   19.30    3.70
  -4  10   3   24.70    4.00
   3 -10  -3    0.30    1.70
  -3  10   3    3.60    2.00
   2 -10  -3  160.38    9.70
  -2  10   3  159.58    9.70
   1 -10  -3   24.80    6.20
  -1  10   3   29.60    3.90
   0  10  -4    3.20    2.50
   0 -10   4    5.20    2.80
  -1  10  -4   33.10    4.10
   1 -10   4   36.00    4.40
  -2  10  -4   26.80    4.00
   2 -10   4   24.60    3.50
  -3  10  -4  311.27   16.70
   3 -10   4  322.57   16.20
  -4  10  -4    6.10    3.90
   4 -10   4    3.60    3.40
   2   9  -4   11.20    2.80
  -2  -9   4   13.70    3.30
   1   9  -4  259.07   13.40
  -1  -9   4  242.68   13.50
   0   9  -4    4.10    2.20
   0  -9   4    4.10    2.10
  -1   9  -4    5.70    2.10
   1  -9   4    4.10    1.90
  -2   9  -4  176.58   10.60
   2  -9   4  198.38   10.50
  -3   9  -4    2.30    1.70
   3  -9   4    4.00    1.90
   3  -9   4    3.10    1.70
  -4   9  -4  106.29    7.80
   4  -9   4  114.59    8.30
  -5   9  -4   28.70    4.00
   5  -9   4   41.10    4.90
   6  -9   4   31.20    4.70
   4   8  -4  135.89    8.60
   3   8  -4   11.70    2.60
  -3  -8   4   12.20    2.90
   2   8  -4   47.00    4.20
  -2  -8   4   45.50    4.50
   1   8  -4  229.58   11.90
  -1  -8   4  223.18   12.10
   0   8  -4   12.40    2.40
   0  -8   4   11.60    2.40
  -1   8  -4   12.10    2.30
   1  -8   4   17.50    2.60
  -2   8  -4   48.30    4.20
   2  -8   4   47.30    4.00
   2  -8   4   45.70    4.30
  -3   8  -4  186.18   10.60
   3  -8   4  196.28   10.00
   3  -8   4  184.48   11.00
  -4   8  -4   19.40    3.10
   4  -8   4   23.00    3.60
   4  -8   4   16.40    2.60
  -5   8  -4   15.50    3.20
   5  -8   4   11.00    2.90
  -6   8  -4   33.30    4.70
   6  -8   4   40.60    5.10
  -7   8  -4   73.39    7.50
   7  -8   4   80.69    8.50
   5   7  -4  135.89    8.60
  -5  -7   4  145.89    9.30
   4   7  -4   23.10    4.00
   4   7  -4   25.00    3.20
  -4  -7   4   26.00    3.50
   3   7  -4   77.59    6.20
   3   7  -4   75.19    5.50
  -3  -7   4   82.49    5.90
   2   7  -4    1.50    1.30
  -2  -7   4   -1.00    0.90
   1   7  -4    4.20    1.50
  -1  -7   4    3.10    1.40
   0   7  -4  160.68    8.50
   0  -7   4  154.28    8.60
  -1   7  -4  367.36   17.50
   1  -7   4  384.56   17.40
   1  -7   4  364.86   17.60
  -2   7  -4   -1.20    1.10
   2  -7   4   -1.10    1.00
   2  -7   4   -1.10    0.90
  -3   7  -4  239.78   12.70
   3  -7   4  236.28   13.00
   3  -7   4  257.07   12.00
  -4   7  -4  748.33   36.40
   4  -7   4  836.82   37.20
   4  -7   4  848.12   35.50
  -5   7  -4  562.94   27.10
   5  -7   4  583.74   27.70
  -6   7  -4  450.05   22.90
   6  -7   4  473.15   23.50
  -7   7  -4   45.80    5.10
   7  -7   4   47.50    5.50
   6   6  -4  132.49    8.40
  -6  -6   4  128.69    8.80
   5   6  -4   25.00    3.10
  -5  -6   4   21.60    3.20
   4   6  -4   14.60    2.40
  -4  -6   4    8.00    2.10
   3   6  -4   33.30    3.70
   3   6  -4   36.00    3.20
  -3  -6   4   31.30    3.40
   2   6  -4   20.70    2.80
   2   6  -4   31.90    2.80
  -2  -6   4   27.20    2.90
   1   6  -4   -0.10    0.90
   1   6  -4   -0.70    0.70
  -1  -6   4    0.10    0.80
   0   6  -4  715.73   31.20
   0   6  -4  712.53   31.20
   0  -6   4  722.43   31.30
   0  -6   4  704.63   31.30
  -1   6  -4   16.00    2.10
   1  -6   4   10.50    1.90
   1  -6   4   17.90    2.00
  -2   6  -4    3.40    1.40
   2  -6   4    5.50    1.30
   2  -6   4    3.00    1.50
  -3   6  -4  393.66   19.10
   3  -6   4  391.06   19.40
   3  -6   4  426.16   18.30
  -4   6  -4    7.20    1.90
   4  -6   4    7.50    1.70
   4  -6   4    5.20    1.80
  -5   6  -4   81.09    6.10
   5  -6   4   91.79    6.60
  -6   6  -4   71.49    6.00
   6  -6   4   83.59    6.60
  -7   6  -4   20.90    3.90
   7  -6   4   24.40    3.80
  -8   6  -4  112.79    8.80
   8  -6   4  131.69    9.30
   6   5  -4   63.39    5.00
  -6  -5   4   70.69    5.60
  -6  -5   4   51.89    6.10
   5   5  -4   -0.10    1.20
  -5  -5   4    0.90    1.60
  -5  -5   4    0.60    1.20
   4   5  -4   28.40    2.90
  -4  -5   4   32.00    3.90
  -4  -5   4   28.30    3.10
   3   5  -4 1198.78   50.69
  -3  -5   4 1162.98   50.99
   2   5  -4   36.40    3.50
   2   5  -4   45.60    3.20
  -2  -5   4   39.50    3.30
   1   5  -4  708.93   29.80
   1   5  -4  674.93   30.20
  -1  -5   4  675.93   30.00
   0   5  -4  526.55   22.10
   0   5  -4  488.45   21.90
   0  -5   4  500.45   22.00
   0  -5   4  487.05   22.10
  -1   5  -4   97.59    4.80
  -1   5  -4   94.19    5.30
   1  -5   4   95.39    5.50
   1  -5   4   87.79    5.00
  -2   5  -4  341.97   15.00
  -2   5  -4  345.17   16.00
   2  -5   4  344.67   15.40
   2  -5   4  343.17   16.30
  -3   5  -4    4.80    1.40
   3  -5   4    5.80    1.10
   3  -5   4    4.20    1.40
  -4   5  -4  462.15   21.70
   4  -5   4  464.45   22.00
  -5   5  -4   21.50    2.90
   5  -5   4   20.40    2.90
  -6   5  -4   -1.60    1.10
   6  -5   4    0.90    1.40
  -7   5  -4    0.10    1.50
   7  -5   4   -0.40    1.50
  -8   5  -4   49.30    5.40
   8  -5   4   62.49    5.80
   7   4  -4  142.59    8.50
  -7  -4   4  131.49   10.10
  -7  -4   4  123.39    8.60
   6   4  -4   81.89    5.50
  -6  -4   4   62.79    5.50
  -6  -4   4   71.89    6.70
   5   4  -4   98.69    6.20
  -5  -4   4   98.89    7.50
  -5  -4   4  109.59    6.80
   4   4  -4  338.27   16.10
  -4  -4   4  361.36   17.70
  -4  -4   4  337.57   16.50
   3   4  -4   30.30    2.60
  -3  -4   4   26.60    2.70
  -3  -4   4   31.10    3.30
   2   4  -4  259.27   11.60
   2   4  -4  240.48   12.30
  -2  -4   4  245.18   11.90
   1   4  -4   17.60    2.00
   1   4  -4   22.40    1.80
  -1  -4   4   21.50    2.00
  -1  -4   4   25.10    1.60
   0   4  -4   11.50    1.30
   0   4  -4   11.10    1.30
   0  -4   4   11.40    1.30
   0  -4   4   10.30    1.40
  -1   4  -4 1001.40   40.40
  -1   4  -4  980.70   40.80
   1  -4   4  924.51   40.90
   1  -4   4  917.21   40.50
  -2   4  -4   -0.20    0.60
  -2   4  -4    0.20    0.40
   2  -4   4    2.10    0.60
   2  -4   4   -0.70    0.50
  -3   4  -4  101.39    6.00
  -3   4  -4  106.59    5.50
   3  -4   4  112.49    5.20
   3  -4   4   94.59    6.10
  -4   4  -4   54.49    4.20
  -4   4  -4   59.59    3.80
   4  -4   4   54.39    4.30
  -5   4  -4   81.79    5.90
  -5   4  -4   92.19    5.70
   5  -4   4   97.79    6.30
  -6   4  -4  352.26   18.40
   6  -4   4  390.86   18.60
  -7   4  -4   64.39    5.70
   7  -4   4   62.99    5.40
  -8   4  -4    0.70    1.80
   8  -4   4    0.40    1.60
   8   3  -4    1.80    1.80
  -8  -3   4    0.10    3.40
   7   3  -4   16.00    2.70
  -7  -3   4   18.00    3.10
  -7  -3   4   17.20    3.70
   6   3  -4   32.20    3.30
  -6  -3   4   29.70    3.40
  -6  -3   4   35.30    4.50
   5   3  -4  389.86   18.30
  -5  -3   4  400.86   20.00
  -5  -3   4  399.36   18.80
   4   3  -4    1.80    0.90
  -4  -3   4    5.30    1.40
  -4  -3   4    3.40    1.50
   3   3  -4  336.67   15.00
  -3  -3   4  332.87   16.10
  -3  -3   4  320.47   15.40
   2   3  -4  407.96   20.60
   2   3  -4  498.25   20.00
  -2  -3   4  432.96   20.30
  -2  -3   4  483.75   19.30
   1   3  -4  477.45   22.50
   1   3  -4  512.15   22.00
  -1  -3   4  509.85   22.40
  -1  -3   4  549.54   21.80
   0   3  -4  145.19    6.90
   0   3  -4  147.29    7.00
   0  -3   4  139.69    6.90
   0  -3   4  152.68    7.00
  -1   3  -4  535.45   22.90
  -1   3  -4  552.94   22.60
   1  -3   4  523.75   22.50
   1  -3   4  493.65   22.90
  -2   3  -4   89.19    5.20
  -2   3  -4  100.59    4.90
   2  -3   4   96.09    5.40
   2  -3   4   98.79    4.60
  -3   3  -4   20.60    2.10
  -3   3  -4   19.90    1.90
   3  -3   4   19.00    2.10
   3  -3   4   17.90    1.30
  -4   3  -4  111.59    6.20
  -4   3  -4  107.79    6.40
   4  -3   4  100.09    6.30
  -5   3  -4    0.30    0.80
  -5   3  -4    1.50    1.10
   5  -3   4   -0.30    0.80
  -6   3  -4   52.49    4.50
  -6   3  -4   50.29    4.50
   6  -3   4   51.89    4.40
  -7   3  -4  310.07   16.20
  -7   3  -4  295.07   16.10
   7  -3   4  309.87   15.60
  -8   3  -4    7.70    2.40
   8  -3   4    1.90    1.60
   8   2  -4   19.20    3.10
  -8  -2   4   18.90    4.00
   7   2  -4   16.10    2.50
  -7  -2   4   18.50    3.10
  -7  -2   4   17.10    3.70
   6   2  -4  112.99    6.80
  -6  -2   4  115.99    7.20
  -6  -2   4  117.69    8.20
   5   2  -4   20.20    2.20
  -5  -2   4   28.00    3.30
  -5  -2   4   21.50    2.50
   4   2  -4  165.68    8.00
  -4  -2   4  152.68    8.30
  -4  -2   4  158.38    9.10
   3   2  -4   -0.10    0.50
  -3  -2   4   -0.20    0.50
  -3  -2   4    0.50    0.80
  -3  -2   4    0.50    0.30
   2   2  -4  650.43   33.30
   2   2  -4  825.62   32.70
  -2  -2   4  837.32   32.40
  -2  -2   4  770.12   33.20
   1   2  -4  299.97   12.00
   1   2  -4  252.47   12.50
  -1  -2   4  266.97   12.40
  -1  -2   4  281.57   11.90
   0   2  -4   80.39    4.10
   0   2  -4   81.69    4.00
   0  -2   4   82.39    4.00
   0  -2   4   76.89    4.00
  -1   2  -4  427.06   18.20
  -1   2  -4  412.56   18.30
   1  -2   4  414.56   18.40
   1  -2   4  428.46   17.90
  -2   2  -4  174.68    9.10
  -2   2  -4  212.78    9.20
   2  -2   4  195.08    9.30
   2  -2   4  192.38    8.40
  -3   2  -4  200.18    9.50
  -3   2  -4  185.68    9.60
   3  -2   4  192.68    9.60
  -4   2  -4    4.30    1.30
  -4   2  -4    2.30    1.00
   4  -2   4    3.10    1.10
  -5   2  -4   53.59    4.40
  -5   2  -4   52.89    4.30
   5  -2   4   59.69    4.20
  -6   2  -4   28.90    3.40
  -6   2  -4   19.90    3.10
   6  -2   4   26.80    2.90
  -7   2  -4    3.00    1.80
  -7   2  -4    3.90    1.90
   7  -2   4    2.30    1.50
  -8   2  -4    3.20    2.20
   8   1  -4   21.10    3.20
  -8  -1   4   17.80    3.80
   7   1  -4   79.99    5.60
  -7  -1   4   72.99    5.50
  -7  -1   4   89.19    6.90
   6   1  -4  275.47   13.60
  -6  -1   4  284.47   15.00
  -6  -1   4  277.27   13.90
   5   1  -4    7.80    1.60
  -5  -1   4   10.30    1.80
  -5  -1   4   12.00    2.10
   4   1  -4  592.74   26.20
  -4  -1   4  600.34   25.90
  -4  -1   4  620.44   27.40
  -4  -1   4  604.34   26.70
   3   1  -4   58.29    3.10
  -3  -1   4   50.09    3.40
  -3  -1   4   54.89    3.00
   2   1  -4   49.20    3.30
   2   1  -4   56.79    2.80
  -2  -1   4   50.39    3.10
  -2  -1   4   54.49    2.80
   1   1  -4 2081.19   89.79
   1   1  -4 2176.78   89.19
  -1  -1   4 2285.27   89.49
  -1  -1   4 2069.79   89.69
   0   1  -4    3.20    0.60
   0   1  -4    2.90    0.50
   0  -1   4    2.40    0.50
   0  -1   4    3.70    0.60
  -1   1  -4  302.37   13.30
  -1   1  -4  315.67   13.40
   1  -1   4  303.27   12.80
   1  -1   4  285.77   13.30
  -2   1  -4  843.12   35.30
  -2   1  -4  817.52   35.30
   2  -1   4  812.52   35.20
  -3   1  -4   68.29    4.30
  -3   1  -4   64.09    4.20
   3  -1   4   65.19    3.90
  -4   1  -4  575.54   26.80
  -4   1  -4  600.04   26.70
   4  -1   4  604.04   26.20
  -5   1  -4   24.30    3.00
  -5   1  -4   19.40    2.60
   5  -1   4   25.50    2.40
  -6   1  -4   22.50    3.20
   6  -1   4   20.60    2.40
  -7   1  -4  175.58   10.70
   7  -1   4  148.59    9.80
  -8   1  -4    9.80    3.20
   8  -1   4   10.40    3.00
  -9   0   4    2.30    2.10
   8   0  -4   83.29    6.10
  -8   0   4   77.99    7.00
   7   0  -4   35.10    3.40
  -7   0   4   36.90    4.30
  -7   0   4   30.70    3.30
   6   0  -4  218.18   11.60
  -6   0   4  255.67   12.90
  -6   0   4  229.88   11.80
   5   0  -4    7.90    1.50
  -5   0   4    9.70    1.60
  -5   0   4    9.80    2.00
  -5   0   4    8.40    1.40
   4   0  -4  153.38    7.80
  -4   0   4  172.98    8.80
  -4   0   4  158.68    8.30
  -4   0   4  169.48    8.00
   3   0  -4  830.72   36.30
   3   0  -4  824.32   37.00
  -3   0   4  853.91   36.90
  -3   0   4  933.81   36.60
   2   0  -4   94.29    5.20
   2   0  -4  103.49    4.60
  -2   0   4  101.19    5.20
  -2   0   4  105.39    5.00
   1   0  -4  266.47   11.70
  -1   0   4  270.27   11.60
  -1   0   4  258.17   11.70
   0   0  -4  188.28    8.10
   0   0  -4  191.08    8.50
   0   0   4  193.58    8.30
   0   0   4  175.18    8.40
  -1   0  -4  516.85   22.40
  -1   0  -4  532.95   22.60
  -1   0  -4  516.85   21.90
   1   0   4  522.65   22.40
  -2   0  -4   46.50    3.30
  -2   0  -4   53.29    3.20
   2   0   4   52.39    3.00
  -3   0  -4 1054.09   48.60
  -3   0  -4 1124.09   48.50
  -3   0  -4 1164.38   47.00
   3   0   4 1177.68   48.00
  -4   0  -4  471.05   22.40
   4   0   4  490.05   21.30
  -5   0  -4    8.70    2.20
   5   0   4    3.70    1.10
   5   0   4    4.20    1.50
  -6   0  -4  284.47   15.40
   6   0   4  278.27   14.80
  -7   0  -4   80.29    7.00
   7   0   4   68.89    6.00
  -8   0  -4    5.30    2.90
   8   0   4    8.70    2.90
  -9   1   4   -0.10    1.60
   8  -1  -4   61.39    5.20
  -8   1   4   75.29    6.40
   7  -1  -4   -0.90    0.70
  -7   1   4    0.80    1.10
  -7   1   4   -0.90    1.10
   6  -1  -4   28.40    2.80
  -6   1   4   29.10    2.90
  -6   1   4   31.10    2.90
  -6   1   4   29.70    3.30
  -5   1   4  203.48   10.30
  -5   1   4  217.68   10.90
  -5   1   4  205.18   10.30
  -4   1   4  100.79    5.20
  -4   1   4  107.39    5.60
  -4   1   4   85.79    5.30
   3  -1  -4  134.49    7.10
  -3   1   4  142.09    7.20
  -3   1   4  134.09    7.00
  -3   1   4  157.38    6.70
   2  -1  -4    6.70    0.90
  -2   1   4    6.60    0.60
  -2   1   4    8.00    1.00
  -2   1   4    6.40    0.90
   1  -1  -4   60.59    3.30
  -1   1   4   59.79    3.40
  -1   1   4   59.59    3.40
  -1   1   4   74.19    2.90
   0  -1  -4 3781.52  156.78
   0  -1  -4 3979.40  156.98
   0   1   4 3690.93  156.68
   0   1   4 3687.43  156.88
  -1  -1  -4  992.10   39.10
  -1  -1  -4  962.70   39.90
   1   1   4  862.31   39.50
   1   1   4  921.41   39.40
  -2  -1  -4    8.10    1.40
  -2  -1  -4    7.90    0.70
   2   1   4    6.70    1.10
   2   1   4    5.90    1.00
  -3  -1  -4   66.09    4.80
  -3  -1  -4   74.99    3.60
   3   1   4   71.29    4.60
   3   1   4   73.89    4.10
  -4  -1  -4    1.40    1.30
   4   1   4    2.40    0.80
   4   1   4    1.20    1.00
  -5  -1  -4  648.94   30.30
   5   1   4  640.94   29.60
  -6  -1  -4    4.50    2.10
   6   1   4    1.50    1.50
  -7  -1  -4    6.00    2.70
   7   1   4    7.40    2.40
  -8  -1  -4    2.30    3.50
   8  -2  -4    6.30    1.90
  -8   2   4    7.50    2.50
  -7   2   4    1.30    1.20
  -7   2   4    0.80    1.20
  -7   2   4    3.20    1.40
  -6   2   4  669.03   30.00
  -6   2   4  687.73   30.60
  -6   2   4  685.93   30.10
  -6   2   4  664.53   30.30
  -5   2   4    1.40    0.90
  -5   2   4    2.30    0.90
  -5   2   4    2.10    0.90
   4  -2  -4  370.56   17.80
  -4   2   4  422.56   18.10
  -4   2   4  387.66   18.20
  -4   2   4  416.96   17.80
   3  -2  -4   65.79    3.70
  -3   2   4   70.09    3.70
  -3   2   4   72.39    4.30
   2  -2  -4    6.50    1.00
   2  -2  -4   10.40    0.90
  -2   2   4    7.80    1.20
  -2   2   4    9.50    0.80
   1  -2  -4   20.70    1.40
   1  -2  -4   17.70    1.50
  -1   2   4   18.50    1.20
  -1   2   4   16.50    1.50
   0  -2  -4   38.20    2.40
   0  -2  -4   44.00    2.60
   0   2   4   39.90    2.50
   0   2   4   37.50    2.30
  -1  -2  -4  187.88    9.20
  -1  -2  -4  190.68    8.50
   1   2   4  178.58    8.80
   1   2   4  196.58    8.80
  -2  -2  -4  160.78    7.20
  -2  -2  -4  152.08    8.40
   2   2   4  161.48    7.50
   2   2   4  155.38    7.90
  -3  -2  -4   66.89    5.10
  -3  -2  -4   76.19    3.90
   3   2   4   75.09    4.10
   3   2   4   77.29    4.80
  -4  -2  -4   14.30    2.80
   4   2   4   11.40    2.20
  -5  -2  -4  103.99    7.50
   5   2   4   97.09    6.70
  -6  -2  -4   79.19    7.10
   6   2   4   88.89    6.60
  -7  -2  -4    8.20    3.20
   7   2   4   12.60    3.00
   8  -3  -4   18.70    3.10
  -8   3   4   24.40    3.30
   7  -3  -4   45.20    3.80
  -7   3   4   48.70    4.10
  -7   3   4   46.30    4.20
   6  -3  -4   -0.50    0.80
  -6   3   4   -0.10    0.80
  -6   3   4   -1.00    0.70
   5  -3  -4  410.06   18.90
   5  -3  -4  381.76   18.50
  -5   3   4  433.06   18.90
  -5   3   4  427.36   19.50
   4  -3  -4    8.30    1.20
   4  -3  -4    8.50    1.60
  -4   3   4   10.00    1.70
  -4   3   4   12.40    1.40
   3  -3  -4  444.96   17.90
   3  -3  -4  406.96   18.60
  -3   3   4  378.66   18.70
  -3   3   4  415.66   18.10
   2  -3  -4  716.23   27.90
   2  -3  -4  607.44   28.40
  -2   3   4  636.24   28.70
  -2   3   4  666.93   28.00
   1  -3  -4   61.69    3.20
   1  -3  -4   54.89    3.40
  -1   3   4   59.49    3.60
  -1   3   4   57.89    3.10
   0  -3  -4   83.69    4.50
   0  -3  -4   85.89    4.70
   0   3   4   94.19    4.80
   0   3   4   85.29    4.50
  -1  -3  -4    3.10    0.70
  -1  -3  -4    2.30    0.90
   1   3   4    2.30    0.80
   1   3   4    1.90    0.80
  -2  -3  -4  324.17   14.30
  -2  -3  -4  309.87   15.50
   2   3   4  311.37   15.00
   2   3   4  343.07   14.50
  -3  -3  -4   67.59    5.30
  -3  -3  -4   70.49    4.00
   3   3   4   75.59    4.50
   3   3   4   68.39    4.70
  -4  -3  -4  298.67   15.80
   4   3   4  297.27   14.80
  -5  -3  -4   68.19    6.30
   5   3   4   72.59    5.50
  -6  -3  -4   59.39    6.40
   6   3   4   62.69    5.50
  -7  -3  -4   75.09    7.60
   7   3   4   72.59    6.70
   9  -4  -4    0.40    1.90
  -8   4   4   33.30    4.00
   7  -4  -4   47.90    4.00
  -7   4   4   51.19    4.30
  -7   4   4   53.09    4.80
   6  -4  -4   74.59    5.10
  -6   4   4   72.89    5.20
  -6   4   4   97.79    6.20
   5  -4  -4  215.08   10.70
  -5   4   4  211.88   11.30
  -5   4   4  211.18   10.70
   4  -4  -4  108.59    6.30
  -4   4   4  109.69    6.80
  -4   4   4  118.29    6.20
   3  -4  -4    1.40    0.70
   3  -4  -4    1.20    0.40
  -3   4   4    0.80    0.60
  -3   4   4    1.30    0.90
   2  -4  -4  345.17   16.50
   2  -4  -4  403.06   15.80
  -2   4   4  368.66   16.20
  -2   4   4  337.77   16.80
   1  -4  -4  280.37   12.90
   1  -4  -4  286.77   12.60
  -1   4   4  288.27   12.50
  -1   4   4  259.47   13.10
   0  -4  -4  183.68    9.30
   0  -4  -4  185.68    9.10
   0   4   4  191.48    9.30
   0   4   4  199.08    9.10
  -1  -4  -4  280.67   14.40
  -1  -4  -4  304.57   13.70
   1   4   4  313.77   13.90
   1   4   4  308.07   14.00
  -2  -4  -4   79.89    5.90
  -2  -4  -4   95.39    5.10
   2   4   4   94.79    5.60
   2   4   4   97.49    5.10
  -3  -4  -4  569.44   26.20
  -3  -4  -4  619.64   28.20
   3   4   4  616.04   27.10
  -4  -4  -4   20.10    3.40
   4   4   4   22.90    2.90
  -5  -4  -4  458.55   24.50
   5   4   4  512.35   23.50
  -6  -4  -4  141.79   10.60
   6   4   4  147.49    9.50
   9  -5  -4   42.90    5.40
   7  -5  -4  142.09    8.10
  -7   5   4  132.59    8.40
  -7   5   4  143.19    9.10
   6  -5  -4    2.60    1.10
  -6   5   4    1.10    1.40
  -6   5   4    4.00    1.40
   5  -5  -4   82.39    5.20
  -5   5   4   83.59    5.30
  -5   5   4   73.79    5.70
   4  -5  -4  370.66   17.20
  -4   5   4  352.56   17.80
  -4   5   4  383.86   17.20
   3  -5  -4   66.19    4.30
  -3   5   4   67.29    4.80
  -3   5   4   66.59    4.20
   2  -5  -4  119.69    6.70
  -2   5   4  133.39    6.50
  -2   5   4  120.69    7.10
   1  -5  -4   40.70    2.90
   1  -5  -4   33.80    2.50
  -1   5   4   30.40    2.90
  -1   5   4   40.50    2.70
   0  -5  -4   88.89    5.40
   0  -5  -4   96.09    5.40
   0   5   4   96.79    5.60
   0   5   4   95.19    5.30
  -1  -5  -4  340.27   17.20
  -1  -5  -4  367.96   16.70
   1   5   4  377.36   16.90
   1   5   4  376.56   16.80
  -2  -5  -4    0.10    1.20
  -2  -5  -4    1.90    1.10
   2   5   4   -1.40    0.80
  -3  -5  -4    5.80    1.50
  -3  -5  -4    3.60    1.80
   3   5   4    8.60    1.90
  -4  -5  -4  243.08   14.40
   4   5   4  263.47   13.40
  -5  -5  -4   26.30    4.30
   5   5   4   23.00    3.80
  -8   6   4   27.40    4.20
   7  -6  -4    5.10    1.50
  -7   6   4    7.30    2.10
  -7   6   4    7.00    2.30
   6  -6  -4   18.90    2.30
  -6   6   4   14.20    2.70
  -6   6   4   12.80    2.80
   5  -6  -4   25.30    2.70
  -5   6   4   21.60    3.10
  -5   6   4   24.20    2.80
   4  -6  -4  189.38    9.80
  -4   6   4  190.18    9.80
  -4   6   4  186.08   10.60
   3  -6  -4   13.60    2.00
  -3   6   4   12.10    2.00
  -3   6   4   11.20    2.30
   2  -6  -4    9.80    1.80
  -2   6   4    9.10    1.90
  -2   6   4   10.80    1.80
   1  -6  -4  847.32   38.50
  -1   6   4  931.31   38.40
  -1   6   4  888.31   39.00
   0  -6  -4   30.20    2.80
   0   6   4   31.70    2.80
   0   6   4   29.80    2.90
  -1  -6  -4   23.30    2.40
  -1  -6  -4   21.00    3.20
   1   6   4   19.30    2.50
  -2  -6  -4    7.20    2.10
  -2  -6  -4   10.10    2.00
   2   6   4    9.10    2.00
  -3  -6  -4    2.70    1.40
  -3  -6  -4    4.20    2.20
   3   6   4    2.10    1.70
  -4  -6  -4  175.28   11.30
   4   6   4  163.18    9.90
  -5  -6  -4    5.30    3.00
   5   6   4    3.20    2.50
   7  -7  -4  100.19    6.60
  -7   7   4  100.19    7.80
  -7   7   4  103.59    7.50
   6  -7  -4    5.50    1.60
  -6   7   4    3.80    1.60
  -6   7   4    2.90    1.80
   5  -7  -4   54.89    4.20
  -5   7   4   52.99    5.10
  -5   7   4   48.50    4.30
   4  -7  -4   14.60    2.30
  -4   7   4   12.60    2.70
  -4   7   4   12.30    2.30
   3  -7  -4   11.80    2.10
  -3   7   4    8.10    1.80
  -3   7   4   11.90    2.50
   2  -7  -4   56.89    4.20
  -2   7   4   51.99    4.00
  -2   7   4   57.19    4.60
   1  -7  -4    8.50    1.80
  -1   7   4    6.00    1.60
  -1   7   4    5.00    1.60
   0  -7  -4  229.08   11.80
   0   7   4  236.58   11.80
  -1  -7  -4    4.70    1.70
   1   7   4    0.60    1.40
  -2  -7  -4   43.20    3.80
   2   7   4   36.10    3.80
  -3  -7  -4   -1.10    1.40
   3   7   4    1.10    1.50
   4   7   4   33.40    4.10
   7  -8  -4    8.00    2.00
  -7   8   4    6.90    2.60
   6  -8  -4  176.38    9.70
  -6   8   4  168.98   11.00
  -6   8   4  162.18   10.10
   5  -8  -4    0.20    1.00
  -5   8   4   -0.20    1.30
  -5   8   4   -0.30    1.50
   4  -8  -4    1.20    1.20
  -4   8   4    3.90    1.60
  -4   8   4    7.70    2.30
   3  -8  -4  390.26   18.70
  -3   8   4  401.46   18.80
  -3   8   4  387.16   19.60
   2  -8  -4    1.70    1.20
  -2   8   4    1.30    1.40
  -2   8   4    1.10    1.40
   1  -8  -4   31.60    3.50
  -1   8   4   32.90    3.50
   0  -8  -4    1.40    1.30
   0   8   4    3.40    1.50
  -1  -8  -4    3.70    1.90
   1   8   4    3.50    1.80
  -2  -8  -4   94.49    6.70
   2   8   4   95.69    6.70
   6  -9  -4    1.90    1.50
  -6   9   4   -0.10    1.50
  -6   9   4    0.20    1.90
   5  -9  -4   72.29    5.40
  -5   9   4   63.39    5.60
  -5   9   4   61.89    6.20
   4  -9  -4    8.00    2.10
  -4   9   4    4.20    2.20
  -4   9   4    5.30    2.10
   3  -9  -4    8.40    2.20
  -3   9   4   10.90    2.40
  -3   9   4   10.60    2.70
   2  -9  -4  159.88    9.70
  -2   9   4  181.88    9.90
   1  -9  -4   11.70    2.60
  -1   9   4   14.00    2.90
   0  -9  -4  161.78    9.80
   0   9   4  166.38    9.70
  -1  -9  -4   36.60    4.00
   1   9   4   30.20    4.20
   4 -10  -4   21.70    4.00
  -4  10   4   27.00    3.90
  -4  10   4   24.80    4.40
   3 -10  -4   -1.40    1.50
  -3  10   4    2.20    2.00
   2 -10  -4    1.30    3.00
  -2  10   4    0.90    1.70
  -1  10  -5   30.80    4.00
   1 -10   5   34.90    4.20
  -2  10  -5   34.90    4.40
   2 -10   5   44.90    4.40
  -3  10  -5   44.00    4.90
   3 -10   5   48.10    4.70
   2   9  -5   18.50    3.40
  -2  -9   5   17.60    3.40
   1   9  -5    2.00    1.90
  -1  -9   5    4.80    2.20
   0   9  -5   68.19    5.50
   0  -9   5   68.59    5.50
  -1   9  -5  358.66   18.20
   1  -9   5  379.46   18.30
  -2   9  -5    8.30    2.50
   2  -9   5   21.10    2.90
  -3   9  -5   23.30    3.50
   3  -9   5   24.80    3.70
   3  -9   5   22.60    3.10
  -4   9  -5  192.88   11.40
   4  -9   5  181.68   11.50
  -5   9  -5    5.90    2.60
   5  -9   5    4.30    2.40
   4   8  -5    0.80    1.80
   3   8  -5    4.10    1.80
  -3  -8   5    6.20    2.30
   2   8  -5  120.89    7.50
  -2  -8   5  118.59    7.80
   1   8  -5    3.00    1.70
  -1  -8   5    4.40    2.10
   0   8  -5   18.00    2.70
   0  -8   5   23.40    2.90
  -1   8  -5   22.20    2.90
   1  -8   5   11.60    2.30
  -2   8  -5    0.00    1.30
   2  -8   5    0.80    1.20
   2  -8   5   -0.20    1.20
  -3   8  -5    1.50    1.50
   3  -8   5    0.30    1.40
   3  -8   5    0.00    1.20
  -4   8  -5   10.00    2.50
   4  -8   5    7.80    2.40
  -5   8  -5   -0.50    1.20
   5  -8   5    2.40    1.80
  -6   8  -5  402.56   21.40
   6  -8   5  431.66   22.10
   5   7  -5    0.80    1.50
   5   7  -5   -0.30    2.00
  -5  -7   5    2.80    2.10
   4   7  -5   76.49    6.60
   4   7  -5   67.39    5.20
  -4  -7   5   65.89    5.70
   3   7  -5    3.60    1.90
   3   7  -5    2.60    1.50
  -3  -7   5    0.60    1.50
   2   7  -5  109.39    6.70
  -2  -7   5  112.39    7.10
   1   7  -5   96.09    6.00
  -1  -7   5   98.29    6.30
   0   7  -5    5.40    1.60
   0  -7   5    4.60    1.70
  -1   7  -5  456.75   20.90
   1  -7   5  436.76   20.70
   1  -7   5  455.95   20.70
  -2   7  -5    0.70    1.20
   2  -7   5    0.60    0.90
   2  -7   5    0.70    1.00
  -3   7  -5   11.20    2.30
   3  -7   5    9.60    1.80
   3  -7   5    6.70    2.00
  -4   7  -5    2.40    1.40
   4  -7   5    5.80    2.00
  -5   7  -5    8.70    2.30
   5  -7   5    4.50    2.10
  -6   7  -5  321.87   17.70
   6  -7   5  351.96   18.30
  -7   7  -5   16.20    3.70
   7  -7   5   23.90    4.10
   6   6  -5   38.10    4.10
   6   6  -5   30.10    4.70
  -6  -6   5   24.00    4.10
   5   6  -5    2.60    2.40
   5   6  -5    2.60    1.80
  -5  -6   5    3.20    1.80
   4   6  -5    2.70    1.90
   4   6  -5    5.90    1.90
  -4  -6   5    2.10    1.60
   3   6  -5   37.50    4.20
   3   6  -5   42.50    3.50
  -3  -6   5   41.20    3.80
   2   6  -5   65.29    4.30
   2   6  -5   63.99    4.90
  -2  -6   5   58.69    4.50
   1   6  -5  400.76   18.10
   1   6  -5  393.36   18.40
  -1  -6   5  391.96   18.40
   0   6  -5  697.03   30.70
   0   6  -5  707.13   30.40
   0  -6   5  714.23   31.10
   0  -6   5  682.43   30.80
  -1   6  -5  379.46   17.80
   1  -6   5  388.06   17.80
   1  -6   5  384.36   17.60
  -2   6  -5 4216.68  177.88
   2  -6   5 4228.78  178.08
   2  -6   5 4325.37  177.28
  -3   6  -5  265.07   13.80
   3  -6   5  288.37   12.90
   3  -6   5  272.17   14.10
  -4   6  -5  290.17   15.10
   4  -6   5  308.67   15.50
  -5   6  -5   11.40    2.50
   5  -6   5   11.80    2.50
  -6   6  -5  115.49    8.00
   6  -6   5  113.59    8.10
  -7   6  -5  151.88   10.20
   7  -6   5  160.58   10.40
   8  -6   5    2.50    2.40
   6   5  -5    0.70    1.50
  -6  -5   5   -1.00    1.50
   5   5  -5   -1.20    0.90
  -5  -5   5   -0.90    1.20
   4   5  -5  617.94   27.00
  -4  -5   5  584.54   27.60
   3   5  -5  315.57   14.20
   3   5  -5  295.37   15.30
  -3  -5   5  284.27   14.60
   2   5  -5  382.26   16.90
   2   5  -5  367.46   17.70
  -2  -5   5  359.06   17.30
   1   5  -5   50.09    3.40
   1   5  -5   47.60    3.60
  -1  -5   5   53.29    3.70
   0   5  -5   19.20    1.90
   0   5  -5   15.80    1.70
   0  -5   5   18.40    1.80
   0  -5   5   16.90    1.90
  -1   5  -5    3.10    0.80
  -1   5  -5    1.80    1.00
   1  -5   5    2.20    0.90
   1  -5   5    1.50    0.80
  -2   5  -5  121.69    6.70
  -2   5  -5  112.89    5.80
   2  -5   5  118.59    6.10
   2  -5   5  119.09    6.80
  -3   5  -5  168.48    9.00
   3  -5   5  158.48    9.10
   3  -5   5  170.78    8.00
  -4   5  -5   31.80    3.30
   4  -5   5   29.90    3.30
  -5   5  -5   19.40    2.80
   5  -5   5   23.80    3.10
  -6   5  -5   93.89    6.90
   6  -5   5  100.59    7.10
  -7   5  -5   12.70    3.00
   7  -5   5   23.10    3.50
  -8   5  -5   62.89    6.20
   8  -5   5   73.29    6.30
   7   4  -5   77.09    5.70
  -7  -4   5   70.29    7.20
  -7  -4   5   72.39    6.10
   6   4  -5   27.40    3.20
  -6  -4   5   27.20    4.40
  -6  -4   5   23.00    3.40
   5   4  -5  452.25   20.70
  -5  -4   5  447.86   21.40
   4   4  -5   52.79    3.80
  -4  -4   5   49.80    4.10
   3   4  -5   22.90    2.90
   3   4  -5   22.20    2.10
  -3  -4   5   19.70    2.40
   2   4  -5  167.48    9.30
   2   4  -5  180.18    8.50
  -2  -4   5  182.18    9.10
   1   4  -5  491.95   22.60
   1   4  -5  498.05   22.10
  -1  -4   5  514.15   21.80
  -1  -4   5  529.85   22.60
   0   4  -5  852.41   36.20
   0   4  -5  836.12   36.20
   0  -4   5  868.41   36.40
   0  -4   5  837.82   36.20
  -1   4  -5   26.40    2.30
  -1   4  -5   27.90    2.00
   1  -4   5   27.90    2.10
   1  -4   5   25.90    2.30
  -2   4  -5   72.09    4.00
  -2   4  -5   71.29    4.50
   2  -4   5   73.19    4.60
   2  -4   5   74.09    3.90
  -3   4  -5  502.65   22.30
  -3   4  -5  490.35   22.90
   3  -4   5  519.15   21.70
   3  -4   5  510.35   23.10
  -4   4  -5  339.67   15.40
  -4   4  -5  310.97   15.80
   4  -4   5  332.47   16.10
  -5   4  -5    8.50    1.90
  -5   4  -5    8.20    1.90
   5  -4   5    9.20    2.10
  -6   4  -5   93.39    6.80
   6  -4   5  103.49    6.90
  -7   4  -5  172.48   10.90
   7  -4   5  184.18   10.60
  -8   4  -5   73.39    6.80
   8  -4   5   81.89    6.40
   8   3  -5  215.08   15.10
   7   3  -5    6.70    2.00
  -7  -3   5    7.80    2.70
  -7  -3   5    8.70    2.40
   6   3  -5   36.80    3.40
  -6  -3   5   36.90    4.00
  -6  -3   5   36.10    4.60
   5   3  -5    8.60    1.60
  -5  -3   5    5.50    2.10
  -5  -3   5    4.90    1.60
   4   3  -5    7.40    1.40
  -4  -3   5    6.50    1.70
   3   3  -5  229.88   12.70
   3   3  -5  280.87   11.90
  -3  -3   5  248.78   12.30
   2   3  -5    1.20    0.80
   2   3  -5    0.70    0.60
  -2  -3   5    1.60    0.80
  -2  -3   5    2.40    0.50
   1   3  -5   64.29    4.10
   1   3  -5   67.19    3.70
  -1  -3   5   82.69    4.30
  -1  -3   5   72.99    3.60
   0   3  -5 1180.98   49.70
   0   3  -5 1204.28   49.60
   0  -3   5 1139.99   49.60
   0  -3   5 1188.68   49.70
  -1   3  -5  225.58   10.30
  -1   3  -5  224.28   10.50
   1  -3   5  232.48   10.10
   1  -3   5  215.18   10.50
  -2   3  -5  837.62   33.80
  -2   3  -5  778.92   34.10
   2  -3   5  782.92   33.20
   2  -3   5  754.02   34.20
  -3   3  -5 1269.47   50.79
  -3   3  -5 1151.98   50.99
   3  -3   5 1161.38   51.09
   3  -3   5 1180.18   49.70
  -4   3  -5  541.25   23.70
  -4   3  -5  501.05   23.80
   4  -3   5  523.55   23.80
  -5   3  -5    8.50    1.90
  -5   3  -5    5.60    1.60
   5  -3   5    7.00    1.70
  -6   3  -5   14.10    2.70
  -6   3  -5    9.50    2.30
   6  -3   5   15.30    2.40
  -7   3  -5    8.80    2.60
  -7   3  -5   12.40    2.80
   7  -3   5   11.60    2.40
  -8   3  -5   53.29    5.50
   8  -3   5   47.80    4.60
  -8  -2   5   63.79    6.70
   7   2  -5  341.27   16.70
  -7  -2   5  364.16   18.80
  -7  -2   5  321.37   17.10
   6   2  -5   73.49    5.00
  -6  -2   5   79.49    6.30
  -6  -2   5   71.49    5.40
   5   2  -5    5.00    1.30
  -5  -2   5    6.60    1.60
  -5  -2   5    5.10    1.90
   4   2  -5  147.99    7.30
  -4  -2   5  139.29    7.80
   3   2  -5  748.63   31.00
   3   2  -5  654.43   32.00
  -3  -2   5  760.02   30.70
  -3  -2   5  737.13   31.70
   2   2  -5  272.47   14.20
   2   2  -5  324.27   13.50
  -2  -2   5  328.17   13.30
  -2  -2   5  298.07   14.00
   1   2  -5  273.27   12.80
   1   2  -5  299.47   12.20
  -1  -2   5  275.47   12.60
  -1  -2   5  270.27   12.20
   0   2  -5 1138.49   48.20
   0   2  -5 1172.38   48.00
   0  -2   5 1124.39   48.20
   0  -2   5 1146.49   48.10
  -1   2  -5   91.09    4.70
  -1   2  -5   92.09    4.70
   1  -2   5   89.49    4.30
   1  -2   5   89.49    4.80
  -2   2  -5    2.70    0.80
  -2   2  -5    1.80    0.70
   2  -2   5    0.90    0.30
   2  -2   5    0.50    0.60
  -3   2  -5  348.47   16.60
  -3   2  -5  370.66   16.60
   3  -2   5  356.86   16.50
  -4   2  -5  122.39    7.20
  -4   2  -5  125.69    7.30
   4  -2   5  132.79    7.10
  -5   2  -5   64.69    4.90
  -5   2  -5   62.89    4.90
   5  -2   5   65.09    4.50
  -6   2  -5    4.90    1.90
  -6   2  -5    8.20    2.30
   6  -2   5    4.90    1.50
  -7   2  -5   56.69    5.50
  -7   2  -5   60.49    5.50
   7  -2   5   66.69    5.00
  -8   2  -5    2.00    2.10
   8  -2   5   -0.70    1.50
  -8  -1   5    0.20    1.80
   7   1  -5   -0.20    0.90
  -7  -1   5    1.30    1.40
  -7  -1   5    0.60    1.20
   6   1  -5    1.10    1.00
  -6  -1   5    1.40    1.30
  -6  -1   5    1.20    1.20
   5   1  -5   22.80    2.10
  -5  -1   5   20.00    2.40
  -5  -1   5   20.70    2.80
   4   1  -5  604.44   25.90
  -4  -1   5  597.64   26.50
  -4  -1   5  589.94   25.70
   3   1  -5   15.90    1.30
   3   1  -5   15.00    1.90
  -3  -1   5   11.30    1.20
  -3  -1   5   12.20    1.50
   2   1  -5   78.99    4.80
   2   1  -5   87.99    4.00
  -2  -1   5   83.79    4.70
  -2  -1   5   92.69    4.30
   1   1  -5  434.66   19.20
   1   1  -5  418.06   18.50
  -1  -1   5  473.35   19.00
  -1  -1   5  439.26   19.20
   0   1  -5    7.70    0.90
   0   1  -5    6.90    0.70
   0  -1   5    6.40    0.80
   0  -1   5    6.70    0.90
  -1   1  -5 2328.37   98.19
  -1   1  -5 2223.48   98.09
   1  -1   5 2364.06   98.19
   1  -1   5 2499.35   97.59
  -2   1  -5   23.40    2.10
  -2   1  -5   29.20    2.30
   2  -1   5   31.20    2.30
  -3   1  -5    7.30    1.50
   3  -1   5    7.90    1.30
  -4   1  -5  181.38    9.50
  -4   1  -5  167.68    9.50
   4  -1   5  176.68    8.90
  -5   1  -5    0.60    1.10
  -5   1  -5    1.30    1.20
   5  -1   5    2.00    1.00
  -6   1  -5  499.55   25.10
   6  -1   5  540.15   23.80
  -7   1  -5   17.50    3.80
   7  -1   5   19.50    3.70
  -8   1  -5   64.89    6.70
   8  -1   5   67.69    6.40
  -8   0   5    6.70    2.80
   7   0  -5  171.98    9.60
  -7   0   5  177.08    9.90
  -7   0   5  187.08   11.00
   6   0  -5  215.38   10.90
  -6   0   5  230.58   12.30
  -6   0   5  214.78   11.40
   5   0  -5   47.90    3.30
  -5   0   5   48.80    3.70
  -5   0   5   50.69    3.40
   4   0  -5    1.90    0.60
   4   0  -5    1.30    0.80
  -4   0   5    1.00    0.70
  -4   0   5    1.90    0.90
   3   0  -5   31.70    1.90
   3   0  -5   31.30    2.60
  -3   0   5   32.70    2.30
  -3   0   5   32.90    2.50
   2   0  -5  617.24   24.40
   2   0  -5  547.35   25.30
  -2   0   5  565.44   25.30
  -2   0   5  601.24   25.10
   1   0  -5  157.58    7.20
  -1   0   5  147.99    7.20
  -1   0   5  148.09    7.10
   0   0  -5   14.00    1.00
   0   0  -5   11.80    1.20
   0   0   5   14.40    1.10
   0   0   5   13.30    1.20
  -1   0  -5   17.70    1.50
  -1   0  -5   16.90    1.10
  -1   0  -5   18.40    1.60
   1   0   5   17.50    1.50
  -2   0  -5  815.72   36.20
  -2   0  -5  840.62   36.00
  -2   0  -5  837.72   34.70
   2   0   5  855.31   35.80
  -3   0  -5   11.00    2.00
   3   0   5   11.70    1.50
  -4   0  -5   26.90    3.10
   4   0   5   30.30    2.50
   4   0   5   29.70    3.00
  -5   0  -5  152.38    9.30
   5   0   5  151.88    8.80
   5   0   5  141.69    7.70
  -6   0  -5    5.30    2.20
   6   0   5    5.50    2.00
  -7   0  -5   75.09    6.90
   7   0   5   74.29    6.40
  -8   0  -5    9.20    3.20
   8   0   5    8.40    3.20
  -8   1   5   23.50    3.40
   7  -1  -5    1.10    0.90
  -7   1   5    0.00    1.00
   6  -1  -5  288.17   14.70
  -6   1   5  339.57   15.20
  -6   1   5  317.47   15.30
   5  -1  -5  128.59    7.30
   5  -1  -5  119.99    6.50
  -5   1   5  126.19    7.10
  -5   1   5  129.29    7.00
   4  -1  -5  177.38    9.30
  -4   1   5  186.78    9.30
  -4   1   5  193.18    9.30
   3  -1  -5  151.18    7.60
  -3   1   5  154.08    6.90
  -3   1   5  150.68    7.70
  -3   1   5  150.88    7.60
   2  -1  -5  233.68   10.70
  -2   1   5  242.78    9.90
  -2   1   5  219.78   10.80
  -2   1   5  238.68   10.80
   1  -1  -5 2857.51  119.09
  -1   1   5 2908.41  118.39
  -1   1   5 2774.52  119.09
  -1   1   5 2916.31  119.19
   0  -1  -5  172.88    8.10
   0  -1  -5  185.48    8.40
   0   1   5  175.78    8.00
   0   1   5  180.88    8.40
  -1  -1  -5  119.79    5.40
  -1  -1  -5  128.49    6.20
   1   1   5  108.79    5.70
   1   1   5  108.19    5.70
  -2  -1  -5 1147.79   48.50
  -2  -1  -5 1147.79   46.90
   2   1   5 1047.60   47.90
   2   1   5 1160.18   47.70
  -3  -1  -5  355.16   17.20
   3   1   5  340.07   16.60
   3   1   5  372.36   16.10
  -4  -1  -5   23.30    3.00
   4   1   5   16.40    1.90
   4   1   5   17.90    2.40
  -5  -1  -5   61.99    5.60
   5   1   5   70.29    5.30
  -6  -1  -5   28.50    4.30
   6   1   5   29.90    3.70
  -7  -1  -5    4.70    2.60
   7   1   5    7.20    2.50
  -8   2   5   28.00    3.30
  -7   2   5  175.08    9.60
  -7   2   5  161.28    9.30
  -6   2   5   50.59    3.70
  -6   2   5   50.79    4.00
  -6   2   5   47.20    4.00
   5  -2  -5  174.38    9.60
  -5   2   5  203.58   10.10
  -5   2   5  190.58    9.30
  -5   2   5  198.18    9.90
   4  -2  -5  451.65   21.10
  -4   2   5  470.75   21.40
  -4   2   5  487.35   21.60
  -4   2   5  501.55   20.90
   3  -2  -5    2.00    0.60
  -3   2   5    2.50    0.80
  -3   2   5    2.20    0.80
  -3   2   5    2.20    0.60
   2  -2  -5  268.07   10.50
   2  -2  -5  215.68   10.80
  -2   2   5  215.68   10.80
  -2   2   5  222.08   10.00
   1  -2  -5  941.01   41.20
   1  -2  -5  985.20   40.90
  -1   2   5  991.30   40.50
  -1   2   5  960.70   41.30
   0  -2  -5    1.00    0.50
   0  -2  -5    2.40    0.70
   0   2   5    2.90    0.70
   0   2   5    1.70    0.50
  -1  -2  -5  516.75   22.30
  -1  -2  -5  516.85   23.10
   1   2   5  545.45   22.70
   1   2   5  502.55   22.60
  -2  -2  -5  902.01   37.70
  -2  -2  -5  913.31   39.20
   2   2   5  911.91   38.20
   2   2   5  853.01   38.50
  -3  -2  -5  150.48    8.90
  -3  -2  -5  159.58    7.50
   3   2   5  152.08    8.30
   3   2   5  150.88    7.60
  -4  -2  -5    0.60    1.30
   4   2   5    3.20    1.30
   4   2   5   -0.80    0.90
  -5  -2  -5   42.30    4.60
   5   2   5   37.10    3.90
  -6  -2  -5    6.70    2.70
   6   2   5    4.20    1.90
  -7  -2  -5  226.18   15.00
   7   2   5  256.97   14.30
   8  -3  -5  392.96   19.60
  -8   3   5  416.46   20.20
   7  -3  -5   59.39    4.70
  -7   3   5   70.69    5.30
  -7   3   5   64.99    5.00
   6  -3  -5   12.20    2.10
   6  -3  -5   13.50    2.10
  -6   3   5   15.90    2.10
  -6   3   5   15.90    2.40
   5  -3  -5  328.97   15.70
   5  -3  -5  332.17   16.20
  -5   3   5  367.36   16.00
  -5   3   5  350.86   16.70
   4  -3  -5   63.99    3.60
   4  -3  -5   59.99    4.10
  -4   3   5   53.19    4.10
  -4   3   5   63.69    3.70
   3  -3  -5  395.06   18.90
   3  -3  -5  461.45   18.30
  -3   3   5  396.86   19.20
  -3   3   5  417.96   18.30
   2  -3  -5  218.28    9.60
   2  -3  -5  194.08   10.00
  -2   3   5  198.88   10.30
  -2   3   5  228.08    9.50
   1  -3  -5  158.38    7.30
   1  -3  -5  145.59    7.40
  -1   3   5  143.69    7.60
  -1   3   5  155.78    7.00
   0  -3  -5  287.87   12.80
   0   3   5  278.47   12.70
   0   3   5  284.47   13.10
  -1  -3  -5  142.89    7.80
  -1  -3  -5  149.09    7.10
   1   3   5  155.18    7.40
   1   3   5  141.09    7.30
  -2  -3  -5   69.29    4.90
  -2  -3  -5   66.29    3.70
   2   3   5   67.59    4.00
   2   3   5   62.69    4.20
  -3  -3  -5  857.81   37.80
  -3  -3  -5  857.61   39.60
   3   3   5  879.41   38.70
   3   3   5  936.71   38.10
  -4  -3  -5   32.00    4.10
   4   3   5   38.70    3.60
  -5  -3  -5   33.00    4.60
   5   3   5   39.80    4.00
  -6  -3  -5   84.59    7.80
   6   3   5   70.09    6.10
   8  -4  -5    0.80    1.20
  -8   4   5    0.00    1.40
   7  -4  -5    9.30    2.00
  -7   4   5   10.70    2.40
   6  -4  -5   32.30    3.20
  -6   4   5   37.30    3.30
  -6   4   5   38.90    3.90
   5  -4  -5   34.50    3.20
  -5   4   5   34.70    3.50
  -5   4   5   39.30    3.10
   4  -4  -5  218.88   11.00
  -4   4   5  210.28   11.40
  -4   4   5  227.98   10.60
   3  -4  -5  188.58    9.80
   3  -4  -5  216.38    9.00
  -3   4   5  192.58   10.20
  -3   4   5  188.68    9.30
   2  -4  -5   71.29    3.70
   2  -4  -5   60.19    4.10
  -2   4   5   70.69    3.80
  -2   4   5   70.29    4.60
   1  -4  -5   63.39    4.00
   1  -4  -5   67.29    3.80
  -1   4   5   66.59    4.30
  -1   4   5   63.09    3.60
   0  -4  -5 1008.80   44.80
   0  -4  -5 1061.99   44.60
   0   4   5 1078.79   44.90
   0   4   5 1033.70   44.40
  -1  -4  -5    1.10    0.70
  -1  -4  -5    2.30    1.20
   1   4   5    2.60    1.10
   1   4   5    0.60    0.80
  -2  -4  -5  187.88   10.60
  -2  -4  -5  187.98    9.30
   2   4   5  199.18    9.90
   2   4   5  198.48    9.50
  -3  -4  -5 1178.28   52.39
  -3  -4  -5 1131.09   50.79
   3   4   5 1243.48   51.39
  -4  -4  -5  167.78   10.90
   4   4   5  182.08   10.10
  -5  -4  -5   36.40    5.20
   5   4   5   40.10    4.30
  -6  -4  -5   46.40    6.10
   6   4   5   50.59    5.20
   8  -5  -5   87.79    6.30
  -8   5   5  101.39    7.40
   7  -5  -5   31.10    3.20
  -7   5   5   24.10    3.60
   6  -5  -5   31.00    3.00
  -6   5   5   25.20    3.40
  -6   5   5   29.50    3.10
   5  -5  -5    8.50    1.70
  -5   5   5    5.30    1.40
  -5   5   5    5.60    1.80
   4  -5  -5   11.20    1.90
  -4   5   5   12.00    1.80
  -4   5   5   10.10    2.10
   3  -5  -5  292.67   14.30
  -3   5   5  297.87   14.90
  -3   5   5  311.17   14.00
   2  -5  -5  137.09    7.60
  -2   5   5  144.59    8.10
  -2   5   5  155.68    7.40
   1  -5  -5   45.10    3.20
   1  -5  -5   45.40    3.30
  -1   5   5   46.80    3.70
  -1   5   5   50.89    3.20
   0  -5  -5  228.48   10.80
   0  -5  -5  203.98   10.90
   0   5   5  240.58   10.80
   0   5   5  215.98   11.00
  -1  -5  -5  414.16   20.30
  -1  -5  -5  426.36   19.50
   1   5   5  453.35   19.80
   1   5   5  436.36   19.70
  -2  -5  -5  245.68   13.50
  -2  -5  -5  255.77   12.30
   2   5   5  266.87   12.90
  -3  -5  -5  158.18    9.90
   3   5   5  151.48    8.80
  -4  -5  -5  306.37   17.40
   4   5   5  332.67   16.40
  -5  -5  -5   79.79    7.60
   5   5   5   95.89    7.00
   8  -6  -5    9.30    2.10
  -8   6   5   11.50    3.00
   7  -6  -5  350.16   17.20
  -7   6   5  354.46   18.60
   6  -6  -5    4.30    1.50
  -6   6   5    3.70    1.90
  -6   6   5    3.30    1.50
   5  -6  -5  159.58    8.60
  -5   6   5  152.18    8.50
  -5   6   5  144.69    9.20
   4  -6  -5  175.98    9.60
  -4   6   5  190.78   10.50
  -4   6   5  174.88    9.40
   3  -6  -5   93.59    5.90
  -3   6   5   97.89    6.50
  -3   6   5  100.59    5.70
   2  -6  -5  118.39    6.80
  -2   6   5  121.29    6.50
  -2   6   5  118.29    7.30
   1  -6  -5  306.17   14.50
  -1   6   5  302.47   14.20
  -1   6   5  306.07   15.00
   0  -6  -5  190.38    9.90
   0   6   5  203.48    9.90
   0   6   5  185.68   10.10
  -1  -6  -5    5.00    1.40
   1   6   5    3.80    1.40
  -2  -6  -5    4.70    1.80
  -2  -6  -5    2.80    1.20
   2   6   5    4.50    1.80
  -3  -6  -5  158.28   10.10
   3   6   5  148.09    8.90
  -4  -6  -5   17.40    3.80
   4   6   5   26.70    3.60
   8  -7  -5    0.00    1.30
  -8   7   5    1.90    2.10
   7  -7  -5   42.80    4.00
  -7   7   5   30.50    4.40
   6  -7  -5    8.20    2.00
  -6   7   5    7.00    2.40
   5  -7  -5  148.69    8.30
  -5   7   5  135.09    8.20
  -5   7   5  133.99    9.00
   4  -7  -5  113.59    7.10
  -4   7   5  122.79    7.10
  -4   7   5  116.89    7.90
   3  -7  -5  109.39    6.70
  -3   7   5  111.59    7.50
  -3   7   5  116.09    6.60
   2  -7  -5   -0.90    0.90
  -2   7   5    0.40    1.10
  -2   7   5    0.50    1.20
   1  -7  -5  102.09    6.30
  -1   7   5  103.19    6.80
  -1   7   5  109.39    6.30
   0  -7  -5   35.40    3.30
   0   7   5   32.00    3.10
  -1  -7  -5  136.59    7.90
   1   7   5  133.49    7.90
  -2  -7  -5   63.79    4.80
   2   7   5   57.89    4.80
   3   7   5    1.60    1.70
   7  -8  -5   16.40    2.70
  -7   8   5   12.80    3.20
   6  -8  -5   47.00    4.30
  -6   8   5   55.39    5.70
   5  -8  -5   -1.40    1.10
  -5   8   5    2.80    1.90
  -5   8   5   -0.10    1.40
   4  -8  -5  196.58   10.30
  -4   8   5  165.08   10.00
  -4   8   5  194.88   11.30
   3  -8  -5    0.70    1.20
  -3   8   5    2.60    1.30
  -3   8   5   -1.30    1.20
   2  -8  -5    9.00    2.10
  -2   8   5   11.70    2.70
  -2   8   5   15.20    2.60
   1  -8  -5   37.30    3.70
  -1   8   5   38.80    3.70
   0  -8  -5   -0.30    1.30
   0   8   5   -0.30    1.30
  -1  -8  -5   62.69    5.00
   1   8   5   59.49    5.10
  -2  -8  -5  292.47   15.10
   6  -9  -5   54.19    4.80
  -6   9   5   63.99    6.40
   5  -9  -5   40.50    4.00
  -5   9   5   37.70    5.00
   4  -9  -5   13.70    2.80
  -4   9   5   16.20    2.70
  -4   9   5   14.40    3.30
   3  -9  -5   93.29    6.60
  -3   9   5   95.89    7.30
  -3   9   5   97.59    6.60
   2  -9  -5    7.10    2.00
  -2   9   5    9.60    2.50
   1  -9  -5   35.40    4.00
  -1   9   5   30.40    3.90
   0  -9  -5   82.59    6.40
   0   9   5   91.09    6.50
  -1  10  -6    5.20    2.90
   1 -10   6    4.70    2.20
  -2  10  -6   16.30    3.90
   2 -10   6   19.70    3.60
   2   9  -6  240.88   13.70
  -2  -9   6  291.27   16.30
   1   9  -6   -0.10    1.80
  -1  -9   6   -0.30    1.60
   0   9  -6    0.00    1.50
   0  -9   6   -1.90    1.40
  -1   9  -6    5.80    2.40
   1  -9   6    5.70    2.20
  -2   9  -6  201.18   11.40
   2  -9   6  198.68   11.10
  -3   9  -6   25.90    3.80
   3  -9   6   34.80    4.80
   3  -9   6   33.60    4.50
  -4   9  -6    7.20    2.50
   4  -9   6    7.20    2.50
  -5   9  -6   43.60    5.00
   5  -9   6   44.80    5.20
   3   8  -6   81.09    5.80
  -3  -8   6   73.39    6.20
   2   8  -6  125.09    7.60
  -2  -8   6  112.39    7.80
   1   8  -6   18.00    2.90
  -1  -8   6   16.60    3.00
   0   8  -6    7.40    2.00
   0  -8   6    7.70    2.10
  -1   8  -6  160.48    9.20
   1  -8   6  162.18    9.10
  -2   8  -6   35.20    3.80
   2  -8   6   36.00    3.80
   2  -8   6   32.40    3.40
  -3   8  -6  149.88    9.70
   3  -8   6  181.08   10.20
   3  -8   6  168.08    9.10
  -4   8  -6   17.20    3.20
   4  -8   6   14.70    3.00
  -5   8  -6   12.30    3.00
   5  -8   6    8.30    2.80
  -6   8  -6  124.99    9.00
   6  -8   6  123.19    9.20
   5   7  -6  198.98   11.30
   5   7  -6  199.08   13.00
  -5  -7   6  222.48   13.30
   4   7  -6  123.89    9.00
   4   7  -6  126.59    7.80
  -4  -7   6  130.09    8.70
   3   7  -6   20.60    3.50
   3   7  -6   23.20    2.90
  -3  -7   6   28.20    3.60
   2   7  -6    9.40    2.00
  -2  -7   6    7.40    2.10
   1   7  -6    7.60    1.90
  -1  -7   6    8.70    2.10
   0   7  -6  267.07   13.10
   0  -7   6  263.77   13.20
  -1   7  -6    0.50    1.30
   1  -7   6    2.70    1.10
   1  -7   6    2.30    1.30
  -2   7  -6   83.49    5.60
   2  -7   6   76.69    5.00
   2  -7   6   75.89    5.50
  -3   7  -6  170.08   10.20
   3  -7   6  182.68   10.40
   3  -7   6  188.18    9.40
  -4   7  -6  643.04   30.10
   4  -7   6  651.03   30.30
  -5   7  -6   19.50    3.50
   5  -7   6   17.30    3.30
  -6   7  -6  100.89    7.60
   6  -7   6   97.29    7.80
  -7   7  -6   75.19    7.00
   7  -7   6   85.99    7.50
   6   6  -6   15.60    3.00
   6   6  -6   14.80    3.80
   5   6  -6   -1.40    1.30
   5   6  -6    0.30    1.70
  -5  -6   6    4.10    2.00
   4   6  -6   94.59    7.20
   4   6  -6   94.49    6.10
  -4  -6   6   88.29    6.70
   3   6  -6   43.60    4.50
   3   6  -6   40.00    3.50
  -3  -6   6   49.10    4.20
   2   6  -6   57.69    4.10
   2   6  -6   54.69    4.40
  -2  -6   6   53.89    4.30
   1   6  -6  756.82   32.20
   1   6  -6  730.63   32.40
  -1  -6   6  713.13   32.50
   0   6  -6    8.80    1.80
   0   6  -6    6.20    1.30
   0  -6   6    3.40    1.30
   0  -6   6    5.90    1.40
  -1   6  -6   12.80    2.20
   1  -6   6   14.70    2.00
   1  -6   6   13.00    1.90
  -2   6  -6   29.80    3.10
   2  -6   6   24.10    2.40
   2  -6   6   23.30    2.80
  -3   6  -6   89.59    6.20
   3  -6   6  101.29    5.70
   3  -6   6   91.89    6.30
  -4   6  -6  307.27   15.80
   4  -6   6  319.47   16.10
  -5   6  -6   -1.00    1.30
   5  -6   6   -0.90    1.10
  -6   6  -6  137.09    9.10
   6  -6   6  136.39    9.20
  -7   6  -6    7.60    2.60
   7  -6   6   10.60    3.00
   6   5  -6    5.10    2.50
   6   5  -6    0.50    1.60
  -6  -5   6    7.00    2.40
   5   5  -6  112.79    6.90
   5   5  -6  109.59    8.40
  -5  -5   6  127.69    8.00
   4   5  -6   80.29    5.20
   4   5  -6   88.59    6.60
  -4  -5   6   81.49    5.90
   3   5  -6   18.60    2.90
   3   5  -6   23.60    2.40
  -3  -5   6   20.50    2.60
   2   5  -6 1635.44   67.29
   2   5  -6 1564.04   68.19
  -2  -5   6 1576.34   67.99
   1   5  -6    1.30    0.90
   1   5  -6    1.20    1.00
  -1  -5   6   -0.10    0.80
   0   5  -6  953.50   40.10
   0   5  -6  966.50   40.00
   0  -5   6  859.71   40.10
   0  -5   6  949.80   40.00
  -1   5  -6   67.89    4.30
  -1   5  -6   64.89    3.80
   1  -5   6   58.29    3.90
   1  -5   6   64.69    4.20
  -2   5  -6   97.99    5.50
  -2   5  -6  121.29    6.50
   2  -5   6  106.59    6.40
   2  -5   6  105.79    5.60
  -3   5  -6   75.99    5.30
  -3   5  -6   82.19    5.50
   3  -5   6   83.09    5.50
  -4   5  -6  232.98   12.30
   4  -5   6  235.98   12.40
  -5   5  -6   27.10    3.30
   5  -5   6   24.00    3.20
  -6   5  -6    5.70    2.20
   6  -5   6    6.70    2.20
  -7   5  -6   24.30    3.80
   7  -5   6   36.30    4.20
   8  -5   6   28.30    4.40
  -7  -4   6   27.00    3.80
   6   4  -6  502.25   22.80
   6   4  -6  468.15   24.70
  -6  -4   6  505.95   23.90
   5   4  -6    2.30    1.30
   5   4  -6    3.60    1.90
  -5  -4   6    1.80    1.40
   4   4  -6    4.00    1.20
   4   4  -6    3.60    1.70
  -4  -4   6    1.80    1.40
   3   4  -6  158.78    9.30
   3   4  -6  167.68    8.20
  -3  -4   6  159.58    8.80
   2   4  -6  233.38   11.80
   2   4  -6  243.68   10.90
  -2  -4   6  222.68   11.50
   1   4  -6  194.18    9.50
   1   4  -6  193.18    9.10
  -1  -4   6  188.88    9.50
  -1  -4   6  186.38    8.80
   0   4  -6  198.58    9.60
   0   4  -6  208.08    9.70
   0  -4   6  195.78    9.50
   0  -4   6  208.48    9.80
  -1   4  -6  157.28    8.00
  -1   4  -6  164.88    7.80
   1  -4   6  156.58    8.00
   1  -4   6  153.88    7.70
  -2   4  -6  332.87   15.50
  -2   4  -6  344.07   16.10
   2  -4   6  377.16   15.40
   2  -4   6  326.17   16.10
  -3   4  -6  321.97   14.40
  -3   4  -6  303.47   14.90
   3  -4   6  300.77   14.90
  -4   4  -6   67.49    5.00
  -4   4  -6   69.39    4.70
   4  -4   6   72.39    5.10
  -5   4  -6  279.07   15.00
  -5   4  -6  299.77   14.70
   5  -4   6  307.27   15.10
  -6   4  -6   12.90    2.80
   6  -4   6   13.30    2.70
  -7   4  -6   70.19    6.10
   7  -4   6   79.69    6.10
  -8   4  -6   41.30    5.20
   8  -4   6   34.10    4.40
  -7  -3   6   17.80    3.30
   6   3  -6   55.29    4.20
  -6  -3   6   60.19    5.00
   5   3  -6    4.50    1.30
   5   3  -6    0.90    1.40
  -5  -3   6    1.30    1.20
   4   3  -6  245.48   14.00
   4   3  -6  285.67   12.80
  -4  -3   6  284.37   13.70
   3   3  -6  216.58   12.00
   3   3  -6  253.37   10.90
  -3  -3   6  231.08   11.70
   2   3  -6  114.29    6.80
   2   3  -6  130.09    6.00
  -2  -3   6  118.89    6.60
  -2  -3   6  120.49    5.70
   1   3  -6   40.60    2.90
   1   3  -6   40.50    2.50
  -1  -3   6   39.70    2.90
  -1  -3   6   40.60    2.50
   0   3  -6  312.17   13.10
   0   3  -6  274.27   13.10
   0  -3   6  291.27   13.20
   0  -3   6  284.27   13.10
  -1   3  -6   91.59    4.70
  -1   3  -6   83.39    4.70
   1  -3   6   85.89    4.80
   1  -3   6   80.39    4.40
  -2   3  -6  608.44   27.10
  -2   3  -6  632.94   26.90
   2  -3   6  636.14   26.20
   2  -3   6  585.74   27.10
  -3   3  -6  240.08   11.30
  -3   3  -6  220.28   11.40
   3  -3   6  230.78   11.50
  -4   3  -6    1.50    1.10
  -4   3  -6    2.50    1.20
   4  -3   6    2.60    1.20
  -5   3  -6  991.70   44.20
  -5   3  -6  979.30   44.30
   5  -3   6 1038.30   44.10
  -6   3  -6    5.10    2.00
  -6   3  -6    4.30    1.80
   6  -3   6    7.30    1.90
  -7   3  -6   25.60    3.80
  -7   3  -6   19.50    3.60
   7  -3   6   14.20    2.80
  -8   3  -6   16.30    3.50
   8  -3   6   13.20    2.80
  -8  -2   6   78.79    6.50
  -7  -2   6    7.00    2.20
   6   2  -6   12.60    2.00
  -6  -2   6   17.60    2.90
   5   2  -6  319.97   14.30
   5   2  -6  287.07   15.60
  -5  -2   6  307.17   15.10
   4   2  -6  195.78    8.90
   4   2  -6  173.08   10.10
  -4  -2   6  181.18    9.60
   3   2  -6   31.60    3.00
   3   2  -6   40.10    2.40
  -3  -2   6   37.10    3.00
  -3  -2   6   32.30    2.20
   2   2  -6  754.12   31.30
   2   2  -6  718.73   32.40
  -2  -2   6  723.33   32.10
  -2  -2   6  767.32   31.40
   1   2  -6 3663.33  148.99
   1   2  -6 3497.85  149.69
  -1  -2   6 3596.34  149.19
  -1  -2   6 3622.24  149.59
   0   2  -6 2218.88   91.59
   0   2  -6 2275.77   91.89
   0  -2   6 2150.78   91.69
   0  -2   6 2150.18   91.79
  -1   2  -6 2545.05  105.39
  -1   2  -6 2516.95  105.29
   1  -2   6 2461.55  104.79
   1  -2   6 2573.54  105.49
  -2   2  -6   10.30    1.50
  -2   2  -6    8.30    1.30
   2  -2   6    8.60    0.80
   2  -2   6    8.30    1.30
  -3   2  -6   26.30    2.50
  -3   2  -6   29.10    2.60
   3  -2   6   24.00    2.40
  -4   2  -6   64.99    4.70
  -4   2  -6   63.69    4.70
   4  -2   6   64.59    4.40
  -5   2  -6    6.50    1.80
  -5   2  -6    5.70    1.80
   5  -2   6    7.70    1.70
  -6   2  -6  201.48   11.70
  -6   2  -6  199.88   11.90
   6  -2   6  218.68   11.10
  -7   2  -6    5.60    2.40
  -7   2  -6    6.30    2.20
   7  -2   6    5.40    1.90
  -8   2  -6   44.80    5.70
   8  -2   6   38.20    4.90
  -8  -1   6    0.60    1.70
  -7  -1   6   32.20    3.70
   6   1  -6    0.20    0.80
  -6  -1   6    0.80    1.20
   5   1  -6  278.87   14.40
   5   1  -6  291.87   13.10
  -5  -1   6  269.07   13.80
   4   1  -6   15.50    2.20
   4   1  -6   15.00    1.40
  -4  -1   6   12.90    1.50
  -4  -1   6   12.20    1.80
   3   1  -6   10.90    1.00
   3   1  -6   12.10    1.80
  -3  -1   6   11.10    1.20
  -3  -1   6    9.70    1.50
   2   1  -6  362.76   17.50
   2   1  -6  434.96   16.60
  -2  -1   6  355.56   17.40
  -2  -1   6  400.06   17.10
   1   1  -6    8.40    0.70
   1   1  -6    7.60    1.10
  -1  -1   6    9.20    1.20
  -1  -1   6    9.70    1.10
   0   1  -6  347.37   15.70
   0   1  -6  364.56   15.30
   0  -1   6  332.77   15.60
   0  -1   6  367.86   15.50
  -1   1  -6  194.58    9.20
  -1   1  -6  197.48    9.00
   1  -1   6  194.68    8.50
   1  -1   6  181.98    9.10
  -2   1  -6    1.20    0.70
  -2   1  -6    0.20    0.50
   2  -1   6    0.50    0.50
  -3   1  -6  452.25   20.80
  -3   1  -6  442.46   20.60
   3  -1   6  459.75   20.30
  -4   1  -6   12.30    2.20
  -4   1  -6   10.70    2.10
   4  -1   6    7.90    1.50
  -5   1  -6   40.80    3.90
  -5   1  -6   41.10    4.20
   5  -1   6   41.70    3.40
  -6   1  -6   23.00    3.70
   6  -1   6   18.80    2.60
  -7   1  -6   -1.00    1.40
   7  -1   6   -0.20    1.50
  -8   1  -6   28.60    5.10
   9   0  -6   14.10    3.60
  -8   0   6  371.06   18.60
  -7   0   6    0.90    1.10
   6   0  -6    7.30    1.50
   6   0  -6    5.60    2.00
  -6   0   6    8.30    2.00
   5   0  -6   43.50    3.10
   5   0  -6   45.90    4.00
  -5   0   6   46.10    3.70
  -5   0   6   52.19    3.50
   4   0  -6   23.40    1.80
   4   0  -6   29.60    2.70
  -4   0   6   29.90    2.40
  -4   0   6   27.70    2.60
   3   0  -6  692.03   31.10
   3   0  -6  739.53   30.00
  -3   0   6  689.73   31.00
  -3   0   6  724.83   30.70
   2   0  -6  117.49    4.70
   2   0  -6  105.79    5.70
  -2   0   6  106.49    5.50
  -2   0   6  102.99    5.70
   1   0  -6  390.96   16.90
  -1   0   6  380.26   16.90
  -1   0   6  378.86   16.90
   0   0  -6    5.70    0.90
   0   0  -6    4.70    0.70
   0   0   6    5.30    0.90
   0   0   6    6.00    0.80
  -1   0  -6    3.80    0.80
  -1   0  -6    2.50    0.50
  -1   0  -6    1.70    0.70
   1   0   6    0.90    0.60
  -2   0  -6   74.99    4.80
  -2   0  -6   83.69    4.70
  -2   0  -6   78.39    3.50
   2   0   6   81.09    4.50
  -3   0  -6  164.18    8.70
   3   0   6  148.69    7.80
  -4   0  -6  512.55   24.80
   4   0   6  569.14   23.80
   4   0   6  506.65   24.40
  -5   0  -6    7.70    2.20
   5   0   6   11.10    1.80
   5   0   6   15.00    2.70
  -6   0  -6    1.50    1.70
   6   0   6    2.40    1.70
  -7   0  -6    8.80    3.00
   7   0   6   10.40    2.90
   9  -1  -6   13.30    3.40
   8  -1  -6    0.10    1.80
  -8   1   6   -0.40    1.40
   7  -1  -6  220.58   12.20
  -7   1   6  211.88   11.50
   6  -1  -6    3.10    1.50
   6  -1  -6    2.00    1.00
  -6   1   6    2.80    1.20
  -6   1   6    2.50    1.10
   5  -1  -6  172.48    9.30
   5  -1  -6  168.28    8.30
  -5   1   6  167.98    8.90
  -5   1   6  176.18    9.10
   4  -1  -6  160.48    8.10
   4  -1  -6  146.09    7.10
  -4   1   6  157.18    8.00
  -4   1   6  150.88    8.10
   3  -1  -6   44.00    3.00
  -3   1   6   41.90    3.10
  -3   1   6   43.00    3.00
   2  -1  -6 2018.60   82.49
  -2   1   6 1922.81   82.69
  -2   1   6 1973.20   82.69
   1  -1  -6   32.50    2.20
  -1   1   6   30.70    1.50
  -1   1   6   32.40    2.30
  -1   1   6   35.90    2.40
   0  -1  -6   13.10    1.40
   0  -1  -6    8.10    1.00
   0   1   6   10.20    1.00
   0   1   6   10.50    1.20
  -1  -1  -6   88.39    5.10
  -1  -1  -6   89.79    4.30
   1   1   6   84.39    4.70
   1   1   6   88.79    4.70
  -2  -1  -6   31.40    1.70
  -2  -1  -6   28.80    2.70
   2   1   6   25.80    2.20
   2   1   6   29.20    2.50
  -3  -1  -6  136.59    8.10
   3   1   6  136.89    7.10
   3   1   6  136.89    7.60
  -4  -1  -6   73.59    5.80
   4   1   6   71.69    4.50
   4   1   6   70.19    5.20
  -5  -1  -6   63.19    5.70
   5   1   6   62.99    5.20
  -6  -1  -6   23.80    3.90
   6   1   6   25.60    3.60
  -7  -1  -6  123.79    9.60
   7   1   6  110.19    8.40
   8  -2  -6    0.30    1.50
  -8   2   6    2.40    1.50
   7  -2  -6   75.69    5.80
  -7   2   6   79.99    5.60
  -7   2   6   85.29    5.80
   6  -2  -6    2.70    1.30
  -6   2   6    1.70    1.10
  -6   2   6    3.80    1.40
   5  -2  -6  111.09    6.40
  -5   2   6  108.49    6.50
  -5   2   6  114.29    5.90
  -5   2   6  102.39    6.40
   4  -2  -6  560.14   25.80
  -4   2   6  584.54   26.20
  -4   2   6  580.44   26.30
  -4   2   6  628.34   25.40
   3  -2  -6  492.45   20.90
  -3   2   6  461.55   21.30
  -3   2   6  490.85   20.30
  -3   2   6  452.75   21.20
   2  -2  -6 1605.54   64.59
   2  -2  -6 1462.15   64.99
  -2   2   6 1601.14   63.99
  -2   2   6 1485.05   65.09
   1  -2  -6   33.30    2.30
   1  -2  -6   30.10    2.40
  -1   2   6   36.20    1.90
  -1   2   6   38.40    2.70
   0  -2  -6  511.55   21.90
   0  -2  -6  487.55   21.50
   0   2   6  501.05   21.80
   0   2   6  486.85   21.30
  -1  -2  -6 1221.78   52.59
  -1  -2  -6 1256.97   51.69
   1   2   6 1256.27   52.09
   1   2   6 1183.98   51.99
  -2  -2  -6   54.59    4.20
  -2  -2  -6   50.29    2.80
   2   2   6   52.09    3.60
   2   2   6   51.89    3.40
  -3  -2  -6   95.19    6.40
   3   2   6   95.29    5.30
   3   2   6   85.49    5.60
  -4  -2  -6  188.88   11.20
   4   2   6  183.98   10.40
   4   2   6  196.58    9.80
  -5  -2  -6   -0.10    1.50
   5   2   6    0.00    1.20
  -6  -2  -6  165.38   11.40
   6   2   6  174.18   10.70
  -7  -2  -6   28.70    7.70
   7   2   6   35.50    4.70
   8  -3  -6    3.20    1.70
  -8   3   6    2.00    1.60
  -7   3   6   50.49    4.50
   6  -3  -6  526.05   23.90
  -6   3   6  528.65   24.60
   5  -3  -6  595.44   26.80
   5  -3  -6  593.24   27.40
  -5   3   6  652.83   26.80
  -5   3   6  595.94   27.70
   4  -3  -6    6.20    1.10
   4  -3  -6    1.10    0.90
  -4   3   6    0.90    0.60
  -4   3   6    1.60    1.10
   3  -3  -6  348.07   14.50
   3  -3  -6  311.27   15.20
  -3   3   6  308.67   15.30
  -3   3   6  325.97   14.30
   2  -3  -6  177.48    9.20
   2  -3  -6  204.28    8.80
  -2   3   6  174.28    8.40
  -2   3   6  189.48    9.50
   1  -3  -6  458.85   21.30
   1  -3  -6  496.55   21.20
  -1   3   6  474.25   21.60
  -1   3   6  497.35   20.70
   0  -3  -6  158.28    8.00
   0  -3  -6  150.08    7.60
   0   3   6  162.18    7.60
  -1  -3  -6   58.19    4.10
  -1  -3  -6   50.39    3.20
   1   3   6   52.99    3.50
   1   3   6   56.49    3.60
  -2  -3  -6   41.70    2.70
  -2  -3  -6   37.40    3.70
   2   3   6   43.60    3.30
   2   3   6   45.40    3.10
  -3  -3  -6   31.20    3.60
   3   3   6   23.90    2.40
   3   3   6   26.20    2.80
  -4  -3  -6   30.30    4.00
   4   3   6   34.90    3.50
  -5  -3  -6  615.24   30.60
   5   3   6  638.44   29.40
  -6  -3  -6    2.40    2.50
   6   3   6    2.10    1.90
   8  -4  -6   23.70    3.10
  -8   4   6   19.80    3.20
   7  -4  -6   19.30    2.80
  -7   4   6   20.60    3.20
   6  -4  -6   64.49    4.80
  -6   4   6   62.49    5.20
   5  -4  -6    8.80    1.90
  -5   4   6    8.00    1.60
  -5   4   6    8.80    2.00
   4  -4  -6   22.20    2.40
  -4   4   6   25.70    2.20
  -4   4   6   21.80    2.70
   3  -4  -6  207.98    9.20
   3  -4  -6  191.88   10.00
  -3   4   6  206.28    9.40
  -3   4   6  186.38   10.30
   2  -4  -6  138.59    6.60
   2  -4  -6  131.29    7.20
  -2   4   6  127.89    7.50
  -2   4   6  139.69    6.60
   1  -4  -6  758.42   31.90
   1  -4  -6  710.53   32.00
  -1   4   6  731.73   32.40
  -1   4   6  746.63   31.50
   0  -4  -6    0.20    0.60
   0  -4  -6    0.00    0.80
   0   4   6    0.10    0.60
   0   4   6   -0.40    0.70
  -1  -4  -6   80.79    4.60
  -1  -4  -6   75.39    5.30
   1   4   6   79.29    4.80
   1   4   6   81.19    4.90
  -2  -4  -6  458.05   20.80
  -2  -4  -6  454.35   22.40
   2   4   6  470.05   21.50
   2   4   6  504.45   21.40
  -3  -4  -6   19.10    3.50
   3   4   6   22.90    2.70
  -4  -4  -6    0.60    1.70
   4   4   6    0.10    1.50
  -5  -4  -6   31.70    5.00
   5   4   6   38.50    4.20
  -6  -4  -6    8.10    3.70
   6   4   6   12.70    3.60
  -9   5   6  132.69    9.40
   8  -5  -6   64.39    5.20
  -8   5   6   56.09    5.60
   7  -5  -6   36.70    3.60
  -7   5   6   25.70    3.90
   6  -5  -6    7.40    1.70
  -6   5   6   11.10    2.40
   5  -5  -6   79.89    5.40
  -5   5   6   74.39    5.40
  -5   5   6   77.59    5.80
   4  -5  -6  959.70   40.40
  -4   5   6  935.81   39.80
  -4   5   6  864.71   40.80
   3  -5  -6   97.29    5.60
  -3   5   6   87.39    5.00
  -3   5   6   78.89    5.70
   2  -5  -6 1026.90   44.70
  -2   5   6 1024.30   45.20
  -2   5   6 1054.79   44.10
   1  -5  -6  569.84   25.60
   1  -5  -6  581.54   25.80
  -1   5   6  585.94   26.20
  -1   5   6  583.24   25.30
   0  -5  -6  124.89    7.30
   0  -5  -6  128.99    6.90
   0   5   6  129.99    6.90
   0   5   6  132.19    7.40
  -1  -5  -6  314.47   15.10
  -1  -5  -6  323.97   16.10
   1   5   6  328.77   15.50
   1   5   6  337.47   15.40
  -2  -5  -6  364.26   16.80
  -2  -5  -6  353.86   18.20
   2   5   6  375.56   17.40
  -3  -5  -6    2.10    1.70
   3   5   6    2.00    1.40
  -4  -5  -6    0.30    1.90
   4   5   6    3.20    1.60
  -5  -5  -6   85.49    8.10
   5   5   6   87.39    6.90
   8  -6  -6  245.28   13.20
  -8   6   6  249.38   14.40
   7  -6  -6    1.10    1.20
  -7   6   6    2.30    2.00
   6  -6  -6   35.30    3.60
  -6   6   6   34.20    4.10
   5  -6  -6  453.25   20.60
  -5   6   6  416.96   21.30
   4  -6  -6  216.68   10.70
  -4   6   6  188.38   10.10
  -4   6   6  194.38   11.20
   3  -6  -6  273.07   13.40
  -3   6   6  263.67   12.80
  -3   6   6  277.57   14.20
   2  -6  -6  108.39    6.60
  -2   6   6  112.89    6.30
  -2   6   6  125.19    7.40
   1  -6  -6    1.20    1.00
  -1   6   6    0.40    1.20
  -1   6   6    1.80    1.10
   0  -6  -6  381.46   18.10
   0   6   6  382.16   18.60
   0   6   6  413.16   18.20
  -1  -6  -6   22.80    2.60
   1   6   6   22.70    2.80
  -2  -6  -6   24.60    2.80
  -2  -6  -6   18.30    3.20
   2   6   6   30.10    3.10
  -3  -6  -6   -0.50    1.70
   3   6   6    2.40    1.70
  -4  -6  -6   13.70    3.70
   4   6   6   10.10    2.80
   8  -7  -6  104.29    6.90
  -8   7   6   82.49    7.70
   7  -7  -6  125.39    7.90
  -7   7   6  124.59    9.20
   6  -7  -6   37.80    3.70
  -6   7   6   34.00    4.40
   5  -7  -6   55.89    4.50
  -5   7   6   43.70    4.80
   4  -7  -6   16.70    2.40
  -4   7   6   15.50    2.40
  -4   7   6   11.70    2.60
   3  -7  -6    2.20    1.20
  -3   7   6    5.50    1.60
  -3   7   6    1.90    1.50
   2  -7  -6   96.79    5.90
  -2   7   6   86.39    6.40
  -2   7   6   87.19    5.50
   1  -7  -6   15.70    2.50
  -1   7   6   12.70    2.20
  -1   7   6   11.00    2.40
   0  -7  -6  334.97   16.70
   0   7   6  361.06   16.70
  -1  -7  -6   90.29    6.20
   1   7   6  104.39    6.50
  -2  -7  -6  136.79    8.10
   2   7   6  137.79    8.40
   3   7   6   97.49    7.00
   7  -8  -6   91.59    6.50
  -7   8   6   85.19    7.50
   6  -8  -6   20.00    2.90
  -6   8   6   15.90    3.60
   5  -8  -6   20.20    2.90
  -5   8   6   21.60    3.90
   4  -8  -6   15.30    2.70
  -4   8   6   10.40    2.80
   3  -8  -6   34.00    3.40
  -3   8   6   30.50    4.00
  -3   8   6   24.20    3.00
   2  -8  -6   63.79    5.00
  -2   8   6   65.09    4.90
  -2   8   6   70.99    5.80
   1  -8  -6   61.39    4.80
  -1   8   6   52.89    4.50
   0  -8  -6   40.50    4.00
   0   8   6   45.00    4.20
  -1  -8  -6   -0.50    1.40
   1   8   6    0.10    1.50
   2   8   6   43.20    4.40
   6  -9  -6    5.30    2.00
  -6   9   6    4.10    3.00
   5  -9  -6   12.80    2.60
  -5   9   6   12.00    3.40
   4  -9  -6   62.99    5.10
  -4   9   6   51.79    5.50
   3  -9  -6    2.80    1.60
  -3   9   6    4.30    2.20
  -3   9   6    2.20    1.80
   2  -9  -6  310.97   15.60
  -2   9   6  299.97   15.40
   1  -9  -6   13.40    2.90
  -1   9   6    8.20    2.50
   0  -9  -6   88.59    6.70
   0   9   6   98.59    6.90
   2   9  -7   -0.60    1.70
   1   9  -7  187.58   10.60
  -1  -9   7  175.28   10.80
   0   9  -7    2.00    1.80
   0  -9   7    2.20    1.80
  -1   9  -7  152.38    9.30
   1  -9   7  152.78    9.20
  -2   9  -7   14.80    3.10
   2  -9   7   18.00    3.00
  -3   9  -7   80.09    6.60
  -4   9  -7  142.19    9.70
   4  -9   7  150.68    9.80
   5  -9   7   15.40    3.60
   3   8  -7   -2.50    1.20
  -3  -8   7    4.10    2.30
   2   8  -7   33.50    3.80
  -2  -8   7   31.00    4.10
   1   8  -7   11.70    2.40
  -1  -8   7   11.20    2.70
   0   8  -7  357.66   17.50
   0  -8   7  359.66   17.60
  -1   8  -7    0.70    1.40
   1  -8   7    4.70    1.80
  -2   8  -7   30.60    3.60
   2  -8   7   34.10    4.10
   2  -8   7   32.10    3.30
  -3   8  -7   17.50    3.30
   3  -8   7   18.60    3.20
  -4   8  -7   44.80    4.70
   4  -8   7   47.20    4.80
  -5   8  -7  336.07   18.50
   5  -8   7  365.06   18.80
  -6   8  -7   15.40    4.00
   6  -8   7   16.10    3.60
   4   7  -7    8.20    2.80
   4   7  -7   11.20    2.50
  -4  -7   7   19.30    3.50
   3   7  -7  101.49    6.50
   3   7  -7  107.89    7.60
  -3  -7   7  102.99    7.20
   2   7  -7   74.89    5.30
  -2  -7   7   82.49    5.90
   1   7  -7  109.39    6.70
  -1  -7   7  116.89    7.20
   0   7  -7    6.80    1.90
   0  -7   7    5.30    1.70
  -1   7  -7  206.48   10.70
   1  -7   7  179.88   10.60
   1  -7   7  205.98   10.40
  -2   7  -7  184.78   10.30
   2  -7   7  193.58   10.30
   2  -7   7  181.88    9.70
  -3   7  -7   24.90    3.30
   3  -7   7   30.50    3.40
  -4   7  -7   12.00    2.70
   4  -7   7   11.90    2.70
  -5   7  -7    6.60    2.40
   5  -7   7    6.00    2.40
  -6   7  -7   66.39    6.10
   6  -7   7   58.89    5.90
   5   6  -7    2.50    2.10
   5   6  -7    7.00    2.00
  -5  -6   7    4.40    2.40
   4   6  -7   18.20    2.80
   4   6  -7   22.90    3.60
  -4  -6   7   22.60    3.30
   3   6  -7   97.89    7.10
   3   6  -7  106.99    6.30
  -3  -6   7   98.39    6.90
   2   6  -7   -1.00    1.00
   2   6  -7    0.30    1.20
  -2  -6   7    0.20    1.10
   1   6  -7    3.60    1.30
   1   6  -7    1.40    1.10
  -1  -6   7    2.60    1.40
   0   6  -7  708.33   30.50
   0   6  -7  673.33   30.10
   0  -6   7  686.93   30.60
  -1   6  -7  111.59    6.60
   1  -6   7  111.29    6.30
   1  -6   7  107.89    6.40
  -2   6  -7   20.10    2.60
   2  -6   7   24.30    2.80
   2  -6   7   24.70    2.40
  -3   6  -7  173.38    9.80
   3  -6   7  174.58    9.80
  -4   6  -7   13.70    2.70
   4  -6   7    9.50    2.50
  -5   6  -7    4.10    1.90
   5  -6   7    5.00    2.00
  -6   6  -7   97.69    7.60
   6  -6   7  111.99    7.90
  -7   6  -7   24.10    3.90
   7  -6   7   19.80    4.10
   6   5  -7   63.59    6.50
  -6  -5   7   71.49    6.10
   5   5  -7  912.41   39.20
   5   5  -7  864.41   41.20
  -5  -5   7  896.51   40.40
   4   5  -7   58.59    5.40
   4   5  -7   64.59    4.40
  -4  -5   7   61.19    5.00
   3   5  -7  121.89    7.90
   3   5  -7  127.29    6.90
  -3  -5   7  128.89    7.70
   2   5  -7   69.89    4.40
   2   5  -7   76.49    5.20
  -2  -5   7   65.29    4.90
   1   5  -7   41.80    3.40
   1   5  -7   45.10    3.20
  -1  -5   7   41.80    3.50
   0   5  -7  178.38    9.00
   0   5  -7  177.18    8.90
   0  -5   7  190.98    9.20
   0  -5   7  167.18    8.70
  -1   5  -7   60.69    4.20
  -1   5  -7   57.99    3.70
   1  -5   7   60.09    4.10
   1  -5   7   58.19    3.90
  -2   5  -7    0.70    1.00
  -2   5  -7    2.20    0.90
   2  -5   7   -0.40    0.70
   2  -5   7    0.70    0.90
  -3   5  -7  395.46   18.30
  -3   5  -7  386.56   18.90
   3  -5   7  416.66   19.10
  -4   5  -7  115.19    7.40
   4  -5   7  118.49    7.40
  -5   5  -7   11.80    2.50
   5  -5   7   10.50    2.40
  -6   5  -7  105.59    7.80
   6  -5   7  121.69    8.00
  -7   5  -7   24.50    4.30
   7  -5   7   24.60    3.70
   7   4  -7   71.39    7.10
  -7  -4   7   73.49    6.50
   6   4  -7  184.18   12.30
  -6  -4   7  214.28   11.80
   5   4  -7   27.80    2.70
   5   4  -7   21.60    3.50
  -5  -4   7   23.30    3.20
   4   4  -7  902.61   37.20
   4   4  -7  820.22   38.90
  -4  -4   7  848.22   38.30
   3   4  -7    4.30    1.20
   3   4  -7    2.30    1.40
  -3  -4   7    3.90    1.30
   2   4  -7  193.88   10.50
   2   4  -7  217.98    9.70
  -2  -4   7  193.48   10.30
   1   4  -7   48.30    3.20
   1   4  -7   51.69    3.60
  -1  -4   7   57.19    3.80
  -1  -4   7   47.10    3.00
   0   4  -7   78.99    4.70
   0   4  -7   81.09    4.80
   0  -4   7   84.09    4.70
   0  -4   7   88.09    4.90
  -1   4  -7   65.39    4.00
  -1   4  -7   65.19    4.10
   1  -4   7   67.59    4.20
   1  -4   7   65.29    3.90
  -2   4  -7  114.99    6.10
  -2   4  -7  104.59    6.30
   2  -4   7  108.29    6.40
   2  -4   7  120.39    5.80
  -3   4  -7  342.17   16.70
  -3   4  -7  354.36   16.30
   3  -4   7  357.76   16.80
  -4   4  -7    0.50    1.00
  -4   4  -7    2.80    1.20
   4  -4   7    0.20    0.90
  -5   4  -7    0.20    1.10
  -5   4  -7   -0.40    1.10
   5  -4   7    1.20    1.30
  -6   4  -7    6.30    2.10
   6  -4   7    5.20    1.80
  -7   4  -7   53.29    5.40
   7  -4   7   66.49    5.50
   7   3  -7   20.20    4.20
  -7  -3   7   24.20    3.90
   6   3  -7   16.80    3.50
  -6  -3   7   21.90    3.30
   5   3  -7   28.30    2.60
   5   3  -7   22.70    3.40
  -5  -3   7   27.20    3.20
   4   3  -7    9.00    1.40
   4   3  -7   10.40    2.40
  -4  -3   7    7.30    1.80
   3   3  -7    1.80    1.10
   3   3  -7    0.70    0.60
  -3  -3   7   -0.30    0.90
   2   3  -7   58.09    4.10
   2   3  -7   63.19    3.40
  -2  -3   7   55.29    3.20
  -2  -3   7   59.09    4.00
   1   3  -7  340.07   15.40
   1   3  -7  343.67   14.80
  -1  -3   7  333.07   15.30
  -1  -3   7  316.37   14.80
   0   3  -7   86.99    5.20
   0   3  -7  108.99    5.20
   0  -3   7  102.59    5.30
   0  -3   7   93.29    5.20
  -1   3  -7  499.85   22.30
  -1   3  -7  518.45   22.30
   1  -3   7  496.85   21.90
   1  -3   7  512.25   22.50
  -2   3  -7   52.69    3.50
  -2   3  -7   55.19    3.70
   2  -3   7   50.09    2.90
   2  -3   7   52.59    3.70
  -3   3  -7  144.29    7.60
  -3   3  -7  135.59    7.70
   3  -3   7  136.79    7.70
  -4   3  -7 1080.79   47.00
  -4   3  -7 1036.70   46.70
   4  -3   7 1105.19   46.80
  -5   3  -7   69.79    5.50
  -5   3  -7   74.09    5.60
   5  -3   7   78.59    5.40
  -6   3  -7   52.89    5.00
  -6   3  -7   53.19    5.10
   6  -3   7   51.59    4.60
  -7   3  -7   24.00    4.00
  -7   3  -7   21.70    3.60
   7  -3   7   19.00    3.20
   8   2  -7   11.30    3.20
  -8  -2   7    8.30    2.60
   7   2  -7  163.98   10.70
  -7  -2   7  157.78    9.80
   6   2  -7   41.60    4.60
  -6  -2   7   49.50    4.40
   5   2  -7    1.50    1.20
   5   2  -7   -0.60    0.60
  -5  -2   7    0.10    0.90
   4   2  -7  128.09    8.30
   4   2  -7  153.58    7.10
  -4  -2   7  143.39    8.00
   3   2  -7  108.89    6.70
   3   2  -7  121.89    5.60
  -3  -2   7  104.19    6.40
  -3  -2   7  117.49    5.70
   2   2  -7   65.49    3.30
   2   2  -7   57.89    4.10
  -2  -2   7   65.19    4.10
  -2  -2   7   64.69    3.60
   1   2  -7   27.60    1.80
   1   2  -7   25.40    2.20
  -1  -2   7   29.10    2.20
  -1  -2   7   25.30    2.00
   0   2  -7  136.69    6.90
   0   2  -7  134.69    6.50
   0  -2   7  133.49    6.70
   0  -2   7  136.09    6.60
  -1   2  -7  177.08    8.50
  -1   2  -7  182.28    8.70
   1  -2   7  175.08    8.70
   1  -2   7  173.28    8.10
  -2   2  -7   12.80    1.70
  -2   2  -7   12.40    1.60
   2  -2   7   12.30    1.70
   2  -2   7   13.30    1.10
  -3   2  -7   11.90    1.90
  -3   2  -7   18.00    2.20
   3  -2   7   18.00    2.10
  -4   2  -7    0.60    1.00
  -4   2  -7    1.60    1.20
   4  -2   7    1.50    1.00
  -5   2  -7  148.09    9.20
  -5   2  -7  148.19    9.00
   5  -2   7  156.78    8.60
  -6   2  -7    4.20    2.00
  -6   2  -7    1.10    1.40
   6  -2   7    5.60    1.80
  -7   2  -7   67.99    6.50
   7  -2   7   71.89    5.50
   8   1  -7    0.80    1.90
  -8  -1   7   -0.10    1.40
   7   1  -7   61.99    5.90
  -7  -1   7   59.89    5.20
   6   1  -7  394.06   20.00
  -6  -1   7  405.76   19.40
   5   1  -7  523.65   22.00
   5   1  -7  470.55   22.90
  -5  -1   7  452.35   22.30
   4   1  -7   36.70    2.30
   4   1  -7   33.90    3.30
  -4  -1   7   36.90    2.60
  -4  -1   7   31.60    3.00
   3   1  -7 2316.07   89.89
   3   1  -7 2100.89   91.29
  -3  -1   7 2191.68   90.49
  -3  -1   7 2031.70   90.99
   2   1  -7  121.89    6.60
   2   1  -7  123.99    5.50
  -2  -1   7  131.59    6.20
  -2  -1   7  115.49    6.40
   1   1  -7    3.70    0.60
   1   1  -7    2.20    0.70
  -1  -1   7    6.10    1.10
  -1  -1   7    2.40    0.70
   0   1  -7   55.39    3.00
   0   1  -7   51.99    3.40
   0  -1   7   60.69    3.30
   0  -1   7   55.09    3.40
  -1   1  -7  724.03   31.00
  -1   1  -7  722.73   31.30
   1  -1   7  694.93   31.20
   1  -1   7  745.93   30.50
  -2   1  -7  218.58   10.80
  -2   1  -7  218.58   11.00
   2  -1   7  236.58   10.90
  -3   1  -7  135.89    7.90
  -3   1  -7  147.69    7.80
   3  -1   7  142.89    7.60
  -4   1  -7   52.79    4.20
  -4   1  -7   48.10    4.30
   4  -1   7   49.20    3.70
  -5   1  -7  101.19    6.80
  -5   1  -7   94.69    7.00
   5  -1   7  101.09    6.10
  -6   1  -7    5.10    2.40
   6  -1   7    7.10    1.90
   6  -1   7    7.50    2.40
  -7   1  -7    7.10    2.60
   7  -1   7    8.70    2.70
   9   0  -7  172.68   11.70
   8   0  -7   61.79    6.10
  -8   0   7   73.09    5.80
   7   0  -7   15.30    3.20
  -7   0   7   14.00    2.70
   6   0  -7  152.88    9.20
  -6   0   7  143.49    8.50
   5   0  -7   37.90    3.70
  -5   0   7   42.60    3.20
  -5   0   7   38.70    3.50
   4   0  -7   39.20    3.40
   4   0  -7   44.60    2.50
  -4   0   7   42.90    3.40
  -4   0   7   42.80    3.10
   3   0  -7   28.60    1.50
   3   0  -7   24.30    2.30
  -3   0   7   23.80    2.10
  -3   0   7   23.40    2.30
   2   0  -7   79.99    4.80
  -2   0   7   88.99    4.80
  -2   0   7   91.29    5.00
   1   0  -7  454.35   20.60
  -1   0   7  464.45   20.60
  -1   0   7  489.35   20.60
   0   0  -7  357.16   15.80
   0   0  -7  351.66   16.30
   0   0   7  391.76   16.10
   0   0   7  361.16   16.30
  -1   0  -7   41.20    2.30
  -1   0  -7   38.30    2.90
  -1   0  -7   42.20    2.70
   1   0   7   40.20    2.80
  -2   0  -7  229.98   11.40
   2   0   7  229.38   11.00
  -3   0  -7   92.09    6.10
   3   0   7   94.19    5.40
  -4   0  -7   70.49    5.70
   4   0   7   79.09    5.50
   4   0   7   80.49    4.90
  -5   0  -7  242.88   14.20
   5   0   7  267.97   12.90
   5   0   7  264.67   13.80
  -6   0  -7   66.19    6.40
   6   0   7   68.09    5.90
  -7   0  -7   16.90    4.00
   7   0   7   27.20    3.90
   9  -1  -7   21.50    4.00
   8  -1  -7    1.60    1.70
  -8   1   7    4.70    2.10
   7  -1  -7   42.50    4.30
  -7   1   7   41.90    4.00
   6  -1  -7  140.79    8.30
  -6   1   7  131.99    7.70
  -6   1   7  131.19    7.90
   5  -1  -7  650.53   29.40
  -5   1   7  632.54   29.30
  -5   1   7  679.83   29.20
   4  -1  -7   67.39    4.40
  -4   1   7   56.69    4.30
  -4   1   7   74.79    4.50
   3  -1  -7   31.30    1.60
   3  -1  -7   37.60    2.70
  -3   1   7   32.70    2.70
  -3   1   7   36.20    2.80
   2  -1  -7   84.89    4.50
  -2   1   7   81.39    4.70
  -2   1   7   75.99    4.60
   1  -1  -7  141.39    6.70
  -1   1   7  123.79    6.70
  -1   1   7  140.99    6.70
  -1   1   7  127.79    5.70
   0  -1  -7 1183.88   52.99
   0  -1  -7 1314.17   52.79
   0   1   7 1247.28   52.99
   0   1   7 1261.67   52.39
  -1  -1  -7  213.58   10.30
  -1  -1  -7  201.78    9.30
   1   1   7  205.48    9.70
   1   1   7  203.88    9.90
  -2  -1  -7    2.50    0.60
  -2  -1  -7    4.60    1.40
   2   1   7    3.90    1.10
   2   1   7    1.90    0.90
  -3  -1  -7   -0.50    0.90
   3   1   7   -0.10    0.80
   3   1   7   -0.10    0.80
  -4  -1  -7    2.70    1.60
   4   1   7    3.30    1.20
   4   1   7    2.50    1.30
  -5  -1  -7   49.99    5.20
   5   1   7   60.09    4.90
   5   1   7   44.70    4.80
  -6  -1  -7  139.39    9.90
   6   1   7  129.19    8.90
  -7  -1  -7    1.70    2.50
   7   1   7    4.80    2.30
   8  -2  -7   16.60    3.30
  -8   2   7   14.60    2.90
   7  -2  -7    5.70    1.90
  -7   2   7    5.90    1.90
  -7   2   7    4.20    1.60
   6  -2  -7   50.49    4.10
  -6   2   7   48.10    4.10
  -6   2   7   45.30    3.90
   5  -2  -7    1.00    0.90
  -5   2   7    0.80    0.90
  -5   2   7    0.40    1.00
   4  -2  -7  665.53   28.30
  -4   2   7  640.34   28.70
  -4   2   7  626.24   28.70
   3  -2  -7   32.80    2.40
  -3   2   7   31.60    2.80
  -3   2   7   30.40    1.70
  -3   2   7   26.50    2.50
   2  -2  -7    5.00    1.00
   2  -2  -7    3.40    1.10
  -2   2   7    6.20    0.60
  -2   2   7    6.40    0.60
  -2   2   7    7.00    1.40
   1  -2  -7   52.59    3.20
   1  -2  -7   47.30    3.20
  -1   2   7   46.00    2.40
  -1   2   7   46.10    3.30
   0  -2  -7  347.47   15.70
   0  -2  -7  333.17   15.30
   0   2   7  336.77   15.10
   0   2   7  356.26   15.70
  -1  -2  -7   72.59    4.00
  -1  -2  -7   77.49    4.90
   1   2   7   76.09    4.50
   1   2   7   77.39    4.40
  -2  -2  -7   30.20    2.00
  -2  -2  -7   29.50    3.10
   2   2   7   28.60    2.60
   2   2   7   28.60    2.50
  -3  -2  -7  690.83   31.50
   3   2   7  669.33   30.50
   3   2   7  693.53   30.00
  -4  -2  -7   56.89    5.40
   4   2   7   57.99    4.70
   4   2   7   61.59    4.20
  -5  -2  -7   16.70    3.70
   5   2   7   15.90    3.10
  -6  -2  -7   39.90    5.40
   6   2   7   30.50    4.20
  -8   3   7   92.89    6.80
  -7   3   7    0.50    1.20
   6  -3  -7    8.70    1.80
  -6   3   7    7.90    2.00
   5  -3  -7  242.38   11.40
   5  -3  -7  235.18   12.10
  -5   3   7  225.78   12.10
   4  -3  -7  131.29    7.80
   4  -3  -7  149.39    7.20
  -4   3   7  138.39    8.00
   3  -3  -7  116.89    7.20
   3  -3  -7  142.29    6.70
  -3   3   7  137.39    6.40
  -3   3   7  133.39    7.50
   2  -3  -7   20.80    1.90
   2  -3  -7   19.30    2.00
  -2   3   7   21.60    2.30
  -2   3   7   22.40    1.50
   1  -3  -7  145.29    7.60
   1  -3  -7  146.29    7.50
  -1   3   7  149.99    8.00
  -1   3   7  159.28    7.00
   0  -3  -7   60.79    3.80
   0  -3  -7   63.19    4.20
   0   3   7   63.59    3.70
   0   3   7   70.29    4.30
  -1  -3  -7    5.50    1.00
  -1  -3  -7    6.70    1.70
   1   3   7    4.30    1.20
   1   3   7    6.80    1.30
  -2  -3  -7    1.60    1.30
  -2  -3  -7    0.50    0.70
   2   3   7    2.40    1.20
   2   3   7   -0.40    0.70
  -3  -3  -7   16.50    3.20
   3   3   7   14.80    2.30
   3   3   7   19.20    2.30
  -4  -3  -7  295.27   16.40
   4   3   7  307.57   15.40
  -5  -3  -7   34.60    5.20
   5   3   7   36.20    4.00
  -6  -3  -7   11.80    3.70
   6   3   7   12.80    3.10
   8  -4  -7   68.79    5.60
  -8   4   7   69.59    6.00
   7  -4  -7  321.67   15.80
  -7   4   7  298.97   16.10
   6  -4  -7   63.69    4.80
  -6   4   7   54.59    4.80
   5  -4  -7    1.40    1.10
  -5   4   7    2.20    1.20
   4  -4  -7  877.11   37.00
  -4   4   7  798.12   37.10
   3  -4  -7   20.20    1.80
   3  -4  -7   14.40    2.00
  -3   4   7   17.80    1.70
  -3   4   7   16.00    2.30
   2  -4  -7  168.28    8.80
   2  -4  -7  181.18    8.40
  -2   4   7  161.28    8.00
  -2   4   7  175.58    9.30
   1  -4  -7   44.90    3.30
   1  -4  -7   42.50    3.20
  -1   4   7   49.00    3.80
  -1   4   7   46.10    2.80
   0  -4  -7    7.40    1.60
   0  -4  -7    7.50    1.40
   0   4   7    8.00    1.30
   0   4   7    8.70    1.80
  -1  -4  -7 1695.23   72.39
  -1  -4  -7 1726.93   73.69
   1   4   7 1756.92   72.99
   1   4   7 1699.13   72.69
  -2  -4  -7   38.90    3.00
  -2  -4  -7   38.60    4.00
   2   4   7   39.40    3.50
   2   4   7   41.80    3.40
  -3  -4  -7  214.38   13.00
   3   4   7  247.48   12.20
  -4  -4  -7    3.10    2.20
   4   4   7    2.70    1.70
  -5  -4  -7   76.39    7.60
   5   4   7   86.69    6.60
   8  -5  -7    2.20    1.50
  -8   5   7    1.20    1.90
   7  -5  -7   53.89    4.70
  -7   5   7   47.40    4.90
   6  -5  -7   58.49    4.70
  -6   5   7   52.59    4.90
   5  -5  -7  166.58    9.00
  -5   5   7  145.09    9.20
   4  -5  -7  103.29    6.30
  -4   5   7   95.79    6.70
   3  -5  -7  734.03   33.30
  -3   5   7  774.52   32.60
  -3   5   7  749.33   33.90
   2  -5  -7    4.50    1.30
  -2   5   7    3.80    1.50
  -2   5   7    5.40    1.20
   1  -5  -7   28.00    2.60
  -1   5   7   30.70    2.50
  -1   5   7   25.80    3.10
   0  -5  -7   45.10    3.80
   0  -5  -7   40.80    3.30
   0   5   7   48.00    3.40
   0   5   7   42.10    3.60
  -1  -5  -7    6.80    2.00
  -1  -5  -7    6.10    1.50
   1   5   7    6.00    1.70
   1   5   7    3.30    1.30
  -2  -5  -7   18.60    3.40
   2   5   7   22.30    2.70
  -3  -5  -7    8.60    2.90
   3   5   7   10.20    2.40
  -4  -5  -7  368.16   20.60
   4   5   7  402.96   19.40
  -5  -5  -7   38.50    5.80
   5   5   7   46.00    5.10
   8  -6  -7    0.40    1.40
  -8   6   7   -2.30    1.40
   7  -6  -7  121.99    8.00
  -7   6   7  134.39    9.10
   6  -6  -7  626.24   27.70
  -6   6   7  559.74   28.20
   5  -6  -7  343.27   16.70
  -5   6   7  334.47   17.50
   4  -6  -7   95.69    6.40
  -4   6   7  107.29    7.20
   3  -6  -7 1117.29   49.20
  -3   6   7 1086.49   49.90
  -3   6   7 1196.68   49.40
   2  -6  -7  383.26   17.40
  -2   6   7  344.07   16.60
  -2   6   7  372.46   18.00
   1  -6  -7    2.70    1.30
  -1   6   7    1.30    1.30
  -1   6   7    1.10    1.00
   0  -6  -7  233.18   12.00
   0   6   7  255.17   12.00
   0   6   7  240.78   12.60
  -1  -6  -7    8.40    1.80
   1   6   7   13.10    2.20
  -2  -6  -7    4.80    1.90
   2   6   7    3.30    1.50
  -3  -6  -7   -0.50    1.50
   3   6   7    0.00    1.60
  -4  -6  -7   47.60    6.00
   4   6   7   55.19    5.30
   8  -7  -7  178.78   10.60
   7  -7  -7   60.49    5.20
  -7   7   7   53.89    5.80
   6  -7  -7  393.96   18.50
  -6   7   7  341.67   19.10
   5  -7  -7   14.40    2.60
  -5   7   7   15.80    3.30
   4  -7  -7   42.60    3.90
  -4   7   7   38.00    4.40
   3  -7  -7  106.89    6.80
  -3   7   7  109.39    7.50
   2  -7  -7   30.50    3.10
  -2   7   7   24.20    3.30
  -2   7   7   26.90    2.80
   1  -7  -7   34.10    3.30
  -1   7   7   30.00    3.50
  -1   7   7   39.70    3.30
   0  -7  -7   93.89    6.10
  -1  -7  -7    2.20    1.50
   1   7   7    0.90    1.40
   2   7   7  188.18   10.70
   3   7   7   15.50    3.10
   7  -8  -7   19.90    3.10
   6  -8  -7  128.59    8.10
  -6   8   7  115.79    9.00
   5  -8  -7    0.90    1.20
  -5   8   7    0.10    1.70
   4  -8  -7   60.79    4.90
  -4   8   7   56.89    5.50
   3  -8  -7    2.80    1.50
  -3   8   7   -0.50    1.50
   2  -8  -7  187.98   10.50
  -2   8   7  174.48   11.10
  -2   8   7  220.78   12.00
   1  -8  -7   78.19    5.80
  -1   8   7   83.69    5.70
   0  -8  -7    7.00    2.10
   0   8   7    1.30    1.70
  -1  -8  -7   68.69    5.70
   1   8   7   84.19    5.90
   5  -9  -7  334.17   16.90
  -5   9   7  323.17   18.10
   4  -9  -7    5.00    1.90
  -4   9   7    6.80    2.50
   3  -9  -7   -0.90    1.40
  -3   9   7   -0.20    1.80
   2  -9  -7  164.08    9.70
   1  -9  -7    1.80    1.80
  -1   9   7    1.60    1.90
   1   9  -8  132.99    8.60
  -1  -9   8  129.79    9.00
   0   9  -8    0.50    1.70
   0  -9   8    0.90    1.80
  -1   9  -8   23.10    3.60
   1  -9   8   29.40    3.90
  -2   9  -8    0.90    1.60
   2  -9   8    2.00    2.30
  -3   9  -8  105.39    7.80
  -4   9  -8    9.70    3.00
   4  -9   8   10.30    3.10
   3   8  -8    0.80    1.80
  -3  -8   8    1.60    1.90
   2   8  -8   24.70    3.50
  -2  -8   8   26.40    3.70
   1   8  -8  333.77   16.50
  -1  -8   8  329.27   16.90
   0  -8   8   18.60    3.20
  -1   8  -8   11.60    2.60
   1  -8   8    9.90    2.40
  -2   8  -8  254.37   13.70
   2  -8   8  257.37   13.20
  -3   8  -8   77.99    6.40
   3  -8   8   84.29    6.40
  -4   8  -8   55.59    5.50
   4  -8   8   56.29    5.40
  -5   8  -8    1.80    2.10
   5  -8   8   -1.10    1.60
   4   7  -8  140.69    8.50
   4   7  -8  151.58   10.00
  -4  -7   8  146.69    9.60
   3   7  -8    1.70    1.70
   3   7  -8    3.70    1.70
  -3  -7   8    0.50    1.70
   2   7  -8    0.60    1.40
  -2  -7   8    0.60    1.50
   1   7  -8   13.00    2.40
  -1  -7   8   10.90    2.30
   0   7  -8   89.89    5.80
   0  -7   8   84.29    5.80
  -1   7  -8   68.99    5.30
   1  -7   8   83.19    5.40
   1  -7   8   78.89    6.60
  -2   7  -8  258.37   13.40
   2  -7   8  250.27   12.70
   2  -7   8  261.87   13.30
  -3   7  -8   58.09    4.90
   3  -7   8   50.19    4.60
  -4   7  -8    1.60    1.60
   4  -7   8    5.90    2.20
  -5   7  -8    0.00    1.70
   5  -7   8    4.30    2.00
  -6   7  -8    6.70    2.70
   6  -7   8    0.30    1.80
   5   6  -8    9.70    3.00
  -5  -6   8   10.80    2.90
   4   6  -8  320.07   17.20
   4   6  -8  314.17   15.40
  -4  -6   8  325.47   16.70
   3   6  -8  457.15   20.90
   3   6  -8  474.25   22.30
  -3  -6   8  429.16   21.70
   2   6  -8  341.97   16.60
   2   6  -8  342.27   15.80
  -2  -6   8  317.77   16.50
   1   6  -8    2.70    1.30
   1   6  -8    3.20    1.30
  -1  -6   8    0.70    1.10
   0   6  -8  318.47   15.00
   0   6  -8  309.67   14.70
   0  -6   8  310.77   15.10
  -1   6  -8  270.67   13.50
   1  -6   8  282.77   13.30
   1  -6   8  267.07   13.30
  -2   6  -8   76.99    5.60
   2  -6   8   85.49    5.10
   2  -6   8   84.29    5.60
  -3   6  -8   67.69    5.20
   3  -6   8   64.89    5.10
  -4   6  -8  218.18   12.20
   4  -6   8  223.68   12.20
  -5   6  -8   25.30    3.60
   5  -6   8   29.20    3.80
  -6   6  -8   16.50    3.40
   6  -6   8   10.40    2.80
   6   5  -8    1.70    2.40
  -6  -5   8    3.10    2.30
   5   5  -8   19.30    3.80
  -5  -5   8   14.70    3.10
   4   5  -8  163.08    8.80
   4   5  -8  172.18   10.40
  -4  -5   8  168.18    9.90
   3   5  -8    8.70    2.30
   3   5  -8    8.40    1.70
  -3  -5   8   11.00    2.40
   2   5  -8  112.49    6.40
   2   5  -8  123.29    7.30
  -2  -5   8  118.79    7.20
   1   5  -8  114.89    6.30
   1   5  -8  111.69    6.60
  -1  -5   8  116.19    6.80
   0   5  -8  684.53   29.20
   0   5  -8  655.83   29.10
   0  -5   8  631.54   28.90
   0  -5   8  684.63   29.40
  -1   5  -8    6.90    1.60
  -1   5  -8    5.70    1.40
   1  -5   8    5.10    1.40
   1  -5   8    8.00    1.60
  -2   5  -8   91.49    6.00
  -2   5  -8   92.59    5.50
   2  -5   8   98.19    6.00
   2  -5   8   99.39    6.00
  -3   5  -8  331.17   15.80
  -3   5  -8  346.77   16.60
   3  -5   8  335.67   16.50
  -4   5  -8   31.70    3.50
   4  -5   8   37.30    3.70
  -5   5  -8   96.39    6.90
   5  -5   8   99.69    6.90
  -6   5  -8    3.80    2.00
   6  -5   8    4.30    1.90
  -7   5  -8   34.50    4.60
   7  -5   8   50.89    5.00
   7   4  -8  332.97   19.80
  -7  -4   8  393.16   19.30
   6   4  -8    2.30    2.30
  -6  -4   8    3.10    2.10
   5   4  -8    8.20    2.70
  -5  -4   8   12.20    2.60
   4   4  -8   -0.10    1.40
   4   4  -8    1.10    1.00
  -4  -4   8    1.10    1.20
   3   4  -8  425.66   18.20
   3   4  -8  414.66   19.70
  -3  -4   8  367.36   19.10
   2   4  -8  229.18   10.60
   2   4  -8  231.08   11.60
  -2  -4   8  214.08   11.40
   1   4  -8    3.00    1.00
   1   4  -8    3.30    1.10
  -1  -4   8    2.60    1.10
  -1  -4   8    3.20    0.90
   0   4  -8   41.60    3.10
   0   4  -8   48.70    3.20
   0  -4   8   41.90    3.10
   0  -4   8   40.00    3.10
  -1   4  -8   23.20    2.30
  -1   4  -8   26.70    2.50
   1  -4   8   24.80    2.40
   1  -4   8   26.40    2.20
  -2   4  -8  376.96   17.30
  -2   4  -8  373.56   17.60
   2  -4   8  381.46   17.70
  -3   4  -8   50.29    4.10
  -3   4  -8   46.10    3.70
   3  -4   8   52.79    4.10
  -4   4  -8  342.97   17.10
  -4   4  -8  341.77   16.80
   4  -4   8  362.06   17.20
  -5   4  -8   -0.10    1.30
  -5   4  -8   -0.70    1.20
   5  -4   8    0.80    1.20
  -6   4  -8    5.70    2.00
   6  -4   8    9.70    2.30
  -7   4  -8   17.50    3.70
   7  -4   8   14.40    3.00
   7   3  -8   47.70    5.50
  -7  -3   8   44.10    5.00
   6   3  -8    2.20    1.70
  -6  -3   8    2.00    1.80
   5   3  -8    1.70    1.60
  -5  -3   8   -1.60    1.20
   4   3  -8    0.80    0.80
   4   3  -8    0.70    1.10
  -4  -3   8    0.20    0.90
   3   3  -8   53.89    4.50
   3   3  -8   60.29    3.40
  -3  -3   8   57.29    4.30
   2   3  -8  772.92   30.80
   2   3  -8  702.23   31.80
  -2  -3   8  690.63   30.80
  -2  -3   8  712.63   31.70
   1   3  -8   26.60    1.90
   1   3  -8   24.10    2.30
  -1  -3   8   19.50    2.10
  -1  -3   8   21.90    1.90
   0   3  -8   14.50    1.60
   0   3  -8   13.00    1.60
   0  -3   8   15.70    1.70
   0  -3   8   13.20    1.60
  -1   3  -8  107.59    5.80
  -1   3  -8   94.89    5.60
   1  -3   8  106.39    5.40
   1  -3   8  110.99    6.00
  -2   3  -8   78.69    4.90
  -2   3  -8   79.79    5.00
   2  -3   8   84.39    5.10
  -3   3  -8  179.18    9.60
  -3   3  -8  186.88    9.80
   3  -3   8  189.68    9.80
  -4   3  -8   67.59    5.10
  -4   3  -8   79.39    5.40
   4  -3   8   70.99    5.10
  -5   3  -8   69.89    5.60
  -5   3  -8   74.19    5.70
   5  -3   8   69.19    5.30
  -6   3  -8   29.30    3.90
  -6   3  -8   41.60    4.50
   6  -3   8   35.90    3.90
  -7   3  -8   10.00    2.90
  -7   3  -8    7.80    2.50
   7  -3   8    8.00    2.40
   8   2  -8   26.90    4.40
  -8  -2   8   17.10    3.50
   7   2  -8   17.80    3.70
  -7  -2   8   19.60    3.50
   6   2  -8    5.60    2.20
  -6  -2   8    1.30    1.60
   5   2  -8  143.19    9.00
  -5  -2   8  142.49    8.50
   4   2  -8   13.20    2.30
  -4  -2   8   10.40    2.00
   3   2  -8  266.47   11.00
   3   2  -8  235.78   12.40
  -3  -2   8  233.78   12.10
  -3  -2   8  242.88   11.30
   2   2  -8   37.40    2.20
   2   2  -8   35.40    3.00
  -2  -2   8   40.30    3.00
  -2  -2   8   31.40    2.40
   1   2  -8   91.59    4.60
   1   2  -8   84.59    5.20
  -1  -2   8  101.79    5.10
  -1  -2   8   93.09    5.20
   0   2  -8  314.47   14.20
   0   2  -8  289.87   13.60
   0  -2   8  317.37   13.90
   0  -2   8  305.17   14.00
  -1   2  -8  422.86   19.00
  -1   2  -8  409.46   18.70
   1  -2   8  440.26   19.10
   1  -2   8  415.86   18.30
  -2   2  -8  291.27   14.00
  -2   2  -8  298.57   14.20
   2  -2   8  302.07   14.10
  -3   2  -8   43.00    3.50
  -3   2  -8   44.00    3.70
   3  -2   8   40.80    3.40
  -4   2  -8    0.60    1.10
  -4   2  -8    1.00    0.90
   4  -2   8   -0.50    0.90
  -5   2  -8   17.20    3.10
  -5   2  -8   16.60    2.70
   5  -2   8   16.10    2.50
  -6   2  -8  123.69    8.20
  -6   2  -8  107.19    8.30
   6  -2   8  123.39    7.50
  -7   2  -8   13.90    3.50
   7  -2   8   17.00    2.80
   8   1  -8   72.89    6.70
  -8  -1   8   67.89    6.00
   7   1  -8   34.60    4.40
  -7  -1   8   42.30    4.40
   6   1  -8  232.28   13.00
  -6  -1   8  229.48   12.40
   5   1  -8   34.90    3.80
  -5  -1   8   33.70    3.40
   4   1  -8  357.36   16.70
  -4  -1   8  326.17   16.20
  -4  -1   8  339.97   15.60
   3   1  -8  119.09    7.10
  -3  -1   8  128.29    7.10
  -3  -1   8  139.29    6.70
   2   1  -8   75.79    3.50
   2   1  -8   65.19    4.40
  -2  -1   8   74.89    4.50
  -2  -1   8   75.89    4.30
   1   1  -8  364.46   15.50
   1   1  -8  368.96   16.50
  -1  -1   8  352.26   16.20
  -1  -1   8  360.56   16.30
   0   1  -8  168.58    7.90
   0   1  -8  174.08    8.50
   0  -1   8  169.58    8.10
   0  -1   8  167.38    8.40
  -1   1  -8  563.74   24.60
  -1   1  -8  565.04   24.20
   1  -1   8  548.25   23.70
   1  -1   8  543.65   24.50
  -2   1  -8  301.27   13.80
  -2   1  -8  289.87   14.10
   2  -1   8  287.87   13.80
  -3   1  -8  151.58    8.30
  -3   1  -8  141.19    8.50
   3  -1   8  158.18    8.10
  -4   1  -8  172.58   10.40
  -4   1  -8  190.98   10.30
   4  -1   8  195.78    9.90
  -5   1  -8   82.29    6.60
   5  -1   8   91.69    5.80
  -6   1  -8    7.00    2.80
   6  -1   8    4.50    1.60
   6  -1   8    6.50    2.20
  -7   1  -8    7.40    2.80
   7  -1   8    5.00    2.30
   8   0  -8   12.90    3.20
  -8   0   8   11.90    2.90
   7   0  -8  319.97   17.30
  -7   0   8  346.27   17.00
   6   0  -8    0.70    1.40
  -6   0   8    2.20    1.40
   5   0  -8  141.59    8.20
  -5   0   8  141.39    7.50
  -5   0   8  125.79    7.80
   4   0  -8   29.90    3.00
  -4   0   8   38.40    2.90
  -4   0   8   32.70    3.00
   3   0  -8    6.30    1.40
  -3   0   8    8.10    1.50
   2   0  -8   37.10    2.80
  -2   0   8   39.50    2.80
  -2   0   8   37.80    2.90
   1   0  -8  772.92   33.30
  -1   0   8  815.52   33.30
  -1   0   8  767.12   33.20
  -1   0   8  733.53   32.10
   0   0  -8  112.29    5.90
   0   0   8  106.69    5.40
   0   0   8  103.99    5.80
  -1   0  -8  129.29    7.20
  -1   0  -8  138.09    6.40
   1   0   8  138.19    7.10
  -2   0  -8  554.04   25.00
   2   0   8  547.55   24.50
  -3   0  -8    9.80    2.10
   3   0   8    8.90    1.90
   3   0   8   10.10    1.70
  -4   0  -8   93.29    7.00
   4   0   8  107.29    6.70
   4   0   8  101.89    6.10
  -5   0  -8   32.70    4.20
   5   0   8   30.40    3.80
   5   0   8   39.30    3.50
  -6   0  -8    1.50    2.10
   6   0   8    7.20    2.40
  -7   0  -8  148.59   10.90
   7   0   8  147.29   10.10
   9  -1  -8    7.70    3.00
  -9   1   8    7.00    2.70
   8  -1  -8   48.10    5.10
  -8   1   8   55.49    5.10
   7  -1  -8   99.49    7.00
  -7   1   8   89.59    6.60
   6  -1  -8   60.59    4.90
  -6   1   8   53.49    4.30
  -6   1   8   60.79    4.70
   5  -1  -8    4.50    1.50
  -5   1   8    5.30    1.40
  -5   1   8    3.70    1.40
   4  -1  -8  166.58    8.60
  -4   1   8  160.18    8.50
  -4   1   8  156.38    8.60
   3  -1  -8  359.16   16.50
  -3   1   8  353.66   16.80
  -3   1   8  371.06   16.70
   2  -1  -8    1.50    0.70
  -2   1   8    6.30    1.30
  -2   1   8    1.50    0.80
   1  -1  -8    2.90    1.00
  -1   1   8    2.20    0.90
  -1   1   8    2.60    0.80
  -1   1   8    3.00    0.40
   0  -1  -8   33.80    2.40
   0  -1  -8   33.00    2.60
   0   1   8   31.30    2.60
   0   1   8   33.00    2.10
  -1  -1  -8  254.97   12.70
  -1  -1  -8  285.57   11.80
   1   1   8  246.98   12.30
   1   1   8  259.67   12.10
  -2  -1  -8  119.69    7.30
   2   1   8  127.69    6.80
   2   1   8  124.99    6.80
  -3  -1  -8  309.77   16.20
   3   1   8  328.27   15.60
   3   1   8  326.67   15.20
  -4  -1  -8    5.10    2.00
   4   1   8    3.90    1.40
   4   1   8    6.40    1.70
  -5  -1  -8   13.60    3.30
   5   1   8   10.20    2.40
   5   1   8    6.30    2.80
  -6  -1  -8    2.10    2.30
   6   1   8   -0.60    1.30
  -9   2   8   11.60    2.90
   8  -2  -8   31.40    4.00
  -8   2   8   36.10    4.10
   7  -2  -8    0.10    1.20
  -7   2   8   -0.20    1.10
  -7   2   8   -0.60    1.00
   6  -2  -8   40.70    3.70
  -6   2   8   42.20    3.80
  -6   2   8   42.20    3.90
   5  -2  -8    6.10    1.50
  -5   2   8    7.10    1.80
  -5   2   8    8.30    1.80
   4  -2  -8   -0.40    0.60
  -4   2   8    0.70    0.70
  -4   2   8    0.40    0.80
   3  -2  -8  547.75   23.00
  -3   2   8  519.05   23.50
  -3   2   8  490.45   23.40
   2  -2  -8   64.99    4.10
   2  -2  -8   55.89    3.60
  -2   2   8   61.29    4.10
   1  -2  -8   79.89    4.70
   1  -2  -8   69.39    4.50
  -1   2   8   79.39    4.90
  -1   2   8   84.59    3.80
   0  -2  -8  136.89    7.20
   0  -2  -8  142.29    6.80
   0   2   8  128.09    7.10
   0   2   8  129.19    6.50
  -1  -2  -8   20.00    1.70
  -1  -2  -8   19.60    2.30
   1   2   8   16.50    2.00
   1   2   8   15.90    1.80
  -2  -2  -8  230.38   12.30
   2   2   8  231.98   11.50
   2   2   8  244.58   11.60
  -3  -2  -8    7.20    2.20
   3   2   8    5.70    1.50
   3   2   8    7.10    1.70
  -4  -2  -8   10.20    2.90
   4   2   8    9.70    1.90
   4   2   8    8.00    2.00
  -5  -2  -8   82.69    7.50
   5   2   8   91.89    6.70
  -6  -2  -8   16.50    4.00
   6   2   8    8.50    2.70
   9  -3  -8   -0.10    1.50
  -8   3   8  167.08   10.30
  -7   3   8    1.00    1.30
   6  -3  -8  123.89    6.90
  -6   3   8  105.69    7.20
   5  -3  -8    0.10    0.80
   5  -3  -8    0.20    0.90
  -5   3   8    0.20    1.00
   4  -3  -8    5.80    1.30
   4  -3  -8    8.00    1.80
  -4   3   8    6.10    1.70
   3  -3  -8    1.50    0.90
   3  -3  -8    0.80    0.80
  -3   3   8    1.10    1.00
   2  -3  -8  196.08    9.80
   2  -3  -8  199.18    9.40
  -2   3   8  181.58    9.90
   1  -3  -8  765.82   33.60
   1  -3  -8  795.22   33.60
  -1   3   8  790.72   34.10
  -1   3   8  747.43   32.70
   0  -3  -8   59.79    4.20
   0  -3  -8   57.09    3.60
   0   3   8   54.89    4.00
   0   3   8   59.99    3.50
  -1  -3  -8  403.56   18.20
  -1  -3  -8  411.36   19.50
   1   3   8  416.66   18.60
   1   3   8  412.86   18.90
  -2  -3  -8   -0.10    1.30
   2   3   8    0.00    0.90
   2   3   8   -0.60    0.80
  -3  -3  -8  108.59    7.80
   3   3   8  114.29    6.80
   3   3   8  105.79    6.40
  -4  -3  -8    8.40    2.80
   4   3   8   10.10    2.40
  -5  -3  -8   26.90    5.00
   5   3   8   37.80    4.40
   9  -4  -8    0.70    1.70
   8  -4  -8   16.70    3.30
  -8   4   8   18.60    3.50
   7  -4  -8   50.29    4.70
  -7   4   8   43.70    4.60
   6  -4  -8    6.60    2.00
  -6   4   8    8.90    2.20
   5  -4  -8  448.96   21.20
  -5   4   8  445.16   21.50
   4  -4  -8   70.69    5.10
  -4   4   8   70.89    5.30
   3  -4  -8   51.59    4.00
   3  -4  -8   57.29    3.60
  -3   4   8   52.29    4.30
   2  -4  -8  143.09    7.00
   2  -4  -8  122.69    7.20
  -2   4   8  127.59    7.70
   1  -4  -8   36.00    3.00
   1  -4  -8   39.10    3.00
  -1   4   8   32.10    3.20
  -1   4   8   33.60    2.40
   0  -4  -8  494.75   23.00
   0  -4  -8  502.95   22.40
   0   4   8  505.65   22.20
   0   4   8  506.05   23.00
  -1  -4  -8   24.30    3.10
  -1  -4  -8   15.90    1.90
   1   4   8   19.10    2.10
   1   4   8   17.90    2.30
  -2  -4  -8   10.30    2.70
   2   4   8   14.30    2.20
   2   4   8   11.50    2.10
  -3  -4  -8  228.48   13.40
   3   4   8  235.48   12.20
  -4  -4  -8    1.00    2.20
   4   4   8   -0.70    1.30
  -5  -4  -8    4.30    2.70
   5   4   8    0.20    1.90
   8  -5  -8   30.30    3.80
  -8   5   8   25.80    4.20
   7  -5  -8   20.30    3.10
  -7   5   8   24.60    3.60
   6  -5  -8   27.20    3.30
  -6   5   8   29.20    3.80
   5  -5  -8    8.20    2.00
  -5   5   8    3.80    1.80
   4  -5  -8   42.90    3.70
  -4   5   8   33.00    3.70
   3  -5  -8  200.98   10.40
  -3   5   8  193.58   10.90
   2  -5  -8   75.49    4.90
  -2   5   8   65.59    5.20
   1  -5  -8 1058.69   46.10
   1  -5  -8 1090.99   46.50
  -1   5   8 1050.59   45.40
  -1   5   8 1072.49   46.80
   0  -5  -8   -0.60    1.10
   0  -5  -8    0.80    0.90
   0   5   8   -0.70    1.10
   0   5   8   -0.20    0.90
  -1  -5  -8   13.90    1.90
  -1  -5  -8   11.30    2.50
   1   5   8   10.70    2.20
   1   5   8    8.00    1.80
  -2  -5  -8    7.60    2.40
   2   5   8    7.40    1.90
  -3  -5  -8  288.57   16.90
   3   5   8  329.87   15.80
  -4  -5  -8   42.80    5.60
   4   5   8   37.50    4.40
   8  -6  -8    1.40    1.50
  -8   6   8    1.30    1.90
   7  -6  -8  519.75   24.50
  -7   6   8  498.55   25.30
   6  -6  -8   75.99    5.90
  -6   6   8   77.79    6.50
   5  -6  -8   64.59    5.00
  -5   6   8   55.79    5.50
   4  -6  -8    8.50    2.10
  -4   6   8   13.20    2.80
   3  -6  -8  205.98   11.10
  -3   6   8  212.18   11.80
   2  -6  -8    5.20    1.60
  -2   6   8    2.90    1.60
   1  -6  -8  180.98    9.60
  -1   6   8  189.88    9.30
  -1   6   8  172.88   10.20
   0  -6  -8  150.08    8.30
   0   6   8  149.09    8.90
   0   6   8  149.88    8.10
  -1  -6  -8   76.79    5.30
   1   6   8   85.19    5.50
  -2  -6  -8  157.98   10.70
   2   6   8  162.48    9.20
  -3  -6  -8    0.90    1.60
   3   6   8    0.30    1.40
   7  -7  -8   74.69    6.00
   6  -7  -8    2.10    1.70
  -6   7   8    3.90    2.20
   5  -7  -8   67.49    5.30
  -5   7   8   66.29    6.10
   4  -7  -8  332.87   16.20
  -4   7   8  312.27   17.00
   3  -7  -8    0.00    1.20
  -3   7   8    0.30    1.40
   2  -7  -8   25.00    2.90
  -2   7   8   19.80    3.50
   1  -7  -8  109.99    6.90
  -1   7   8  108.29    7.50
   0  -7  -8    1.70    1.40
   0   7   8   -0.10    1.10
  -1  -7  -8  184.38   10.10
   2   7   8    6.50    2.40
   6  -8  -8    2.50    1.70
  -6   8   8    4.30    2.30
   5  -8  -8   35.10    3.80
  -5   8   8   24.30    4.20
   4  -8  -8   27.60    3.50
  -4   8   8   32.70    4.30
   3  -8  -8   77.59    5.70
  -3   8   8   65.39    6.00
   2  -8  -8  161.98    9.00
  -2   8   8  132.19    9.20
   1  -8  -8    9.40    2.30
   0  -8  -8  375.86   18.40
   1   8   8    0.40    1.60
   4  -9  -8    6.10    2.10
  -4   9   8    4.90    2.70
   3  -9  -8  105.59    7.30
   2  -9  -8    2.70    1.70
   1   9  -9  137.59    8.50
  -1  -9   9  108.69    8.50
   0   9  -9   80.19    6.30
   0  -9   9   87.59    6.80
  -1   9  -9  141.99    9.20
   1  -9   9  139.19    9.00
  -2   9  -9    6.30    2.40
  -3   9  -9   39.90    4.90
   3   8  -9   18.60    4.40
  -3  -8   9   18.40    5.40
   2   8  -9    4.30    2.20
  -2  -8   9    4.90    2.20
   1   8  -9    7.50    2.30
  -1  -8   9    4.20    2.10
   0   8  -9  265.87   13.90
   0  -8   9  266.57   14.10
  -1   8  -9  148.49    9.20
   1  -8   9  160.98    9.30
  -2   8  -9    2.90    1.60
  -3   8  -9   56.09    5.30
   3  -8   9   59.19    5.30
  -4   8  -9   31.90    4.20
   4  -8   9   35.50    4.20
  -5   8  -9   73.99    6.70
   5  -8   9   77.69    6.70
  -4  -7   9  131.09    9.00
   3   7  -9   11.80    2.90
   3   7  -9   15.00    2.90
  -3  -7   9   13.50    3.10
   2   7  -9  252.27   16.90
   2   7  -9  291.57   14.10
  -2  -7   9  285.17   14.80
   1   7  -9   -0.40    1.20
  -1  -7   9    1.70    1.50
   0   7  -9   -1.60    1.20
   0  -7   9    0.50    1.20
  -1   7  -9  201.58   10.80
   1  -7   9  194.48   10.60
  -2   7  -9    5.90    1.90
   2  -7   9    5.00    1.60
  -3   7  -9   28.10    3.50
   3  -7   9   28.50    3.40
  -4   7  -9  188.18   11.50
   4  -7   9  206.08   11.60
  -5   7  -9    0.80    1.60
   5  -7   9    2.30    1.90
  -6   7  -9  113.29    8.80
   5   6  -9   -0.50    2.00
  -5  -6   9   -0.10    1.70
   4   6  -9   30.80    4.30
  -4  -6   9   29.60    3.90
   3   6  -9    2.10    1.50
   3   6  -9    2.90    1.90
  -3  -6   9    3.90    1.80
   2   6  -9  286.57   14.00
   2   6  -9  285.57   14.70
  -2  -6   9  300.17   15.00
   1   6  -9  209.38   11.00
   1   6  -9  220.28   10.90
  -1  -6   9  205.08   11.20
   0   6  -9   29.50    2.80
   0  -6   9   32.00    3.10
  -1   6  -9  135.49    7.80
   1  -6   9  136.99    7.50
   1  -6   9  120.09    7.30
  -2   6  -9    7.20    2.00
   2  -6   9    5.60    1.70
  -3   6  -9  162.48    9.60
   3  -6   9  165.88    9.50
  -4   6  -9   70.39    5.90
   4  -6   9   81.39    6.00
  -5   6  -9  248.28   13.80
   5  -6   9  243.38   13.60
  -6   6  -9   92.79    7.50
   6  -6   9   96.29    7.40
   6   5  -9  102.29    8.30
  -6  -5   9   88.59    7.40
   5   5  -9   -1.50    1.40
  -5  -5   9    0.00    1.40
   4   5  -9  130.59    8.80
  -4  -5   9  120.59    8.20
   3   5  -9   45.20    4.30
   3   5  -9   44.60    3.70
  -3  -5   9   46.50    4.30
   2   5  -9   58.09    4.00
   2   5  -9   64.29    4.80
  -2  -5   9   60.59    4.70
   1   5  -9  117.69    6.70
   1   5  -9  112.49    6.20
  -1  -5   9  100.19    6.50
   0   5  -9    9.90    1.90
   0   5  -9   10.30    1.80
   0  -5   9    9.60    1.90
   0  -5   9   12.40    1.80
  -1   5  -9   32.80    3.00
  -1   5  -9   25.60    2.60
   1  -5   9   32.10    2.90
   1  -5   9   31.50    2.80
  -2   5  -9  764.42   34.10
  -2   5  -9  785.72   34.70
   2  -5   9  790.92   34.70
  -3   5  -9  143.19    8.50
  -3   5  -9  144.29    8.00
   3  -5   9  150.38    8.60
  -4   5  -9   14.80    2.80
   4  -5   9   14.40    2.50
  -5   5  -9    2.80    1.80
   5  -5   9    4.20    1.80
  -6   5  -9    1.70    1.70
   6  -5   9    1.10    1.80
   7  -5   9  176.88   12.90
   7   4  -9   98.99    9.70
  -7  -4   9   90.39    7.60
   6   4  -9   11.20    3.20
  -6  -4   9    8.20    2.50
   5   4  -9    5.10    2.30
  -5  -4   9    3.10    2.00
   4   4  -9  859.51   38.20
  -4  -4   9  811.52   37.60
   3   4  -9   49.30    4.50
  -3  -4   9   59.39    4.60
   2   4  -9  390.36   16.80
   2   4  -9  364.16   17.70
  -2  -4   9  358.16   17.60
   1   4  -9   65.29    4.40
   1   4  -9   66.49    4.00
  -1  -4   9   57.89    3.80
  -1  -4   9   60.29    4.30
   0   4  -9  130.39    7.30
   0   4  -9  150.78    7.30
   0  -4   9  138.99    7.40
   0  -4   9  128.29    7.20
  -1   4  -9   23.00    2.40
  -1   4  -9   24.30    2.40
   1  -4   9   20.20    2.30
   1  -4   9   21.90    2.10
  -2   4  -9    3.50    1.20
  -2   4  -9    5.20    1.50
   2  -4   9    2.10    1.20
  -3   4  -9   24.50    2.90
  -3   4  -9   25.50    2.80
   3  -4   9   27.30    2.90
  -4   4  -9   -0.60    0.90
  -4   4  -9    0.70    1.00
   4  -4   9    0.20    1.00
  -5   4  -9    9.00    2.40
  -5   4  -9    9.30    2.40
   5  -4   9   12.30    2.50
  -6   4  -9   12.40    3.10
   6  -4   9   18.30    3.10
  -7   4  -9   62.79    6.10
   7  -4   9   65.39    5.70
   7   3  -9   17.40    3.90
  -7  -3   9   18.80    3.60
   6   3  -9    1.90    1.90
  -6  -3   9    5.40    2.20
   5   3  -9  111.89    8.00
  -5  -3   9  117.49    7.60
   4   3  -9    5.20    1.80
  -4  -3   9    3.40    1.50
   3   3  -9  155.18    8.80
  -3  -3   9  147.29    8.50
   2   3  -9    0.90    0.70
   2   3  -9    0.70    0.80
  -2  -3   9    1.50    1.00
  -2  -3   9    1.50    0.70
   1   3  -9  274.67   12.20
   1   3  -9  259.07   12.80
  -1  -3   9  268.57   12.50
  -1  -3   9  266.97   12.80
   0   3  -9  636.34   28.40
   0   3  -9  647.84   28.80
   0  -3   9  663.43   28.60
   0  -3   9  679.93   28.80
  -1   3  -9    0.10    0.70
  -1   3  -9    0.50    0.70
   1  -3   9    1.10    0.80
   1  -3   9    0.80    0.70
  -2   3  -9   15.90    2.00
  -2   3  -9   16.90    2.20
   2  -3   9   17.80    2.20
  -3   3  -9    3.50    1.40
  -3   3  -9    5.60    1.60
   3  -3   9    3.90    1.50
  -4   3  -9  317.97   16.10
  -4   3  -9  318.37   16.20
   4  -3   9  338.67   16.10
  -5   3  -9  121.89    7.80
  -5   3  -9  107.99    7.70
   5  -3   9  117.79    7.40
  -6   3  -9  206.98   12.20
  -6   3  -9  194.88   12.30
   6  -3   9  225.38   11.80
  -7   3  -9   39.80    5.10
  -7   3  -9   33.20    4.50
   7  -3   9   37.40    4.50
   8   2  -9   97.29    8.60
  -8  -2   9  102.19    7.80
   7   2  -9   30.00    4.30
  -7  -2   9   31.20    4.20
   6   2  -9  212.88   12.20
  -6  -2   9  190.58   11.40
   5   2  -9   55.89    5.00
  -5  -2   9   56.49    4.70
   4   2  -9  239.68   12.50
  -4  -2   9  229.08   12.10
   3   2  -9  486.55   22.90
  -3  -2   9  492.05   22.80
  -3  -2   9  512.75   22.00
   2   2  -9   11.90    1.80
  -2  -2   9   11.70    1.70
  -2  -2   9   10.70    1.50
   1   2  -9    2.20    0.90
   1   2  -9    3.10    0.80
  -1  -2   9    1.90    0.90
  -1  -2   9    2.60    0.90
   0   2  -9  429.06   19.10
   0   2  -9  433.36   19.70
   0  -2   9  459.25   19.70
   0  -2   9  426.76   19.30
  -1   2  -9   10.00    1.40
  -1   2  -9   12.00    1.70
   1  -2   9   12.30    1.70
   1  -2   9   10.90    1.30
  -2   2  -9  233.08   11.50
  -2   2  -9  230.28   11.70
   2  -2   9  241.98   11.70
  -3   2  -9  328.27   16.70
  -3   2  -9  360.16   16.70
   3  -2   9  352.86   16.60
  -4   2  -9   40.30    3.80
  -4   2  -9   39.00    4.10
   4  -2   9   48.30    3.90
  -5   2  -9  338.77   16.90
  -5   2  -9  323.77   17.20
   5  -2   9  327.07   16.20
  -6   2  -9  103.69    8.00
  -6   2  -9  101.39    7.60
   6  -2   9  105.49    7.10
  -7   2  -9  245.88   14.60
   7  -2   9  237.48   12.70
   7  -2   9  214.38   13.40
   8   1  -9    0.80    1.80
  -8  -1   9    1.00    1.80
   7   1  -9   48.90    5.10
  -7  -1   9   39.60    4.50
   6   1  -9   30.80    3.90
  -6  -1   9   28.80    3.40
   5   1  -9  116.09    7.50
  -5  -1   9  103.59    6.90
   4   1  -9   -1.10    0.80
  -4  -1   9    0.70    0.80
  -4  -1   9   -0.30    0.60
   3   1  -9  288.57   13.90
  -3  -1   9  292.77   13.30
  -3  -1   9  272.77   13.80
   2   1  -9  807.22   35.50
  -2  -1   9  819.02   35.50
  -2  -1   9  822.92   35.20
   1   1  -9  232.68   10.10
   1   1  -9  220.68   10.90
  -1  -1   9  227.58   10.80
  -1  -1   9  213.68   10.70
   0   1  -9  175.88    8.80
   0   1  -9  164.38    8.00
   0  -1   9  172.58    8.70
   0  -1   9  174.58    8.30
  -1   1  -9   40.10    2.80
  -1   1  -9   31.90    2.90
   1  -1   9   42.40    3.10
   1  -1   9   36.60    2.40
  -2   1  -9   57.19    3.80
  -2   1  -9   50.29    4.00
   2  -1   9   52.49    3.80
  -3   1  -9  142.99    7.80
  -3   1  -9  127.59    8.10
   3  -1   9  137.99    7.60
  -4   1  -9    1.70    1.70
  -4   1  -9    0.90    1.20
   4  -1   9    3.10    1.40
  -5   1  -9   72.49    6.30
   5  -1   9   73.79    5.30
  -6   1  -9   69.19    6.50
   6  -1   9   67.79    5.20
   6  -1   9   66.89    6.00
  -7   1  -9   95.79    8.50
   7  -1   9   88.29    7.30
   8   0  -9   -0.90    1.70
  -8   0   9    1.60    1.70
   7   0  -9   31.80    4.20
  -7   0   9   21.30    3.40
   6   0  -9    4.00    1.80
  -6   0   9    3.80    1.60
   5   0  -9   14.70    2.70
  -5   0   9   16.60    2.40
  -5   0   9   15.20    2.20
   4   0  -9   47.80    3.90
  -4   0   9   48.90    3.60
  -4   0   9   44.10    3.70
   3   0  -9   30.80    2.80
  -3   0   9   33.90    2.80
  -3   0   9   31.30    2.90
   2   0  -9  126.59    6.70
  -2   0   9  109.89    6.40
  -2   0   9  130.89    6.80
   1   0  -9    0.70    0.60
  -1   0   9    1.40    0.80
  -1   0   9    2.00    0.90
   0   0  -9   13.30    1.70
   0   0   9   10.90    1.20
   0   0   9    9.20    1.50
   0   0   9   13.20    1.40
  -1   0  -9 1167.98   51.99
  -1   0  -9 1234.48   50.99
   1   0   9 1233.48   51.89
  -2   0  -9  240.98   11.80
   2   0   9  231.38   11.30
   2   0   9  209.78   11.00
  -3   0  -9   22.20    3.20
   3   0   9   25.90    2.60
   3   0   9   22.00    2.60
  -4   0  -9    2.20    1.60
   4   0   9    3.80    1.50
   4   0   9    3.40    1.50
  -5   0  -9   10.30    3.10
   5   0   9   10.00    2.20
   5   0   9   13.80    2.70
  -6   0  -9  166.88   11.70
   6   0   9  174.58   10.80
   8  -1  -9   17.60    3.50
  -8   1   9   23.20    3.40
   7  -1  -9   86.09    6.60
  -7   1   9   93.89    6.60
   6  -1  -9    0.60    1.20
  -6   1   9    1.50    1.20
  -6   1   9    2.50    1.40
   5  -1  -9  409.36   19.40
  -5   1   9  405.06   19.50
  -5   1   9  417.76   19.30
   4  -1  -9   12.20    1.90
  -4   1   9    9.90    1.70
  -4   1   9   10.90    2.00
   3  -1  -9  141.39    7.60
  -3   1   9  139.49    7.80
  -3   1   9  154.08    8.00
   2  -1  -9  197.58    9.80
  -2   1   9  198.68   10.00
  -2   1   9  200.08    9.90
   1  -1  -9   20.50    2.20
  -1   1   9   20.50    2.10
   0  -1  -9   23.40    2.00
   0  -1  -9   24.90    2.40
   0   1   9   20.60    2.20
   0   1   9   23.80    1.80
  -1  -1  -9   16.50    1.50
  -1  -1  -9   14.80    2.00
   1   1   9   13.60    1.90
   1   1   9   15.50    1.70
  -2  -1  -9   59.99    4.80
   2   1   9   63.89    4.30
   2   1   9   67.99    4.40
  -3  -1  -9    1.20    1.40
   3   1   9    2.10    1.30
   3   1   9    5.30    1.50
  -4  -1  -9   48.00    5.00
   4   1   9   51.19    4.40
   4   1   9   48.00    4.00
  -5  -1  -9    5.10    2.30
   5   1   9    4.10    2.00
  -6  -1  -9   16.30    4.00
   6   1   9   26.30    4.00
  -9   2   9   33.90    4.50
   8  -2  -9   30.20    4.00
  -8   2   9   35.70    4.20
   7  -2  -9    5.80    1.90
  -7   2   9    7.00    2.20
  -7   2   9    8.50    2.30
   6  -2  -9  388.96   18.00
  -6   2   9  356.26   18.10
  -6   2   9  373.06   18.30
   5  -2  -9   29.70    2.90
  -5   2   9   37.00    3.50
  -5   2   9   30.60    3.20
   4  -2  -9  211.38   10.20
  -4   2   9  190.78   10.60
  -4   2   9  209.38   10.80
   3  -2  -9   47.70    3.40
  -3   2   9   45.60    3.70
   2  -2  -9   11.50    1.70
   2  -2  -9   10.70    1.90
  -2   2   9   11.00    1.80
   1  -2  -9 1177.68   49.30
   1  -2  -9 1150.08   49.30
  -1   2   9 1125.79   49.50
   0  -2  -9    0.40    0.60
   0  -2  -9    0.30    0.80
   0   2   9    0.90    0.80
   0   2   9    2.80    0.80
  -1  -2  -9   59.59    4.50
  -1  -2  -9   55.09    3.50
   1   2   9   66.39    4.00
   1   2   9   62.29    4.20
  -2  -2  -9    4.80    1.70
   2   2   9    4.90    1.40
   2   2   9    3.20    1.20
  -3  -2  -9   17.40    3.10
   3   2   9   16.30    2.40
   3   2   9   19.60    2.60
  -4  -2  -9   90.29    7.30
   4   2   9   92.39    6.40
   4   2   9   88.29    5.80
  -5  -2  -9   13.40    3.80
   5   2   9   22.00    3.30
  -6  -2  -9   52.19    8.90
   6   2   9   50.89    5.50
   9  -3  -9    4.50    2.30
  -8   3   9    3.60    2.00
  -7   3   9  120.49    8.00
   6  -3  -9   87.29    5.60
  -6   3   9   78.69    6.00
   5  -3  -9   52.79    4.60
   5  -3  -9   63.39    4.10
  -5   3   9   57.59    4.70
   4  -3  -9   66.49    5.00
   4  -3  -9   69.99    4.30
  -4   3   9   69.29    5.10
   3  -3  -9  106.99    6.60
   3  -3  -9  113.79    6.10
  -3   3   9  109.89    6.80
   2  -3  -9    4.40    1.20
   2  -3  -9    4.80    1.30
  -2   3   9    3.10    1.30
   1  -3  -9    6.60    1.40
   1  -3  -9    8.50    1.50
  -1   3   9    5.40    1.50
   0  -3  -9  134.19    7.50
   0  -3  -9  123.19    6.80
   0   3   9  134.79    7.50
   0   3   9  133.89    6.70
  -1  -3  -9   80.39    4.80
  -1  -3  -9   98.49    6.20
   1   3   9   87.09    5.10
   1   3   9   86.99    5.60
  -2  -3  -9  314.67   16.90
   2   3   9  343.97   16.00
   2   3   9  344.47   16.10
  -3  -3  -9   54.19    5.50
   3   3   9   63.69    4.90
   3   3   9   65.09    4.70
  -4  -3  -9    1.80    2.10
   4   3   9    4.40    1.90
  -5  -3  -9   68.19    7.00
   5   3   9   73.99    6.10
   8  -4  -9   43.40    4.70
  -8   4   9   53.29    5.30
   7  -4  -9    6.50    2.10
  -7   4   9    7.50    2.30
   6  -4  -9   16.20    3.00
  -6   4   9   19.00    3.00
   5  -4  -9    5.80    1.80
  -5   4   9    6.00    2.00
   4  -4  -9  210.28   11.10
  -4   4   9  198.08   11.20
   3  -4  -9  551.24   23.10
   3  -4  -9  500.45   23.80
  -3   4   9  499.05   24.20
   2  -4  -9   79.89    5.00
   2  -4  -9   71.89    4.60
  -2   4   9   75.99    5.40
   1  -4  -9   10.30    1.80
   1  -4  -9    6.50    1.40
  -1   4   9    6.80    1.80
   0  -4  -9   52.29    3.80
   0  -4  -9   56.69    4.40
   0   4   9   57.09    4.40
   0   4   9   56.09    3.60
  -1  -4  -9    3.00    1.10
  -1  -4  -9    2.90    1.60
   1   4   9    2.90    1.50
   1   4   9    1.30    1.00
  -2  -4  -9  108.59    7.70
   2   4   9  108.99    6.60
  -3  -4  -9   87.59    7.30
   3   4   9   92.29    6.20
  -4  -4  -9    8.20    2.90
   4   4   9    3.90    2.10
   8  -5  -9   13.40    3.00
  -8   5   9   18.40    3.60
   7  -5  -9   12.40    2.90
  -7   5   9   12.10    2.90
   6  -5  -9   -0.80    1.00
  -6   5   9    0.60    1.50
   5  -5  -9   34.70    3.60
  -5   5   9   39.00    4.20
   4  -5  -9    1.00    1.20
  -4   5   9    0.60    1.30
   3  -5  -9  200.98   10.60
  -3   5   9  191.78   11.10
   2  -5  -9  168.48    9.30
  -2   5   9  181.98   10.10
   1  -5  -9   25.80    2.60
   1  -5  -9   23.00    3.90
  -1   5   9   21.40    2.90
   0  -5  -9   35.80    3.70
   0  -5  -9   34.70    3.10
   0   5   9   36.60    3.50
   0   5   9   37.80    3.70
  -1  -5  -9   77.79    6.10
  -1  -5  -9   84.49    6.60
   1   5   9   77.99    5.20
   1   5   9   78.29    5.70
  -2  -5  -9  126.49    9.00
   2   5   9  145.69    8.10
  -3  -5  -9   20.60    4.20
   3   5   9   23.60    3.20
  -4  -5  -9    5.30    2.70
   4   5   9    7.20    2.40
   8  -6  -9  126.59    8.50
  -8   6   9  116.19    9.10
   7  -6  -9   24.70    3.60
  -7   6   9   19.30    3.80
   6  -6  -9   28.60    3.60
  -6   6   9   26.30    3.90
   5  -6  -9  179.58   10.40
  -5   6   9  181.08   11.10
   4  -6  -9   -0.20    1.00
  -4   6   9    0.10    1.50
   3  -6  -9   42.00    3.80
  -3   6   9   38.40    4.30
   2  -6  -9   31.60    3.20
  -2   6   9   32.40    4.00
   1  -6  -9    9.10    1.90
  -1   6   9    6.70    2.20
   0  -6  -9   -0.10    1.10
   0   6   9    0.60    1.40
   1   6   9  164.38    9.10
   2   6   9   25.60    3.30
  -3  -6  -9    2.70    2.40
   3   6   9    2.60    2.00
   7  -7  -9   15.90    3.10
  -7   7   9   19.90    4.00
   6  -7  -9   30.60    3.80
  -6   7   9   30.80    4.40
   5  -7  -9  221.38   12.30
  -5   7   9  221.98   13.20
   4  -7  -9   30.10    3.40
  -4   7   9   25.30    3.90
   3  -7  -9   41.60    3.90
  -3   7   9   39.40    4.50
   2  -7  -9  750.62   33.30
  -2   7   9  726.73   34.20
   1  -7  -9   18.20    2.90
  -1   7   9   23.60    3.40
   0  -7  -9   16.30    2.70
   2   7   9   21.30    3.30
   6  -8  -9   25.70    3.60
  -6   8   9   21.00    4.40
   5  -8  -9    0.50    1.40
  -5   8   9    0.20    1.90
   4  -8  -9   33.50    4.00
  -4   8   9   40.20    4.80
   3  -8  -9    2.70    1.60
  -3   8   9    5.50    2.30
   2  -8  -9    0.80    1.40
  -2   8   9    0.70    1.80
   1  -8  -9  215.78   11.70
   0  -8  -9   26.20    3.60
   0   9 -10   12.10    2.90
   0  -9  10    4.80    2.30
  -1   9 -10    1.50    2.10
  -2   9 -10  140.39    9.50
  -2  -8  10    3.00    2.30
   1   8 -10  213.98   11.60
  -1  -8  10  208.98   12.10
   0   8 -10  134.79    8.80
   0  -8  10  158.08    9.30
  -1   8 -10   38.30    4.20
   1  -8  10   40.10    4.80
  -2   8 -10  237.38   13.20
  -3   8 -10   13.00    2.90
   3  -8  10   11.80    2.90
  -4   8 -10    2.90    2.10
   4  -8  10    2.50    1.80
   4   7 -10   31.80    4.70
  -4  -7  10   32.90    4.90
   3   7 -10   83.29    6.60
  -3  -7  10   75.79    6.40
   2   7 -10  210.18   14.50
  -2  -7  10  223.48   12.40
   1   7 -10    1.00    1.40
  -1  -7  10    2.80    1.80
   0   7 -10   24.50    3.10
   0  -7  10   29.70    3.30
  -1   7 -10   11.30    2.50
   1  -7  10   16.30    2.70
  -2   7 -10    3.70    1.90
   2  -7  10    5.00    1.80
  -3   7 -10  403.86   20.10
   3  -7  10  400.26   19.80
  -4   7 -10    4.00    2.00
   4  -7  10    2.30    1.60
  -5   7 -10    0.00    1.80
   5  -7  10    2.00    1.90
   5   6 -10   86.39    7.50
  -5  -6  10   90.69    7.30
   4   6 -10  173.88   10.70
  -4  -6  10  157.28   10.40
   3   6 -10   50.19    5.00
  -3  -6  10   58.79    5.20
   2   6 -10   -1.80    1.10
  -2  -6  10    0.10    1.20
   1   6 -10   15.60    2.40
   1   6 -10   16.60    2.40
  -1  -6  10   12.20    2.50
   0   6 -10  401.36   18.10
   0   6 -10  357.16   17.60
   0  -6  10  376.46   18.10
  -1   6 -10   55.09    4.40
   1  -6  10   45.50    4.00
   1  -6  10   56.89    4.30
  -2   6 -10    5.90    1.80
   2  -6  10    6.20    1.80
  -3   6 -10   61.89    5.20
   3  -6  10   69.89    5.40
  -4   6 -10   50.99    4.80
   4  -6  10   54.09    4.90
  -5   6 -10    2.90    1.80
   5  -6  10    1.30    1.90
  -6   6 -10    0.90    1.80
   6  -6  10    3.80    2.60
   6   5 -10   95.89    8.10
  -6  -5  10   81.59    7.20
   5   5 -10   -1.50    1.50
  -5  -5  10   -0.80    1.60
   4   5 -10  213.08   12.20
  -4  -5  10  193.08   11.60
   3   5 -10   13.50    2.80
  -3  -5  10   14.00    2.80
   2   5 -10   69.69    5.10
  -2  -5  10   69.59    5.30
   1   5 -10   13.50    2.10
   1   5 -10   12.20    1.90
  -1  -5  10   13.00    2.30
   0   5 -10   16.60    2.20
   0   5 -10   21.60    2.50
   0  -5  10   17.90    2.20
   0  -5  10   21.30    2.50
  -1   5 -10  724.53   32.30
  -1   5 -10  714.53   32.50
   1  -5  10  727.33   32.50
   1  -5  10  764.92   32.60
  -2   5 -10    0.60    1.00
  -2   5 -10   -0.10    0.80
   2  -5  10    1.30    1.30
  -3   5 -10   19.50    2.60
  -3   5 -10   17.40    2.70
   3  -5  10   24.40    3.00
  -4   5 -10  222.98   12.40
   4  -5  10  226.78   12.30
  -5   5 -10  168.28   10.60
   5  -5  10  190.38   10.90
  -6   5 -10    2.60    2.00
   6  -5  10    4.00    2.10
   6   4 -10   13.00    3.40
  -6  -4  10    9.40    2.70
   5   4 -10   89.69    7.30
  -5  -4  10   99.39    7.20
   4   4 -10   54.69    5.20
  -4  -4  10   56.89    5.00
   3   4 -10   28.10    3.30
  -3  -4  10   30.80    3.40
   2   4 -10  317.57   15.70
  -2  -4  10  327.57   15.80
   1   4 -10    1.20    1.00
   1   4 -10    1.30    1.00
  -1  -4  10   -0.60    1.00
  -1  -4  10   -0.60    0.70
   0   4 -10   15.30    2.00
   0   4 -10    9.40    1.70
   0  -4  10   11.00    1.90
   0  -4  10   10.30    1.70
  -1   4 -10   68.29    4.50
  -1   4 -10   63.79    4.30
   1  -4  10   64.89    4.90
   1  -4  10   57.69    4.30
  -2   4 -10    6.30    1.60
  -2   4 -10    6.60    1.70
   2  -4  10    5.40    1.60
  -3   4 -10   98.09    6.30
  -3   4 -10   93.59    6.20
   3  -4  10   98.49    6.40
  -4   4 -10  157.18    9.60
  -4   4 -10  170.98    9.70
   4  -4  10  168.98    9.60
  -5   4 -10   52.09    4.70
  -5   4 -10   37.00    4.40
   5  -4  10   48.60    4.60
  -6   4 -10   11.90    2.80
   6  -4  10   11.30    2.70
   7   3 -10    7.80    3.10
  -7  -3  10    7.50    2.80
   6   3 -10  580.94   28.50
  -6  -3  10  583.64   27.90
   5   3 -10   49.80    5.00
  -5  -3  10   54.09    4.80
   4   3 -10   18.80    2.90
  -4  -3  10   18.90    3.00
   3   3 -10  253.27   12.90
  -3  -3  10  241.28   12.70
   2   3 -10  247.18   12.30
  -2  -3  10  247.68   12.20
  -2  -3  10  234.48   11.40
   1   3 -10  333.97   16.10
  -1  -3  10  351.76   15.80
  -1  -3  10  345.57   16.10
   0   3 -10  190.98    9.10
   0   3 -10  185.48    9.60
   0  -3  10  184.48    9.50
   0  -3  10  188.98    9.30
  -1   3 -10   43.00    3.30
  -1   3 -10   47.20    3.70
   1  -3  10   51.39    3.70
  -2   3 -10  201.28   10.30
  -2   3 -10  192.78   10.10
   2  -3  10  197.88   10.30
  -3   3 -10  204.28   11.30
  -3   3 -10  214.98   11.20
   3  -3  10  223.58   11.30
  -4   3 -10  130.39    7.90
  -4   3 -10  118.49    7.90
   4  -3  10  128.69    7.80
  -5   3 -10  330.37   18.10
  -5   3 -10  365.36   18.10
   5  -3  10  373.06   17.80
  -6   3 -10   12.40    3.00
  -6   3 -10    9.40    2.90
   6  -3  10   11.10    2.70
   7   2 -10   -1.70    1.50
  -7  -2  10   -1.90    1.40
   6   2 -10    1.70    1.80
  -6  -2  10    4.90    2.00
   5   2 -10    6.40    2.00
  -5  -2  10    3.70    1.70
   4   2 -10  138.79    8.30
  -4  -2  10  131.39    8.10
   3   2 -10    5.00    1.50
  -3  -2  10    5.00    1.20
  -3  -2  10    7.20    1.70
   2   2 -10  145.49    7.90
  -2  -2  10  140.89    7.40
  -2  -2  10  141.29    7.80
   1   2 -10  273.47   12.90
  -1  -2  10  263.47   12.60
  -1  -2  10  258.37   12.50
   0   2 -10    6.90    1.50
   0   2 -10    6.80    1.20
   0  -2  10   14.50    1.80
   0  -2  10    6.20    1.30
  -1   2 -10  171.48    8.70
  -1   2 -10  171.58    9.20
   1  -2  10  181.88    9.20
  -2   2 -10 1015.30   44.90
  -2   2 -10 1021.80   44.50
   2  -2  10 1052.89   44.80
  -3   2 -10   17.60    2.60
  -3   2 -10   20.00    2.50
   3  -2  10   19.00    2.50
  -4   2 -10  468.95   23.00
  -4   2 -10  495.35   22.60
   4  -2  10  464.15   22.20
  -5   2 -10  565.54   25.90
  -5   2 -10  510.15   26.20
   5  -2  10  550.74   25.30
  -6   2 -10  435.96   23.10
   6  -2  10  459.35   21.70
   8   1 -10   72.19    6.80
  -8  -1  10   58.69    5.90
   7   1 -10    1.30    1.80
  -7  -1  10   -1.70    1.20
   6   1 -10   39.50    4.50
  -6  -1  10   36.80    4.10
   5   1 -10  146.89    8.60
  -5  -1  10  119.79    8.00
   4   1 -10  220.68   11.30
  -4  -1  10  199.78   10.30
  -4  -1  10  202.38   11.00
   3   1 -10    6.10    1.60
  -3  -1  10    8.90    1.80
  -3  -1  10    7.70    1.60
   2   1 -10   96.99    5.90
  -2  -1  10  107.09    5.80
  -2  -1  10   96.99    5.90
   1   1 -10  668.43   29.80
  -1  -1  10  679.73   29.60
  -1  -1  10  683.03   29.70
   0   1 -10  504.65   23.80
   0  -1  10  551.64   23.30
   0  -1  10  538.25   23.80
  -1   1 -10    7.80    1.60
  -1   1 -10    4.60    1.10
   1  -1  10    3.90    1.20
  -2   1 -10  146.99    7.50
  -2   1 -10  123.59    7.70
   2  -1  10  136.89    7.60
  -3   1 -10  340.37   17.60
  -3   1 -10  375.16   17.20
   3  -1  10  352.56   17.00
  -4   1 -10  135.19    9.00
   4  -1  10  139.49    8.10
  -5   1 -10  204.88   12.70
   5  -1  10  207.38   11.90
   5  -1  10  215.88   11.40
  -6   1 -10  133.89    9.90
   6  -1  10  136.49    9.10
   6  -1  10  135.79    8.40
   8   0 -10   41.00    4.90
  -8   0  10   43.80    4.80
   7   0 -10  122.19    8.50
  -7   0  10  121.89    8.30
   6   0 -10   31.70    3.80
  -6   0  10   39.50    3.90
   5   0 -10  798.22   34.40
  -5   0  10  722.03   34.10
  -5   0  10  761.72   33.70
   4   0 -10    0.50    1.00
  -4   0  10   -0.70    0.60
  -4   0  10    1.90    1.10
   3   0 -10   18.90    2.30
  -3   0  10   22.80    2.50
  -3   0  10   18.40    2.20
   2   0 -10  123.19    6.70
  -2   0  10  116.39    6.60
  -2   0  10  119.79    6.70
   1   0 -10    0.10    0.80
  -1   0  10    1.30    0.90
  -1   0  10    1.50    1.00
   0   0 -10  192.78    9.50
   0   0  10  171.58    9.30
   0   0  10  185.48    8.90
  -1   0 -10   67.69    4.70
   1   0  10   64.39    4.00
   1   0  10   65.69    4.40
  -2   0 -10  160.08    9.20
   2   0  10  162.18    8.60
   2   0  10  166.88    8.80
  -3   0 -10   37.30    4.00
   3   0  10   35.90    3.30
   3   0  10   36.10    3.40
  -4   0 -10    8.40    2.50
   4   0  10    9.80    2.10
   4   0  10    9.10    2.30
  -5   0 -10  104.89    8.30
   5   0  10   99.39    6.60
   5   0  10   99.19    7.20
  -6   0 -10    4.60    2.70
   6   0  10    5.60    2.30
   8  -1 -10  227.78   13.20
  -8   1  10  222.08   12.90
   7  -1 -10   10.00    2.60
  -7   1  10    8.00    2.40
   6  -1 -10    1.50    1.30
  -6   1  10    0.70    1.30
  -6   1  10   -0.10    1.10
   5  -1 -10   33.10    3.40
  -5   1  10   34.60    3.40
  -5   1  10   37.20    3.60
   4  -1 -10   13.00    2.10
  -4   1  10   13.80    2.20
  -4   1  10   12.70    2.20
   3  -1 -10  702.83   29.80
  -3   1  10  649.93   30.00
  -3   1  10  669.83   30.00
   2  -1 -10   11.90    1.90
  -2   1  10   14.40    2.00
  -2   1  10   12.80    1.90
   1  -1 -10  194.78    9.40
  -1   1  10  165.38    9.20
   0  -1 -10    2.00    1.10
   0  -1 -10    3.40    1.00
   0   1  10   10.20    1.70
  -1  -1 -10   26.90    2.90
   1   1  10   25.10    2.70
   1   1  10   33.20    2.50
  -2  -1 -10  108.99    7.20
   2   1  10  117.39    6.80
   2   1  10  115.29    6.60
  -3  -1 -10  248.18   14.40
   3   1  10  289.57   13.60
   3   1  10  272.27   13.60
  -4  -1 -10   82.19    6.80
   4   1  10   82.59    5.60
   4   1  10   74.49    5.80
  -5  -1 -10   33.90    5.00
   5   1  10   33.30    4.00
  -6  -1 -10   49.20    6.80
   6   1  10   56.39    5.50
   8  -2 -10    1.70    2.00
  -8   2  10    0.20    1.50
   7  -2 -10  283.47   14.60
  -7   2  10  286.67   14.80
  -7   2  10  268.97   14.80
   6  -2 -10    3.00    1.40
  -6   2  10    4.20    1.70
  -6   2  10    3.40    1.50
   5  -2 -10    2.50    1.10
  -5   2  10    1.60    1.20
  -5   2  10    0.60    1.00
   4  -2 -10  290.97   13.00
  -4   2  10  238.38   13.20
  -4   2  10  259.57   13.30
   3  -2 -10   45.50    3.40
  -3   2  10   38.20    3.60
   2  -2 -10  296.17   14.40
   2  -2 -10  303.07   14.10
  -2   2  10  292.37   14.50
   1  -2 -10   25.20    2.40
   1  -2 -10   22.60    2.40
  -1   2  10   23.50    2.60
   0  -2 -10   41.40    2.90
   0  -2 -10   33.80    3.20
   0   2  10   39.50    3.30
  -1  -2 -10  214.98   11.60
   1   2  10  218.58   11.10
   1   2  10  220.68   10.60
  -2  -2 -10   12.50    2.70
   2   2  10   14.40    2.10
   2   2  10   16.30    2.40
  -3  -2 -10  157.78    9.90
   3   2  10  150.08    8.70
   3   2  10  152.68    8.60
  -4  -2 -10  265.97   15.30
   4   2  10  269.17   14.10
   4   2  10  262.67   13.60
  -5  -2 -10   13.40    3.60
   5   2  10   11.10    2.80
  -7   3  10    0.60    1.30
   6  -3 -10    9.70    2.80
  -6   3  10    4.20    1.70
   5  -3 -10   76.69    4.90
   5  -3 -10   72.89    5.50
  -5   3  10   70.79    5.50
   4  -3 -10   45.50    4.30
   4  -3 -10   63.99    4.00
  -4   3  10   48.30    4.40
   3  -3 -10  120.09    6.50
   3  -3 -10  110.79    7.00
  -3   3  10  118.19    7.30
   2  -3 -10    9.40    1.80
   2  -3 -10    6.60    1.50
  -2   3  10    6.90    1.80
   1  -3 -10   53.09    3.80
   1  -3 -10   52.19    4.00
  -1   3  10   54.69    4.30
   0  -3 -10    3.40    1.30
   0  -3 -10    2.20    1.00
   0   3  10    4.10    1.40
  -1  -3 -10  151.68    9.00
   1   3  10  153.28    8.60
   1   3  10  151.88    8.10
  -2  -3 -10   55.49    5.40
   2   3  10   61.19    4.40
   2   3  10   63.29    4.60
  -3  -3 -10    6.00    2.60
   3   3  10    6.90    2.00
   3   3  10    4.50    1.60
  -4  -3 -10  202.78   13.10
   4   3  10  214.38   11.80
  -5  -3 -10    3.70    2.80
   5   3  10    2.80    2.10
   8  -4 -10    1.20    1.60
  -8   4  10    0.40    1.50
   7  -4 -10   66.69    5.80
  -7   4  10   76.69    6.30
   6  -4 -10   38.80    4.10
  -6   4  10   38.60    4.20
   5  -4 -10  112.69    7.40
  -5   4  10  110.19    7.50
   4  -4 -10   55.39    4.60
  -4   4  10   58.59    5.00
   3  -4 -10   51.89    3.70
   3  -4 -10   48.00    4.00
  -3   4  10   45.70    4.30
   2  -4 -10  190.48   10.10
   2  -4 -10  196.88    9.90
  -2   4  10  186.58   10.60
   1  -4 -10   51.19    4.10
   1  -4 -10   51.59    3.90
  -1   4  10   53.69    4.50
   0  -4 -10   17.80    2.70
   0  -4 -10   19.30    2.20
   0   4  10   19.10    2.70
  -1  -4 -10    1.90    1.70
   1   4  10    0.20    1.20
  -2  -4 -10   49.50    5.20
   2   4  10   50.19    4.10
   2   4  10   48.60    4.30
  -3  -4 -10   22.30    3.90
   3   4  10   18.90    3.00
  -4  -4 -10    4.60    3.10
   4   4  10    5.10    2.20
   8  -5 -10    6.10    2.50
  -8   5  10    8.60    2.80
   7  -5 -10   21.80    3.30
  -7   5  10   20.00    3.50
   6  -5 -10  221.48   11.90
  -6   5  10  182.98   11.70
   5  -5 -10    0.60    1.10
  -5   5  10    1.80    1.50
   4  -5 -10   13.70    2.60
  -4   5  10   10.50    2.60
   3  -5 -10  155.28    9.00
  -3   5  10  165.28    9.80
   2  -5 -10    1.20    1.10
  -2   5  10    2.90    1.50
   1  -5 -10  363.96   17.20
  -1   5  10  359.16   18.00
   0  -5 -10   -0.40    1.30
   0  -5 -10    1.50    1.00
   0   5  10    0.30    1.20
  -1  -5 -10    0.30    1.60
   1   5  10    0.60    1.50
  -2  -5 -10  140.79    9.40
   2   5  10  120.09    8.50
  -3  -5 -10   -2.60    1.80
   3   5  10   -0.70    1.50
   7  -6 -10    0.30    1.40
  -7   6  10   -2.30    1.70
   6  -6 -10   20.80    3.50
  -6   6  10   18.00    3.70
   5  -6 -10   79.09    6.00
  -5   6  10   70.99    6.40
   4  -6 -10  113.59    7.40
  -4   6  10  113.89    8.10
   3  -6 -10   35.10    3.70
  -3   6  10   33.80    4.20
   2  -6 -10   60.09    4.50
  -2   6  10   48.80    5.00
   1  -6 -10    2.60    1.20
  -1   6  10    3.30    1.80
   0  -6 -10   78.89    5.40
   0   6  10   89.19    6.40
   7  -7 -10   49.10    5.80
   6  -7 -10   58.59    5.30
  -6   7  10   50.19    5.70
   5  -7 -10   78.59    6.10
  -5   7  10   73.59    6.80
   4  -7 -10    9.70    2.30
  -4   7  10   10.10    2.90
   3  -7 -10  159.58    9.20
  -3   7  10  150.18   10.10
   2  -7 -10   45.80    4.30
  -2   7  10   49.40    5.30
   1  -7 -10    1.10    1.50
  -1   7  10    1.60    1.90
   0  -7 -10    5.70    1.80
   5  -8 -10   48.60    5.10
  -5   8  10   51.29    5.90
   4  -8 -10   27.90    3.60
  -4   8  10   19.40    4.00
   3  -8 -10    6.50    2.10
  -3   8  10    2.90    2.10
   2  -8 -10   59.39    5.30
  -2   8  10   61.29    5.90
   1  -8 -10    3.70    1.90
  -2  -8  11   73.59    6.40
  -1  -8  11    2.20    2.10
   0   8 -11  138.79   10.40
   0  -8  11  145.79    9.20
  -1   8 -11  423.36   21.00
  -2   8 -11  474.15   23.30
  -3   8 -11  134.69    9.30
   3  -8  11  147.09    9.20
   3   7 -11  114.79    8.20
  -3  -7  11  114.69    8.30
  -2  -7  11    2.20    1.90
  -1  -7  11    9.60    2.40
   0   7 -11  122.49    8.00
   0  -7  11  108.09    7.40
  -1   7 -11   12.10    2.80
  -2   7 -11   47.80    4.70
   2  -7  11   49.80    4.60
  -3   7 -11   15.80    3.20
   3  -7  11   19.10    3.10
  -4   7 -11   27.90    4.60
   4  -7  11   32.10    4.00
   4   6 -11    5.10    2.20
  -4  -6  11    8.00    2.60
   3   6 -11   11.30    2.80
  -3  -6  11   11.30    2.80
   2   6 -11   41.90    4.20
  -2  -6  11   39.90    4.40
   1   6 -11  335.87   16.70
  -1  -6  11  353.26   17.20
   0   6 -11   15.20    3.30
   0   6 -11   16.60    2.60
   0  -6  11   20.10    2.80
  -1   6 -11   47.90    5.10
  -1   6 -11   49.50    4.40
   1  -6  11   53.69    4.30
  -2   6 -11   32.40    3.70
   2  -6  11   33.40    3.60
  -3   6 -11    1.60    1.50
   3  -6  11   -0.70    1.20
  -4   6 -11   23.20    3.40
   4  -6  11   21.30    3.60
  -5   6 -11    6.20    2.50
   5  -6  11   10.30    2.70
   5   5 -11  108.79    8.30
  -5  -5  11  106.39    8.00
   4   5 -11   60.89    5.80
  -4  -5  11   65.29    5.70
   3   5 -11   83.09    6.30
  -3  -5  11   77.79    6.10
   2   5 -11  278.07   14.00
  -2  -5  11  263.47   14.00
   1   5 -11   19.30    2.60
  -1  -5  11   16.50    2.60
   0   5 -11  221.58   11.50
   0  -5  11  228.68   11.70
   0  -5  11  233.38   11.50
  -1   5 -11   40.40    3.60
  -1   5 -11   44.00    3.80
   1  -5  11   44.20    3.70
  -2   5 -11   75.89    5.50
  -2   5 -11   77.39    5.30
   2  -5  11   75.99    5.40
  -3   5 -11   28.00    3.40
  -3   5 -11   28.10    3.20
   3  -5  11   29.80    3.50
  -4   5 -11   -0.10    1.20
   4  -5  11    0.20    1.60
  -5   5 -11  123.09    8.50
   5  -5  11  127.19    8.40
  -6   5 -11    3.90    2.10
   6  -5  11    0.70    2.90
   6   4 -11    5.80    2.60
  -6  -4  11    6.00    2.30
   5   4 -11  112.59    8.30
  -5  -4  11  102.59    7.60
   4   4 -11    6.60    2.30
  -4  -4  11   12.50    2.80
   3   4 -11  180.98   10.30
  -3  -4  11  173.78   10.10
   2   4 -11  221.98   11.50
  -2  -4  11  211.78   11.50
   1   4 -11  201.88   10.40
  -1  -4  11  195.48    9.90
  -1  -4  11  191.08   10.30
   0   4 -11  408.56   19.00
   0  -4  11  403.06   18.80
   0  -4  11  407.16   18.80
  -1   4 -11    6.90    1.80
  -1   4 -11    2.70    1.10
   1  -4  11    1.90    1.20
  -2   4 -11   38.00    3.50
  -2   4 -11   33.80    3.30
   2  -4  11   38.90    3.60
  -3   4 -11  259.47   12.90
  -3   4 -11  230.58   12.70
   3  -4  11  252.27   13.00
  -4   4 -11   27.10    3.50
  -4   4 -11   28.70    3.60
   4  -4  11   37.60    3.90
  -5   4 -11    0.50    1.40
  -5   4 -11   -1.00    1.50
   5  -4  11   -0.70    1.30
  -6   4 -11  109.59    8.20
   6  -4  11  117.29    8.20
   7   3 -11  136.39    9.80
  -7  -3  11  110.49    8.70
   6   3 -11    0.50    1.90
  -6  -3  11    0.10    1.50
   5   3 -11   19.70    3.30
  -5  -3  11   16.60    3.20
   4   3 -11  234.28   12.80
  -4  -3  11  227.98   12.50
   3   3 -11  267.27   13.70
  -3  -3  11  264.67   13.70
   2   3 -11   84.79    5.60
  -2  -3  11   81.09    5.00
  -2  -3  11   86.09    5.60
   1   3 -11   19.70    2.50
  -1  -3  11   22.90    2.40
  -1  -3  11   22.50    2.30
   0   3 -11   91.69    5.80
   0  -3  11   88.69    5.60
   0  -3  11   97.99    5.50
  -1   3 -11  202.88   10.40
  -1   3 -11  189.08    9.90
   1  -3  11  202.98   10.40
  -2   3 -11   11.20    2.10
  -2   3 -11   12.50    2.10
   2  -3  11   14.60    2.30
  -3   3 -11   46.20    4.30
  -3   3 -11   53.09    4.30
   3  -3  11   63.29    4.70
  -4   3 -11   40.90    4.50
  -4   3 -11   55.19    4.70
   4  -3  11   53.99    4.60
  -5   3 -11   44.90    5.10
  -5   3 -11   47.30    4.70
   5  -3  11   43.50    4.60
  -6   3 -11  172.68   11.60
  -6   3 -11  180.78   11.10
   6  -3  11  181.28   10.70
   7   2 -11   13.60    3.40
  -7  -2  11   14.20    3.30
   6   2 -11    1.40    1.80
  -6  -2  11   -0.60    1.50
   5   2 -11   14.10    2.90
  -5  -2  11   11.10    2.70
   4   2 -11  102.69    6.90
  -4  -2  11  100.59    6.70
   3   2 -11   38.20    3.60
  -3  -2  11   34.00    2.90
  -3  -2  11   30.60    3.20
   2   2 -11    1.20    1.10
  -2  -2  11    1.10    1.00
  -2  -2  11    1.80    1.10
   1   2 -11   72.79    4.80
  -1  -2  11   69.19    4.50
  -1  -2  11   69.99    4.60
   0   2 -11   37.30    3.20
   0  -2  11   32.30    3.00
   0  -2  11   34.70    2.70
  -1   2 -11  537.55   24.30
   1  -2  11  524.85   24.10
  -2   2 -11   52.99    4.30
  -2   2 -11   54.79    3.90
   2  -2  11   47.20    4.00
  -3   2 -11   21.50    2.60
  -3   2 -11   15.50    2.70
   3  -2  11   21.00    2.80
  -4   2 -11  181.68   10.20
  -4   2 -11  177.18   10.70
   4  -2  11  172.88   10.00
  -5   2 -11   11.90    2.70
  -5   2 -11   10.40    3.00
   5  -2  11    7.60    2.20
  -6   2 -11    2.60    2.30
   6  -2  11    2.40    1.80
   8   1 -11   -0.40    2.10
  -8  -1  11    0.00    1.80
   7   1 -11  113.29    8.10
  -7  -1  11   93.69    7.40
   6   1 -11   98.69    7.20
  -6  -1  11   85.59    6.70
   5   1 -11  228.58   12.30
  -5  -1  11  208.88   11.90
   4   1 -11    3.70    1.50
  -4  -1  11    2.70    1.40
  -4  -1  11    2.80    1.10
   3   1 -11  273.37   13.30
  -3  -1  11  257.07   13.20
  -3  -1  11  262.07   12.80
   2   1 -11 1711.13   71.89
  -2  -1  11 1659.93   71.59
  -2  -1  11 1691.13   71.79
   1   1 -11   11.00    1.90
  -1  -1  11   13.70    1.90
  -1  -1  11   15.70    2.00
   0   1 -11 1418.96   63.29
   0  -1  11 1545.25   62.69
   0  -1  11 1481.45   63.19
  -1   1 -11  230.68   11.90
   1  -1  11  232.98   11.70
  -2   1 -11  590.04   28.00
  -2   1 -11  648.54   27.50
   2  -1  11  601.14   27.70
  -3   1 -11   31.20    3.80
  -3   1 -11   35.20    3.40
   3  -1  11   39.10    3.60
  -4   1 -11  410.46   21.50
   4  -1  11  447.26   20.60
  -5   1 -11   10.00    3.00
   5  -1  11   10.20    2.70
   5  -1  11    9.80    2.50
  -6   1 -11    3.40    2.40
   6  -1  11    1.90    1.80
   6  -1  11    2.50    2.00
   8   0 -11   -0.10    1.90
  -8   0  11    2.10    1.90
   7   0 -11    9.60    2.70
  -7   0  11    9.50    2.60
   6   0 -11  523.85   23.70
  -6   0  11  448.56   23.20
   5   0 -11    9.00    2.30
  -5   0  11    6.90    1.80
  -5   0  11    6.40    2.00
   4   0 -11  234.48   11.80
  -4   0  11  223.08   11.80
  -4   0  11  219.88   11.50
   3   0 -11  408.66   18.50
  -3   0  11  385.66   18.50
  -3   0  11  383.66   18.30
   2   0 -11  361.56   16.50
  -2   0  11  335.97   16.30
  -2   0  11  341.17   16.30
   1   0 -11  638.34   28.30
  -1   0  11  592.24   28.10
  -1   0  11  673.83   28.00
   0   0 -11  110.69    6.70
   0   0  11  117.99    6.70
  -1   0 -11    3.70    1.40
   1   0  11    2.30    1.30
  -2   0 -11  469.15   23.50
   2   0  11  506.15   22.80
   2   0  11  532.85   23.30
  -3   0 -11    0.70    1.40
   3   0  11    3.60    1.60
   3   0  11    4.00    1.50
  -4   0 -11    5.70    2.50
   4   0  11    7.10    2.00
   4   0  11    6.30    2.10
  -5   0 -11    3.10    2.50
   5   0  11   -0.70    1.60
   5   0  11    0.80    1.50
   6   0  11   90.39    7.40
   8  -1 -11   20.90    3.90
  -8   1  11   18.60    3.70
   7  -1 -11   34.00    3.90
  -7   1  11   23.20    3.60
   6  -1 -11  191.88   10.40
  -6   1  11  166.48   10.20
  -6   1  11  171.28   10.00
   5  -1 -11    4.70    1.60
  -5   1  11    5.70    1.80
  -5   1  11    4.70    1.60
   4  -1 -11    3.10    1.40
  -4   1  11    1.70    1.30
  -4   1  11    2.80    1.40
   3  -1 -11    0.20    0.80
  -3   1  11    0.40    1.20
  -3   1  11   -0.20    0.80
   2  -1 -11   64.69    4.40
  -2   1  11   61.59    4.50
  -2   1  11   56.69    4.20
   1  -1 -11  112.39    6.50
   1  -1 -11  109.69    6.30
  -1   1  11  109.09    6.60
   0  -1 -11    7.20    1.70
   0  -1 -11    9.30    1.50
   0   1  11    9.30    1.90
  -1  -1 -11   11.90    2.40
   1   1  11   11.30    2.10
  -2  -1 -11  388.96   19.90
   2   1  11  424.86   19.20
   2   1  11  410.36   19.30
  -3  -1 -11  122.99    8.90
   3   1  11  149.99    8.30
   3   1  11  142.09    8.20
  -4  -1 -11  116.89    8.90
   4   1  11  135.49    8.20
   4   1  11  123.59    7.70
  -5  -1 -11  116.69    9.40
   5   1  11  124.29    8.40
  -8   2  11    0.10    1.70
   7  -2 -11    0.20    1.30
  -7   2  11    2.50    1.50
  -7   2  11    2.00    1.60
   6  -2 -11   85.49    5.90
  -6   2  11   78.19    6.10
  -6   2  11   92.29    6.50
   5  -2 -11  289.07   13.60
  -5   2  11  259.07   14.00
  -5   2  11  260.97   14.00
   4  -2 -11  115.09    6.80
  -4   2  11  119.09    7.30
  -4   2  11  118.89    7.50
   3  -2 -11   19.20    2.40
  -3   2  11   15.20    2.60
   2  -2 -11   25.90    2.70
   2  -2 -11   26.40    2.70
  -2   2  11   23.40    2.80
   1  -2 -11  187.18    9.70
   1  -2 -11  198.28   10.00
  -1   2  11  179.58   10.00
   0  -2 -11  264.97   12.60
   0  -2 -11  271.47   13.40
   0   2  11  256.57   13.20
  -1  -2 -11  136.99    8.50
   1   2  11  149.29    8.30
  -2  -2 -11   32.70    4.10
   2   2  11   26.60    3.10
  -3  -2 -11   61.29    5.90
   3   2  11   67.69    5.10
   3   2  11   66.49    5.10
  -4  -2 -11    3.80    2.40
   4   2  11    9.80    2.60
   4   2  11    6.80    2.10
  -5  -2 -11    6.20    3.10
   5   2  11    7.80    2.70
   8  -3 -11   12.40    3.00
  -7   3  11    2.00    1.80
   6  -3 -11    0.70    1.30
  -6   3  11    1.50    1.40
   5  -3 -11  217.18   11.10
   5  -3 -11  213.38   12.10
  -5   3  11  225.08   12.20
   4  -3 -11    1.40    1.30
   4  -3 -11    0.70    1.20
  -4   3  11   -1.00    0.90
   3  -3 -11    7.90    1.80
   3  -3 -11    4.40    1.40
  -3   3  11    3.70    1.60
   2  -3 -11   86.89    5.40
   2  -3 -11   87.29    5.60
  -2   3  11   81.29    5.90
   1  -3 -11   14.70    2.20
   1  -3 -11   12.90    2.00
  -1   3  11   12.70    2.50
   0  -3 -11  517.35   23.40
   0  -3 -11  540.55   24.40
   0   3  11  516.85   24.30
  -1  -3 -11   34.80    4.00
   1   3  11   35.60    3.50
  -2  -3 -11  112.89    8.10
   2   3  11  118.89    7.30
  -3  -3 -11  125.79    9.50
   3   3  11  135.89    8.60
   3   3  11  155.08    8.60
  -4  -3 -11   84.19    7.80
   4   3  11   92.79    6.70
   8  -4 -11   64.99    6.00
  -8   4  11   62.59    6.10
   7  -4 -11   26.60    4.00
  -7   4  11   32.70    4.10
   6  -4 -11    8.40    2.40
  -6   4  11    5.80    2.20
   5  -4 -11  260.67   13.90
  -5   4  11  250.67   14.00
   4  -4 -11   29.30    3.50
  -4   4  11   35.60    3.90
   3  -4 -11   47.80    3.60
   3  -4 -11   41.70    3.80
  -3   4  11   37.10    4.00
   2  -4 -11   18.40    2.40
   2  -4 -11   18.10    2.40
  -2   4  11   21.50    3.10
   1  -4 -11   55.09    4.40
   1  -4 -11   52.29    4.00
  -1   4  11   50.09    4.70
   0  -4 -11   89.89    5.60
   0  -4 -11  107.69    6.90
   0   4  11   92.09    6.50
  -1  -4 -11   55.79    5.40
   1   4  11   71.29    5.30
  -2  -4 -11    1.60    1.90
   2   4  11    1.80    1.50
  -3  -4 -11    1.80    2.10
   8  -5 -11    9.90    3.20
   7  -5 -11   45.70    4.80
  -7   5  11   43.60    5.20
   6  -5 -11    2.40    1.80
  -6   5  11    4.00    2.30
   5  -5 -11    8.50    2.20
  -5   5  11    6.60    2.20
   4  -5 -11  468.25   22.80
  -4   5  11  482.65   23.50
   3  -5 -11   34.60    3.50
  -3   5  11   31.70    4.00
   2  -5 -11  107.89    7.00
  -2   5  11  128.89    8.20
   1  -5 -11    0.50    0.90
  -1   5  11    0.00    1.60
   0  -5 -11   33.90    4.10
   0  -5 -11   27.70    3.70
   0   5  11   26.40    3.50
  -1  -5 -11  393.46   20.30
   1   5  11  401.06   19.70
  -2  -5 -11   24.90    4.30
  -3  -5 -11   -0.60    2.00
   7  -6 -11    1.80    1.70
  -7   6  11    3.70    2.40
   6  -6 -11    3.40    2.10
  -6   6  11    6.80    2.70
   5  -6 -11   38.60    4.20
  -5   6  11   32.40    4.40
   4  -6 -11    8.40    2.20
  -4   6  11    6.50    2.40
   3  -6 -11  116.59    7.40
  -3   6  11  111.59    8.20
   2  -6 -11    3.40    1.50
  -2   6  11    5.20    2.20
   1  -6 -11   51.09    4.10
  -1   6  11   39.50    4.60
   0   6  11   29.40    3.90
   6  -7 -11  116.39    8.00
  -6   7  11   96.49    8.40
   5  -7 -11    5.90    2.10
  -5   7  11    8.60    2.90
   4  -7 -11    0.30    1.40
  -4   7  11    1.40    2.10
   3  -7 -11    0.70    1.20
  -3   7  11   -1.60    1.50
   2  -7 -11  249.88   13.40
  -2   7  11  262.87   14.70
   1  -7 -11  107.19    7.10
  -1   7  11  108.39    8.00
   4  -8 -11   -0.80    1.80
  -4   8  11    2.50    2.30
   3  -8 -11    2.60    1.70
  -3   8  11    1.50    2.20
   2  -8 -11   17.00    3.10
  -2   8  11   16.10    3.90
  -1  -8  12  110.49    8.00
  -2   8 -12    4.10    2.40
   3   7 -12  119.89    8.70
  -3  -7  12  146.09    9.50
  -2  -7  12   38.80    4.70
  -1  -7  12  470.05   23.00
   0  -7  12   52.09    6.10
  -2   7 -12    0.50    1.60
   2  -7  12    2.60    1.60
  -3   7 -12  193.68   11.70
   3  -7  12  205.48   11.60
  -4   7 -12  116.09    8.40
   4  -7  12  116.59    8.30
   4   6 -12  169.98   10.80
  -4  -6  12  155.08   10.50
   3   6 -12    1.10    1.60
  -3  -6  12    2.10    1.90
   2   6 -12   23.40    3.10
  -2  -6  12   14.20    3.00
   1   6 -12   20.60    3.00
  -1  -6  12   21.30    3.20
   0   6 -12    0.00    1.10
   0  -6  12    0.40    1.50
  -1   6 -12  336.07   17.80
   1  -6  12  307.47   15.70
  -2   6 -12   85.19    6.40
   2  -6  12   90.19    6.30
  -3   6 -12   38.90    4.30
   3  -6  12   46.70    4.70
  -4   6 -12   22.10    3.80
   4  -6  12   23.00    3.60
  -5   6 -12    4.60    2.20
   5   5 -12    1.90    2.20
  -5  -5  12   -0.70    1.80
   4   5 -12  116.99    8.20
  -4  -5  12  108.19    8.10
   3   5 -12  455.25   21.70
  -3  -5  12  425.06   21.60
   2   5 -12   33.30    3.70
  -2  -5  12   30.40    3.70
   1   5 -12   10.90    2.10
  -1  -5  12   10.70    2.40
   0   5 -12   33.30    3.40
   0  -5  12   38.00    3.80
   0  -5  12   41.70    3.50
  -1   5 -12  102.59    6.60
   1  -5  12  106.99    6.70
  -2   5 -12  322.27   17.30
  -2   5 -12  323.67   16.30
   2  -5  12  352.76   16.70
  -3   5 -12   36.10    3.80
  -3   5 -12   30.10    3.50
   3  -5  12   26.20    3.60
  -4   5 -12   28.70    3.70
   4  -5  12   33.70    4.00
  -5   5 -12    7.60    2.40
   5  -5  12    9.70    2.60
   6   4 -12  100.89    8.30
  -6  -4  12   90.19    7.60
   5   4 -12   10.10    3.00
  -5  -4  12    4.20    2.20
   4   4 -12    9.30    2.60
  -4  -4  12    4.60    2.00
   3   4 -12   20.00    3.00
  -3  -4  12   19.70    3.20
   2   4 -12   43.50    4.00
  -2  -4  12   32.20    3.70
   1   4 -12    1.60    1.40
  -1  -4  12   -1.30    0.80
  -1  -4  12    1.70    1.20
   0   4 -12   78.09    5.50
   0  -4  12   89.59    6.30
   0  -4  12   86.49    5.60
  -1   4 -12    4.70    1.70
   1  -4  12    4.80    1.60
  -2   4 -12   22.90    3.00
   2  -4  12   20.80    2.90
  -3   4 -12   59.29    4.80
  -3   4 -12   54.69    4.90
   3  -4  12   65.49    5.20
  -4   4 -12    0.50    1.50
  -4   4 -12    1.80    1.50
   4  -4  12    0.40    1.40
  -5   4 -12  183.28   11.00
  -5   4 -12  167.78   11.20
   5  -4  12  199.88   11.20
   6   3 -12  166.88   11.00
  -6  -3  12  164.38   10.60
   5   3 -12    4.30    2.20
  -5  -3  12    5.00    2.20
   4   3 -12   43.90    4.60
  -4  -3  12   59.69    5.00
   3   3 -12  214.58   11.50
  -3  -3  12  200.58   11.30
   2   3 -12  204.88   11.10
  -2  -3  12  209.48   10.50
  -2  -3  12  213.18   11.10
   1   3 -12   57.19    4.50
  -1  -3  12   61.29    4.40
  -1  -3  12   61.89    4.30
   0   3 -12    2.80    1.40
   0  -3  12    5.50    1.60
  -1   3 -12   -0.30    1.00
   1  -3  12   -0.60    0.90
  -2   3 -12  127.79    7.80
   2  -3  12  132.59    7.90
  -3   3 -12   12.70    2.80
  -3   3 -12   14.90    2.50
   3  -3  12   15.00    2.60
  -4   3 -12    7.50    2.10
  -4   3 -12    5.10    2.40
   4  -3  12   10.90    2.50
  -5   3 -12    0.80    2.00
  -5   3 -12    0.70    1.50
   5  -3  12    2.20    1.80
   7   2 -12    0.90    2.20
  -7  -2  12    1.50    1.90
   6   2 -12    3.20    2.00
  -6  -2  12    6.30    2.30
   5   2 -12  146.19    9.10
  -5  -2  12  127.59    8.60
   4   2 -12   50.39    4.60
  -4  -2  12   49.60    4.50
   3   2 -12    1.40    1.30
  -3  -2  12    4.20    1.40
  -3  -2  12    1.40    1.20
   2   2 -12  546.75   25.00
  -2  -2  12  548.15   24.90
  -2  -2  12  541.75   24.50
   1   2 -12   12.60    2.10
  -1  -2  12    9.90    1.90
  -1  -2  12   10.50    1.90
   0   2 -12  238.98   12.20
   0  -2  12  240.28   12.10
  -1   2 -12   31.00    3.20
   1  -2  12   27.70    3.00
  -2   2 -12  102.69    6.80
   2  -2  12  102.49    6.60
  -3   2 -12  879.91   42.60
  -3   2 -12  977.30   42.10
   3  -2  12 1008.00   42.50
  -4   2 -12  292.67   14.50
  -4   2 -12  260.77   15.00
   4  -2  12  271.67   14.30
  -5   2 -12   33.20    5.00
   5  -2  12   37.40    4.10
   7   1 -12   23.40    3.90
  -7  -1  12   24.60    3.80
   6   1 -12    0.50    1.60
  -6  -1  12   -0.70    1.20
   5   1 -12  158.18    9.50
  -5  -1  12  155.08    9.50
   4   1 -12  108.89    6.80
  -4  -1  12   93.29    6.60
  -4  -1  12   95.09    6.20
   3   1 -12  120.09    7.40
  -3  -1  12  127.79    7.20
  -3  -1  12  128.49    7.50
   2   1 -12  526.85   23.70
  -2  -1  12  521.25   23.50
  -2  -1  12  498.25   23.40
   1   1 -12  259.87   12.60
  -1  -1  12  238.58   12.30
  -1  -1  12  244.78   12.10
   0   1 -12   17.10    2.50
   0  -1  12   15.40    2.20
  -1   1 -12   88.39    6.00
   1  -1  12   92.49    5.90
  -2   1 -12    1.20    1.50
   2  -1  12    7.10    1.80
  -3   1 -12    4.10    2.10
   3  -1  12    2.00    1.60
  -4   1 -12   36.30    4.70
   4  -1  12   38.80    4.00
   4  -1  12   34.30    3.80
  -5   1 -12   20.70    4.20
   5  -1  12   23.30    3.70
   5  -1  12   21.90    3.50
   8   0 -12    3.90    2.60
  -8   0  12    1.80    1.90
   7   0 -12  102.89    7.50
  -7   0  12   95.39    7.40
  -6   0  12   22.10    3.60
   5   0 -12   67.19    5.20
  -5   0  12   56.79    5.10
  -5   0  12   66.29    5.00
   4   0 -12 1470.25   61.19
  -4   0  12 1354.06   61.19
  -4   0  12 1418.36   60.99
   3   0 -12  217.38   11.30
  -3   0  12  213.38   11.40
  -3   0  12  227.58   11.40
   2   0 -12  623.14   27.40
  -2   0  12  576.84   27.20
  -2   0  12  614.74   27.20
   1   0 -12  776.72   34.10
  -1   0  12  788.12   33.60
  -1   0  12  740.43   34.00
   0   0 -12  954.00   40.20
   0   0  12  866.31   39.80
  -1   0 -12   80.79    5.60
   1   0  12   74.19    5.30
  -2   0 -12  193.98   10.80
   2   0  12  181.18   10.20
  -3   0 -12    7.70    2.40
   3   0  12    9.90    2.40
  -4   0 -12   10.10    3.00
   4   0  12   11.00    2.50
   4   0  12   11.50    2.60
  -5   0 -12   -0.10    1.90
   5   0  12    3.10    2.00
   5   0  12   -0.20    1.70
   8  -1 -12  208.58   12.20
  -8   1  12  183.78   11.90
   7  -1 -12   74.19    5.90
  -7   1  12   57.19    5.50
   6  -1 -12  540.45   24.00
  -6   1  12  463.25   23.60
  -6   1  12  499.75   24.10
   5  -1 -12    5.90    1.80
  -5   1  12    7.60    2.00
  -5   1  12    5.30    1.90
   4  -1 -12  528.45   23.20
  -4   1  12  485.95   23.40
  -4   1  12  485.75   23.40
   3  -1 -12   80.79    5.30
  -3   1  12   71.59    5.30
  -3   1  12   75.29    5.30
   2  -1 -12  151.58    8.20
  -2   1  12  155.88    8.20
  -2   1  12  134.09    8.20
   1  -1 -12   45.60    3.80
   1  -1 -12   45.40    3.50
  -1   1  12   36.50    3.50
   0  -1 -12   88.29    6.00
   0   1  12   91.19    5.90
  -1  -1 -12   50.49    4.40
   1   1  12   46.20    4.00
  -2  -1 -12   31.70    3.80
   2   1  12   32.50    3.40
  -3  -1 -12    8.20    2.60
   3   1  12   17.50    2.90
  -4  -1 -12  224.38   14.20
   4   1  12  253.47   12.90
   4   1  12  225.78   16.00
  -5  -1 -12   59.79    7.40
   5   1  12   72.69    6.00
  -8   2  12   39.70    4.70
   7  -2 -12   49.30    4.50
  -7   2  12   41.50    4.70
  -7   2  12   38.50    4.80
   6  -2 -12   27.60    3.30
  -6   2  12   29.10    3.50
  -6   2  12   22.70    3.50
   5  -2 -12    2.70    1.40
  -5   2  12   -0.50    1.20
  -5   2  12    1.60    1.50
   4  -2 -12  138.29    8.00
  -4   2  12  145.79    8.70
   3  -2 -12   25.90    3.00
   3  -2 -12   30.00    3.10
  -3   2  12   26.80    3.40
   2  -2 -12  263.77   12.90
   2  -2 -12  258.97   13.00
  -2   2  12  247.88   13.20
   1  -2 -12   16.30    2.40
   1  -2 -12   16.10    2.10
  -1   2  12   15.30    2.40
   0  -2 -12  220.08   12.10
   0   2  12  245.28   12.30
  -1  -2 -12  169.38   10.00
   1   2  12  172.18    9.60
  -2  -2 -12    5.10    2.20
   2   2  12   12.10    2.40
  -3  -2 -12   67.79    6.80
   3   2  12   87.59    6.10
  -4  -2 -12   -1.10    1.90
   4   2  12    0.20    2.00
   8  -3 -12    0.50    1.80
   7  -3 -12    1.40    1.70
  -7   3  12    3.00    1.90
   6  -3 -12  160.08   10.00
  -6   3  12  162.98   10.10
   5  -3 -12    3.00    1.70
   5  -3 -12    3.00    1.40
  -5   3  12    2.10    1.50
   4  -3 -12   49.20    4.50
   4  -3 -12   52.69    4.10
  -4   3  12   43.10    4.40
   3  -3 -12 1065.79   44.50
   3  -3 -12  992.00   43.60
  -3   3  12  954.80   44.60
   2  -3 -12    2.00    1.40
   2  -3 -12    3.30    1.40
  -2   3  12    4.30    1.70
   1  -3 -12   56.09    4.30
   1  -3 -12   51.79    4.00
  -1   3  12   41.70    4.20
   0  -3 -12   98.59    6.60
   0   3  12   90.19    6.40
  -1  -3 -12   77.69    6.20
   1   3  12   85.99    6.10
  -2  -3 -12  238.38   14.10
   2   3  12  258.97   13.30
  -3  -3 -12    1.70    2.10
   3   3  12    1.60    1.60
  -4  -3 -12    5.80    3.20
   8  -4 -12    6.00    4.00
   7  -4 -12   30.50    4.10
  -7   4  12   34.70    4.40
   6  -4 -12  128.89    8.50
  -6   4  12  116.19    8.50
   5  -4 -12   48.00    4.80
  -5   4  12   60.29    5.50
   4  -4 -12   25.60    3.30
  -4   4  12   27.00    3.70
   3  -4 -12   12.40    2.50
   3  -4 -12   10.30    2.20
  -3   4  12    3.70    2.00
   2  -4 -12  377.26   17.20
   2  -4 -12  335.07   17.00
  -2   4  12  342.87   17.90
   1  -4 -12   71.09    5.30
   1  -4 -12   64.49    4.70
  -1   4  12   66.49    5.50
   0  -4 -12    6.40    2.00
   0   4  12    3.50    1.80
  -1  -4 -12   61.69    5.70
   1   4  12   54.39    5.00
  -2  -4 -12    1.20    1.90
   2   4  12    1.10    1.40
  -3  -4 -12   70.89    7.00
   7  -5 -12   55.39    5.40
  -7   5  12   48.80    5.50
   6  -5 -12    0.10    1.20
  -6   5  12    1.80    2.00
   5  -5 -12   70.99    5.90
  -5   5  12   74.29    6.50
   4  -5 -12   37.10    4.00
  -4   5  12   22.10    4.00
   3  -5 -12   58.39    4.80
  -3   5  12   55.59    5.60
   2  -5 -12   58.79    4.60
  -2   5  12   59.39    5.50
   1  -5 -12    1.90    1.30
  -1   5  12    6.50    2.40
   0  -5 -12  171.28   11.00
   0   5  12  188.78   11.00
  -1  -5 -12   20.30    3.90
   1   5  12   11.50    2.80
  -2  -5 -12   16.80    4.00
   6  -6 -12   -0.70    1.60
  -6   6  12   -0.40    1.80
   5  -6 -12    9.60    2.70
  -5   6  12    9.40    2.90
   4  -6 -12   39.80    4.20
  -4   6  12   36.80    5.00
   3  -6 -12   46.00    4.40
  -3   6  12   39.10    4.90
   2  -6 -12    8.90    2.10
  -2   6  12    8.70    2.70
   1  -6 -12  110.29    6.90
  -1   6  12   99.89    7.70
   0   6  12  121.49    8.50
   5  -7 -12   19.40    3.60
  -5   7  12   19.70    4.30
   4  -7 -12    8.60    2.50
  -4   7  12    8.00    3.10
   3  -7 -12   20.20    3.10
  -3   7  12   19.80    4.10
   2  -7 -12   36.10    4.00
  -2   7  12   42.60    5.40
   1  -7 -12   50.09    4.70
  -1   7  12   48.10    5.50
  -2  -7  13   72.69    6.40
  -1  -7  13  122.99    8.50
   2  -7  13   33.30    4.20
   3  -7  13  118.09    8.10
   4   6 -13    5.10    2.50
  -4  -6  13    9.00    4.50
   3   6 -13   56.89    5.50
  -3  -6  13   51.99    5.40
   2   6 -13   11.90    2.80
  -2  -6  13   17.10    3.30
   1   6 -13    7.40    2.30
  -1  -6  13    9.80    2.60
   0   6 -13   43.60    4.20
   1  -6  13  199.18   11.00
   2  -6  13   11.90    2.70
   3  -6  13   82.89    6.40
  -4   6 -13  159.38   11.90
   4  -6  13  174.28   10.70
   5   5 -13   88.89    7.60
  -5  -5  13  103.79   11.20
   4   5 -13   19.00    3.50
  -4  -5  13   15.60    3.40
   3   5 -13   40.40    4.50
  -3  -5  13   53.09    5.10
   2   5 -13  212.98   11.50
  -2  -5  13  193.88   11.40
   1   5 -13  375.46   18.00
  -1  -5  13  359.96   18.00
   0   5 -13    1.20    1.50
   0  -5  13    0.20    1.10
  -1   5 -13    1.40    1.50
   1  -5  13    0.70    1.40
  -2   5 -13    1.60    1.30
   2  -5  13   -0.60    1.30
  -3   5 -13  167.68   10.30
   3  -5  13  191.28   10.70
   4  -5  13   89.89    7.00
   5   4 -13   -0.80    1.60
  -5  -4  13   -0.60    1.60
   4   4 -13   -0.50    1.50
  -4  -4  13    0.90    1.60
   3   4 -13    7.40    2.40
  -3  -4  13    8.40    2.40
   2   4 -13   -0.10    1.20
  -2  -4  13    0.90    1.20
   1   4 -13  341.17   16.80
  -1  -4  13  329.67   16.60
  -1  -4  13  354.86   16.50
   0   4 -13    2.00    1.30
   0  -4  13    2.40    1.40
  -1   4 -13    0.10    1.30
   1  -4  13    1.00    1.30
  -2   4 -13  144.49    8.60
   2  -4  13  136.69    8.50
  -3   4 -13   57.09    5.10
   3  -4  13   60.99    5.20
  -4   4 -13   30.40    4.20
   4  -4  13   34.20    4.10
  -5   4 -13   -0.60    1.30
  -5   4 -13   -1.20    1.50
   5  -4  13    2.30    2.50
   6   3 -13   44.20    5.50
  -6  -3  13   51.19    5.30
   5   3 -13    6.00    2.30
  -5  -3  13    6.90    2.50
   4   3 -13  326.77   16.60
  -4  -3  13  299.57   16.20
   3   3 -13   18.30    2.80
  -3  -3  13   15.00    2.70
   2   3 -13    2.40    1.40
  -2  -3  13    1.30    1.10
  -2  -3  13    1.90    1.30
   1   3 -13    2.40    1.50
  -1  -3  13    1.40    1.20
  -1  -3  13    2.40    1.40
   0   3 -13   11.20    2.30
   0  -3  13    9.20    2.00
  -1   3 -13  378.46   17.90
   1  -3  13  349.96   17.60
  -2   3 -13   32.20    3.50
   2  -3  13   31.20    3.50
  -3   3 -13   73.89    6.00
   3  -3  13   83.59    6.20
  -4   3 -13   27.40    4.10
   4  -3  13   25.90    3.60
  -5   3 -13   36.90    5.30
  -5   3 -13   44.80    4.70
   5  -3  13   41.60    4.70
   7   2 -13    6.10    3.10
  -7  -2  13   -1.50    2.90
   6   2 -13    4.70    2.20
  -6  -2  13    2.70    2.10
   5   2 -13   86.89    6.80
  -5  -2  13   80.19    6.40
   4   2 -13    1.30    1.40
  -4  -2  13    0.10    1.20
   3   2 -13  154.58    8.70
  -3  -2  13  137.39    8.00
  -3  -2  13  140.79    8.50
   2   2 -13    1.30    1.30
  -2  -2  13    0.90    1.10
  -2  -2  13    0.70    1.10
   1   2 -13  138.29    8.40
  -1  -2  13  162.48    8.50
  -1  -2  13  142.29    8.10
   0   2 -13  394.56   18.80
   0  -2  13  386.86   18.60
  -1   2 -13   27.10    3.10
   1  -2  13   23.40    3.00
  -2   2 -13  105.39    7.00
   2  -2  13   96.79    6.60
  -3   2 -13    0.20    1.50
   3  -2  13    2.30    1.70
  -4   2 -13   12.20    3.00
   4  -2  13   12.00    2.70
  -5   2 -13  104.79    9.00
   5  -2  13  131.29    8.30
   7   1 -13   47.90    5.50
  -7  -1  13   39.80    4.80
   6   1 -13  110.49    7.90
  -6  -1  13  100.39    7.50
   5   1 -13   17.20    3.10
  -5  -1  13   13.30    2.80
   4   1 -13   28.20    3.40
  -4  -1  13   24.70    3.00
  -4  -1  13   24.90    3.20
   3   1 -13   11.20    2.30
  -3  -1  13    8.70    1.90
  -3  -1  13    5.10    1.70
   2   1 -13   30.90    3.30
  -2  -1  13   33.50    3.30
  -2  -1  13   32.70    3.10
   1   1 -13  332.87   16.50
  -1  -1  13  345.67   16.10
  -1  -1  13  344.07   16.50
   0   1 -13    0.80    1.30
   0  -1  13    1.00    1.20
  -1   1 -13  637.64   29.40
   1  -1  13  643.84   29.20
  -2   1 -13    8.60    2.30
   2  -1  13    4.10    1.80
  -3   1 -13    0.20    1.50
   3  -1  13    2.70    1.80
  -4   1 -13    2.10    2.20
   4  -1  13    0.80    1.60
  -5   1 -13  108.89    9.00
   5  -1  13  114.39    7.90
   7   0 -13    7.50    2.50
  -7   0  13    2.00    1.90
   6   0 -13   61.39    5.30
  -6   0  13   44.80    5.00
   5   0 -13  305.67   15.40
  -5   0  13  291.87   15.10
  -5   0  13  293.67   15.40
   4   0 -13  400.56   18.50
  -4   0  13  357.36   18.30
  -4   0  13  376.46   18.50
   3   0 -13    5.10    2.00
  -3   0  13    3.10    1.40
  -3   0  13    4.10    1.50
   2   0 -13    9.90    2.10
  -2   0  13    7.00    1.90
  -2   0  13   10.50    2.10
   1   0 -13  137.39    7.80
  -1   0  13  126.49    7.20
  -1   0  13  126.89    7.70
   0   0 -13  119.59    7.30
   0   0  13  110.19    7.00
  -1   0 -13  103.59    6.90
   1   0  13  102.09    6.70
  -2   0 -13   60.69    5.30
   2   0  13   59.49    4.90
  -3   0 -13  153.98   10.20
   3   0  13  163.28    9.50
  -4   0 -13   26.30    4.60
   4   0  13   25.70    3.50
   5   0  13   -0.20    1.80
   7  -1 -13  217.28   11.80
  -7   1  13  173.48   11.40
   6  -1 -13   49.80    4.70
  -6   1  13   52.49    4.90
  -6   1  13   44.60    4.60
   5  -1 -13  128.59    7.90
  -5   1  13  123.39    8.20
  -5   1  13  129.29    8.20
   4  -1 -13   28.20    3.10
  -4   1  13   20.00    3.00
  -4   1  13   27.30    3.30
   3  -1 -13   27.70    3.30
  -3   1  13   26.30    3.10
  -3   1  13   27.70    3.20
   2  -1 -13  422.46   19.70
  -2   1  13  409.26   19.90
   1  -1 -13    0.00    1.20
   1  -1 -13    0.30    1.00
  -1   1  13    2.20    1.40
   0  -1 -13   28.80    3.30
   0   1  13   23.20    3.00
  -1  -1 -13  187.38   10.70
   1   1  13  179.28   10.20
  -2  -1 -13    0.40    1.80
   2   1  13   -0.60    1.40
  -3  -1 -13  159.78   10.90
   3   1  13  180.68   10.20
  -4  -1 -13   -0.20    1.90
   4   1  13    1.80    1.90
   7  -2 -13   83.29    6.20
  -7   2  13   81.89    6.80
   6  -2 -13   60.99    5.00
  -6   2  13   56.49    5.20
  -6   2  13   57.69    5.40
   5  -2 -13  205.08   11.10
  -5   2  13  203.48   11.80
  -5   2  13  218.18   11.90
   4  -2 -13   77.79    5.50
  -4   2  13   82.89    6.20
   3  -2 -13   13.50    2.70
   3  -2 -13   16.60    2.60
  -3   2  13   11.70    2.50
   2  -2 -13   17.20    2.70
   2  -2 -13   17.10    2.60
  -2   2  13   10.20    2.40
   1  -2 -13  164.38    9.00
   1  -2 -13  154.68    8.50
  -1   2  13  141.49    8.90
   0  -2 -13  387.96   18.70
   0   2  13  366.66   18.40
  -1  -2 -13   88.09    6.60
   1   2  13   81.29    6.00
  -2  -2 -13  359.06   19.60
   2   2  13  406.86   19.10
  -3  -2 -13    7.60    2.90
   3   2  13   12.10    2.80
  -4  -2 -13    1.70    2.70
   7  -3 -13   -1.50    1.20
  -7   3  13    0.70    1.60
   6  -3 -13   25.00    3.80
  -6   3  13   21.60    3.50
   5  -3 -13    0.10    1.30
   5  -3 -13    2.60    1.60
  -5   3  13    1.70    1.60
   4  -3 -13  369.06   18.10
   4  -3 -13  344.67   17.00
  -4   3  13  357.26   18.30
   3  -3 -13   47.40    4.40
   3  -3 -13   52.29    4.30
  -3   3  13   55.19    5.00
   2  -3 -13    2.00    1.50
   2  -3 -13    4.10    1.50
  -2   3  13    0.70    1.40
   1  -3 -13  251.27   13.20
   1  -3 -13  287.87   14.00
  -1   3  13  262.97   14.20
   0  -3 -13    1.40    1.50
   0   3  13    0.80    1.40
  -1  -3 -13   43.80    4.70
   1   3  13   48.00    4.50
  -2  -3 -13   -0.40    1.70
   2   3  13    0.10    1.60
  -3  -3 -13   13.30    4.00
   3   3  13    9.90    2.80
   7  -4 -13  237.48   13.80
  -7   4  13  233.68   14.00
   6  -4 -13   -0.90    1.50
  -6   4  13    1.90    1.80
   5  -4 -13  219.38   12.70
  -5   4  13  224.78   13.20
   4  -4 -13   44.80    4.40
  -4   4  13   37.20    4.70
   3  -4 -13   80.59    5.80
  -3   4  13   68.69    6.10
   2  -4 -13   -0.40    1.10
   2  -4 -13   -1.40    0.80
  -2   4  13    0.70    1.70
   1  -4 -13  123.39    7.80
   1  -4 -13  104.79    6.90
  -1   4  13  124.49    8.20
   0  -4 -13   60.49    5.40
   0   4  13   61.19    5.50
  -1  -4 -13    2.10    2.00
   1   4  13    1.70    2.10
  -2  -4 -13   64.09    6.80
   2   4  13   77.39    6.10
  -7   5  13   31.80    4.80
   6  -5 -13  147.69    9.70
  -6   5  13  144.49   10.20
   5  -5 -13    1.50    1.70
  -5   5  13   -0.60    1.90
   4  -5 -13   44.50    4.40
  -4   5  13   33.60    4.60
   3  -5 -13   84.69    6.20
  -3   5  13   76.79    6.90
   2  -5 -13   -0.60    1.20
  -2   5  13   -0.60    1.70
  -1   5  13   48.60    5.20
   0   5  13    2.20    2.10
  -1  -5 -13    6.30    2.60
   1   5  13    6.80    2.50
   5  -6 -13   30.50    4.20
  -5   6  13   31.50    4.70
   4  -6 -13   11.10    2.70
  -4   6  13   12.80    3.50
   3  -6 -13  199.88   11.40
  -3   6  13  202.08   12.60
   2  -6 -13   80.69    6.10
  -2   6  13   89.69    7.30
  -1   6  13    9.70    2.80
   0   6  13   24.80    4.30
   4  -7 -13   31.70    4.30
   3  -7 -13   24.00    3.40
  -3   7  13   22.50    4.50
   3   6 -14   91.69    7.20
  -3  -6  14   98.99    7.80
   2   6 -14   25.00    3.70
  -2  -6  14   26.10    3.90
   1   6 -14   20.40    3.50
   0   6 -14   34.50    3.70
   1  -6  14    7.00    2.30
   2  -6  14   25.20    3.60
   3  -6  14  252.17   14.00
   4   5 -14    0.70    2.00
  -4  -5  14   -1.00    1.60
   3   5 -14  354.86   17.90
  -3  -5  14  333.27   17.90
   2   5 -14   19.30    3.10
  -2  -5  14   22.60    3.50
   1   5 -14   86.99    6.30
   0   5 -14  117.39    7.40
   0  -5  14  112.79    7.20
  -1   5 -14   80.29    6.00
   1  -5  14   84.99    6.00
  -2   5 -14   12.40    2.70
   2  -5  14    6.90    2.40
  -3   5 -14    8.00    2.30
   3  -5  14   12.40    2.90
   5   4 -14  112.09    8.50
  -5  -4  14  109.19    8.50
   4   4 -14  280.07   15.40
  -4  -4  14  282.17   15.50
   3   4 -14   57.69    5.30
  -3  -4  14   66.19    5.50
   2   4 -14   51.79    4.80
  -2  -4  14   58.99    5.00
   1   4 -14   69.89    5.50
  -1  -4  14   71.49    5.10
   0   4 -14    4.60    2.00
   0  -4  14    4.50    1.70
  -1   4 -14  547.35   25.70
   1  -4  14  549.95   25.60
  -2   4 -14    5.30    1.90
   2  -4  14    3.70    1.80
  -3   4 -14   22.80    3.60
   3  -4  14   21.80    3.70
  -4   4 -14    4.50    2.10
   4  -4  14    6.00    2.40
   6   3 -14    1.20    2.30
  -6  -3  14   -0.20    2.90
   5   3 -14  181.58   11.20
  -5  -3  14  169.38   11.00
   4   3 -14   39.80    4.40
  -4  -3  14   41.90    4.70
   3   3 -14   59.99    5.30
  -3  -3  14   66.49    5.30
   2   3 -14  222.18   11.80
  -2  -3  14  208.68   11.50
  -2  -3  14  209.58   11.10
   1   3 -14   -0.10    1.40
  -1  -3  14    1.40    1.40
   0   3 -14   18.10    2.70
   0  -3  14    9.10    2.20
  -1   3 -14   38.30    4.00
   1  -3  14   39.50    3.90
  -2   3 -14    5.00    2.00
   2  -3  14    5.80    2.00
  -3   3 -14  124.09    8.50
   3  -3  14  120.99    8.20
   4  -3  14  177.38   10.70
   6   2 -14  136.49    9.50
  -6  -2  14  127.79    9.30
   5   2 -14    9.00    2.60
  -5  -2  14    9.50    2.80
   4   2 -14    0.70    1.40
  -4  -2  14    1.10    1.50
   3   2 -14    0.50    1.20
  -3  -2  14    1.40    1.40
  -3  -2  14   -0.10    1.10
   2   2 -14  240.28   13.20
  -2  -2  14  260.67   13.10
  -2  -2  14  268.67   13.20
   1   2 -14  454.65   21.50
  -1  -2  14  445.86   21.10
   0   2 -14   86.59    6.10
   0  -2  14   88.99    6.00
  -1   2 -14   12.50    2.70
   1  -2  14   14.30    2.60
  -2   2 -14  137.79    8.80
   2  -2  14  138.09    8.60
  -3   2 -14   16.70    3.40
   3  -2  14   25.00    3.40
  -4   2 -14   29.80    4.50
   4  -2  14   40.50    4.40
   7   1 -14   43.50    5.30
   6   1 -14   59.69    5.90
  -6  -1  14   64.39    6.00
   5   1 -14    2.70    1.90
  -5  -1  14    4.90    2.10
   4   1 -14  151.78    8.90
  -4  -1  14  126.79    8.20
  -4  -1  14  138.19    8.60
   3   1 -14   17.70    2.80
  -3  -1  14   18.00    2.80
  -3  -1  14   21.40    2.80
   2   1 -14   38.50    3.80
  -2  -1  14   42.10    3.80
  -2  -1  14   40.00    3.60
   1   1 -14  135.19    8.00
  -1  -1  14  127.49    7.80
   0   1 -14   10.20    2.30
   0  -1  14    9.20    2.20
  -1   1 -14   34.90    3.80
   1  -1  14   33.80    3.60
  -2   1 -14   79.99    6.40
   2  -1  14   84.69    6.10
  -3   1 -14   29.50    4.10
   3  -1  14   30.80    3.80
  -4   1 -14   32.00    5.10
   4  -1  14   37.00    4.30
   7   0 -14   18.80    3.90
  -7   0  14   17.70    3.60
   6   0 -14  166.08   10.00
  -6   0  14  152.88   10.00
   5   0 -14   58.29    5.10
  -5   0  14   49.70    4.80
  -5   0  14   46.10    4.50
   4   0 -14   57.39    4.80
  -4   0  14   52.59    4.70
  -4   0  14   61.09    4.90
   3   0 -14  211.68   11.50
  -3   0  14  219.98   11.50
  -3   0  14  206.98   11.50
   2   0 -14    4.50    1.80
  -2   0  14    4.90    1.70
  -2   0  14    3.70    1.50
   1   0 -14  187.58   10.40
  -1   0  14  185.98   10.40
   0   0 -14   16.00    2.90
   0   0  14   19.40    2.90
  -1   0 -14    0.30    1.30
   1   0  14   -0.20    1.20
  -2   0 -14   13.00    2.90
   2   0  14   17.40    3.10
  -3   0 -14   32.60    4.70
   3   0  14   37.70    4.10
  -4   0 -14   34.00    5.50
   4   0  14   43.60    4.60
   7  -1 -14    9.60    2.80
  -7   1  14    8.20    2.80
   6  -1 -14   30.90    3.90
  -6   1  14   28.60    4.10
  -6   1  14   26.40    4.20
   5  -1 -14  109.19    7.20
  -5   1  14  105.09    7.30
  -5   1  14  101.19    7.30
   4  -1 -14    1.20    1.70
  -4   1  14    5.00    1.90
  -4   1  14    3.10    1.60
   3  -1 -14  230.48   12.00
  -3   1  14  249.97   12.20
  -3   1  14  193.68   11.90
   2  -1 -14   16.80    2.70
  -2   1  14   14.90    2.60
   1  -1 -14  131.59    8.00
  -1   1  14  125.19    8.00
   0  -1 -14  705.83   32.50
   0   1  14  713.93   32.40
  -1  -1 -14   56.99    5.20
   1   1  14   63.59    5.20
  -2  -1 -14   22.20    3.70
   2   1  14   24.90    3.40
  -3  -1 -14   13.60    3.50
   3   1  14   25.10    3.70
   4   1  14    3.30    2.20
   7  -2 -14   26.40    3.80
  -7   2  14   17.30    3.80
   6  -2 -14   64.89    5.30
  -6   2  14   67.19    5.80
  -6   2  14   64.89    6.00
   5  -2 -14   94.49    6.50
  -5   2  14   95.29    7.10
   4  -2 -14    4.20    1.60
  -4   2  14    2.30    1.80
   3  -2 -14   37.90    3.80
   3  -2 -14   38.40    3.70
  -3   2  14   34.70    4.00
   2  -2 -14   30.30    3.40
   2  -2 -14   29.50    3.50
  -2   2  14   33.80    3.80
   1  -2 -14    1.70    1.70
  -1   2  14   -0.80    1.30
   0  -2 -14    9.10    2.60
   0   2  14    8.80    2.40
  -1  -2 -14  148.39    9.70
   1   2  14  162.28    9.50
  -2  -2 -14   26.30    4.40
   2   2  14   22.50    3.40
  -3  -2 -14    9.40    3.20
   3   2  14   12.10    2.90
   7  -3 -14   59.49    5.80
  -7   3  14   52.99    5.80
   6  -3 -14   12.30    3.20
  -6   3  14    9.30    2.80
   5  -3 -14   54.69    4.80
   5  -3 -14   59.49    5.40
  -5   3  14   64.09    5.90
   4  -3 -14    0.20    1.30
   4  -3 -14    0.90    1.50
  -4   3  14    0.10    1.50
   3  -3 -14    0.90    1.50
   3  -3 -14    6.30    1.90
  -3   3  14    4.00    2.10
   2  -3 -14  511.55   22.90
   2  -3 -14  479.25   22.70
  -2   3  14  448.76   23.30
   1  -3 -14    4.40    2.00
  -1   3  14    9.90    2.60
   0  -3 -14    9.10    2.50
   0   3  14    9.90    2.50
  -1  -3 -14   39.20    4.80
   1   3  14   51.99    4.80
  -2  -3 -14   64.19    6.50
   2   3  14   72.59    5.90
   6  -4 -14   15.50    3.40
  -6   4  14   21.30    4.20
   5  -4 -14   -0.20    1.60
  -5   4  14    3.60    2.20
   4  -4 -14    4.30    1.90
  -4   4  14    4.10    2.20
   3  -4 -14   -0.90    1.00
  -3   4  14   -0.10    1.80
   2  -4 -14  184.48   10.60
   2  -4 -14  189.28   10.50
  -2   4  14  193.78   11.60
   1  -4 -14   30.50    3.80
  -1   4  14   23.60    3.70
   0  -4 -14   93.39    7.20
   0   4  14   86.39    7.00
  -1  -4 -14  109.19    8.30
   1   4  14  109.59    7.90
   6  -5 -14   21.80    4.00
  -6   5  14   25.30    4.40
   5  -5 -14  133.19    8.80
  -5   5  14  118.19    9.40
   4  -5 -14   91.19    6.80
  -4   5  14   81.09    7.30
   3  -5 -14   35.30    3.90
  -3   5  14   36.20    4.80
   2  -5 -14  109.79    7.20
  -2   5  14  113.49    8.50
  -1   5  14   -0.50    1.70
   0   5  14   -0.60    2.10
   5  -6 -14   -1.40    1.60
   4  -6 -14   18.40    3.50
  -4   6  14   12.20    3.50
   3  -6 -14   73.49    5.90
  -3   6  14   71.69    7.00
   2  -6 -14    5.50    2.10
  -2   6  14    4.40    2.50
  -1   6  14  145.09   10.10
   2   6 -15    8.50    2.60
  -2  -6  15    9.90    3.00
   1   6 -15    0.00    1.60
   0   6 -15    7.20    2.40
   1  -6  15    4.10    2.10
   2  -6  15   98.39    7.30
   3   5 -15   14.90    3.30
  -3  -5  15    9.80    2.90
   2   5 -15   13.50    3.10
  -2  -5  15   19.50    3.50
   1   5 -15  293.07   15.30
   0   5 -15   13.20    2.90
   0  -5  15   15.70    2.90
  -1   5 -15   23.30    3.50
   1  -5  15   26.20    3.50
  -2   5 -15   -0.80    1.50
   2  -5  15    2.50    1.90
  -3   5 -15    3.10    2.00
   3  -5  15   -1.00    1.80
   4   4 -15    3.80    2.20
  -4  -4  15    2.80    2.10
   3   4 -15   33.30    4.30
  -3  -4  15   30.50    4.00
   2   4 -15  152.58    9.70
  -2  -4  15  167.78    9.70
   1   4 -15  123.59    8.30
  -1  -4  15  141.89    8.20
   0   4 -15  119.49    7.70
   0  -4  15  116.19    7.60
  -1   4 -15   70.99    5.60
   1  -4  15   66.59    5.50
  -2   4 -15   22.90    3.40
   2  -4  15   30.20    3.70
  -3   4 -15  146.09   10.00
   3  -4  15  168.18   10.20
   5   3 -15    1.90    2.00
  -5  -3  15    7.50    2.70
   4   3 -15   33.60    4.40
  -4  -3  15   27.00    3.90
   3   3 -15  174.28   10.40
  -3  -3  15  175.18   10.40
   2   3 -15   10.80    2.50
  -2  -3  15   15.50    2.50
  -2  -3  15   12.60    2.50
   1   3 -15   56.99    5.00
  -1  -3  15   68.69    5.10
   0   3 -15    0.30    1.50
   0  -3  15    2.40    1.80
  -1   3 -15   10.10    2.50
   1  -3  15   15.30    3.00
  -2   3 -15    4.00    2.00
   2  -3  15    5.90    2.30
  -3   3 -15   57.69    5.70
   3  -3  15   55.19    5.40
   6   2 -15   17.10    4.40
  -6  -2  15   16.00    5.00
   5   2 -15   25.70    3.80
  -5  -2  15   18.40    3.50
   4   2 -15  106.79    7.60
  -4  -2  15  100.89    7.40
   3   2 -15  170.38   10.20
  -3  -2  15  170.68   10.10
  -3  -2  15  185.18   10.00
   2   2 -15   16.70    2.80
  -2  -2  15   16.00    2.50
  -2  -2  15   17.90    2.80
   1   2 -15   46.10    4.40
  -1  -2  15   55.59    4.50
   0   2 -15  206.88   11.80
   0  -2  15  227.68   11.90
  -1   2 -15   98.69    7.00
   1  -2  15   95.09    6.80
  -2   2 -15    0.90    1.50
   2  -2  15    2.30    1.90
  -3   2 -15    0.90    2.10
   3  -2  15   -0.60    1.70
   6   1 -15   -0.80    1.50
  -6  -1  15    3.10    2.50
   5   1 -15   56.59    5.30
  -5  -1  15   57.39    5.40
   4   1 -15  260.47   13.50
  -4  -1  15  219.28   12.90
  -4  -1  15  263.37   13.60
   3   1 -15    5.10    1.90
  -3  -1  15    7.50    2.10
  -3  -1  15    5.50    1.90
   2   1 -15   11.00    2.40
  -2  -1  15    8.10    2.00
  -2  -1  15   12.00    2.40
   1   1 -15   60.69    5.00
  -1  -1  15   60.79    5.00
   0   1 -15    9.90    2.40
   0  -1  15   14.30    2.70
  -1   1 -15  421.16   20.40
   1  -1  15  391.96   19.90
  -2   1 -15    0.90    1.70
   2  -1  15   -0.90    1.50
  -3   1 -15    9.70    3.30
   3  -1  15   14.50    3.00
   6   0 -15  267.47   14.00
  -6   0  15  219.28   13.60
   5   0 -15    3.20    1.90
  -5   0  15    4.10    1.90
  -5   0  15    6.20    2.20
   4   0 -15    0.50    1.60
  -4   0  15    2.00    1.70
  -4   0  15   -0.30    1.40
   3   0 -15  123.99    7.60
  -3   0  15  108.89    7.40
  -3   0  15  107.39    7.20
   2   0 -15  279.47   14.90
  -2   0  15  295.87   15.20
  -2   0  15  301.57   14.60
   1   0 -15  145.49    8.60
  -1   0  15  125.99    8.20
   0   0 -15   57.49    5.00
   0   0  15   57.49    5.00
  -1   0 -15    0.50    1.50
   1   0  15    1.40    1.60
  -2   0 -15   20.30    3.80
   2   0  15   18.30    3.30
  -3   0 -15   85.29    7.70
   3   0  15  109.39    7.60
   6  -1 -15  111.79    7.60
  -6   1  15  106.09    7.90
   5  -1 -15   17.50    2.90
  -5   1  15   10.20    2.50
  -5   1  15   13.90    2.90
   4  -1 -15   -2.30    1.40
  -4   1  15   -0.80    1.30
  -4   1  15    1.40    1.50
   3  -1 -15  205.68   11.20
  -3   1  15  201.08   11.60
   2  -1 -15   21.70    3.30
   2  -1 -15   19.10    2.90
  -2   1  15   27.60    3.40
   1  -1 -15   85.39    6.10
  -1   1  15   69.79    5.80
   0  -1 -15   22.90    3.50
   0   1  15   19.30    3.10
  -1  -1 -15   19.00    3.30
   1   1  15   13.60    3.10
  -2  -1 -15   38.30    5.00
   2   1  15   29.20    3.90
  -3  -1 -15    0.80    2.60
   3   1  15    3.20    2.40
   6  -2 -15    1.90    1.80
  -6   2  15    3.90    2.20
   5  -2 -15    0.10    1.70
  -5   2  15    0.70    1.60
   4  -2 -15  128.89    8.10
   4  -2 -15  139.09    8.70
  -4   2  15  128.59    8.80
   3  -2 -15   19.00    3.10
   3  -2 -15   21.40    3.30
  -3   2  15   22.70    3.70
   2  -2 -15   70.09    5.40
   2  -2 -15   59.29    4.90
  -2   2  15   57.79    5.40
   1  -2 -15   10.60    2.60
  -1   2  15   12.30    2.90
   0  -2 -15   -1.10    1.50
   0   2  15   -0.30    1.40
  -1  -2 -15    0.30    1.70
   1   2  15    0.10    1.70
  -2  -2 -15  186.78   12.30
   2   2  15  198.98   11.60
   6  -3 -15   55.79    5.70
  -6   3  15   64.59    6.20
   5  -3 -15   46.70    5.10
  -5   3  15   44.90    5.10
   4  -3 -15   63.19    5.00
   4  -3 -15   58.49    5.40
  -4   3  15   45.90    5.20
   3  -3 -15  163.48   10.00
   3  -3 -15  176.18    9.90
  -3   3  15  161.48   10.60
   2  -3 -15   49.50    4.60
   2  -3 -15   36.50    3.80
  -2   3  15   39.60    4.60
   1  -3 -15   11.60    2.60
  -1   3  15    8.40    2.70
   0  -3 -15   29.50    4.00
   0   3  15   24.50    3.70
  -1  -3 -15   12.10    3.30
   1   3  15    7.60    2.50
   6  -4 -15   83.59    7.10
  -6   4  15   71.19    7.00
   5  -4 -15   62.39    5.70
  -5   4  15   43.90    5.80
   4  -4 -15   13.80    3.10
  -4   4  15   13.30    3.40
   3  -4 -15    4.20    1.90
  -3   4  15    2.60    2.30
   2  -4 -15   91.89    8.70
   2  -4 -15  120.89    7.80
  -2   4  15  111.19    8.40
   1  -4 -15    0.90    1.70
  -1   4  15    1.70    2.00
   0  -4 -15  171.08   11.10
   0   4  15  178.28   11.20
   5  -5 -15   39.90    4.60
   4  -5 -15   85.89    6.70
  -4   5  15   69.89    7.00
   3  -5 -15   66.39    5.60
  -3   5  15   74.39    6.90
  -2   5  15   43.90    5.70
  -1   5  15   71.69    6.70
   2   5 -16   20.90    3.80
   1   5 -16    3.00    2.00
   0   5 -16   54.89    5.20
   0  -5  16   57.69    5.00
  -1   5 -16   58.19    5.40
   1  -5  16   56.59    5.40
   3   4 -16  130.59    8.90
  -3  -4  16  120.69    8.50
   2   4 -16  134.89    9.00
   1   4 -16   17.20    3.20
  -1  -4  16   21.10    3.00
   0   4 -16   30.50    3.80
   0  -4  16   25.40    3.50
  -1   4 -16  139.89    9.20
   1  -4  16  147.49    9.30
  -2   4 -16  224.08   12.90
   2  -4  16  219.08   12.70
   4   3 -16    4.50    2.20
  -4  -3  16    6.50    2.40
   3   3 -16  262.77   14.30
  -3  -3  16  258.37   14.20
   2   3 -16    3.60    1.90
  -2  -3  16   -0.90    1.40
   1   3 -16   80.79    6.30
  -1  -3  16   86.89    6.20
   0   3 -16   20.70    3.40
   0  -3  16   24.60    3.30
  -1   3 -16    9.00    2.60
   1  -3  16    8.50    2.40
  -2   3 -16  231.18   13.40
   2  -3  16  237.38   13.30
   5   2 -16   43.40    5.00
  -5  -2  16   43.30    4.90
   4   2 -16   -1.20    1.40
  -4  -2  16    0.00    1.40
   3   2 -16  169.98   10.20
  -3  -2  16  158.88    9.60
  -3  -2  16  171.28    9.90
   2   2 -16    3.30    2.10
  -2  -2  16    0.70    1.50
   1   2 -16   91.29    6.70
  -1  -2  16   86.49    6.40
   0   2 -16   13.30    2.90
   0  -2  16   18.50    3.00
  -1   2 -16   26.60    3.90
   1  -2  16   25.20    3.60
  -2   2 -16  106.79    8.10
   2  -2  16  118.09    8.00
  -3   2 -16    9.90    3.50
   5   1 -16   75.99    6.40
  -5  -1  16   69.19    6.30
   4   1 -16   34.00    4.30
  -4  -1  16   28.40    3.80
  -4  -1  16   30.80    4.00
   3   1 -16   44.80    4.50
  -3  -1  16   42.00    4.20
  -3  -1  16   35.30    3.90
   2   1 -16  369.26   18.80
  -2  -1  16  383.56   18.80
   1   1 -16   25.20    3.80
  -1  -1  16   26.10    3.50
   0   1 -16  104.59    7.50
   0  -1  16  112.29    7.50
  -1   1 -16    1.40    1.90
   1  -1  16    3.30    1.90
  -2   1 -16   23.50    3.90
   2  -1  16   39.40    4.40
   6   0 -16    0.50    1.90
  -6   0  16   -2.20    1.70
   5   0 -16   19.70    3.60
  -5   0  16    9.00    3.70
  -5   0  16   14.90    3.10
   4   0 -16   -1.70    1.40
  -4   0  16    2.00    1.80
  -4   0  16    1.30    1.60
   3   0 -16  105.39    7.30
  -3   0  16  101.29    7.30
  -3   0  16   98.49    6.80
   2   0 -16   38.50    4.10
  -2   0  16   33.50    4.00
   1   0 -16  150.98    9.50
  -1   0  16  155.28    9.50
   0   0 -16   22.40    3.70
   0   0  16   22.90    3.50
  -1   0 -16    0.20    1.50
   1   0  16   -1.10    1.30
  -2   0 -16   34.10    4.60
   2   0  16   38.90    4.50
   6  -1 -16    1.90    2.00
  -6   1  16   -0.20    1.80
   5  -1 -16   10.00    2.50
  -5   1  16    7.20    2.30
  -5   1  16    7.20    2.70
   4  -1 -16  163.68    9.80
  -4   1  16  165.08    9.90
  -4   1  16  151.78   10.00
   3  -1 -16   51.59    4.80
  -3   1  16   61.19    5.60
   2  -1 -16    2.00    1.90
  -2   1  16    2.20    1.70
   1  -1 -16   17.90    3.10
  -1   1  16   13.30    3.00
   0  -1 -16  372.96   18.80
   0   1  16  357.16   18.60
  -1  -1 -16  303.27   16.90
   1   1  16  325.97   16.80
  -2  -1 -16   90.09    7.60
   2   1  16   85.49    6.90
   6  -2 -16   19.40    3.50
  -6   2  16   17.20    3.70
   5  -2 -16   24.40    3.60
   5  -2 -16   18.80    3.40
  -5   2  16   15.10    3.50
   4  -2 -16  100.59    7.00
   4  -2 -16  100.39    7.40
  -4   2  16   90.99    7.50
   3  -2 -16   41.40    4.50
   3  -2 -16   46.20    4.40
  -3   2  16   36.50    4.50
   2  -2 -16    4.20    2.10
  -2   2  16    5.00    2.20
   1  -2 -16    6.00    2.30
  -1   2  16    8.40    2.50
   0  -2 -16   27.60    4.20
   0   2  16   30.30    4.10
  -1  -2 -16  201.58   13.00
   1   2  16  234.18   13.00
   5  -3 -16    0.00    1.60
  -5   3  16    2.10    2.00
   4  -3 -16  119.89    8.30
   4  -3 -16  117.59    7.70
  -4   3  16  104.99    8.60
   3  -3 -16    0.80    1.30
   3  -3 -16   -0.50    1.60
  -3   3  16   -0.90    1.60
   2  -3 -16   89.59    6.90
  -2   3  16   97.29    7.60
   1  -3 -16   49.80    5.10
  -1   3  16   58.19    5.70
   0  -3 -16  202.38   12.50
   0   3  16  211.48   12.60
   5  -4 -16   11.90    3.20
   4  -4 -16   28.10    4.00
  -4   4  16   26.50    4.40
   3  -4 -16  158.88    9.80
  -3   4  16  158.18   10.80
  -2   4  16   32.10    4.80
   1  -4 -16   19.70    3.60
  -1   4  16   23.40    4.40
   2   4 -17   41.10    4.70
   1   4 -17   21.80    3.80
  -1  -4  17   19.00    3.30
   0   4 -17  171.08   10.50
   0  -4  17  166.68   10.20
  -1   4 -17   17.30    3.50
   3   3 -17   24.50    4.00
  -3  -3  17   24.10    3.80
   2   3 -17  141.89    9.40
  -2  -3  17  147.59    9.00
   1   3 -17  737.13   35.30
  -1  -3  17  798.62   35.30
   0   3 -17   43.40    4.80
   0  -3  17   51.99    4.90
  -1   3 -17  108.99    8.10
   1  -3  17  106.29    7.90
   4   2 -17   83.09    6.70
  -4  -2  17   72.39    6.30
   3   2 -17  131.99    8.90
  -3  -2  17  133.49    8.50
  -3  -2  17  127.59    8.90
   2   2 -17   55.19    5.30
  -2  -2  17   59.79    5.20
   1   2 -17   11.60    2.80
  -1  -2  17   11.40    2.80
   0   2 -17  146.89    9.40
   0  -2  17  141.89    9.20
  -1   2 -17   64.89    5.90
   1  -2  17   61.79    5.90
   5   1 -17   20.00    5.90
  -5  -1  17   13.70    3.20
   4   1 -17   -1.00    1.90
  -4  -1  17    3.40    3.10
  -4  -1  17    1.40    1.80
   3   1 -17   93.59    6.90
  -3  -1  17   75.99    6.20
  -3  -1  17   89.89    6.80
   2   1 -17    3.50    2.00
  -2  -1  17    1.50    1.80
   1   1 -17   14.80    3.20
  -1  -1  17   19.30    3.20
   0   1 -17  108.39    7.80
   0  -1  17  105.59    7.70
  -1   1 -17    4.40    2.30
   1  -1  17   10.90    2.70
   5   0 -17   13.60    3.30
  -5   0  17    6.10    2.60
   4   0 -17    0.60    1.90
  -4   0  17   -2.80    1.70
  -4   0  17   -0.80    1.30
   3   0 -17    0.40    1.70
  -3   0  17   -1.00    1.30
  -3   0  17   -0.20    1.40
   2   0 -17   13.40    3.00
  -2   0  17   14.00    3.00
   1   0 -17   46.60    5.00
  -1   0  17   48.30    5.10
   0   0 -17    1.20    1.80
   0   0  17    2.80    1.90
  -1   0 -17   37.10    4.60
   1   0  17   28.30    4.30
   5  -1 -17  262.37   14.10
  -5   1  17  237.48   14.40
  -5   1  17  252.07   14.20
   4  -1 -17    7.80    2.70
  -4   1  17    4.90    2.30
   3  -1 -17   13.00    2.70
   3  -1 -17   15.10    3.10
  -3   1  17   14.40    3.30
   2  -1 -17   22.90    3.50
  -2   1  17   22.60    3.70
   1  -1 -17   45.10    5.10
  -1   1  17   53.79    5.20
   0  -1 -17   42.20    5.00
   0   1  17   40.10    4.90
  -1  -1 -17   42.10    5.90
   1   1  17   28.80    5.00
   5  -2 -17   39.90    4.70
   5  -2 -17   44.50    4.80
  -5   2  17   35.90    5.10
   4  -2 -17    1.40    1.90
   4  -2 -17    5.60    2.30
  -4   2  17    1.90    2.20
   3  -2 -17   76.49    6.20
   3  -2 -17   77.59    6.30
  -3   2  17   69.39    6.60
   2  -2 -17  374.36   18.90
  -2   2  17  363.56   19.40
   1  -2 -17   17.90    3.50
  -1   2  17   14.10    3.30
   0  -2 -17    0.60    1.80
   0   2  17    2.30    2.40
   4  -3 -17   19.20    3.70
   4  -3 -17   19.70    3.70
  -4   3  17   15.70    4.20
   3  -3 -17   19.50    3.70
  -3   3  17   28.00    4.70
   2  -3 -17    8.10    2.50
  -2   3  17   11.40    3.20
   1  -3 -17  223.58   13.20
   2   2 -18    2.60    2.60
  -2  -2  18    1.40    2.10
   1   2 -18  219.28   13.10
  -1  -2  18  222.88   12.70
   0  -2  18   44.10    5.60
   3   1 -18    6.90    2.60
  -3  -1  18   13.30    3.20
   2   1 -18   44.80    5.10
  -2  -1  18   44.10    4.70
   1   1 -18  112.59    8.20
  -1  -1  18  118.79    8.30
   0  -1  18    2.00    2.20
   3   0 -18    2.70    2.00
  -3   0  18    0.40    1.70
   2   0 -18   11.00    2.90
  -2   0  18   10.50    3.00
   1   0 -18  199.98   11.60
  -1   0  18  165.38   11.00
   3  -1 -18   50.69    5.10
  -3   1  18   46.80    5.60
   2  -1 -18   49.30    5.10
  -2   1  18   47.00    5.60
   1  -1 -18   90.69    7.50
   0   0   0    0.00    0.00

_computing_structure_solution     'SHELXT 2014/5 (Sheldrick, 2014)'
;
_shelx_hkl_checksum              83457
_olex2_submission_special_instructions 'No special instructions were received'
loop_
_space_group_symop_operation_xyz
'x, y, z'
'-x, -y, -z'
loop_
_atom_site_label
_atom_site_type_symbol
_atom_site_fract_x
_atom_site_fract_y
_atom_site_fract_z
_atom_site_U_iso_or_equiv
_atom_site_adp_type
_atom_site_occupancy
_atom_site_site_symmetry_order
_atom_site_calc_flag
_atom_site_refinement_flags_posn
Cl1 Cl 0.10701(6) 0.33026(4) 0.15457(3) 0.01959(10) Uani 1 1 d .
Cl2 Cl 0.26873(7) 0.96360(5) 0.04366(3) 0.03011(12) Uani 1 1 d .
S1 S 0.47141(5) 0.19062(5) 0.45203(3) 0.01468(10) Uani 1 1 d .
O1 O 0.08809(15) 0.55059(14) 0.42422(7) 0.0164(2) Uani 1 1 d .
N1 N 0.28437(18) 0.40287(15) 0.37729(9) 0.0125(2) Uani 1 1 d .
H1 H 0.366880 0.391592 0.336414 0.015 Uiso 1 1 d R
N2 N 0.21595(18) 0.31564(15) 0.52270(8) 0.0129(3) Uani 1 1 d .
H2 H 0.138379 0.382473 0.515542 0.015 Uiso 1 1 calc R
C1 C 0.3151(2) 0.30536(18) 0.45425(10) 0.0118(3) Uani 1 1 d .
C2 C 0.1809(2) 0.52058(18) 0.36645(10) 0.0117(3) Uani 1 1 d .
C3 C 0.1974(2) 0.62049(18) 0.28113(10) 0.0118(3) Uani 1 1 d .
C4 C 0.1719(2) 0.55123(18) 0.18630(10) 0.0127(3) Uani 1 1 d .
C5 C 0.1901(2) 0.65565(19) 0.11256(11) 0.0156(3) Uani 1 1 d .
H5 H 0.170457 0.607383 0.047937 0.019 Uiso 1 1 calc R
C6 C 0.2374(2) 0.8320(2) 0.13522(11) 0.0164(3) Uani 1 1 d .
C7 C 0.2629(2) 0.90537(19) 0.22811(11) 0.0170(3) Uani 1 1 d .
H7 H 0.295305 1.026670 0.242114 0.020 Uiso 1 1 calc R
C8 C 0.2404(2) 0.79882(19) 0.30041(10) 0.0144(3) Uani 1 1 d .
H8 H 0.254478 0.847772 0.364370 0.017 Uiso 1 1 calc R
C9 C 0.2261(2) 0.22634(19) 0.60681(10) 0.0125(3) Uani 1 1 d .
C10 C 0.2689(2) 0.32459(18) 0.69807(10) 0.0120(3) Uani 1 1 d .
C11 C 0.2685(2) 0.23536(19) 0.78168(10) 0.0149(3) Uani 1 1 d .
C12 C 0.2275(2) 0.0539(2) 0.77191(11) 0.0174(3) Uani 1 1 d .
H12 H 0.226112 -0.006105 0.827538 0.021 Uiso 1 1 calc R
C13 C 0.1898(2) -0.03564(19) 0.68319(11) 0.0178(3) Uani 1 1 d .
H13 H 0.163848 -0.157256 0.677702 0.021 Uiso 1 1 calc R
C14 C 0.1890(2) 0.05051(19) 0.59983(11) 0.0149(3) Uani 1 1 d .
H14 H 0.162775 -0.013099 0.538495 0.018 Uiso 1 1 calc R
C15 C 0.3135(2) 0.50692(19) 0.70924(11) 0.0141(3) Uani 1 1 d .
H15 H 0.312672 0.567773 0.653917 0.017 Uiso 1 1 calc R
C16 C 0.3576(2) 0.5958(2) 0.79866(11) 0.0176(3) Uani 1 1 d .
H16 H 0.389723 0.717829 0.805010 0.021 Uiso 1 1 calc R
C17 C 0.3557(2) 0.5076(2) 0.88156(11) 0.0195(3) Uani 1 1 d .
H17 H 0.385664 0.570257 0.943404 0.023 Uiso 1 1 calc R
C18 C 0.3109(2) 0.3325(2) 0.87306(11) 0.0186(3) Uani 1 1 d .
H18 H 0.307882 0.274405 0.929288 0.022 Uiso 1 1 calc R
loop_
_atom_site_aniso_label
_atom_site_aniso_U_11
_atom_site_aniso_U_22
_atom_site_aniso_U_33
_atom_site_aniso_U_23
_atom_site_aniso_U_13
_atom_site_aniso_U_12
Cl1 0.0286(2) 0.01264(17) 0.01498(18) 0.00000(13) 0.00183(15) 0.00357(15)
Cl2 0.0481(3) 0.0220(2) 0.0161(2) 0.01140(16) 0.00716(18) 0.00061(18)
S1 0.01821(19) 0.01397(18) 0.01541(19) 0.00464(14) 0.00504(14) 0.00898(14)
O1 0.0179(5) 0.0219(5) 0.0156(5) 0.0086(4) 0.0082(4) 0.0113(4)
N1 0.0149(6) 0.0139(6) 0.0113(6) 0.0042(5) 0.0049(5) 0.0064(5)
N2 0.0149(6) 0.0146(6) 0.0117(6) 0.0053(5) 0.0035(5) 0.0071(5)
C1 0.0123(7) 0.0106(6) 0.0107(6) 0.0011(5) 0.0006(5) 0.0014(5)
C2 0.0114(7) 0.0123(6) 0.0104(7) 0.0019(5) 0.0013(5) 0.0021(5)
C3 0.0107(7) 0.0140(7) 0.0117(7) 0.0047(5) 0.0029(5) 0.0041(5)
C4 0.0119(7) 0.0119(6) 0.0134(7) 0.0014(5) 0.0018(5) 0.0024(5)
C5 0.0163(7) 0.0190(7) 0.0107(7) 0.0024(6) 0.0031(6) 0.0033(6)
C6 0.0169(7) 0.0187(7) 0.0136(7) 0.0091(6) 0.0041(6) 0.0029(6)
C7 0.0201(8) 0.0134(7) 0.0173(7) 0.0041(6) 0.0035(6) 0.0042(6)
C8 0.0166(7) 0.0158(7) 0.0116(7) 0.0022(6) 0.0032(6) 0.0056(6)
C9 0.0111(7) 0.0161(7) 0.0121(7) 0.0062(6) 0.0033(5) 0.0053(5)
C10 0.0084(7) 0.0157(7) 0.0127(7) 0.0049(6) 0.0029(5) 0.0033(5)
C11 0.0119(7) 0.0198(7) 0.0139(7) 0.0065(6) 0.0039(6) 0.0044(6)
C12 0.0165(8) 0.0199(7) 0.0167(7) 0.0115(6) 0.0033(6) 0.0048(6)
C13 0.0169(8) 0.0138(7) 0.0225(8) 0.0077(6) 0.0038(6) 0.0031(6)
C14 0.0146(7) 0.0157(7) 0.0141(7) 0.0030(6) 0.0017(6) 0.0043(6)
C15 0.0119(7) 0.0164(7) 0.0154(7) 0.0058(6) 0.0041(6) 0.0050(6)
C16 0.0151(7) 0.0179(7) 0.0195(8) 0.0013(6) 0.0029(6) 0.0049(6)
C17 0.0176(8) 0.0278(8) 0.0129(7) -0.0003(6) 0.0018(6) 0.0074(7)
C18 0.0178(8) 0.0279(8) 0.0110(7) 0.0072(6) 0.0034(6) 0.0067(6)
loop_
_atom_type_symbol
_atom_type_description
_atom_type_scat_dispersion_real
_atom_type_scat_dispersion_imag
_atom_type_scat_source
C C 0.0033 0.0016 'International Tables Vol C Tables 4.2.6.8 and 6.1.1.4'
H H 0.0000 0.0000 'International Tables Vol C Tables 4.2.6.8 and 6.1.1.4'
Cl Cl 0.1484 0.1585 'International Tables Vol C Tables 4.2.6.8 and 6.1.1.4'
N N 0.0061 0.0033 'International Tables Vol C Tables 4.2.6.8 and 6.1.1.4'
O O 0.0106 0.0060 'International Tables Vol C Tables 4.2.6.8 and 6.1.1.4'
S S 0.1246 0.1234 'International Tables Vol C Tables 4.2.6.8 and 6.1.1.4'
loop_
_geom_angle_atom_site_label_1
_geom_angle_atom_site_label_2
_geom_angle_atom_site_label_3
_geom_angle
C1 N1 H1 108.5
C2 N1 H1 121.6
C2 N1 C1 129.01(12)
C1 N2 H2 117.5
C1 N2 C9 124.99(12)
C9 N2 H2 117.5
N1 C1 S1 117.30(11)
N2 C1 S1 126.53(11)
N2 C1 N1 116.17(12)
O1 C2 N1 122.98(13)
O1 C2 C3 121.06(13)
N1 C2 C3 115.85(12)
C4 C3 C2 125.95(13)
C4 C3 C8 118.38(13)
C8 C3 C2 115.67(12)
C3 C4 Cl1 121.63(11)
C5 C4 Cl1 117.08(11)
C5 C4 C3 121.25(13)
C4 C5 H5 120.8
C6 C5 C4 118.46(14)
C6 C5 H5 120.8
C5 C6 Cl2 118.60(12)
C7 C6 Cl2 119.39(12)
C7 C6 C5 122.01(14)
C6 C7 H7 120.7
C6 C7 C8 118.66(14)
C8 C7 H7 120.7
C3 C8 H8 119.4
C7 C8 C3 121.22(14)
C7 C8 H8 119.4
C10 C9 N2 117.94(13)
C14 C9 N2 121.15(13)
C14 C9 C10 120.87(13)
C9 C10 C11 118.17(13)
C15 C10 C9 122.98(13)
C15 C10 C11 118.85(13)
C12 C11 C10 119.55(14)
C12 C11 C18 121.94(13)
C18 C11 C10 118.51(14)
C11 C12 H12 119.7
C13 C12 C11 120.53(13)
C13 C12 H12 119.7
C12 C13 H13 119.7
C12 C13 C14 120.63(14)
C14 C13 H13 119.7
C9 C14 C13 120.23(14)
C9 C14 H14 119.9
C13 C14 H14 119.9
C10 C15 H15 119.6
C16 C15 C10 120.79(14)
C16 C15 H15 119.6
C15 C16 H16 119.8
C15 C16 C17 120.46(15)
C17 C16 H16 119.8
C16 C17 H17 119.9
C18 C17 C16 120.10(14)
C18 C17 H17 119.9
C11 C18 H18 119.4
C17 C18 C11 121.27(14)
C17 C18 H18 119.4
loop_
_geom_bond_atom_site_label_1
_geom_bond_atom_site_label_2
_geom_bond_distance
Cl1 C4 1.7398(15)
Cl2 C6 1.7366(15)
S1 C1 1.6602(15)
O1 C2 1.2163(18)
N1 H1 0.9335
N1 C1 1.4011(18)
N1 C2 1.3656(18)
N2 H2 0.8800
N2 C1 1.3339(19)
N2 C9 1.4300(18)
C2 C3 1.4998(19)
C3 C4 1.394(2)
C3 C8 1.397(2)
C4 C5 1.386(2)
C5 H5 0.9500
C5 C6 1.385(2)
C6 C7 1.380(2)
C7 H7 0.9500
C7 C8 1.383(2)
C8 H8 0.9500
C9 C10 1.424(2)
C9 C14 1.374(2)
C10 C11 1.4235(19)
C10 C15 1.421(2)
C11 C12 1.416(2)
C11 C18 1.421(2)
C12 H12 0.9500
C12 C13 1.366(2)
C13 H13 0.9500
C13 C14 1.407(2)
C14 H14 0.9500
C15 H15 0.9500
C15 C16 1.367(2)
C16 H16 0.9500
C16 C17 1.411(2)
C17 H17 0.9500
C17 C18 1.363(2)
C18 H18 0.9500
loop_
_geom_hbond_atom_site_label_D
_geom_hbond_atom_site_label_H
_geom_hbond_atom_site_label_A
_geom_hbond_distance_DH
_geom_hbond_distance_HA
_geom_hbond_distance_DA
_geom_hbond_angle_DHA
_geom_hbond_site_symmetry_A
_geom_hbond_publ_flag
N2 H2 O1 0.88 1.99 2.6809(16) 134.9 . yes
N2 H2 O1 0.88 2.18 2.9257(17) 141.9 2_566 yes
loop_
_geom_torsion_atom_site_label_1
_geom_torsion_atom_site_label_2
_geom_torsion_atom_site_label_3
_geom_torsion_atom_site_label_4
_geom_torsion
Cl1 C4 C5 C6 178.63(11)
Cl2 C6 C7 C8 -179.00(12)
O1 C2 C3 C4 -132.92(16)
O1 C2 C3 C8 46.3(2)
N1 C2 C3 C4 50.6(2)
N1 C2 C3 C8 -130.13(14)
N2 C9 C10 C11 176.55(12)
N2 C9 C10 C15 -4.0(2)
N2 C9 C14 C13 -176.66(13)
C1 N1 C2 O1 -4.2(2)
C1 N1 C2 C3 172.18(13)
C1 N2 C9 C10 126.45(15)
C1 N2 C9 C14 -55.8(2)
C2 N1 C1 S1 -172.48(12)
C2 N1 C1 N2 7.0(2)
C2 C3 C4 Cl1 2.3(2)
C2 C3 C4 C5 179.81(14)
C2 C3 C8 C7 178.82(13)
C3 C4 C5 C6 1.0(2)
C4 C3 C8 C7 -1.9(2)
C4 C5 C6 Cl2 177.76(11)
C4 C5 C6 C7 -1.3(2)
C5 C6 C7 C8 0.1(2)
C6 C7 C8 C3 1.6(2)
C8 C3 C4 Cl1 -176.98(11)
C8 C3 C4 C5 0.6(2)
C9 N2 C1 S1 -0.8(2)
C9 N2 C1 N1 179.83(13)
C9 C10 C11 C12 0.5(2)
C9 C10 C11 C18 -179.89(13)
C9 C10 C15 C16 -178.66(14)
C10 C9 C14 C13 1.1(2)
C10 C11 C12 C13 0.5(2)
C10 C11 C18 C17 -1.6(2)
C10 C15 C16 C17 -1.3(2)
C11 C10 C15 C16 0.8(2)
C11 C12 C13 C14 -0.7(2)
C12 C11 C18 C17 178.06(15)
C12 C13 C14 C9 -0.1(2)
C14 C9 C10 C11 -1.2(2)
C14 C9 C10 C15 178.20(14)
C15 C10 C11 C12 -178.99(13)
C15 C10 C11 C18 0.6(2)
C15 C16 C17 C18 0.4(2)
C16 C17 C18 C11 1.1(2)
C18 C11 C12 C13 -179.15(14)
