#------------------------------------------------------------------------------
#$Date: 2019-11-10 06:54:30 +0200 (Sun, 10 Nov 2019) $
#$Revision: 225758 $
#$URL: file:///home/coder/svn-repositories/cod/cif/4/51/56/4515614.cif $
#------------------------------------------------------------------------------
#
# This file is available in the Crystallography Open Database (COD),
# http://www.crystallography.net/
#
# All data on this site have been placed in the public domain by the
# contributors.
#
data_4515614
loop_
_publ_author_name
'Xiong, Xiaodong'
'Yeung, Ying-Yeung'
_publ_section_title
;
 Ammonium Salt-Catalyzed Highly Practical Ortho-Selective Monohalogenation
 and Phenylselenation of Phenols: Scope and Applications
;
_journal_issue                   5
_journal_name_full               'ACS Catalysis'
_journal_page_first              4033
_journal_paper_doi               10.1021/acscatal.8b00327
_journal_volume                  8
_journal_year                    2018
_chemical_formula_sum            'C8 H7 Cl O2'
_chemical_formula_weight         170.59
_space_group_crystal_system      monoclinic
_space_group_IT_number           14
_space_group_name_Hall           '-P 2ybc'
_space_group_name_H-M_alt        'P 1 21/c 1'
_atom_sites_solution_hydrogens   mixed
_audit_creation_method           SHELXL-2014/6
_cell_angle_alpha                90
_cell_angle_beta                 108.0691(11)
_cell_angle_gamma                90
_cell_formula_units_Z            4
_cell_length_a                   6.7838(3)
_cell_length_b                   16.4432(8)
_cell_length_c                   7.2539(3)
_cell_measurement_reflns_used    323
_cell_measurement_temperature    296(2)
_cell_measurement_theta_max      15
_cell_measurement_theta_min      15
_cell_volume                     769.25(6)
_computing_cell_refinement       'BRUKER D8VENTURE DIFFRACTOMETER'
_computing_data_collection       'BRUKER D8VENTURE DIFFRACTOMETER'
_computing_data_reduction        'BRUKER D8VENTURE DIFFRACTOMETER'
_computing_molecular_graphics    'BRUKER SHELXTL'
_computing_publication_material  'BRUKER SHELXTL'
_computing_structure_refinement  'SHELXL-2014/6 (Sheldrick, 2014)'
_diffrn_ambient_temperature      296(2)
_diffrn_measured_fraction_theta_full 0.988
_diffrn_measured_fraction_theta_max 0.988
_diffrn_measurement_device_type  'BRUKER D8VENTURE DIFFRACTOMETER'
_diffrn_measurement_method       'PHI & OMEGA SCAN'
_diffrn_radiation_type           MoK\a
_diffrn_radiation_wavelength     0.71073
_diffrn_reflns_av_R_equivalents  0.0191
_diffrn_reflns_av_unetI/netI     0.0102
_diffrn_reflns_Laue_measured_fraction_full 0.988
_diffrn_reflns_Laue_measured_fraction_max 0.988
_diffrn_reflns_limit_h_max       8
_diffrn_reflns_limit_h_min       -7
_diffrn_reflns_limit_k_max       19
_diffrn_reflns_limit_k_min       -19
_diffrn_reflns_limit_l_max       8
_diffrn_reflns_limit_l_min       -8
_diffrn_reflns_number            13159
_diffrn_reflns_point_group_measured_fraction_full 0.988
_diffrn_reflns_point_group_measured_fraction_max 0.988
_diffrn_reflns_theta_full        25.242
_diffrn_reflns_theta_max         25.236
_diffrn_reflns_theta_min         2.477
_exptl_absorpt_coefficient_mu    0.436
_exptl_absorpt_correction_T_max  0.7456
_exptl_absorpt_correction_T_min  0.6550
_exptl_absorpt_correction_type   multi-scan
_exptl_crystal_colour            colourless
_exptl_crystal_density_diffrn    1.473
_exptl_crystal_description       block
_exptl_crystal_F_000             352
_exptl_crystal_size_max          0.400
_exptl_crystal_size_mid          0.300
_exptl_crystal_size_min          0.200
_refine_diff_density_max         0.400
_refine_diff_density_min         -0.426
_refine_diff_density_rms         0.111
_refine_ls_extinction_method     none
_refine_ls_goodness_of_fit_ref   1.129
_refine_ls_hydrogen_treatment    mixed
_refine_ls_matrix_type           full
_refine_ls_number_parameters     104
_refine_ls_number_reflns         1375
_refine_ls_number_restraints     0
_refine_ls_restrained_S_all      1.129
_refine_ls_R_factor_all          0.0403
_refine_ls_R_factor_gt           0.0376
_refine_ls_shift/su_max          0.000
_refine_ls_shift/su_mean         0.000
_refine_ls_structure_factor_coef Fsqd
_refine_ls_weighting_details
'w=1/[\s^2^(Fo^2^)+(0.0768P)^2^+0.2732P] where P=(Fo^2^+2Fc^2^)/3'
_refine_ls_weighting_scheme      calc
_refine_ls_wR_factor_gt          0.1228
_refine_ls_wR_factor_ref         0.1263
_reflns_Friedel_coverage         0.000
_reflns_number_gt                1277
_reflns_number_total             1375
_reflns_threshold_expression     'I > 2\s(I)'
_cod_data_source_file            cs8b00327_si_003.cif
_cod_data_source_block           XXD287
_cod_original_sg_symbol_H-M      'P 21/c'
_cod_database_code               4515614
_shelx_space_group_comment
;
The symmetry employed for this shelxl refinement is uniquely defined
by the following loop, which should always be used as a source of
symmetry information in preference to the above space-group names.
They are only intended as comments.
;
_shelx_estimated_absorpt_t_min   0.845
_shelx_estimated_absorpt_t_max   0.918
_shelxl_version_number           2014/6
_shelx_res_file
;
TITL P in P2(1)/c
CELL 0.71073   6.78380  16.44320   7.25390  90.0000 108.0691  90.0000
ZERR   4.00   0.00030   0.00080   0.00030   0.0000   0.0011   0.0000
LATT  1
SYMM -X, 0.5+Y, 0.5-Z
SFAC C H O CL
UNIT 32 28 8 4
REM C8 H7 Cl O2
REM D8VENTURE BLOCK COLOURLESS
OMIT -3 50.5
SIZE 0.40 0.30 0.20

TEMP 23

L.S. 4
ACTA
FMAP 2
PLAN 20

WGHT    0.076800    0.273200
FVAR       0.57657
CL1   4    0.163551    0.665217    0.836341    11.00000    0.03587    0.08591 =
         0.04372    0.01878    0.01313   -0.00561
C1    1    0.025294    0.626777    0.981900    11.00000    0.02948    0.03512 =
         0.02489    0.00141    0.00575   -0.00046
C2    1    0.135184    0.608270    1.174102    11.00000    0.02790    0.04171 =
         0.02809   -0.00096   -0.00033    0.00219
C3    1    0.029255    0.576124    1.292757    11.00000    0.04351    0.04779 =
         0.02405    0.00702    0.00346    0.00744
AFIX  43
H3A   2    0.100103    0.565042    1.422111    11.00000   -1.20000
AFIX   0
C4    1   -0.179969    0.560471    1.220654    11.00000    0.04257    0.04476 =
         0.03487    0.01015    0.01526    0.00344
AFIX  43
H4A   2   -0.249417    0.538742    1.301497    11.00000   -1.20000
AFIX   0
C5    1   -0.287424    0.576806    1.029164    11.00000    0.02939    0.03599 =
         0.03680    0.00416    0.00693   -0.00219
AFIX  43
H5A   2   -0.428132    0.564883    0.980826    11.00000   -1.20000
AFIX   0
C6    1   -0.186258    0.610941    0.908600    11.00000    0.02789    0.02736 =
         0.02555   -0.00115    0.00236    0.00079
C7    1   -0.317439    0.630695    0.705760    11.00000    0.02807    0.04044 =
         0.02556   -0.00027    0.00156    0.00194
C8    1   -0.308327    0.712627    0.622148    11.00000    0.06933    0.05010 =
         0.03968    0.01276   -0.00843   -0.00288
AFIX  33
H8A   2   -0.202581    0.744395    0.711896    11.00000   -1.50000
H8B   2   -0.276586    0.707188    0.502645    11.00000   -1.50000
H8C   2   -0.439930    0.739207    0.597908    11.00000   -1.50000
AFIX   0
O1    3    0.341274    0.622816    1.235449    11.00000    0.02893    0.08594 =
         0.03753    0.00987   -0.00706   -0.00475
O2    3   -0.441167    0.580428    0.615856    11.00000    0.05187    0.05917 =
         0.03725    0.00186   -0.01224   -0.01680
H1A   2    0.386686    0.605991    1.343658    11.00000    0.07654

HKLF 4

REM  P in P2(1)/c
REM R1 =  0.0376 for    1277 Fo > 4sig(Fo)  and  0.0403 for all    1375 data
REM    104 parameters refined using      0 restraints

END

WGHT      0.0767      0.2726

REM Highest difference peak  0.400,  deepest hole -0.426,  1-sigma level  0.111
Q1    1  -0.4285  0.7188  0.4858  11.00000  0.05    0.40
Q2    1  -0.4627  0.6172  0.6609  11.00000  0.05    0.29
Q3    1  -0.4863  0.5970  0.9983  11.00000  0.05    0.26
Q4    1   0.1429  0.7062  0.8967  11.00000  0.05    0.25
Q5    1  -0.2457  0.6215  0.8163  11.00000  0.05    0.23
Q6    1  -0.3591  0.5815  0.5702  11.00000  0.05    0.22
Q7    1  -0.4350  0.7503  0.7244  11.00000  0.05    0.21
Q8    1  -0.5060  0.5864  0.5411  11.00000  0.05    0.21
Q9    1  -0.4408  0.5479  0.6936  11.00000  0.05    0.21
Q10   1  -0.5376  0.6754  0.7004  11.00000  0.05    0.20
Q11   1   0.4692  0.5916  1.1486  11.00000  0.05    0.20
Q12   1   0.5007  0.5408  1.4371  11.00000  0.05    0.19
Q13   1  -0.4112  0.6894  0.6771  11.00000  0.05    0.19
Q14   1  -0.4923  0.7115  0.2949  11.00000  0.05    0.18
Q15   1  -0.4231  0.5417  0.8434  11.00000  0.05    0.18
Q16   1  -0.5046  0.4888  0.6815  11.00000  0.05    0.18
Q17   1   0.5352  0.6534  1.3721  11.00000  0.05    0.18
Q18   1   0.3897  0.6623  1.1715  11.00000  0.05    0.17
Q19   1   0.3626  0.6406  1.3632  11.00000  0.05    0.17
Q20   1   0.4125  0.6634  0.7939  11.00000  0.05    0.17
;
_shelx_res_checksum              9544
_shelx_hkl_file
;
  -1   0   0   23.60    0.54
   3   0   0   65.98    1.47
  -3   0   0   65.47    1.35
  -3   0   0   66.17    1.46
   3   0   0   63.71    1.58
   3   0   0   65.14    1.42
   3   0   0   64.05    1.39
   3   0   0   65.86    1.43
  -3   0   0   64.94    1.41
   4   0   0  106.51    2.47
   4   0   0  103.70    2.18
   4   0   0  105.92    2.25
   4   0   0  102.94    2.29
   4   0   0  105.01    2.21
  -4   0   0  106.02    2.29
   5   0   0   22.85    0.65
   5   0   0   22.11    0.73
   5   0   0   22.69    0.63
   5   0   0   22.96    0.72
   5   0   0   22.11    0.91
  -5   0   0   22.84    0.74
   6   0   0  374.92    7.86
   6   0   0  395.79    7.82
  -6   0   0  385.96    7.86
   6   0   0  393.61    9.05
   7   0   0   56.09    2.21
   7   0   0   68.03    1.70
   7   0   0   67.28    2.07
   8   0   0   36.68    1.27
   8   0   0   36.76    1.64
  -1  -1   0    4.80    0.15
  -1  -1   0    4.91    0.17
   1  -1   0    5.02    0.17
  -1  -1   0    5.23    0.19
   1  -1   0    4.97    0.16
   1   1   0    5.07    0.17
   1   1   0    4.84    0.17
   1   1   0    5.02    0.15
  -1   1   0    4.59    0.15
   3  -1   0  190.77    3.86
   3  -1   0  188.25    3.82
  -3  -1   0  195.48    3.88
  -3  -1   0  191.45    3.82
  -3  -1   0  188.73    3.75
   3  -1   0  191.14    3.82
   3   1   0  190.64    3.81
   3   1   0  171.14    3.88
  -3   1   0  191.43    3.74
   3   1   0  190.01    3.99
  -3   1   0  193.05    3.85
   3   1   0  197.43    3.87
   3   1   0  193.05    3.81
   4  -1   0   22.46    0.65
  -4  -1   0   21.81    0.68
   4  -1   0   22.20    0.55
  -4  -1   0   22.37    0.63
   4  -1   0   23.37    0.83
   4  -1   0   23.76    0.69
  -4  -1   0   21.54    0.51
   4  -1   0   22.01    0.62
   4   1   0   22.07    0.63
  -4   1   0   22.04    0.66
   4   1   0   22.32    0.65
   4   1   0   22.54    0.76
   4   1   0   22.56    0.61
   4   1   0   22.24    0.82
   5  -1   0  152.79    3.31
   5  -1   0  153.78    3.18
  -5  -1   0  153.75    3.31
   5  -1   0  153.84    3.12
   5  -1   0  155.89    3.54
   5  -1   0  152.89    3.26
   5   1   0  148.70    3.29
   5   1   0  153.18    3.24
   5   1   0  157.40    3.55
  -5   1   0  154.16    3.28
   5   1   0  150.91    3.18
  -6  -1   0   11.13    0.55
   6  -1   0    9.98    0.42
   6  -1   0   10.41    0.54
   6  -1   0   10.27    0.54
   6  -1   0   10.63    0.35
   6   1   0   11.02    0.54
   6   1   0   11.44    0.53
  -6   1   0    9.59    0.52
   6   1   0   10.91    0.44
   7  -1   0   10.55    0.86
   7  -1   0    9.66    1.03
   7  -1   0   10.07    0.60
   7   1   0   10.85    0.61
   7   1   0    9.77    0.84
   8  -1   0   19.32    0.92
   8  -1   0   18.85    1.25
   8   1   0   17.69    1.23
   8   1   0   19.35    0.92
   0  -2   0   56.18    1.10
   0  -2   0   49.15    1.11
   0  -2   0   57.75    1.15
   0   2   0   44.39    1.09
   0   2   0   52.82    1.09
  -1  -2   0    2.75    0.15
  -1  -2   0    2.53    0.12
   1  -2   0    2.61    0.12
   1  -2   0    2.58    0.13
  -1  -2   0    2.59    0.14
   1  -2   0    2.71    0.08
   1   2   0    2.43    0.13
  -1   2   0    2.56    0.12
   1   2   0    2.56    0.14
   1   2   0    2.57    0.12
   1   2   0    2.86    0.16
  -2  -2   0  122.85    2.93
   2  -2   0  141.35    2.79
  -2  -2   0  137.64    2.73
  -2  -2   0  137.38    2.77
   2  -2   0  135.60    2.75
   2   2   0  141.63    2.80
   2   2   0  138.50    2.75
   2   2   0  138.22    2.87
   2   2   0  135.86    2.78
  -2   2   0  136.70    2.72
   3  -2   0   10.10    0.38
  -3  -2   0    9.17    0.30
  -3  -2   0    9.85    0.38
   3  -2   0    9.39    0.37
  -3  -2   0    9.35    0.45
  -3  -2   0    9.63    0.36
   3   2   0    9.71    0.36
  -3   2   0    9.65    0.36
   3   2   0    9.55    0.45
   3   2   0    9.74    0.37
   3   2   0    9.46    0.36
  -3   2   0    9.11    0.29
  -4  -2   0   37.10    0.83
  -4  -2   0   36.72    0.95
  -4  -2   0   37.20    0.85
   4  -2   0   38.14    1.01
   4  -2   0   38.35    0.95
   4  -2   0   38.41    0.97
  -4  -2   0   38.07    1.05
   4   2   0   39.76    1.16
   4   2   0   37.77    0.95
   4   2   0   36.71    1.09
  -4   2   0   37.14    0.80
   4   2   0   37.96    0.97
  -4   2   0   36.92    0.96
   5  -2   0    1.75    0.24
  -5  -2   0    1.65    0.23
   5  -2   0    1.83    0.36
   5  -2   0    1.91    0.26
   5  -2   0    1.80    0.22
   5   2   0    1.55    0.23
   5   2   0    2.05    0.26
   5   2   0    1.68    0.33
   5   2   0    1.85    0.25
  -5   2   0    1.76    0.26
  -6  -2   0   18.98    0.74
   6  -2   0   15.09    0.71
   6  -2   0   18.64    0.71
   6  -2   0   18.57    0.72
   6   2   0   19.13    0.70
  -6   2   0   17.70    0.69
   6   2   0   19.20    0.64
   6   2   0   18.52    0.71
   7  -2   0    0.92    0.28
   7  -2   0   -0.21    0.34
   7   2   0    0.36    0.25
   7   2   0    0.89    0.36
   8  -2   0   -0.04    0.34
   8  -2   0    0.12    0.52
   8   2   0    0.22    0.35
   8   2   0   -0.04    0.49
   0  -3   0   -0.77    0.04
   0  -3   0   -0.72    0.05
   0  -3   0   -0.75    0.03
   0  -3   0   -0.72    0.04
   0  -3   0   -0.69    0.04
   0   3   0   -0.75    0.05
   0   3   0   -0.76    0.03
   0   3   0   -0.59    0.06
   0   3   0   -0.75    0.04
   0   3   0   -0.69    0.04
  -1  -3   0   73.60    1.61
   1  -3   0   78.15    1.63
  -1  -3   0   77.40    1.64
   1  -3   0   73.15    1.53
   1  -3   0   76.97    1.59
  -1  -3   0   76.35    1.58
  -1  -3   0   76.40    1.64
  -1   3   0   76.36    1.59
   1   3   0   73.92    1.61
   1   3   0   76.24    1.60
  -1   3   0   78.93    1.62
   1   3   0   77.35    1.65
  -1   3   0   74.02    1.52
   1   3   0   77.04    1.65
  -2  -3   0   31.49    0.79
   2  -3   0   31.57    0.80
  -2  -3   0   31.82    0.74
   2  -3   0   32.44    0.77
  -2  -3   0   31.54    0.85
   2   3   0   31.35    0.86
  -2   3   0   31.22    0.74
   2   3   0   31.75    0.77
   2   3   0   31.70    0.81
   3  -3   0  102.05    2.13
  -3  -3   0  102.88    2.28
  -3  -3   0   97.82    2.15
   3  -3   0  100.94    2.18
  -3  -3   0  100.85    2.07
   3  -3   0  100.19    2.13
   3   3   0  100.42    2.16
   3   3   0   99.24    2.17
  -3   3   0   96.38    2.18
   3   3   0  101.03    2.12
   3   3   0  100.07    2.28
  -3   3   0   98.58    2.15
  -4  -3   0  255.34    5.06
   4  -3   0  257.62    5.16
  -4  -3   0  260.76    5.26
   4  -3   0  255.43    5.18
  -4  -3   0  254.87    5.04
  -4   3   0  257.31    5.19
  -4   3   0  251.38    5.00
   4   3   0  245.38    5.37
   4   3   0  259.74    5.41
   4   3   0  254.11    5.16
   4   3   0  261.60    5.23
   5  -3   0   17.19    0.65
   5  -3   0   17.96    0.63
  -5  -3   0   18.63    0.65
  -5  -3   0   17.59    0.68
   5   3   0   18.66    0.66
   5   3   0   19.13    0.64
  -5   3   0   17.41    0.62
   5   3   0   17.66    0.62
   5   3   0   16.93    0.81
   6  -3   0   18.34    0.71
   6  -3   0   19.21    0.65
  -6  -3   0   17.83    0.64
  -6  -3   0   16.80    0.99
   6  -3   0   17.24    1.10
   6  -3   0   17.19    0.71
   6   3   0   18.30    0.70
   6   3   0   18.20    0.65
   6   3   0   17.36    0.71
   6   3   0   16.03    0.96
  -6   3   0   16.90    0.68
   7  -3   0    1.39    0.33
   7  -3   0    1.66    0.42
   7   3   0    1.58    0.49
   7   3   0    1.83    0.34
   8  -3   0   -0.07    0.53
   8  -3   0   -0.04    0.35
   8   3   0   -0.42    0.51
   8   3   0    0.64    0.61
   1  -4   0  181.06    3.71
  -1  -4   0  181.11    3.77
  -1  -4   0  187.32    3.76
   1  -4   0  183.04    3.64
  -1  -4   0  183.38    3.77
  -1  -4   0  187.32    3.72
  -1  -4   0  182.56    3.71
   1  -4   0  183.64    3.72
   1  -4   0  191.49    3.76
  -1  -4   0  182.45    3.74
   1   4   0  184.84    3.73
   1   4   0  184.32    3.78
  -1   4   0  186.35    3.76
   1   4   0  188.60    3.78
   1   4   0  181.06    3.76
   1   4   0  189.13    3.73
  -1   4   0  187.91    3.71
  -1   4   0  182.93    3.64
  -2  -4   0   34.99    0.93
  -2  -4   0   35.23    0.94
  -2  -4   0   35.37    0.83
  -2  -4   0   35.85    0.86
   2  -4   0   35.22    0.89
   2   4   0   34.11    0.90
   2   4   0   35.38    0.89
   2   4   0   35.37    0.94
  -2   4   0   35.13    0.84
   2   4   0   35.18    0.87
   2   4   0   34.75    0.95
  -2   4   0   34.52    0.72
   3  -4   0    1.07    0.16
  -3  -4   0    1.07    0.14
  -3  -4   0    0.82    0.16
  -3  -4   0    0.92    0.14
  -3  -4   0    0.92    0.23
   3  -4   0    0.95    0.15
   3   4   0    1.02    0.15
   3   4   0    0.82    0.15
   3   4   0    0.91    0.16
   3   4   0    0.52    0.16
  -3   4   0    0.60    0.11
  -3   4   0    1.03    0.14
  -4  -4   0   56.71    1.28
  -4  -4   0   56.57    1.26
   4  -4   0   55.40    1.36
  -4  -4   0   56.00    1.45
   4  -4   0   55.47    1.41
  -4  -4   0   56.82    1.54
   4  -4   0   53.73    1.44
  -4  -4   0   57.52    1.41
   4   4   0   58.01    1.40
   4   4   0   57.49    1.37
   4   4   0   59.45    1.58
  -4   4   0   54.66    1.37
   4   4   0   56.81    1.41
   5  -4   0    6.44    0.39
  -5  -4   0    6.40    0.43
   5  -4   0    6.51    0.38
   5  -4   0    6.10    0.39
  -5  -4   0    5.96    0.24
  -5  -4   0    6.71    0.44
  -5  -4   0    5.92    0.23
   5   4   0    6.11    0.38
  -5   4   0    6.07    0.36
   5   4   0    6.46    0.37
   5   4   0    6.43    0.55
   6  -4   0  148.71    3.36
  -6  -4   0  150.22    3.41
  -6  -4   0  150.48    3.22
   6  -4   0  152.57    3.66
   6  -4   0  150.85    3.32
   6  -4   0  153.47    3.23
  -6   4   0  148.11    3.30
   6   4   0  151.34    3.66
   6   4   0  148.95    3.29
   6   4   0  149.15    3.35
   6   4   0  149.88    3.31
   7  -4   0    8.17    0.80
   7  -4   0    8.05    0.61
   7   4   0    7.58    0.80
   7   4   0    8.29    0.63
   8  -4   0    8.11    1.07
   8  -4   0    7.34    0.75
   8   4   0    6.09    0.74
   8   4   0    8.67    1.11
   8   4   0    7.38    0.83
   0  -5   0    0.27    0.12
   0  -5   0    0.25    0.18
   0  -5   0    0.12    0.08
   0  -5   0    0.15    0.08
   0  -5   0    0.12    0.09
   0  -5   0    0.22    0.10
   0   5   0    0.09    0.08
   0   5   0    0.25    0.09
   0   5   0    0.28    0.10
   2  -5   0   94.09    2.04
   2  -5   0   94.35    2.08
  -2  -5   0   92.41    2.11
  -2  -5   0   95.85    2.04
  -2  -5   0   95.76    2.15
   2   5   0   92.99    2.13
  -2   5   0   93.66    1.89
   2   5   0   94.94    2.13
   2   5   0   94.74    2.10
   2   5   0   93.44    2.07
   2   5   0   92.97    2.05
  -2   5   0   95.53    2.01
  -2   5   0   93.37    2.07
   3  -5   0   12.03    0.46
  -3  -5   0   12.90    0.47
  -3  -5   0   12.64    0.51
  -3  -5   0   12.58    0.51
  -3  -5   0   13.36    0.56
  -3  -5   0   12.08    0.41
   3  -5   0   13.05    0.49
   3   5   0   12.39    0.48
   3   5   0   12.57    0.53
   3   5   0   12.51    0.57
   3   5   0   12.72    0.48
   3   5   0   11.77    0.49
  -3   5   0   12.82    0.42
   4  -5   0  169.53    3.56
   4  -5   0  172.99    3.63
  -4  -5   0  165.44    3.55
  -4  -5   0  171.56    3.60
   4  -5   0  168.13    3.56
  -4  -5   0  161.29    3.73
  -4  -5   0  171.31    3.46
   4   5   0  171.14    3.78
  -4   5   0  167.77    3.58
   4   5   0  167.79    3.60
   4   5   0  171.96    3.63
   4   5   0  169.68    3.57
  -5  -5   0   64.78    1.44
   5  -5   0   65.06    1.67
  -5  -5   0   66.38    1.73
   5  -5   0   65.63    1.61
   5  -5   0   66.16    1.63
  -5  -5   0   66.18    1.64
  -5  -5   0   64.69    1.42
  -5   5   0   67.76    1.63
   5   5   0   67.70    1.64
   5   5   0   67.31    1.88
   5   5   0   65.01    1.66
   5   5   0   62.32    1.62
  -6  -5   0    1.25    0.27
   6  -5   0    1.69    0.27
  -6  -5   0    0.88    0.26
   6  -5   0    1.38    0.28
   6  -5   0    1.70    0.26
   6   5   0    1.52    0.27
   6   5   0    1.78    0.41
  -6   5   0    1.40    0.23
   6   5   0    1.65    0.28
   6   5   0    1.63    0.25
   7  -5   0   29.33    1.07
   7  -5   0   29.85    1.34
   7   5   0   29.28    1.09
   7   5   0   27.47    1.14
   7   5   0   30.93    1.37
   8  -5   0   21.10    1.02
   8  -5   0   17.66    1.33
   8   5   0   18.56    1.40
   8   5   0   18.61    1.09
   8   5   0   19.08    1.15
   0  -6   0  485.78    9.83
   0  -6   0  489.80    9.76
   0  -6   0  519.05    9.86
   0  -6   0  495.97    9.78
   0   6   0  510.64    9.85
   0   6   0  499.92    9.84
   0   6   0  478.19    9.76
  -1  -6   0  152.41    3.18
  -1  -6   0  152.22    3.25
  -1  -6   0  148.07    3.16
  -1  -6   0  149.60    3.25
  -1  -6   0  153.49    3.22
  -1  -6   0  150.39    3.20
   1  -6   0  152.56    3.18
   1  -6   0  154.96    3.18
   1  -6   0  155.77    3.24
  -1   6   0  147.50    3.16
   1   6   0  156.26    3.26
   1   6   0  148.42    3.17
  -1   6   0  153.03    3.09
  -1   6   0  153.69    3.23
  -1   6   0  156.91    3.24
   1   6   0  154.12    3.19
  -1   6   0  152.11    3.16
   1   6   0  150.66    3.22
  -2  -6   0  119.60    2.51
  -2  -6   0  119.88    2.59
   2  -6   0  116.07    2.56
   2  -6   0  113.86    2.49
  -2  -6   0  113.82    2.46
   2  -6   0  115.25    2.52
  -2  -6   0  114.18    2.59
   2   6   0  115.21    2.53
   2   6   0  122.16    2.66
  -2   6   0  116.82    2.56
   2   6   0  112.70    2.59
  -2   6   0  112.96    2.35
   2   6   0  120.10    2.62
   2   6   0  117.10    2.53
  -2   6   0  118.24    2.56
  -2   6   0  113.77    2.47
  -3  -6   0  113.27    2.41
   3  -6   0  114.59    2.50
  -3  -6   0  114.94    2.54
  -3  -6   0  115.19    2.47
   3  -6   0  111.52    2.54
  -3  -6   0  106.55    2.75
  -3  -6   0  115.64    2.73
  -3   6   0  121.18    2.73
   3   6   0  115.39    2.61
   3   6   0  116.49    2.54
   3   6   0  111.97    2.63
  -3   6   0  112.63    2.42
   3   6   0  113.68    2.57
   3   6   0  116.05    2.52
  -4  -6   0   70.29    1.58
  -4  -6   0   70.96    1.74
   4  -6   0   69.86    1.74
  -4  -6   0   70.94    1.63
   4  -6   0   69.93    1.69
  -4  -6   0   69.84    1.86
  -4   6   0   68.83    1.70
   4   6   0   71.54    1.83
   4   6   0   73.26    1.77
   4   6   0   71.54    1.72
   4   6   0   69.97    1.87
   4   6   0   68.75    1.72
  -5  -6   0    4.74    0.29
  -5  -6   0    4.91    0.41
  -5  -6   0    4.63    0.41
   5  -6   0    5.06    0.38
   5  -6   0    4.17    0.36
   5   6   0    3.97    0.37
   5   6   0    4.65    0.39
   5   6   0    5.33    0.49
  -5   6   0    4.37    0.34
   5   6   0    4.57    0.39
   5   6   0    5.13    0.56
   6  -6   0   39.59    1.24
  -6  -6   0   39.97    1.18
  -6  -6   0   40.43    1.29
   6  -6   0   41.47    1.23
   6  -6   0   41.25    1.17
   6   6   0   38.92    1.34
   6   6   0   40.31    1.48
  -6   6   0   41.10    1.18
   6   6   0   41.38    1.26
   6   6   0   40.20    1.35
   7  -6   0    0.95    0.33
   7  -6   0   -0.06    0.37
   7   6   0    0.07    0.30
   7   6   0   -0.03    0.33
   7   6   0   -0.02    0.43
   8  -6   0   -0.30    0.66
   8  -6   0    0.90    0.43
   8   6   0   -0.19    0.43
   8   6   0    0.22    0.70
   8   6   0    0.39    0.51
   0  -7   0    0.12    0.11
   0  -7   0    0.04    0.15
   0  -7   0    0.06    0.10
   0  -7   0    0.05    0.10
   0  -7   0   -0.06    0.09
   0  -7   0    0.15    0.09
   0   7   0   -0.02    0.09
   0   7   0   -0.03    0.11
   0   7   0    0.15    0.12
   0   7   0    0.00    0.11
   1  -7   0  108.67    2.46
  -1  -7   0  111.13    2.39
  -1  -7   0  109.41    2.43
  -1  -7   0  107.28    2.48
   1  -7   0  108.71    2.39
   1  -7   0  108.35    2.39
  -1  -7   0  108.46    2.39
   1   7   0  110.80    2.39
  -1   7   0  109.90    2.31
   1   7   0  110.62    2.48
  -1   7   0  108.68    2.38
  -1   7   0  107.93    2.44
   1   7   0  111.71    2.49
   1   7   0  108.00    2.40
   1   7   0  107.74    2.43
  -1   7   0  112.52    2.47
  -2  -7   0   92.94    2.05
   2  -7   0   94.67    2.18
   2  -7   0   93.97    2.09
  -2  -7   0   91.28    2.16
  -2  -7   0   94.16    2.09
   2  -7   0   91.42    2.10
  -2  -7   0   90.35    2.18
  -2   7   0   92.33    2.13
   2   7   0   97.39    2.22
   2   7   0   92.39    2.11
  -2   7   0   92.59    2.15
   2   7   0   93.21    2.17
  -2   7   0   94.19    2.06
   2   7   0   94.06    2.12
  -2   7   0   91.00    1.94
   2   7   0   91.42    2.17
   3  -7   0   19.57    0.72
  -3  -7   0   20.40    0.77
  -3  -7   0   19.83    0.75
  -3  -7   0   21.03    0.63
   3  -7   0   20.86    0.69
  -3  -7   0   21.16    0.68
   3   7   0   20.23    0.71
  -3   7   0   21.04    0.48
   3   7   0   20.59    0.75
   3   7   0   19.38    0.78
   3   7   0   21.45    0.72
   3   7   0   21.36    0.79
  -3   7   0   20.13    0.70
  -3   7   0   20.62    0.72
  -4  -7   0  167.44    3.63
   4  -7   0  166.61    3.64
   4  -7   0  167.24    3.65
  -4  -7   0  166.67    3.71
  -4  -7   0  165.20    3.44
  -4  -7   0  167.00    3.50
  -4  -7   0  154.61    3.72
   4   7   0  169.26    3.61
   4   7   0  165.85    3.65
   4   7   0  171.32    3.79
   4   7   0  162.77    3.61
   4   7   0  168.25    3.73
   5  -7   0   15.04    0.63
  -5  -7   0   14.51    0.57
  -5  -7   0   14.90    0.66
   5  -7   0   13.83    0.64
   5  -7   0   13.73    0.60
  -5  -7   0   14.68    0.50
   5   7   0   13.96    0.65
   5   7   0   14.61    0.76
   5   7   0   15.19    0.67
  -5   7   0   13.64    0.60
   5   7   0   14.58    0.83
   5   7   0   14.53    0.83
   6  -7   0    3.83    0.45
   6  -7   0    3.29    0.47
  -6  -7   0    3.14    0.44
  -6  -7   0    3.63    0.44
   6  -7   0    4.27    0.45
   6   7   0    4.39    0.66
   6   7   0    2.78    0.43
   6   7   0    3.54    0.55
   6   7   0    3.73    0.44
   7  -7   0   18.02    0.89
   7   7   0   19.15    1.00
   7   7   0   19.57    1.18
   7   7   0   19.39    0.95
   8  -7   0    5.99    0.80
   8  -7   0    3.37    0.88
   8   7   0    3.99    0.69
   8   7   0    4.50    0.62
   8   7   0    2.78    0.95
   0  -8   0    3.39    0.35
   0  -8   0    3.60    0.29
   0  -8   0    2.90    0.26
   0  -8   0    2.90    0.27
   0   8   0    2.77    0.28
   0   8   0    3.38    0.25
   0   8   0    2.94    0.31
   0   8   0    3.46    0.35
   1  -8   0    0.95    0.18
  -1  -8   0    0.74    0.17
  -1  -8   0    0.79    0.16
   1  -8   0    0.74    0.17
   1  -8   0    1.26    0.19
  -1  -8   0    0.84    0.21
  -1  -8   0    0.70    0.16
  -1  -8   0    0.82    0.19
  -1   8   0    0.73    0.13
   1   8   0    0.95    0.20
  -1   8   0    0.77    0.17
   1   8   0    0.91    0.20
   1   8   0    0.59    0.16
  -1   8   0    0.81    0.17
   1   8   0    0.58    0.14
  -1   8   0    0.92    0.17
  -2  -8   0    0.22    0.15
   2  -8   0    0.23    0.12
  -2  -8   0    0.18    0.12
   2  -8   0    0.33    0.16
   2  -8   0    0.60    0.16
  -2  -8   0    0.30    0.14
  -2  -8   0    0.79    0.18
  -2   8   0    0.49    0.15
  -2   8   0    0.53    0.10
   2   8   0    0.58    0.17
  -2   8   0    0.43    0.14
   2   8   0    0.32    0.16
   2   8   0    0.45    0.15
   2   8   0    0.50    0.20
   2   8   0    0.37    0.16
   3  -8   0  137.77    3.10
   3  -8   0  137.88    3.06
  -3  -8   0  134.84    3.13
   3  -8   0  135.81    3.02
  -3  -8   0  135.82    3.15
  -3  -8   0  140.49    3.00
  -3  -8   0  137.64    2.94
  -3   8   0  135.54    2.78
  -3   8   0  136.61    3.07
  -3   8   0  139.41    3.10
   3   8   0  138.25    3.06
   3   8   0  136.34    3.11
   3   8   0  140.94    3.18
   3   8   0  138.66    3.17
   3   8   0  142.21    3.08
   4  -8   0    2.61    0.32
  -4  -8   0    2.44    0.26
  -4  -8   0    2.58    0.36
   4  -8   0    2.68    0.34
  -4  -8   0    2.68    0.37
  -4  -8   0    3.11    0.31
   4   8   0    2.68    0.41
   4   8   0    2.52    0.34
   4   8   0    2.51    0.38
   4   8   0    3.96    0.41
   4   8   0    3.29    0.46
   5  -8   0    4.77    0.44
  -5  -8   0    5.58    0.40
   5  -8   0    5.21    0.43
  -5  -8   0    5.45    0.47
   5  -8   0    4.79    0.42
  -5  -8   0    5.04    0.32
  -5   8   0    5.22    0.40
   5   8   0    6.32    0.51
   5   8   0    4.75    0.44
   5   8   0    5.25    0.56
   5   8   0    4.62    0.60
   6  -8   0    9.36    0.71
  -6  -8   0    7.62    0.58
  -6  -8   0    7.42    0.36
   6  -8   0    7.52    0.64
   6  -8   0    8.04    0.59
   6   8   0    7.50    0.66
   6   8   0    8.46    0.77
   6   8   0    7.92    0.69
   7  -8   0   14.10    0.85
   7   8   0   12.68    0.86
   7   8   0   13.12    1.11
   7   8   0   14.42    0.98
   0  -9   0    0.28    0.16
   0  -9   0    0.10    0.17
   0  -9   0    0.04    0.12
   0  -9   0   -0.07    0.11
   0  -9   0   -0.02    0.13
   0   9   0   -0.13    0.14
   0   9   0   -0.22    0.13
   0   9   0    0.10    0.15
   0   9   0    0.11    0.11
  -1  -9   0   79.67    1.89
  -1  -9   0   81.43    1.91
  -1  -9   0   80.74    2.02
   1  -9   0   81.79    2.00
   1  -9   0   79.03    1.89
  -1  -9   0   80.90    1.94
   1  -9   0   80.06    1.92
  -1   9   0   83.04    2.00
  -1   9   0   79.61    1.80
   1   9   0   73.83    2.12
   1   9   0   78.16    1.88
  -1   9   0   76.30    1.98
  -1   9   0   77.31    1.87
   1   9   0   83.15    2.02
   2  -9   0   52.44    1.35
  -2  -9   0   51.17    1.34
  -2  -9   0   50.15    1.46
   2  -9   0   48.34    1.34
  -2  -9   0   50.21    1.40
   2  -9   0   52.85    1.44
  -2  -9   0   50.71    1.30
  -2   9   0   49.24    1.40
   2   9   0   50.53    1.35
   2   9   0   50.75    1.42
   2   9   0   52.16    1.45
   2   9   0   51.19    1.37
  -2   9   0   51.40    1.21
  -2   9   0   50.50    1.39
   2   9   0   49.64    1.45
   3  -9   0    0.43    0.18
  -3  -9   0    0.47    0.19
   3  -9   0   -0.09    0.17
  -3  -9   0    0.31    0.17
  -3  -9   0    0.44    0.14
  -3  -9   0    0.32    0.23
   3  -9   0    0.41    0.19
   3   9   0    1.01    0.21
  -3   9   0   -0.01    0.15
  -3   9   0    0.45    0.11
   3   9   0    0.44    0.20
  -3   9   0    0.33    0.19
   3   9   0    0.39    0.22
   3   9   0    0.54    0.21
  -4  -9   0    6.27    0.51
   4  -9   0    6.74    0.45
  -4  -9   0    6.23    0.39
  -4  -9   0    5.81    0.50
   4  -9   0    5.83    0.47
  -4  -9   0    6.64    0.43
   4   9   0    6.58    0.50
   4   9   0    6.34    0.55
  -4   9   0    6.46    0.45
   4   9   0    6.24    0.57
   4   9   0    5.05    0.45
   5  -9   0    5.37    0.48
  -5  -9   0    5.43    0.50
  -5  -9   0    5.20    0.34
   5  -9   0    5.37    0.47
  -5  -9   0    5.25    0.51
  -5  -9   0    5.17    0.46
   5   9   0    4.32    0.62
   5   9   0    4.58    0.55
   5   9   0    4.20    0.49
  -5   9   0    4.95    0.42
   5   9   0    3.91    0.46
  -6  -9   0    1.37    0.30
  -6  -9   0    1.97    0.37
   6  -9   0    1.12    0.34
   6   9   0    0.55    0.35
   6   9   0    0.74    0.43
   6   9   0    1.05    0.42
   7  -9   0    2.83    0.48
   7   9   0    2.42    0.50
   7   9   0    2.65    0.49
   7   9   0    1.27    0.52
   0 -10   0    1.46    0.27
   0 -10   0    1.00    0.20
   0 -10   0    1.05    0.21
   0 -10   0    1.08    0.24
   0 -10   0    1.23    0.20
   0  10   0    0.96    0.22
   0  10   0    1.35    0.27
   0  10   0    1.22    0.22
  -1 -10   0   19.70    0.73
  -1 -10   0   17.73    0.67
   1 -10   0   16.61    0.76
  -1 -10   0   17.90    0.75
   1 -10   0   17.66    0.69
  -1 -10   0   16.89    0.76
   1 -10   0   18.56    0.71
  -1 -10   0   17.79    0.69
   1  10   0   17.80    0.72
   1  10   0   17.92    0.77
  -1  10   0   17.79    0.67
  -1  10   0   19.62    0.77
  -1  10   0   17.80    0.78
  -1  10   0   16.93    0.60
   1  10   0   16.82    0.66
   1  10   0   17.84    0.77
  -2 -10   0    5.89    0.38
  -2 -10   0    6.70    0.48
   2 -10   0    6.52    0.43
  -2 -10   0    6.58    0.43
  -2 -10   0    6.93    0.60
   2 -10   0    6.70    0.45
   2 -10   0    6.57    0.47
  -2  10   0    6.83    0.46
   2  10   0    6.41    0.50
  -2  10   0    6.26    0.48
   2  10   0    6.84    0.45
   2  10   0    6.70    0.43
   2  10   0    7.07    0.51
  -2  10   0    6.59    0.34
   2  10   0    6.40    0.60
  -3 -10   0    5.97    0.54
  -3 -10   0    6.75    0.46
  -3 -10   0    6.38    0.37
   3 -10   0    6.51    0.45
   3 -10   0    6.66    0.51
   3 -10   0    6.42    0.59
  -3  10   0    6.30    0.31
   3  10   0    7.16    0.51
   3  10   0    5.98    0.53
   3  10   0    6.73    0.54
  -3  10   0    6.07    0.46
   3  10   0    6.32    0.47
  -3  10   0    6.46    0.57
   3  10   0    6.12    0.51
   4 -10   0   -0.09    0.21
  -4 -10   0    0.27    0.15
  -4 -10   0    0.21    0.25
  -4 -10   0   -0.08    0.22
  -4 -10   0   -0.05    0.18
   4 -10   0    0.13    0.19
  -4  10   0   -0.07    0.19
   4  10   0    0.34    0.26
   4  10   0   -0.11    0.21
   4  10   0    0.23    0.24
   4  10   0    0.22    0.21
   5 -10   0   12.51    0.67
  -5 -10   0   11.72    0.50
  -5 -10   0   10.07    0.68
  -5 -10   0   11.36    0.69
   5 -10   0   10.64    0.68
  -5 -10   0   11.31    0.55
   5  10   0   11.47    0.84
   5  10   0    9.55    0.84
   5  10   0   11.22    0.76
   5  10   0   10.95    0.79
   6 -10   0    4.48    0.59
  -6 -10   0    4.31    0.62
   6  10   0    4.07    0.51
   6  10   0    3.98    0.55
   6  10   0    4.39    0.63
   7 -10   0   -0.19    0.41
   7  10   0    0.36    0.60
   7  10   0   -0.25    0.43
   7  10   0   -0.26    0.45
   0 -11   0    0.40    0.19
   0 -11   0    0.22    0.20
   0 -11   0    0.28    0.15
   0 -11   0    0.41    0.18
   0  11   0    0.81    0.22
   0  11   0    0.39    0.17
   0  11   0    0.48    0.19
   0  11   0    0.18    0.16
   1 -11   0    7.68    0.54
  -1 -11   0    8.14    0.59
  -1 -11   0    8.97    0.50
  -1 -11   0    7.80    0.46
   1 -11   0    8.15    0.49
  -1 -11   0    8.27    0.56
  -1 -11   0    7.57    0.52
  -1  11   0    8.26    0.57
  -1  11   0    8.25    0.54
   1  11   0    8.20    0.52
   1  11   0    8.18    0.56
   1  11   0    8.55    0.48
  -1  11   0    8.37    0.42
  -1  11   0    8.77    0.49
   1  11   0    8.79    0.57
   2 -11   0   71.23    1.91
  -2 -11   0   73.00    1.97
  -2 -11   0   73.53    1.84
   2 -11   0   75.83    2.01
  -2 -11   0   77.31    1.91
   2 -11   0   76.45    1.91
  -2 -11   0   74.32    2.05
   2  11   0   76.96    1.98
   2  11   0   76.50    2.04
   2  11   0   76.52    1.99
   2  11   0   69.75    1.88
  -2  11   0   74.66    1.74
  -2  11   0   75.19    2.00
   2  11   0   76.69    2.05
  -3 -11   0   13.78    0.91
  -3 -11   0   15.23    0.61
   3 -11   0   13.69    0.74
   3 -11   0   14.73    0.70
  -3 -11   0   14.87    0.68
   3  11   0   14.82    0.77
   3  11   0   15.52    0.80
  -3  11   0   14.46    0.72
   3  11   0   15.49    0.73
  -3  11   0   13.90    0.51
   3  11   0   15.03    0.80
  -4 -11   0   15.48    0.60
   4 -11   0   15.15    0.77
   4 -11   0   15.34    0.73
  -4 -11   0   14.61    0.82
  -4 -11   0   15.38    0.80
  -4 -11   0   15.86    0.69
   4  11   0   15.51    0.78
   4  11   0   15.21    0.85
   4  11   0   14.39    0.84
   4  11   0   15.58    0.78
  -4  11   0   15.43    0.73
   5 -11   0   11.84    0.72
  -5 -11   0   12.02    0.74
  -5 -11   0   12.16    0.75
   5 -11   0   11.39    0.72
  -5 -11   0   10.87    0.53
  -5 -11   0   11.40    0.60
   5  11   0   11.66    0.98
   5  11   0   12.32    0.86
  -5  11   0   12.34    0.75
   5  11   0   12.57    0.83
   5  11   0   10.55    0.70
  -6 -11   0    5.28    0.68
   6 -11   0    5.45    0.69
   6  11   0    5.57    0.71
   6  11   0    5.95    0.84
   6  11   0    5.24    0.73
   7 -11   0   11.08    0.93
   7  11   0   11.64    1.23
   7  11   0   10.69    1.11
   7  11   0   13.08    0.99
   0 -12   0    4.81    0.48
   0 -12   0    5.01    0.43
   0 -12   0    4.74    0.46
   0 -12   0    4.86    0.47
   0 -12   0    4.40    0.43
   0  12   0    5.04    0.48
   0  12   0    5.01    0.43
   0  12   0    3.94    0.46
   0  12   0    4.13    0.37
   1 -12   0    1.71    0.29
  -1 -12   0    1.34    0.48
  -1 -12   0    2.04    0.30
   1 -12   0    1.62    0.31
   1 -12   0    1.28    0.26
  -1 -12   0    1.07    0.24
  -1 -12   0    1.99    0.34
  -1 -12   0    1.66    0.31
   1 -12   0    1.23    0.24
   1  12   0    1.37    0.31
   1  12   0    1.04    0.25
  -1  12   0    1.58    0.30
  -1  12   0    1.38    0.20
   1  12   0    1.09    0.26
   1  12   0    1.64    0.32
  -1  12   0    1.46    0.31
  -1  12   0    1.15    0.24
  -2 -12   0    5.12    0.54
  -2 -12   0    4.50    0.42
   2 -12   0    5.40    0.45
  -2 -12   0    5.09    0.47
   2 -12   0    4.65    0.51
   2  12   0    4.55    0.56
  -2  12   0    5.61    0.59
  -2  12   0    4.14    0.59
   2  12   0    3.90    0.51
   2  12   0    5.33    0.56
  -2  12   0    4.64    0.33
  -3 -12   0  121.02    2.81
   3 -12   0  116.99    2.81
  -3 -12   0  119.53    3.01
   3 -12   0  114.56    2.93
  -3 -12   0  116.54    2.75
  -3  12   0  115.28    2.56
   3  12   0  119.89    3.01
   3  12   0  118.82    2.87
   3  12   0  117.71    2.94
   3  12   0  119.55    2.95
  -3  12   0  119.21    2.90
  -4 -12   0   -0.19    0.29
  -4 -12   0    0.39    0.24
   4 -12   0    0.29    0.26
   4 -12   0    0.75    0.32
  -4 -12   0    0.18    0.28
  -4 -12   0    0.75    0.28
   4  12   0    0.76    0.40
  -4  12   0    0.08    0.24
   4  12   0    0.37    0.30
   4  12   0    0.44    0.30
  -4  12   0    0.23    0.14
   4  12   0   -0.11    0.29
   5 -12   0    2.97    0.43
  -5 -12   0    3.74    0.46
  -5 -12   0    4.64    0.45
  -5 -12   0    3.40    0.49
   5  12   0    2.85    0.48
   5  12   0    3.33    0.46
   5  12   0    3.60    0.52
  -6 -12   0    1.64    0.45
   6 -12   0    1.44    0.39
   6  12   0    1.62    0.55
   6  12   0    1.00    0.46
   6  12   0    0.36    0.42
   7 -12   0   10.42    0.95
   7  12   0    7.38    1.26
   7  12   0    9.18    1.44
   7  12   0    8.95    0.96
   0 -13   0    0.28    0.20
   0 -13   0   -0.05    0.21
   0 -13   0    0.16    0.19
   0  13   0   -0.18    0.19
   0  13   0    0.23    0.22
   0  13   0   -0.34    0.24
   0  13   0   -0.16    0.18
   1 -13   0   94.89    2.38
  -1 -13   0   96.32    2.51
   1 -13   0   93.96    2.50
  -1 -13   0   98.52    2.38
   1  13   0   93.35    2.50
  -1  13   0   91.08    2.48
   1  13   0   98.20    2.43
  -1  13   0   96.25    2.36
  -1  13   0   98.39    2.49
   1  13   0   94.22    2.52
  -1  13   0   94.22    2.24
   2 -13   0   15.00    0.73
  -2 -13   0   15.01    0.74
   2 -13   0   15.51    0.83
  -2 -13   0   15.16    0.82
   2  13   0   15.34    0.82
   2  13   0   14.19    0.83
   2  13   0   16.32    0.89
  -2  13   0   14.75    0.83
  -2  13   0   16.58    0.61
   3 -13   0    2.41    0.38
  -3 -13   0    2.07    0.38
  -3 -13   0    3.23    0.46
  -3  13   0    2.94    0.31
   3  13   0    2.56    0.45
   3  13   0    2.54    0.39
   3  13   0    2.64    0.45
   3  13   0    2.52    0.38
   4 -13   0    5.64    0.80
   4 -13   0    4.67    0.60
  -4 -13   0    5.09    0.65
  -4 -13   0    5.05    0.51
  -4 -13   0    4.60    0.63
   4  13   0    5.19    0.60
  -4  13   0    5.29    0.58
   4  13   0    4.83    0.65
   4  13   0    4.23    0.64
   4  13   0    4.93    0.66
  -5 -13   0   32.55    1.11
  -5 -13   0   30.79    1.67
   5 -13   0   34.02    1.24
   5  13   0   33.78    1.42
   5  13   0   32.32    1.29
   5  13   0   31.95    1.36
   6 -13   0    5.49    0.75
  -6 -13   0    7.46    0.88
   6  13   0    6.40    0.92
   6  13   0    8.19    0.88
   6  13   0    7.75    0.98
   0 -14   0   13.34    0.72
   0 -14   0   12.16    0.73
   0 -14   0   13.73    0.79
   0  14   0   12.33    0.78
   0  14   0   12.48    0.70
   0  14   0   13.00    0.76
  -1 -14   0   16.57    0.78
  -1 -14   0   14.74    0.84
  -1 -14   0   15.25    0.87
   1 -14   0   16.35    0.80
  -1  14   0   14.93    0.81
   1  14   0   14.79    0.85
  -1  14   0   15.59    0.67
   1  14   0   15.75    0.88
  -1  14   0   16.80    0.78
   1  14   0   15.84    0.82
  -2 -14   0    2.52    0.38
  -2 -14   0    2.60    0.43
   2 -14   0    2.14    0.36
   2 -14   0    1.88    0.57
  -2  14   0    2.52    0.34
   2  14   0    1.93    0.37
   2  14   0    2.30    0.43
  -2  14   0    1.77    0.38
   2  14   0    1.81    0.51
  -3 -14   0   83.67    2.12
   3 -14   0   71.10    2.49
   3 -14   0   75.45    2.24
  -3 -14   0   80.57    2.32
   3  14   0   78.74    2.38
  -3  14   0   80.85    2.07
   3  14   0   80.00    2.25
  -3  14   0   80.35    2.26
   3  14   0   79.00    2.26
   4 -14   0   20.99    0.98
  -4 -14   0   23.16    0.94
  -4 -14   0   21.18    1.17
   4  14   0   21.43    1.10
   4  14   0   22.04    1.12
   4  14   0   22.56    1.02
  -4  14   0   20.88    1.04
  -5 -14   0    3.63    0.43
   5 -14   0    3.05    0.49
  -5 -14   0    3.60    0.58
   5  14   0    3.43    0.56
   5  14   0    3.52    0.61
   5  14   0    2.84    0.51
  -6 -14   0    2.52    0.60
   6 -14   0    2.74    0.51
   6  14   0    2.13    0.59
   6  14   0    2.06    0.69
   6  14   0    2.05    0.56
   0 -15   0    0.34    0.26
   0 -15   0    0.02    0.31
   0 -15   0    0.14    0.23
   0  15   0   -0.10    0.24
   0  15   0    0.02    0.27
   0  15   0    0.03    0.33
   1 -15   0    2.52    0.62
  -1 -15   0    2.34    0.37
  -1 -15   0    2.52    0.42
   1 -15   0    3.25    0.47
  -1  15   0    2.68    0.51
  -1  15   0    2.29    0.39
   1  15   0    2.04    0.62
   1  15   0    2.92    0.76
   1  15   0    1.88    0.36
   2 -15   0   25.34    1.21
   2 -15   0   27.97    1.10
  -2 -15   0   27.69    1.09
  -2 -15   0   26.77    1.17
  -2  15   0   25.88    0.91
   2  15   0   28.49    1.36
  -2  15   0   26.15    1.13
   2  15   0   26.55    1.24
   2  15   0   26.17    1.14
   3 -15   0    3.60    0.47
  -3 -15   0    4.17    0.58
  -3 -15   0    3.65    0.54
   3 -15   0    4.01    0.57
   3  15   0    3.16    0.52
  -3  15   0    3.98    0.54
   3  15   0    4.78    0.65
  -3  15   0    2.98    0.40
  -4 -15   0   13.60    1.03
  -4 -15   0   13.50    0.91
   4 -15   0   12.98    0.83
  -4 -15   0   11.26    0.97
   4  15   0   12.45    0.94
   4  15   0   14.30    0.99
   4  15   0   11.17    0.84
  -5 -15   0    0.95    0.39
  -5 -15   0    0.81    0.48
   5 -15   0    0.39    0.41
   5  15   0    0.74    0.52
   5  15   0    0.38    0.43
   5  15   0    0.77    0.44
   6 -15   0   12.92    1.01
  -6 -15   0   12.84    1.10
   6  15   0   11.62    1.10
   6  15   0   12.79    1.43
   6  15   0   11.82    1.30
   0 -16   0   11.41    0.88
   0  16   0    9.74    0.70
   0  16   0   11.31    0.79
   1 -16   0    2.07    0.38
  -1 -16   0    1.45    0.36
  -1 -16   0    2.67    0.41
   1 -16   0    1.44    0.37
   1  16   0    2.19    0.40
  -1  16   0    1.38    0.32
  -1  16   0    2.38    0.43
   1  16   0    2.37    0.47
   1  16   0    2.50    0.45
  -2 -16   0    0.88    0.34
   2 -16   0    0.37    0.30
  -2 -16   0    0.70    0.36
   2 -16   0   -0.20    0.36
  -2  16   0    0.58    0.33
   2  16   0    0.96    0.45
   2  16   0    0.35    0.38
   2  16   0    0.43    0.34
  -3 -16   0   16.39    0.88
   3 -16   0   16.13    0.90
  -3 -16   0   13.80    0.98
   3  16   0   17.19    1.00
   3  16   0   17.54    1.11
  -3  16   0   16.23    0.96
  -4 -16   0    0.46    0.39
  -4 -16   0    1.85    0.40
   4 -16   0    1.92    0.44
   4  16   0    1.14    0.44
   4  16   0    1.37    0.46
   5 -16   0    1.10    0.46
  -5 -16   0    1.49    0.53
  -5 -16   0    0.50    0.53
   5  16   0    1.41    0.47
   5  16   0    1.97    0.56
   5  16   0    0.83    0.58
   0 -17   0   -0.05    0.30
   0  17   0    0.01    0.32
   0  17   0    0.37    0.33
  -1 -17   0   16.80    0.89
   1 -17   0   16.38    0.90
  -1 -17   0   16.61    0.98
   1  17   0   17.20    1.09
  -1  17   0   18.09    1.00
   1  17   0   16.56    0.96
  -1  17   0   16.70    0.87
   2 -17   0    0.09    0.32
  -2 -17   0    0.09    0.32
  -2 -17   0   -0.07    0.34
   2  17   0    0.42    0.42
   2  17   0   -0.44    0.68
  -2  17   0   -0.06    0.32
   2  17   0    0.08    0.37
  -3 -17   0    0.60    0.41
  -3 -17   0    0.51    0.35
   3 -17   0    0.24    0.33
   3  17   0   -0.55    0.42
   3  17   0    0.89    0.45
  -4 -17   0    3.02    0.45
  -4 -17   0    1.58    0.49
   4 -17   0    2.20    0.48
   4  17   0    2.64    0.58
   4  17   0    3.67    0.64
   5 -17   0    5.03    0.68
  -5 -17   0    7.12    1.03
  -5 -17   0    3.88    0.71
   5  17   0    2.54    0.68
   5  17   0    4.78    0.87
   0 -18   0    8.81    0.74
   0  18   0    8.42    0.86
   0  18   0    8.24    0.74
   1 -18   0   10.92    0.79
  -1 -18   0   10.75    0.89
  -1 -18   0   10.63    0.78
   1  18   0   10.32    0.82
  -1  18   0   10.51    0.74
   1  18   0    9.98    1.41
  -1  18   0   10.43    0.90
  -2 -18   0   11.71    0.84
  -2 -18   0   12.21    1.01
   2 -18   0   12.15    0.89
   2  18   0   11.69    0.91
  -2  18   0   11.19    0.91
   2  18   0   11.06    0.97
  -3 -18   0   36.70    1.39
   3 -18   0   37.27    1.47
   3  18   0   36.52    1.55
   3  18   0   35.76    1.62
  -4 -18   0    7.18    0.96
   4 -18   0    9.87    0.95
  -4 -18   0   10.80    0.85
   4  18   0    7.37    1.12
   4  18   0   10.87    1.13
   0 -19   0    0.22    0.36
   0  19   0    0.19    0.43
   0  19   0   -0.34    0.36
  -1 -19   0   -0.52    0.34
   1 -19   0    0.48    0.37
   1  19   0    0.34    0.43
  -1  19   0    0.67    0.36
   1  19   0    0.86    0.43
  -1  19   0    0.15    0.42
   2 -19   0    0.22    0.41
  -2 -19   0    0.35    0.41
  -2 -19   0    0.07    0.42
   2  19   0    0.59    0.47
   2  19   0   -0.23    0.43
  -3 -19   0    2.20    0.44
   3 -19   0    2.48    0.58
   3  19   0    2.13    0.64
   3  19   0    1.48    0.54
  -4 -19   0   -0.42    0.46
   4 -19   0    1.08    0.64
   4  19   0    0.92    0.65
   4  19   0    0.91    1.19
   0 -20   0   20.15    1.11
   0  20   0   18.82    1.28
   0  20   0   18.39    1.10
  -1 -20   0   -0.02    0.42
   1 -20   0   -0.47    0.39
   1  20   0    0.02    0.47
  -1  20   0   -0.34    0.48
  -1  20   0    0.02    0.38
   1  20   0   -0.14    0.50
  -2 -20   0    0.57    0.45
   2 -20   0    0.72    0.48
   2  20   0    0.16    0.53
   2  20   0    0.84    0.53
  -3 -20   0   11.52    0.99
   3 -20   0   12.85    1.28
   3  20   0   12.40    1.46
   3  20   0   12.29    1.20
   0 -21   0    0.78    0.52
   0  21   0   -0.74    0.63
   0  21   0   -0.20    0.47
  -1 -21   0    0.66    0.53
   1 -21   0    0.43    0.57
   1  21   0    0.20    0.60
   1  21   0   -0.19    0.58
  -2 -21   0    2.95    0.59
   2  21   0    2.25    0.64
   8   0  -1   -0.03    0.32
   8   0  -1   -0.09    0.44
   7   0  -1    0.02    0.24
   7   0  -1   -0.48    0.32
   6   0  -1   -0.06    0.22
   6   0  -1   -0.13    0.25
   6   0  -1   -0.13    0.17
   6   0  -1   -0.13    0.16
  -6   0   1   -0.18    0.16
  -6   0   1    0.00    0.13
   5   0  -1    0.09    0.14
   5   0  -1    0.02    0.14
   5   0  -1   -0.13    0.11
  -5   0   1    0.00    0.12
   5   0  -1    0.34    0.22
  -4   0   1   -0.06    0.09
   4   0  -1   -0.01    0.10
  -4   0   1   -0.23    0.09
  -4   0   1    0.06    0.10
   4   0  -1    0.17    0.10
   4   0  -1   -0.05    0.15
   4   0  -1    0.13    0.12
   3   0  -1   -0.17    0.12
   3   0  -1   -0.05    0.09
   3   0  -1   -0.11    0.06
  -3   0   1   -0.15    0.08
  -3   0   1   -0.05    0.09
  -3   0   1    0.01    0.07
   3   0  -1   -0.04    0.08
   2   0  -1   -0.66    0.06
  -2   0   1   -0.65    0.08
  -1   0   1   -0.42    0.03
  -1   0   1   -0.41    0.03
   1   0  -1   -0.34    0.04
  -1   0   1   -0.41    0.03
   1   0  -1   -0.46    0.03
   1   0  -1   -0.50    0.03
   1   0  -1   -0.42    0.03
   0   0   1    0.06    0.04
   0   0   1    0.09    0.03
   0   0   1    0.20    0.06
   0   0   1    0.06    0.02
   0   0  -1    0.04    0.02
   0   0  -1    0.06    0.04
   0   0  -1    0.08    0.05
   1   0   1   -0.02    0.07
  -1   0  -1   -0.12    0.07
   1   0   1   -0.11    0.06
   2   0   1    0.07    0.11
  -2   0  -1   -0.16    0.10
   2   0   1   -0.17    0.08
  -2   0  -1   -0.06    0.04
   3   0   1   -0.12    0.07
  -3   0  -1   -0.21    0.16
   3   0   1   -0.08    0.07
   3   0   1   -0.31    0.13
  -3   0  -1    0.16    0.08
   4   0   1   -0.05    0.16
   4   0   1    0.20    0.12
   4   0   1    0.05    0.12
   4   0   1    0.11    0.10
   4   0   1   -0.19    0.14
  -4   0  -1    0.10    0.10
  -4   0  -1    0.34    0.18
   5   0   1   -0.10    0.12
   5   0   1    0.07    0.13
  -5   0  -1   -0.16    0.14
   5   0   1    0.25    0.18
   5   0   1    0.14    0.16
   5   0   1   -0.14    0.18
   6   0   1    0.20    0.17
   6   0   1    0.25    0.16
   6   0   1    0.01    0.31
   6   0   1    0.16    0.18
  -6   0  -1   -0.15    0.17
   6   0   1   -0.14    0.21
   7   0   1    0.35    0.23
   7   0   1   -0.28    0.38
   8   0   1    0.03    0.45
   8   0   1    0.09    0.61
   8  -1  -1   14.25    0.83
   8  -1  -1   13.25    1.07
   8   1  -1   15.10    1.11
   8   1  -1   13.90    0.83
   7  -1  -1    6.99    0.72
   7  -1  -1    7.95    0.59
   7   1  -1    7.47    0.57
   7   1  -1    8.13    0.75
  -6  -1   1   18.95    0.58
   6  -1  -1   17.98    0.75
   6  -1  -1   18.81    0.52
   6  -1  -1   18.59    0.72
   6  -1  -1   19.40    0.92
  -6  -1   1   18.68    0.75
   6   1  -1   17.18    0.90
  -6   1   1   18.52    0.73
  -6   1   1   19.54    0.64
   6   1  -1   19.44    0.72
   6   1  -1   18.96    0.76
   6   1  -1   17.97    0.62
   5  -1  -1   25.83    0.66
  -5  -1   1   26.06    0.73
   5  -1  -1   26.62    0.82
   5  -1  -1   26.17    0.97
   5  -1  -1   25.33    0.85
   5   1  -1   26.02    0.97
  -5   1   1   27.42    0.74
   5   1  -1   26.74    0.82
   5   1  -1   25.64    0.74
   5   1  -1   26.56    0.86
   4  -1  -1  171.84    3.58
  -4  -1   1  171.99    3.53
   4  -1  -1  176.94    3.75
   4  -1  -1  171.91    3.65
   4  -1  -1  169.57    3.43
  -4  -1   1  173.64    3.53
  -4  -1   1  175.69    3.65
  -4   1   1  167.12    3.43
  -4   1   1  172.52    3.63
   4   1  -1  171.38    3.64
  -4   1   1  169.36    3.52
   4   1  -1  167.26    3.52
   4   1  -1  171.15    3.73
   4   1  -1  174.74    3.58
   3  -1  -1   54.42    1.30
  -3  -1   1   53.39    1.21
   3  -1  -1   54.28    1.15
   3  -1  -1   55.24    1.26
  -3   1   1   51.92    1.31
  -3   1   1   52.92    1.37
  -3   1   1   54.25    1.15
   3   1  -1   55.25    1.22
   3   1  -1   53.76    1.34
   3   1  -1   54.80    1.25
   3   1  -1   53.85    1.29
   1  -1   1  150.69    3.03
  -1  -1  -1  149.00    3.11
  -1  -1  -1  154.00    3.06
   1  -1   1  153.31    2.97
   1  -1   1  156.51    3.11
   1   1   1  152.14    2.99
  -1   1  -1  150.51    3.10
   1   1   1  152.67    2.99
   1   1   1  153.50    3.11
   1   1   1  151.51    3.06
   2  -1   1   73.29    1.56
  -2  -1  -1   74.20    1.68
   2  -1   1   77.42    1.68
  -2  -1  -1   75.17    1.53
   2  -1   1   73.65    1.52
   2   1   1   75.07    1.50
   2   1   1   75.67    1.53
   2   1   1   75.55    1.68
   2   1   1   76.21    1.67
  -2   1  -1   73.81    1.50
  -2   1  -1   72.99    1.65
  -3  -1  -1  221.24    4.54
   3  -1   1  213.52    4.65
   3  -1   1  226.34    4.39
  -3  -1  -1  226.23    4.41
   3  -1   1  222.59    4.61
   3  -1   1  219.94    4.35
   3   1   1  220.65    4.35
   3   1   1  221.89    4.61
  -3   1  -1  228.69    4.37
   3   1   1  221.00    4.39
   3   1   1  211.74    4.64
   4  -1   1  127.07    2.67
   4  -1   1  127.65    2.94
  -4  -1  -1  126.51    2.80
  -4  -1  -1  128.49    2.68
   4  -1   1  126.84    2.67
   4  -1   1  127.96    2.63
   4  -1   1  130.13    2.82
   4   1   1  127.19    2.70
   4   1   1  130.42    2.65
  -4   1  -1  129.58    2.65
   4   1   1  130.66    2.80
   4   1   1  126.58    2.68
   4   1   1  127.98    2.94
  -5  -1  -1    0.23    0.17
   5  -1   1    0.33    0.14
   5  -1   1    0.25    0.16
   5  -1   1    0.00    0.18
   5  -1   1    0.36    0.20
  -5  -1  -1    0.23    0.14
   5  -1   1    0.19    0.11
   5  -1   1    0.06    0.24
   5   1   1    0.32    0.17
   5   1   1    0.25    0.14
  -5   1  -1    0.09    0.13
   5   1   1   -0.05    0.16
   5   1   1    0.37    0.24
   5   1   1    0.16    0.14
   6  -1   1   35.47    1.00
   6  -1   1   34.49    0.86
  -6  -1  -1   35.33    0.98
   6  -1   1   36.06    1.00
   6  -1   1   34.50    1.05
   6  -1   1   36.46    1.35
   6   1   1   35.28    0.99
   6   1   1   35.28    1.01
  -6   1  -1   34.53    0.95
   6   1   1   34.75    1.32
   6   1   1   33.80    0.95
   7  -1   1    1.37    0.47
   7  -1   1    1.37    0.27
   7  -1   1    1.43    0.28
   7   1   1    1.52    0.29
   7   1   1    1.40    0.27
   7   1   1    1.21    0.48
   8  -1   1    5.08    0.84
   8   1   1    4.32    0.83
   8   1   1    4.95    0.73
   8  -2  -1    4.13    0.69
   8  -2  -1    4.14    0.54
   8   2  -1    3.92    0.69
   8   2  -1    4.35    0.54
   7  -2  -1   60.05    1.65
   7  -2  -1   57.77    1.91
   7   2  -1   60.14    1.93
   7   2  -1   59.06    1.64
  -6  -2   1   10.58    0.41
  -6  -2   1    9.31    0.54
   6  -2  -1   10.11    0.72
   6  -2  -1    9.96    0.53
   6  -2  -1    9.71    0.55
   6   2  -1    9.11    0.53
   6   2  -1   10.36    0.72
   6   2  -1    9.32    0.45
  -6   2   1    9.26    0.52
  -6   2   1    9.85    0.40
   6   2  -1    9.89    0.53
  -5  -2   1    0.29    0.14
   5  -2  -1    0.19    0.20
   5  -2  -1    0.19    0.14
   5  -2  -1   -0.07    0.13
   5  -2  -1   -0.01    0.06
  -5   2   1    0.16    0.11
   5   2  -1   -0.13    0.13
   5   2  -1    0.02    0.14
   5   2  -1    0.12    0.23
   5   2  -1    0.09    0.13
   4  -2  -1   12.93    0.37
  -4  -2   1   13.50    0.50
   4  -2  -1   12.81    0.53
  -4  -2   1   12.81    0.54
   4  -2  -1   12.72    0.50
  -4  -2   1   13.57    0.47
  -4  -2   1   13.22    0.36
   4  -2  -1   13.92    0.35
   4   2  -1   13.24    0.53
   4   2  -1   12.55    0.60
  -4   2   1   13.60    0.52
   4   2  -1   13.54    0.50
  -4   2   1   13.50    0.47
   4   2  -1   13.43    0.48
   3  -2  -1   51.86    1.10
  -3  -2   1   52.22    1.22
  -3  -2   1   53.23    1.32
   3  -2  -1   54.70    1.30
  -3  -2   1   51.74    1.24
  -3  -2   1   52.93    1.30
  -3  -2   1   52.34    1.11
   3  -2  -1   53.62    1.25
  -3   2   1   52.59    1.10
   3   2  -1   54.34    1.34
   3   2  -1   53.40    1.28
   3   2  -1   53.09    1.24
  -3   2   1   49.68    1.34
   3   2  -1   53.19    1.23
  -2  -2   1   20.91    0.62
   2  -2  -1   20.67    0.61
  -2  -2   1   21.36    0.61
   2  -2  -1   19.99    0.59
  -2  -2   1   20.73    0.58
  -2  -2   1   21.73    0.57
   2  -2  -1   21.22    0.49
   2   2  -1   21.61    0.58
  -2   2   1   20.31    0.60
  -2   2   1   21.38    0.57
   2   2  -1   17.91    0.65
  -2   2   1   20.86    0.49
   2   2  -1   21.99    0.61
   1  -2  -1    9.21    0.32
   1  -2  -1    9.35    0.30
  -1  -2   1    9.96    0.31
  -1  -2   1    9.11    0.31
  -1  -2   1    9.85    0.34
  -1  -2   1    9.30    0.29
  -1   2   1    9.63    0.28
   1   2  -1    9.05    0.30
   1   2  -1    9.27    0.30
   1   2  -1    9.23    0.34
  -1   2   1    9.38    0.33
  -1   2   1    9.34    0.30
   1   2  -1    9.76    0.31
   0  -2   1   91.01    1.88
   0  -2  -1   92.04    1.86
   0  -2   1   88.94    1.85
   0  -2  -1   90.58    1.91
   0  -2   1   92.01    1.84
   0  -2  -1   92.73    1.88
   0  -2   1   91.35    1.88
   0  -2  -1   90.79    1.85
   0   2   1   90.25    1.85
   0   2  -1   92.04    1.88
   0   2   1   94.10    1.88
   0   2  -1   92.92    1.88
   0   2   1   91.78    1.91
   0   2  -1   90.22    1.84
   0   2  -1   91.50    1.85
   0   2   1   92.12    1.86
  -1  -2  -1  215.92    4.17
  -1  -2  -1  209.85    4.26
  -1  -2  -1  213.03    4.16
   1  -2   1  212.73    4.15
  -1  -2  -1  212.63    4.22
   1  -2   1  209.36    4.16
   1  -2   1  208.92    4.25
   1   2   1  211.49    4.17
   1   2   1  213.23    4.17
   1   2   1  207.18    4.21
  -1   2  -1  212.45    4.14
  -1   2  -1  212.07    4.16
   1   2   1  210.18    4.12
   1   2   1  211.49    4.25
   2  -2   1  114.50    2.32
  -2  -2  -1  115.90    2.34
  -2  -2  -1  107.43    2.58
   2  -2   1  117.53    2.46
  -2  -2  -1  118.19    2.47
   2  -2   1  110.85    2.31
   2  -2   1  115.97    2.28
   2   2   1  115.71    2.35
  -2   2  -1  114.22    2.30
   2   2   1  116.49    2.47
  -2   2  -1  116.01    2.31
   2   2   1  113.31    2.30
   2   2   1  116.59    2.45
   2   2   1  113.63    2.29
   2   2   1  115.43    2.34
   4  -2   1   14.19    0.49
   4  -2   1   13.85    0.48
   4  -2   1   13.72    0.65
   4  -2   1   14.10    0.40
  -4  -2  -1   14.82    0.60
   4  -2   1   13.65    0.57
  -4  -2  -1   14.85    0.50
   4  -2   1   14.17    0.41
   4   2   1   14.12    0.51
   4   2   1   14.90    0.67
   4   2   1   14.04    0.48
   4   2   1   14.36    0.55
  -4   2  -1   13.98    0.45
   4   2   1   14.99    0.47
  -5  -2  -1   31.85    0.97
   5  -2   1   32.98    1.14
   5  -2   1   32.24    0.89
   5  -2   1   31.72    0.86
   5  -2   1   30.68    0.75
   5  -2   1   30.85    0.73
  -5  -2  -1   29.85    0.89
   5  -2   1   30.96    0.96
  -5   2  -1   32.11    0.84
   5   2   1   31.14    1.12
   5   2   1   30.87    0.89
   5   2   1   31.95    0.86
   5   2   1   30.60    0.92
  -6  -2  -1   21.28    0.72
   6  -2   1   22.61    0.75
   6  -2   1   22.04    0.74
   6  -2   1   21.35    0.79
   6  -2   1   22.38    1.05
   6   2   1   21.01    1.03
   6   2   1   20.60    0.71
   6   2   1   22.30    0.73
  -6   2  -1   21.24    0.68
   6   2   1   22.22    0.75
   7  -2   1    0.39    0.25
   7  -2   1    0.65    0.39
   7  -2   1    0.59    0.25
   7   2   1    0.34    0.42
   7   2   1   -0.19    0.25
   7   2   1    0.42    0.25
   7   2   1    0.78    0.42
   8  -2   1   34.82    1.74
   8   2   1   37.13    1.84
   8   2   1   35.97    1.21
   8  -3  -1   34.00    1.56
   8  -3  -1   36.22    1.39
   8   3  -1   34.75    1.60
   8   3  -1   36.78    1.39
   7  -3  -1    0.64    0.38
   7  -3  -1    0.60    0.29
   7   3  -1    0.74    0.29
   7   3  -1    0.87    0.41
   6  -3  -1   35.51    1.36
  -6  -3   1   36.54    0.93
   6  -3  -1   34.00    1.12
   6  -3  -1   36.59    1.10
   6   3  -1   36.13    1.03
  -6   3   1   35.72    0.91
   6   3  -1   38.01    1.10
   6   3  -1   35.33    1.12
  -6   3   1   35.08    1.08
   6   3  -1   33.81    1.32
  -5  -3   1  101.17    2.19
   5  -3  -1   99.84    2.29
  -5  -3   1  100.14    2.38
  -5  -3   1   94.59    2.05
   5  -3  -1   97.80    2.35
   5  -3  -1  106.51    2.24
   5   3  -1   99.13    2.27
   5   3  -1   96.97    2.23
  -5   3   1   98.84    2.16
   5   3  -1   98.72    2.33
  -4  -3   1  145.70    2.98
   4  -3  -1  145.92    3.20
  -4  -3   1  151.69    3.08
  -4  -3   1  145.31    3.12
   4  -3  -1  146.56    2.96
  -4  -3   1  144.60    3.25
   4  -3  -1  143.00    3.13
   4   3  -1  150.03    3.29
   4   3  -1  149.04    3.18
  -4   3   1  145.49    3.17
  -4   3   1  146.23    3.07
   4   3  -1  148.22    3.11
   4   3  -1  147.92    3.12
   3  -3  -1  289.62    5.87
  -3  -3   1  291.89    5.83
  -3  -3   1  286.25    5.95
  -3  -3   1  303.06    5.96
  -3  -3   1  284.19    5.85
   3  -3  -1  293.16    5.93
   3   3  -1  289.29    5.96
   3   3  -1  295.32    5.94
   3   3  -1  300.32    5.86
   3   3  -1  291.58    5.85
  -3   3   1  294.83    5.84
  -3   3   1  293.91    5.91
  -2  -3   1  619.26   11.85
  -2  -3   1  596.63   11.75
  -2   3   1  597.18   11.82
   0   3  -1  441.99    8.63
  -1  -3  -1  172.46    3.49
  -1  -3  -1  176.82    3.59
  -1  -3  -1  171.77    3.63
  -1  -3  -1  176.66    3.49
  -1  -3  -1  181.63    3.57
   1  -3   1  176.79    3.55
   1  -3   1  176.97    3.52
   1  -3   1  177.22    3.56
   1   3   1  174.49    3.52
   1   3   1  181.26    3.57
   1   3   1  178.28    3.52
  -1   3  -1  173.31    3.51
   1   3   1  176.08    3.60
  -1   3  -1  179.81    3.54
   1   3   1  165.49    3.64
  -1   3  -1  181.49    3.55
  -2  -3  -1  657.44   12.59
   2   3   1  627.97   12.59
  -3  -3  -1   56.95    1.42
   3  -3   1   54.43    1.21
   3  -3   1   53.85    1.35
  -3  -3  -1   54.78    1.39
   3  -3   1   53.97    1.14
  -3  -3  -1   55.60    1.28
   3  -3   1   54.39    1.24
   3   3   1   54.66    1.32
   3   3   1   56.45    1.26
   3   3   1   54.58    1.34
   3   3   1   54.90    1.29
   3   3   1   54.08    1.42
  -3   3  -1   54.47    1.21
   3   3   1   47.88    1.30
  -4  -3  -1  301.61    6.03
   4  -3   1  300.46    5.97
   4  -3   1  292.03    5.83
   4  -3   1  298.13    6.00
   4  -3   1  284.53    5.86
  -4  -3  -1  311.97    6.16
   4  -3   1  308.32    6.14
   4   3   1  299.88    6.06
   4   3   1  293.05    5.96
  -4   3  -1  300.48    5.95
   4   3   1  301.97    6.27
   4   3   1  297.78    6.00
   4   3   1  306.87    6.10
   5  -3   1   18.52    0.65
   5  -3   1   17.99    0.80
  -5  -3  -1   17.43    0.70
  -5  -3  -1   15.89    0.88
   5  -3   1   17.05    0.81
   5  -3   1   18.26    0.61
   5   3   1   18.32    0.64
   5   3   1   17.16    0.60
   5   3   1   17.78    0.83
   5   3   1   18.24    0.66
  -5   3  -1   17.63    0.57
   5   3   1   17.75    0.63
  -6  -3  -1   32.76    0.97
  -6  -3  -1   32.24    1.01
   6  -3   1   33.26    0.98
   6  -3   1   32.40    1.29
   6  -3   1   31.51    0.95
   6  -3   1   31.61    1.03
   6   3   1   33.26    0.97
  -6   3  -1   31.96    0.90
   6   3   1   33.39    0.98
   6   3   1   32.91    1.03
   6   3   1   31.36    0.97
   6   3   1   30.45    1.27
   7  -3   1    8.53    0.86
   7  -3   1    8.31    0.80
   7   3   1    8.89    0.62
   7   3   1    8.86    0.91
   7   3   1    9.03    0.58
   8  -3   1   16.70    1.40
   8   3   1   14.73    1.44
   8   3   1   17.18    0.89
   8  -4  -1    6.11    0.71
   8  -4  -1    6.73    0.89
   8   4  -1    7.95    0.99
   8   4  -1    7.54    0.74
   7  -4  -1   56.73    1.92
   7  -4  -1   60.15    1.67
   7   4  -1   57.97    1.94
   7   4  -1   59.55    1.78
  -6  -4   1   88.07    1.97
   6  -4  -1   88.15    1.85
  -6  -4   1   87.84    1.87
   6  -4  -1   87.57    2.22
   6  -4  -1   89.97    2.16
  -6   4   1   88.53    2.20
   6   4  -1   87.48    2.21
   6   4  -1   89.83    2.16
  -6   4   1   86.49    1.93
   6   4  -1   90.14    2.12
  -5  -4   1    4.53    0.29
   5  -4  -1    4.88    0.39
   5  -4  -1    4.91    0.27
  -5  -4   1    5.05    0.43
  -5  -4   1    4.73    0.31
   5  -4  -1    4.64    0.37
   5   4  -1    4.65    0.48
  -5   4   1    4.65    0.31
   5   4  -1    4.76    0.38
   5   4  -1    4.80    0.37
   5   4  -1    4.37    0.34
   4  -4  -1   23.49    0.79
  -4  -4   1   23.81    0.67
  -4  -4   1   23.40    0.82
  -4  -4   1   23.96    0.76
  -4  -4   1   22.31    0.82
  -4  -4   1   23.97    0.70
   4  -4  -1   24.26    0.76
  -4   4   1   24.55    0.70
   4   4  -1   22.76    0.85
  -4   4   1   24.29    0.87
   4   4  -1   23.84    0.79
   4   4  -1   23.65    0.75
   4   4  -1   24.28    0.74
   3  -4  -1  336.77    6.77
  -3  -4   1  342.24    6.72
  -3  -4   1  335.76    6.78
  -3  -4   1  332.90    6.85
   3  -4  -1  341.94    6.84
  -3  -4   1  338.60    6.86
   3   4  -1  334.27    6.76
   3   4  -1  335.82    6.87
  -3   4   1  342.95    6.74
   3   4  -1  338.52    6.76
  -3   4   1  335.33    6.81
   3   4  -1  345.79    6.83
  -2  -4   1   26.12    0.78
  -2  -4   1   26.26    0.74
  -2  -4   1   28.11    0.71
   2  -4  -1   26.25    0.73
   2  -4  -1   25.85    0.76
  -2  -4   1   27.71    0.77
   2   4  -1   27.42    0.74
   2   4  -1   27.13    0.74
  -2   4   1   26.67    0.76
   2   4  -1   28.12    0.78
  -2   4   1   25.95    0.73
   2   4  -1   26.45    0.82
   1  -4   1    6.89    0.29
   1  -4   1    7.44    0.32
  -1  -4  -1    7.09    0.37
  -1  -4  -1    6.94    0.26
  -1  -4  -1    6.79    0.32
   1  -4   1    7.40    0.30
  -1  -4  -1    7.36    0.26
   1  -4   1    7.30    0.26
   1   4   1    7.32    0.33
   1   4   1    7.10    0.27
   1   4   1    6.91    0.29
   1   4   1    7.38    0.31
  -1   4  -1    6.84    0.35
  -1   4  -1    7.39    0.27
  -2  -4  -1  539.43   10.49
  -2  -4  -1  520.45   10.56
  -2  -4  -1  548.81   10.57
  -2   4  -1  543.90   10.46
   2   4   1  535.03   10.50
   2   4   1  522.42   10.56
  -3  -4  -1    0.15    0.14
   3  -4   1    0.41    0.07
  -3  -4  -1    0.35    0.18
   3  -4   1    0.03    0.09
  -3  -4  -1    0.06    0.10
   3  -4   1    0.16    0.16
  -3   4  -1    0.17    0.09
   3   4   1    0.39    0.12
   3   4   1    0.25    0.13
   3   4   1    0.32    0.18
  -3   4  -1    0.21    0.09
   3   4   1    0.22    0.11
   3   4   1    0.45    0.14
   4  -4   1   46.29    1.17
  -4  -4  -1   46.55    1.30
  -4  -4  -1   46.72    1.21
  -4  -4  -1   44.41    1.34
   4  -4   1   47.08    1.28
   4  -4   1   47.43    1.15
   4   4   1   47.85    1.24
   4   4   1   47.85    1.24
  -4   4  -1   50.42    1.15
   4   4   1   46.15    1.38
   4   4   1   46.60    1.18
   4   4   1   47.85    1.16
   5  -4   1   55.97    1.34
   5  -4   1   54.10    1.45
   5  -4   1   46.08    1.68
  -5  -4  -1   55.54    1.47
  -5  -4  -1   53.55    1.38
   5   4   1   55.26    1.43
  -5   4  -1   53.35    1.29
   5   4   1   52.39    1.62
   5   4   1   53.70    1.35
   5   4   1   53.74    1.34
   5   4   1   52.77    1.38
   6  -4   1   86.83    2.06
   6  -4   1   86.70    2.42
  -6  -4  -1   85.21    2.13
   6  -4   1   85.79    2.05
   6  -4   1   88.43    2.15
  -6  -4  -1   84.86    2.06
   6   4   1   89.86    2.08
   6   4   1   88.18    2.45
   6   4   1   87.88    2.15
   6   4   1   86.16    2.08
   6   4   1   88.91    2.25
  -6   4  -1   87.42    1.97
   7  -4   1    0.26    0.27
   7  -4   1   -0.34    0.38
   7   4   1    0.66    0.45
   7   4   1    0.29    0.29
   7   4   1    0.69    0.29
   8  -4   1   17.26    1.44
   8   4   1   15.65    1.50
   8  -5  -1    0.49    0.39
   8  -5  -1    1.44    0.55
   8   5  -1    0.08    0.51
   8   5  -1    0.62    0.42
   7  -5  -1   22.79    1.15
   7   5  -1   23.39    1.19
   7   5  -1   23.03    0.98
  -6  -5   1   -0.03    0.16
   6  -5  -1    0.26    0.16
   6  -5  -1    0.12    0.19
   6  -5  -1    0.13    0.19
   6   5  -1   -0.08    0.22
   6   5  -1    0.11    0.19
   6   5  -1    0.39    0.21
  -6   5   1    0.18    0.16
  -6   5   1    0.20    0.18
   6   5  -1    0.17    0.28
  -5  -5   1   70.35    1.65
   5  -5  -1   72.46    1.85
   5  -5  -1   71.29    1.77
  -5  -5   1   71.51    1.68
   5  -5  -1   71.13    1.61
   5   5  -1   70.05    1.75
   5   5  -1   71.66    1.96
   5   5  -1   68.78    1.80
   5   5  -1   72.95    1.89
  -5   5   1   69.21    1.64
  -5   5   1   70.32    1.78
   4  -5  -1    0.17    0.14
  -4  -5   1    0.28    0.19
  -4  -5   1    0.01    0.10
  -4  -5   1   -0.09    0.15
  -4  -5   1    0.06    0.16
   4  -5  -1    0.43    0.15
  -4   5   1    0.16    0.11
   4   5  -1   -0.04    0.16
  -4   5   1    0.14    0.13
   4   5  -1    0.00    0.14
   4   5  -1    0.02    0.13
   4   5  -1   -0.14    0.12
  -3  -5   1  321.59    6.67
   3  -5  -1  322.19    6.56
  -3  -5   1  330.81    6.65
   3  -5  -1  332.45    6.64
  -3  -5   1  326.48    6.51
  -3  -5   1  325.44    6.59
  -3   5   1  318.06    6.32
   3   5  -1  327.97    6.57
  -3   5   1  328.17    6.62
   3   5  -1  322.79    6.66
   3   5  -1  324.89    6.57
  -3   5   1  328.87    6.54
   3   5  -1  332.89    6.64
  -2  -5   1   30.92    0.92
  -2  -5   1   32.61    0.89
  -2  -5   1   30.69    0.81
  -2  -5   1   31.75    0.86
   2  -5  -1   30.96    0.84
   2  -5  -1   31.79    0.89
   2   5  -1   32.32    0.90
  -2   5   1   31.78    0.88
   2   5  -1   32.62    0.90
   2   5  -1   30.64    0.85
   2   5  -1   29.93    0.85
  -2   5   1   31.10    0.83
   0  -5   1  195.40    3.92
   0  -5   1  190.58    4.10
   0  -5   1  191.71    3.90
   0  -5  -1  196.10    3.94
   0  -5  -1  197.05    3.98
   0  -5   1  202.55    4.14
   0  -5   1  195.09    3.92
   0   5   1  170.54    4.05
   0   5   1  196.92    3.98
   0   5  -1  179.68    3.99
   0   5   1  194.80    3.92
   0   5  -1  198.70    3.99
   0   5  -1  196.17    3.91
   0   5  -1  199.74    3.98
  -1  -5  -1  241.20    4.87
   1  -5   1  247.31    4.87
   1  -5   1  217.88    4.86
  -1  -5  -1  245.14    4.88
  -1  -5  -1  243.16    4.87
  -1  -5  -1  237.18    4.78
   1  -5   1  234.43    4.75
   1  -5   1  249.55    4.86
  -1  -5  -1  241.30    4.78
  -1  -5  -1  234.76    4.88
   1   5   1  232.41    4.87
   1   5   1  241.94    4.82
   1   5   1  244.77    4.88
   1   5   1  242.96    4.81
   1   5   1  236.30    4.86
  -1   5  -1  241.16    4.85
  -1   5  -1  240.15    4.77
  -2  -5  -1  219.88    4.48
   2  -5   1  221.85    4.44
  -2  -5  -1  231.39    4.67
   2  -5   1  228.26    4.63
  -2  -5  -1  223.32    4.46
  -2  -5  -1  227.39    4.68
   2  -5   1  227.42    4.59
   2   5   1  227.92    4.56
   2   5   1  230.85    4.64
  -2   5  -1  230.62    4.59
   2   5   1  219.04    4.66
  -2   5  -1  221.57    4.45
  -2   5  -1  227.91    4.56
   2   5   1  221.05    4.62
   2   5   1  223.59    4.61
   3  -5   1    6.23    0.38
  -3  -5  -1    6.41    0.23
   3  -5   1    6.98    0.21
   3  -5   1    7.10    0.35
   3  -5   1    7.02    0.34
  -3  -5  -1    7.35    0.43
  -3  -5  -1    6.40    0.35
  -3  -5  -1    6.37    0.43
  -3  -5  -1    6.25    0.22
  -3   5  -1    6.74    0.32
   3   5   1    6.91    0.44
   3   5   1    6.46    0.37
   3   5   1    7.15    0.38
   3   5   1    6.60    0.34
  -3   5  -1    7.11    0.33
   3   5   1    6.45    0.41
  -4  -5  -1   46.59    1.40
  -4  -5  -1   49.90    1.37
   4  -5   1   49.77    1.21
   4  -5   1   48.95    1.34
   4  -5   1   49.46    1.25
  -4  -5  -1   48.37    1.28
   4   5   1   49.27    1.31
   4   5   1   49.26    1.57
  -4   5  -1   48.82    1.20
  -4   5  -1   47.91    1.23
   4   5   1   49.85    1.32
   4   5   1   49.83    1.26
   4   5   1   49.08    1.23
  -5  -5  -1   24.93    0.85
   5  -5   1   26.77    0.96
   5  -5   1   25.64    0.89
   5  -5   1   25.78    0.80
  -5  -5  -1   25.78    0.92
   5   5   1   27.08    0.84
   5   5   1   25.10    0.85
   5   5   1   26.30    1.07
   5   5   1   26.81    0.91
   5   5   1   24.65    0.81
   6  -5   1    3.14    0.39
   6  -5   1    3.39    0.47
  -6  -5  -1    2.97    0.37
   6  -5   1    4.09    0.42
   6  -5   1    4.03    0.56
   6   5   1    3.61    0.53
   6   5   1    4.34    0.57
   6   5   1    3.51    0.56
   6   5   1    4.00    0.47
  -6   5  -1    3.91    0.36
   6   5   1    3.14    0.67
   7  -5   1   16.56    0.78
   7  -5   1   16.22    1.10
   7   5   1   15.12    1.06
   7   5   1   14.87    0.80
   7   5   1   15.29    0.81
   8  -6  -1    2.01    0.68
   8  -6  -1    3.30    0.50
   8   6  -1    3.75    0.60
   8   6  -1    2.67    0.69
   8   6  -1    3.56    0.55
   7  -6  -1    0.15    0.31
   7   6  -1    0.62    0.33
   7   6  -1    0.47    0.39
  -6  -6   1    2.40    0.28
  -6  -6   1    2.62    0.38
   6  -6  -1    2.31    0.32
  -6  -6   1    2.62    0.36
  -6  -6   1    3.22    0.31
   6  -6  -1    2.94    0.40
   6  -6  -1    2.81    0.35
   6   6  -1    2.32    0.33
   6   6  -1    2.40    0.47
   6   6  -1    2.83    0.36
   6   6  -1    2.43    0.39
  -6   6   1    2.62    0.29
  -5  -6   1   40.03    1.06
   5  -6  -1   40.40    1.23
  -5  -6   1   40.73    1.11
  -5  -6   1   39.05    1.28
   5  -6  -1   40.31    1.18
  -5   6   1   40.13    1.20
   5   6  -1   39.66    1.21
   5   6  -1   41.55    1.20
   5   6  -1   39.32    1.16
   5   6  -1   40.12    1.35
  -5   6   1   38.66    1.06
  -4  -6   1  146.58    3.27
   4  -6  -1  151.43    3.32
  -4  -6   1  147.78    3.37
  -4  -6   1  151.01    3.15
  -4  -6   1  147.25    3.16
  -4  -6   1  150.03    3.36
   4  -6  -1  147.58    3.24
   4   6  -1  148.36    3.38
   4   6  -1  146.55    3.24
   4   6  -1  147.23    3.24
   4   6  -1  152.04    3.32
  -4   6   1  147.45    3.27
  -4   6   1  146.46    3.16
  -3  -6   1    7.83    0.42
   3  -6  -1    8.29    0.45
  -3  -6   1    7.39    0.46
  -3  -6   1    7.65    0.44
  -3  -6   1    7.43    0.36
   3  -6  -1    8.22    0.41
   3   6  -1    8.17    0.47
  -3   6   1    8.07    0.25
  -3   6   1    7.69    0.37
   3   6  -1    7.92    0.42
  -3   6   1    7.91    0.42
   3   6  -1    7.12    0.39
  -3   6   1    7.59    0.24
   3   6  -1    8.13    0.44
   2  -6  -1    0.66    0.15
  -2  -6   1    0.64    0.15
  -2  -6   1    0.69    0.13
  -2  -6   1    1.14    0.19
   2  -6  -1    0.43    0.13
  -2  -6   1    0.82    0.20
   2  -6  -1    1.02    0.18
  -2   6   1    0.74    0.16
   2   6  -1    0.53    0.16
   2   6  -1    0.71    0.19
  -2   6   1    0.63    0.13
   2   6  -1    0.80    0.18
   2   6  -1    0.90    0.17
   2   6  -1    0.94    0.18
  -1  -6   1   35.87    0.92
   1  -6  -1   35.56    0.98
   1  -6  -1   35.11    0.92
  -1  -6   1   35.01    0.94
   1  -6  -1   34.05    0.92
  -1  -6   1   34.68    0.92
  -1  -6   1   30.57    1.08
  -1   6   1   34.11    0.92
  -1   6   1   33.85    0.96
   1   6  -1   35.48    1.01
   1   6  -1   34.81    0.92
   1   6  -1   35.58    0.94
  -1   6   1   34.83    0.91
   1   6  -1   34.85    0.95
   1   6  -1   36.23    0.99
  -1   6   1   35.35    0.98
   0  -6  -1    0.17    0.11
   0  -6   1    0.10    0.10
   0  -6   1    0.21    0.13
   0  -6  -1    0.30    0.13
   0  -6   1    0.15    0.11
   0  -6  -1    0.35    0.12
   0  -6   1    0.14    0.09
   0   6  -1    0.30    0.12
   0   6   1    0.16    0.10
   0   6   1    0.09    0.12
   0   6   1    0.26    0.10
   0   6  -1    0.21    0.13
   0   6   1    0.35    0.15
   0   6  -1    0.15    0.11
   1  -6   1  141.79    2.98
   1  -6   1  133.95    2.85
   1  -6   1  132.11    3.05
  -1  -6  -1  138.20    2.98
   1  -6   1  140.57    2.91
  -1  -6  -1  142.83    2.98
  -1  -6  -1  137.64    2.89
  -1  -6  -1  139.99    2.90
   1  -6   1  140.88    2.97
  -1  -6  -1  142.59    3.00
   1   6   1  138.73    2.93
   1   6   1  140.85    2.99
   1   6   1  137.87    2.92
  -1   6  -1  139.55    2.97
  -1   6  -1  138.78    2.86
   1   6   1  134.13    2.96
  -1   6  -1  141.47    2.96
   1   6   1  137.93    2.99
  -2  -6  -1   16.60    0.55
  -2  -6  -1   18.25    0.67
   2  -6   1   18.99    0.59
  -2  -6  -1   18.07    0.67
   2  -6   1   18.69    0.50
   2  -6   1   18.57    0.61
   2  -6   1   17.81    0.61
  -2   6  -1   18.83    0.62
   2   6   1   18.02    0.63
   2   6   1   18.48    0.64
  -2   6  -1   18.67    0.52
   2   6   1   18.08    0.65
   2   6   1   21.04    0.62
   2   6   1   19.53    0.69
   3  -6   1  101.04    2.06
   3  -6   1  102.92    2.32
  -3  -6  -1  104.17    2.35
  -3  -6  -1  104.20    2.42
  -3  -6  -1  104.87    2.13
  -3  -6  -1  103.01    2.15
   3  -6   1  101.51    2.24
  -3  -6  -1  104.72    2.41
   3   6   1  103.74    2.28
  -3   6  -1  103.14    2.29
  -3   6  -1  102.62    2.08
   3   6   1  102.23    2.32
   3   6   1  104.64    2.37
   3   6   1   98.91    2.34
   3   6   1  100.60    2.43
  -3   6  -1  102.71    2.26
   4  -6   1    4.79    0.39
   4  -6   1    4.76    0.35
  -4  -6  -1    4.42    0.48
  -4  -6  -1    4.06    0.35
  -4  -6  -1    4.36    0.43
   4  -6   1    4.65    0.32
  -4   6  -1    4.65    0.31
   4   6   1    4.52    0.36
   4   6   1    5.19    0.49
   4   6   1    4.53    0.34
   4   6   1    5.04    0.36
  -4   6  -1    4.84    0.36
   4   6   1    4.87    0.40
   5  -6   1    5.10    0.44
   5  -6   1    4.84    0.43
  -5  -6  -1    4.51    0.42
  -5  -6  -1    4.63    0.47
   5  -6   1    4.62    0.37
   5   6   1    6.31    0.45
   5   6   1    4.75    0.40
   5   6   1    5.47    0.48
   5   6   1    4.19    0.37
  -5   6  -1    4.62    0.35
   5   6   1    4.76    0.58
   6  -6   1    0.51    0.32
   6  -6   1    0.23    0.26
  -6  -6  -1    0.78    0.30
   6  -6   1    0.55    0.25
   6   6   1    0.60    0.25
   6   6   1    0.45    0.25
   6   6   1    0.25    0.35
   7  -6   1    0.43    0.48
   7  -6   1    1.44    0.37
   7   6   1    0.10    0.47
   7   6   1    0.77    0.36
   7   6   1    1.29    0.48
   8  -7  -1   11.77    1.19
   8  -7  -1   13.44    0.91
   8   7  -1   10.64    1.08
   8   7  -1   12.80    1.31
   8   7  -1   11.49    0.97
   7  -7  -1    0.13    0.28
   7   7  -1    0.42    0.35
   7   7  -1    0.49    0.35
   7   7  -1    0.05    0.42
  -6  -7   1    4.84    0.42
   6  -7  -1    3.89    0.38
   6  -7  -1    4.84    0.50
  -6  -7   1    4.26    0.37
  -6  -7   1    5.16    0.41
   6  -7  -1    4.12    0.50
   6   7  -1    4.49    0.52
   6   7  -1    3.77    0.48
   6   7  -1    5.06    0.65
  -6   7   1    5.09    0.35
   5  -7  -1    3.93    0.43
  -5  -7   1    4.06    0.47
  -5  -7   1    3.70    0.32
  -5  -7   1    3.35    0.38
   5  -7  -1    4.57    0.42
  -5   7   1    4.06    0.33
   5   7  -1    4.06    0.53
   5   7  -1    3.25    0.41
   5   7  -1    3.72    0.40
   5   7  -1    3.80    0.42
  -4  -7   1   30.93    1.02
  -4  -7   1   31.61    0.90
   4  -7  -1   32.33    0.99
  -4  -7   1   31.83    1.10
   4  -7  -1   32.04    1.04
  -4  -7   1   30.22    1.07
  -4   7   1   31.83    1.01
   4   7  -1   32.17    1.05
   4   7  -1   31.69    1.00
   4   7  -1   30.52    1.09
   4   7  -1   31.91    1.10
   4   7  -1   29.91    0.97
  -4   7   1   32.44    0.93
  -3  -7   1   95.13    2.26
   3  -7  -1   93.94    2.25
  -3  -7   1   95.93    2.13
   3  -7  -1   95.18    2.19
  -3  -7   1   93.97    2.32
   3  -7  -1   95.91    2.20
  -3  -7   1   93.95    2.22
   3   7  -1   95.58    2.32
   3   7  -1   97.45    2.21
   3   7  -1   96.71    2.27
   3   7  -1   93.54    2.27
  -3   7   1   94.86    2.24
   3   7  -1   95.59    2.22
  -3   7   1   96.01    2.16
  -3   7   1   93.57    1.95
   2  -7  -1    4.50    0.30
  -2  -7   1    5.67    0.36
   2  -7  -1    4.46    0.33
  -2  -7   1    4.01    0.28
  -2  -7   1    4.22    0.32
  -2  -7   1    4.08    0.38
   2  -7  -1    4.40    0.31
   2   7  -1    4.54    0.32
  -2   7   1    4.11    0.33
   2   7  -1    4.80    0.33
   2   7  -1    4.25    0.35
   2   7  -1    4.34    0.35
  -2   7   1    4.49    0.29
   2   7  -1    4.74    0.38
  -2   7   1    4.40    0.23
   1  -7  -1   25.98    0.84
  -1  -7   1   26.13    0.78
   1  -7  -1   26.42    0.78
   1  -7  -1   26.51    0.78
  -1  -7   1   26.06    0.86
  -1  -7   1   26.97    0.80
  -1   7   1   26.58    0.84
  -1   7   1   26.32    0.95
   1   7  -1   27.09    0.80
   1   7  -1   25.67    0.79
   1   7  -1   27.74    0.89
  -1   7   1   25.79    0.77
  -1   7   1   26.06    0.78
  -1   7   1   26.45    0.73
   1   7  -1   25.81    0.77
   1   7  -1   25.87    0.89
   0  -7  -1  270.04    5.54
   0  -7   1  279.43    5.66
   0  -7  -1  277.54    5.55
   0  -7   1  261.12    5.51
   0  -7  -1  275.67    5.59
   0  -7   1  276.73    5.56
   0  -7  -1  281.83    5.65
   0  -7   1  280.20    5.64
   0  -7   1  273.34    5.56
   0   7  -1  266.03    5.52
   0   7   1  265.78    5.56
   0   7   1  279.74    5.57
   0   7   1  275.73    5.55
   0   7  -1  270.02    5.55
   0   7   1  277.15    5.64
   0   7  -1  276.08    5.63
   0   7   1  277.96    5.65
   0   7  -1  275.16    5.64
  -1  -7  -1    7.55    0.40
  -1  -7  -1    7.87    0.41
  -1  -7  -1    8.16    0.37
   1  -7   1    7.30    0.37
   1  -7   1    7.60    0.39
   1  -7   1    7.62    0.40
   1  -7   1    7.91    0.35
   1  -7   1    8.01    0.38
  -1  -7  -1    7.94    0.41
  -1  -7  -1    7.61    0.36
  -1   7  -1    6.95    0.37
  -1   7  -1    7.41    0.40
   1   7   1    7.60    0.42
   1   7   1    7.74    0.42
   1   7   1    8.05    0.38
   1   7   1    7.69    0.38
   1   7   1    7.59    0.41
   2  -7   1  235.37    4.82
   2  -7   1  236.69    4.86
  -2  -7  -1  237.76    4.94
  -2  -7  -1  235.04    4.77
   2  -7   1  228.43    4.69
  -2  -7  -1  233.58    4.75
  -2  -7  -1  236.11    4.95
  -2  -7  -1  234.04    4.95
   2  -7   1  232.06    4.89
  -2  -7  -1  237.07    4.91
  -2   7  -1  236.48    4.71
   2   7   1  235.60    4.93
  -2   7  -1  241.72    4.90
   2   7   1  236.43    4.94
   2   7   1  236.56    4.92
   2   7   1  236.79    4.85
   2   7   1  237.47    4.90
   3  -7   1   19.83    0.50
   3  -7   1   19.42    0.70
   3  -7   1   20.04    0.66
  -3  -7  -1   19.30    0.56
  -3  -7  -1   19.31    0.96
  -3  -7  -1   19.65    0.61
  -3  -7  -1   19.71    0.77
   3   7   1   19.15    0.78
  -3   7  -1   20.13    0.50
   3   7   1   20.25    0.68
  -3   7  -1   19.33    0.65
   3   7   1   20.33    0.71
   3   7   1   18.99    0.70
  -3   7  -1   19.80    0.68
   3   7   1   19.94    0.74
   4  -7   1   41.17    1.38
  -4  -7  -1   41.78    1.28
  -4  -7  -1   40.21    1.20
   4  -7   1   41.13    1.16
  -4  -7  -1   40.57    0.92
   4  -7   1   41.28    1.12
  -4  -7  -1   39.93    0.93
   4   7   1   39.79    1.16
   4   7   1   41.19    1.24
   4   7   1   41.29    1.32
   4   7   1   40.88    1.16
   4   7   1   39.31    1.18
  -4   7  -1   41.23    1.11
   5  -7   1   70.58    1.88
   5  -7   1   75.01    1.80
   5  -7   1   72.59    1.84
  -5  -7  -1   70.80    1.86
  -5  -7  -1   72.89    1.95
   5   7   1   74.41    2.10
   5   7   1   71.42    1.82
  -5   7  -1   70.70    1.74
   5   7   1   74.41    1.85
  -6  -7  -1    6.25    0.58
   6  -7   1    5.80    0.60
   6  -7   1    6.11    0.52
   6  -7   1    6.40    0.62
   6   7   1    6.09    0.56
   6   7   1    6.71    0.55
   6   7   1    4.71    0.71
   6   7   1    6.15    0.59
   7  -7   1    1.48    0.53
   7  -7   1    0.88    0.41
   7   7   1    0.96    0.53
   7   7   1    1.75    0.42
   7   7   1    1.88    0.44
   8  -8  -1    4.47    0.84
   8  -8  -1    6.54    0.82
   8   8  -1    4.73    0.90
   8   8  -1    5.44    0.80
   8   8  -1    6.06    0.91
   7  -8  -1   31.20    1.19
   7   8  -1   32.54    1.27
   7   8  -1   29.65    1.32
   7   8  -1   32.94    1.45
   6  -8  -1   52.83    1.63
  -6  -8   1   54.79    1.46
  -6  -8   1   55.16    1.40
   6  -8  -1   54.40    1.42
  -6  -8   1   53.78    1.46
   6  -8  -1   55.52    1.60
  -6  -8   1   53.22    1.70
  -6   8   1   57.82    1.72
   6   8  -1   55.10    1.76
   6   8  -1   57.56    1.93
   6   8  -1   50.64    1.73
  -5  -8   1    2.10    0.33
  -5  -8   1    2.09    0.30
   5  -8  -1    2.58    0.40
  -5  -8   1    2.42    0.31
   5  -8  -1    1.63    0.29
  -5  -8   1    2.52    0.35
   5   8  -1    1.81    0.35
   5   8  -1    2.65    0.34
  -5   8   1    1.81    0.24
   5   8  -1    3.37    0.52
   5   8  -1    2.29    0.33
  -5   8   1    2.19    0.30
  -4  -8   1   76.89    1.99
  -4  -8   1   77.42    1.83
   4  -8  -1   81.36    1.95
  -4  -8   1   76.68    2.08
   4  -8  -1   77.08    2.01
   4   8  -1   78.47    2.08
  -4   8   1   78.05    1.98
   4   8  -1   78.71    2.09
   4   8  -1   78.10    2.01
  -4   8   1   79.08    1.87
   4   8  -1   80.45    1.98
   4   8  -1   74.80    1.94
  -3  -8   1  133.87    2.93
   3  -8  -1  133.04    2.98
   3  -8  -1  134.60    3.07
  -3  -8   1  132.93    3.13
  -3  -8   1  135.22    3.07
   3  -8  -1  135.42    3.00
  -3  -8   1  133.25    3.03
   3   8  -1  132.64    3.02
   3   8  -1  134.14    3.00
   3   8  -1  136.01    3.14
  -3   8   1  134.95    2.75
  -3   8   1  136.18    3.06
  -3   8   1  135.54    2.96
   3   8  -1  137.11    3.10
   3   8  -1  136.41    3.08
  -2  -8   1   34.40    1.12
   2  -8  -1   34.52    0.99
   2  -8  -1   34.13    1.05
  -2  -8   1   34.80    1.02
   2  -8  -1   32.84    0.97
  -2  -8   1   34.08    1.02
  -2  -8   1   33.13    0.95
   2   8  -1   34.24    0.99
  -2   8   1   36.23    1.06
  -2   8   1   34.24    0.97
   2   8  -1   33.14    1.00
  -2   8   1   31.29    1.04
   2   8  -1   33.74    1.03
   2   8  -1   34.09    1.09
  -1  -8   1  419.65    8.42
   1  -8  -1  425.74    8.45
  -1  -8   1  423.04    8.55
  -1  -8   1  431.04    8.46
   1  -8  -1  424.78    8.52
  -1  -8   1  417.51    8.42
   1   8  -1  431.56    8.54
  -1   8   1  428.20    8.50
   1   8  -1  415.84    8.55
  -1   8   1  414.92    8.40
   1   8  -1  418.36    8.41
   1   8  -1  419.97    8.44
   1   8  -1  412.35    8.44
  -1   8   1  423.19    8.52
  -1   8   1  421.38    8.43
  -1   8   1  415.10    8.34
   0  -8  -1  138.33    3.03
   0  -8   1  135.36    2.94
   0  -8  -1  134.54    2.92
   0  -8   1  132.36    2.88
   0  -8  -1  136.66    2.96
   0  -8   1  135.57    2.94
   0  -8   1  133.99    3.02
   0  -8   1  133.53    2.93
   0   8   1  133.34    2.93
   0   8   1  137.14    2.94
   0   8  -1  133.31    2.92
   0   8  -1  134.89    3.02
   0   8   1  134.96    3.01
   0   8   1  132.78    2.90
   0   8   1  135.60    3.03
   0   8  -1  137.05    3.01
   0   8  -1  137.92    2.90
   1  -8   1   72.59    1.68
   1  -8   1   67.71    1.74
  -1  -8  -1   68.27    1.64
  -1  -8  -1   69.86    1.65
   1  -8   1   71.02    1.60
   1  -8   1   69.42    1.68
  -1  -8  -1   71.62    1.73
   1  -8   1   69.63    1.73
  -1  -8  -1   69.25    1.75
  -1  -8  -1   71.71    1.76
  -1   8  -1   66.65    1.71
   1   8   1   69.85    1.72
   1   8   1   72.34    1.70
   1   8   1   68.41    1.75
  -1   8  -1   69.59    1.66
   1   8   1   71.12    1.77
  -1   8  -1   71.61    1.62
   1   8   1   69.95    1.68
  -1   8  -1   70.98    1.74
   2  -8   1  142.07    3.16
  -2  -8  -1  143.42    3.01
  -2  -8  -1  144.51    3.18
   2  -8   1  138.01    2.96
  -2  -8  -1  142.33    3.20
   2  -8   1  145.69    3.09
  -2  -8  -1  138.36    3.17
  -2  -8  -1  144.96    3.04
  -2  -8  -1  144.31    3.17
   2  -8   1  144.73    3.12
  -2   8  -1  141.41    2.96
   2   8   1  145.00    3.11
   2   8   1  149.49    3.27
   2   8   1  142.76    3.20
  -2   8  -1  140.01    3.10
   2   8   1  138.29    3.13
   2   8   1  141.68    3.19
  -2   8  -1  141.56    3.15
   3  -8   1    1.63    0.16
   3  -8   1    1.59    0.23
   3  -8   1    1.55    0.22
  -3  -8  -1    1.45    0.21
  -3  -8  -1    1.98    0.26
  -3  -8  -1    2.27    0.34
   3  -8   1    2.43    0.28
  -3  -8  -1    2.08    0.31
  -3   8  -1    1.77    0.26
   3   8   1    1.80    0.25
  -3   8  -1    1.94    0.30
   3   8   1    1.54    0.28
  -3   8  -1    1.67    0.16
   3   8   1    2.24    0.33
   3   8   1    2.35    0.32
   3   8   1    1.25    0.21
  -4  -8  -1   16.46    0.76
  -4  -8  -1   15.23    0.66
   4  -8   1   15.34    0.65
   4  -8   1   15.43    0.62
  -4  -8  -1   15.25    0.67
   4   8   1   14.35    0.86
   4   8   1   15.31    0.78
  -4   8  -1   14.38    0.60
   4   8   1   16.13    0.67
   4   8   1   14.41    0.64
   4   8   1   15.32    0.72
   5  -8   1   15.32    0.76
   5  -8   1   17.53    0.71
  -5  -8  -1   16.68    0.80
  -5  -8  -1   15.41    0.97
   5  -8   1   15.38    0.71
   5   8   1   17.37    0.96
   5   8   1   16.43    0.76
   5   8   1   17.03    0.82
   5   8   1   17.28    0.71
  -5   8  -1   16.36    0.66
   6  -8   1   10.60    0.64
  -6  -8  -1    8.79    0.67
   6   8   1    9.58    0.85
   6   8   1    9.95    0.71
   6   8   1    9.05    0.69
   7  -8   1    0.42    0.39
   7   8   1   -0.43    0.49
   7   8   1    0.14    0.41
   7   8   1   -0.14    0.37
   7  -9  -1   18.41    0.93
   7   9  -1   18.24    1.09
   7   9  -1   17.48    1.15
   7   9  -1   17.83    1.03
  -6  -9   1    8.22    0.54
  -6  -9   1    9.20    0.57
  -6  -9   1    8.12    0.88
   6  -9  -1    8.17    0.77
  -6  -9   1    7.86    0.49
   6  -9  -1    7.99    0.56
   6   9  -1    8.94    0.79
   6   9  -1    8.89    0.71
   6   9  -1    9.00    0.76
   5  -9  -1   93.96    2.43
   5  -9  -1   96.30    2.35
  -5  -9   1   96.33    2.29
  -5  -9   1   97.57    2.32
  -5  -9   1   95.28    2.19
  -5  -9   1   95.76    2.51
  -5   9   1   93.98    2.20
  -5   9   1   94.58    2.37
   5   9  -1   80.34    2.81
   5   9  -1   97.17    2.41
   5   9  -1   96.20    2.54
   5   9  -1   94.32    2.41
  -4  -9   1   30.78    0.93
  -4  -9   1   32.14    1.10
  -4  -9   1   31.84    1.18
  -4  -9   1   30.59    1.02
   4  -9  -1   31.17    1.04
   4  -9  -1   30.15    1.09
  -4   9   1   30.06    1.06
   4   9  -1   31.51    1.06
   4   9  -1   31.15    1.09
   4   9  -1   32.66    1.19
   4   9  -1   32.25    1.17
  -4   9   1   28.84    0.94
  -3  -9   1    0.51    0.21
  -3  -9   1    1.22    0.35
  -3  -9   1    0.56    0.15
   3  -9  -1    0.37    0.19
   3  -9  -1    0.48    0.18
  -3  -9   1    0.39    0.25
   3  -9  -1    0.12    0.17
  -3   9   1    0.68    0.12
   3   9  -1    0.61    0.23
  -3   9   1    0.62    0.19
   3   9  -1    0.63    0.23
  -3   9   1    0.57    0.22
  -3   9   1    0.59    0.18
   3   9  -1    0.69    0.20
   3   9  -1    0.76    0.22
  -2  -9   1  301.52    6.26
  -2  -9   1  297.53    6.24
  -2  -9   1  299.95    6.18
   2  -9  -1  292.70    6.21
  -2  -9   1  302.15    6.37
   2  -9  -1  299.94    6.22
   2   9  -1  306.95    6.26
   2   9  -1  298.58    6.36
  -2   9   1  311.35    6.31
   2   9  -1  293.64    6.26
  -2   9   1  305.71    6.21
   2   9  -1  309.36    6.35
  -2   9   1  308.96    6.07
   2   9  -1  306.65    6.22
  -2   9   1  303.13    6.32
  -1  -9   1  965.03   19.06
  -1  -9   1  971.10   19.09
  -1  -9   1  937.39   18.96
   1  -9  -1  976.72   18.96
   1  -9  -1  989.29   19.08
  -1  -9   1  980.05   18.95
  -1  -9   1  967.96   18.96
  -1  -9   1  945.65   18.94
   1   9  -1  947.33   18.95
   1   9  -1  975.35   19.06
   1   9  -1  992.39   19.11
   1   9  -1  958.46   18.92
  -1   9   1  973.28   18.95
  -1   9   1  987.89   19.08
  -1   9   1  963.74   19.02
   0  -9  -1    5.85    0.36
   0  -9  -1    5.65    0.42
   0  -9   1    6.03    0.36
   0  -9   1    6.15    0.43
   0  -9   1    6.25    0.36
   0  -9  -1    6.08    0.39
   0  -9   1    6.29    0.42
   0  -9   1    5.14    0.37
   0  -9  -1    5.65    0.38
   0  -9   1    5.79    0.38
   0   9   1    5.34    0.36
   0   9   1    5.98    0.45
   0   9   1    5.73    0.39
   0   9  -1    5.58    0.51
   0   9  -1    5.36    0.38
   0   9  -1    5.77    0.34
   0   9  -1    6.09    0.41
   0   9   1    6.46    0.37
   0   9   1    5.66    0.42
  -1  -9  -1  468.70    9.36
   1  -9   1  470.32    9.41
   1  -9   1  465.70    9.30
   1  -9   1  471.10    9.39
  -1  -9  -1  460.88    9.26
  -1  -9  -1  466.45    9.40
  -1  -9  -1  468.40    9.27
   1  -9   1  464.97    9.31
   1  -9   1  465.97    9.20
  -1  -9  -1  473.65    9.42
   1   9   1  454.11    9.31
   1   9   1  455.61    9.33
  -1   9  -1  454.77    9.27
   1   9   1  459.14    9.46
  -1   9  -1  457.47    9.21
   1   9   1  466.23    9.30
  -1   9  -1  463.29    9.37
  -1   9  -1  474.07    9.39
   1   9   1  468.48    9.41
   2  -9   1   18.63    0.59
   2  -9   1   17.03    0.66
   2  -9   1   19.40    0.74
  -2  -9  -1   18.39    0.65
  -2  -9  -1   18.17    0.61
  -2  -9  -1   17.67    0.73
  -2  -9  -1   18.41    0.73
   2  -9   1   17.11    0.67
  -2  -9  -1   18.36    0.74
   2   9   1   18.11    0.69
  -2   9  -1   18.75    0.59
   2   9   1   18.28    0.75
   2   9   1   18.59    0.76
   2   9   1   17.50    0.69
  -2   9  -1   18.00    0.69
   2   9   1   17.90    0.75
  -2   9  -1   17.93    0.71
  -3  -9  -1    8.05    0.37
  -3  -9  -1    8.23    0.42
   3  -9   1    7.42    0.49
  -3  -9  -1    8.84    0.58
   3  -9   1    7.48    0.49
   3  -9   1    7.50    0.47
  -3  -9  -1    8.41    0.56
   3   9   1    7.27    0.49
   3   9   1    7.87    0.53
  -3   9  -1    8.08    0.32
   3   9   1    8.65    0.58
   3   9   1    7.70    0.50
   3   9   1    8.61    0.50
  -3   9  -1    7.52    0.55
   4  -9   1   57.41    1.53
  -4  -9  -1   59.83    1.71
  -4  -9  -1   57.74    1.34
  -4  -9  -1   59.13    1.40
   4  -9   1   56.40    1.65
   4   9   1   58.87    1.82
  -4   9  -1   58.68    1.54
   4   9   1   57.72    1.58
   4   9   1   59.01    1.75
   4   9   1   57.85    1.60
  -5  -9  -1  194.60    4.34
   5  -9   1  181.36    4.24
   5  -9   1  192.47    4.14
  -5  -9  -1  186.94    4.23
   5  -9   1  187.15    4.20
   5   9   1  187.34    4.23
  -5   9  -1  189.77    4.10
   5   9   1  190.70    4.21
   5   9   1  191.57    4.30
   5   9   1  194.22    4.45
  -6  -9  -1    0.15    0.36
   6  -9   1    0.05    0.30
   6   9   1   -0.22    0.28
   6   9   1   -0.33    0.37
   7  -9   1   36.13    1.33
   7   9   1   33.71    1.39
   7   9   1   35.97    1.41
   7   9   1   37.73    1.73
   7 -10  -1    1.58    0.45
   7  10  -1    1.95    0.51
   7  10  -1    1.84    0.47
   7  10  -1    2.38    0.58
   6 -10  -1    3.31    0.45
  -6 -10   1    3.18    0.38
  -6 -10   1    3.37    0.52
   6  10  -1    3.04    0.46
   6  10  -1    2.61    0.52
   6  10  -1    3.55    0.54
  -5 -10   1    7.23    0.51
  -5 -10   1    7.32    0.72
  -5 -10   1    7.99    0.56
   5 -10  -1    8.34    0.66
   5 -10  -1    7.85    0.61
  -5 -10   1    8.20    0.55
  -5  10   1    7.55    0.49
   5  10  -1    8.22    0.64
   5  10  -1    7.87    0.71
   5  10  -1    7.84    0.62
  -5  10   1    8.10    0.58
   5  10  -1    8.81    0.73
  -4 -10   1  372.58    7.78
  -4 -10   1  355.39    7.37
  -4 -10   1  371.40    7.49
   4 -10  -1  359.74    7.62
   4 -10  -1  370.96    7.51
  -4  10   1  355.30    7.41
   4  10  -1  363.13    7.65
  -4  10   1  370.40    7.59
  -4  10   1  356.39    7.09
  -4  10   1  343.46    7.09
   4  10  -1  374.68    7.75
   4  10  -1  361.55    7.56
  -3 -10   1   38.08    1.09
  -3 -10   1   39.25    1.33
  -3 -10   1   39.03    1.18
   3 -10  -1   36.92    1.26
   3 -10  -1   37.60    1.14
  -3 -10   1   38.07    1.20
  -3 -10   1   36.10    1.26
   3  10  -1   35.53    1.16
   3  10  -1   37.28    1.19
   3  10  -1   37.79    1.24
  -3  10   1   36.82    1.11
   3  10  -1   38.13    1.24
  -3  10   1   38.76    0.96
  -3  10   1   35.81    1.21
   3  10  -1   38.63    1.30
   2 -10  -1   18.09    0.71
  -2 -10   1   18.13    0.73
   2 -10  -1   18.06    0.71
   2 -10  -1   18.96    0.80
  -2 -10   1   18.78    0.68
  -2 -10   1   18.86    0.76
  -2 -10   1   17.57    0.82
  -2 -10   1   18.55    0.75
  -2  10   1   18.58    0.70
   2  10  -1   18.01    0.77
   2  10  -1   16.74    0.69
   2  10  -1   18.45    0.83
  -2  10   1   18.25    0.77
  -2  10   1   18.73    0.60
  -2  10   1   17.80    0.78
   2  10  -1   18.30    0.74
   2  10  -1   18.41    0.80
  -1 -10   1   28.52    0.92
  -1 -10   1   27.61    0.91
   1 -10  -1   27.55    0.91
  -1 -10   1   27.65    0.92
   1 -10  -1   26.04    0.89
   1 -10  -1   27.42    0.98
  -1 -10   1   27.81    0.89
  -1 -10   1   27.95    1.01
  -1  10   1   27.44    0.82
  -1  10   1   27.25    0.89
  -1  10   1   25.84    0.95
   1  10  -1   27.87    1.01
   1  10  -1   27.05    0.87
   1  10  -1   27.33    0.92
   1  10  -1   25.96    0.95
  -1  10   1   27.38    0.97
  -1  10   1   27.83    0.89
   0 -10   1    9.57    0.57
   0 -10   1    9.58    0.48
   0 -10  -1    9.54    0.55
   0 -10   1    9.99    0.56
   0 -10   1    9.05    0.50
   0 -10  -1    9.48    0.50
   0 -10  -1    9.60    0.48
   0 -10   1    9.71    0.48
   0 -10   1    9.63    0.52
   0 -10  -1   10.33    0.53
   0  10  -1   10.01    0.55
   0  10  -1    9.64    0.50
   0  10  -1    9.70    0.46
   0  10   1    9.83    0.56
   0  10   1    9.62    0.49
   0  10   1    9.52    0.51
   0  10   1    9.31    0.56
   0  10   1    9.76    0.46
   0  10  -1    9.71    0.60
  -1 -10  -1    7.60    0.47
   1 -10   1    7.15    0.39
   1 -10   1    7.57    0.45
   1 -10   1    7.24    0.48
   1 -10   1    7.49    0.48
  -1 -10  -1    6.68    0.46
  -1 -10  -1    7.12    0.47
  -1  10  -1    6.97    0.48
  -1  10  -1    7.81    0.40
  -1  10  -1    7.61    0.49
   1  10   1    7.48    0.50
   1  10   1    7.36    0.48
  -1  10  -1    7.17    0.42
   1  10   1    6.89    0.41
   1  10   1    7.99    0.51
  -2 -10  -1   23.00    0.87
  -2 -10  -1   20.64    0.86
   2 -10   1   21.21    0.80
  -2 -10  -1   22.96    0.88
  -2 -10  -1   23.59    0.78
   2 -10   1   22.87    0.81
  -2 -10  -1   22.65    0.74
   2 -10   1   22.79    0.87
   2 -10   1   22.86    0.70
  -2  10  -1   22.33    0.83
   2  10   1   22.59    0.89
   2  10   1   21.87    0.83
  -2  10  -1   22.91    0.71
   2  10   1   24.42    0.84
   2  10   1   23.72    0.90
   2  10   1   23.21    0.90
  -2  10  -1   21.08    0.84
   3 -10   1  117.71    2.68
  -3 -10  -1  113.33    2.53
  -3 -10  -1  115.61    2.58
  -3 -10  -1  112.31    2.77
   3 -10   1  113.91    2.76
  -3 -10  -1  117.62    2.85
   3  10   1  114.36    2.78
  -3  10  -1  116.07    2.71
   3  10   1  118.66    2.83
   3  10   1  115.91    2.71
   3  10   1  118.66    2.84
   4 -10   1   15.29    0.71
  -4 -10  -1   14.82    0.52
  -4 -10  -1   15.14    0.82
   4 -10   1   14.36    0.66
  -4 -10  -1   15.88    0.58
  -4 -10  -1   14.84    0.73
   4  10   1   13.67    0.70
   4  10   1   14.52    0.78
  -4  10  -1   15.15    0.66
   4  10   1   13.54    0.82
   4  10   1   15.53    0.73
  -5 -10  -1   16.16    0.59
   5 -10   1   16.82    0.76
   5 -10   1   18.37    0.81
  -5 -10  -1   18.92    0.92
   5  10   1   17.03    0.89
   5  10   1   17.43    1.07
   5  10   1   16.72    0.78
   5  10   1   17.09    0.87
  -6 -10  -1    0.74    0.43
   6  10   1    1.23    0.49
   6  10   1    1.30    0.38
   6  10   1    0.36    0.33
   7 -10   1    2.02    0.47
   7  10   1    0.97    0.47
   7  10   1    1.37    0.50
   7  10   1    1.14    0.71
   7 -11  -1    0.70    0.43
   7  11  -1   -0.41    0.49
   7  11  -1   -0.38    0.54
   7  11  -1    0.15    0.47
  -6 -11   1    8.59    0.62
   6 -11  -1    8.96    0.72
  -6 -11   1    8.46    0.67
   6  11  -1    7.72    0.79
   6  11  -1    9.32    0.78
   6  11  -1    8.38    0.84
  -5 -11   1    2.98    0.41
  -5 -11   1    2.67    0.36
   5 -11  -1    2.88    0.42
  -5  11   1    3.14    0.41
   5  11  -1    3.38    0.49
   5  11  -1    2.79    0.50
   5  11  -1    2.80    0.44
   4 -11  -1   52.48    1.53
   4 -11  -1   54.61    1.65
  -4 -11   1   50.77    1.50
  -4 -11   1   51.39    1.83
  -4  11   1   52.58    1.60
   4  11  -1   53.33    1.80
   4  11  -1   50.12    1.69
  -4  11   1   48.19    1.16
   4  11  -1   49.68    1.59
  -4  11   1   49.14    1.42
   4  11  -1   53.17    1.58
   3 -11  -1    1.41    0.25
  -3 -11   1    1.64    0.29
  -3 -11   1    1.42    0.28
  -3 -11   1    1.54    0.34
   3 -11  -1    1.02    0.29
  -3  11   1    0.71    0.30
   3  11  -1    1.25    0.30
   3  11  -1    1.32    0.30
  -3  11   1    1.46    0.25
  -3  11   1    1.07    0.17
   3  11  -1    0.90    0.25
  -3  11   1    1.21    0.31
   3  11  -1    1.43    0.28
  -2 -11   1   22.28    0.85
   2 -11  -1   23.14    0.84
  -2 -11   1   22.66    0.96
   2 -11  -1   21.68    0.92
   2 -11  -1   22.16    0.85
  -2 -11   1   22.90    0.90
  -2 -11   1   23.49    0.86
  -2 -11   1   22.12    0.80
   2  11  -1   22.62    0.89
   2  11  -1   21.73    0.92
   2  11  -1   21.15    0.82
   2  11  -1   22.24    0.86
   2  11  -1   22.40    0.95
  -2  11   1   21.87    0.90
  -2  11   1   23.03    0.72
  -2  11   1   21.68    0.81
  -2  11   1   23.93    0.93
  -1 -11   1   28.01    0.95
  -1 -11   1   28.14    0.97
  -1 -11   1   29.42    1.05
  -1 -11   1   28.46    1.06
  -1 -11   1   27.50    0.97
  -1 -11   1   30.08    0.98
   1 -11  -1   28.50    0.97
   1 -11  -1   29.65    1.06
   1 -11  -1   27.44    0.95
   1  11  -1   28.53    0.93
  -1  11   1   28.24    1.03
  -1  11   1   28.50    0.94
  -1  11   1   29.42    1.03
   1  11  -1   28.60    0.99
  -1  11   1   27.08    0.93
   1  11  -1   28.09    1.03
  -1  11   1   28.96    0.87
   1  11  -1   31.44    1.10
   0 -11   1    2.29    0.36
   0 -11   1    1.37    0.25
   0 -11   1    2.37    0.30
   0 -11   1    2.14    0.34
   0 -11  -1    2.73    0.32
   0 -11  -1    2.10    0.29
   0 -11   1    1.72    0.25
   0 -11  -1    2.23    0.32
   0 -11  -1    2.41    0.34
   0 -11   1    2.63    0.33
   0  11  -1    2.21    0.31
   0  11   1    1.89    0.26
   0  11  -1    2.32    0.28
   0  11   1    1.93    0.33
   0  11   1    2.16    0.29
   0  11  -1    1.90    0.28
   0  11  -1    2.40    0.36
   0  11   1    1.99    0.30
   0  11   1    2.49    0.38
  -1 -11  -1   18.06    0.85
  -1 -11  -1   17.78    0.79
   1 -11   1   18.10    0.80
   1 -11   1   18.24    0.67
   1 -11   1   18.99    0.72
   1 -11   1   17.99    0.79
  -1 -11  -1   18.30    0.70
  -1 -11  -1   19.05    0.73
   1 -11   1   19.41    0.75
  -1  11  -1   17.89    0.71
   1  11   1   18.60    0.78
  -1  11  -1   19.63    0.82
  -1  11  -1   19.43    0.67
   1  11   1   19.32    0.84
   1  11   1   18.86    0.82
   1  11   1   18.29    0.73
  -1  11  -1   18.66    0.81
   2 -11   1  144.48    3.38
  -2 -11  -1  146.97    3.48
  -2 -11  -1  151.70    3.57
   2 -11   1  150.43    3.20
  -2 -11  -1  152.90    3.31
   2 -11   1  152.53    3.37
  -2 -11  -1  145.24    3.47
   2 -11   1  140.67    3.44
  -2 -11  -1  151.67    3.28
   2  11   1  150.33    3.50
  -2  11  -1  149.99    3.42
   2  11   1  153.56    3.48
  -2  11  -1  155.25    3.79
   2  11   1  154.71    3.52
  -2  11  -1  151.12    3.22
  -3 -11  -1   19.27    0.90
  -3 -11  -1   17.55    0.68
   3 -11   1   18.41    0.75
  -3 -11  -1   17.94    0.81
   3 -11   1   17.79    0.80
  -3 -11  -1   17.37    0.62
  -3  11  -1   17.06    0.58
   3  11   1   16.79    0.86
   3  11   1   17.45    0.85
   3  11   1   17.80    0.83
   3  11   1   16.79    0.76
  -4 -11  -1    1.81    0.24
  -4 -11  -1    1.82    0.40
   4 -11   1    1.12    0.26
   4 -11   1    1.10    0.27
  -4 -11  -1    1.78    0.21
   4  11   1    1.26    0.33
   4  11   1    1.40    0.31
   4  11   1    1.56    0.48
  -4  11  -1    1.53    0.20
   4  11   1    1.28    0.28
  -4  11  -1    1.53    0.25
  -5 -11  -1   45.68    1.17
   5 -11   1   46.16    1.43
  -5 -11  -1   48.68    1.63
   5  11   1   44.76    1.56
   5  11   1   47.13    1.67
   6 -11   1    0.26    0.37
  -6 -11  -1    0.02    0.45
   6  11   1    0.04    0.46
   6  11   1   -0.08    0.37
   6  11   1   -0.43    0.35
   7 -12  -1    5.21    0.63
   7  12  -1    4.26    0.66
   7  12  -1    4.38    0.77
   7  12  -1    3.37    0.78
  -6 -12   1    2.36    0.41
  -6 -12   1    2.31    0.44
   6 -12  -1    3.23    0.50
   6  12  -1    3.01    0.52
   6  12  -1    2.52    0.52
   6  12  -1    1.99    0.48
  -5 -12   1    7.96    0.60
   5 -12  -1    8.26    0.66
  -5 -12   1    7.22    0.89
  -5 -12   1    6.77    0.63
   5  12  -1    6.91    0.75
   5  12  -1    8.11    0.76
   5  12  -1    7.13    0.66
  -5  12   1    7.83    0.69
   4 -12  -1   25.84    1.02
  -4 -12   1   26.95    1.19
  -4 -12   1   26.84    1.02
   4 -12  -1   26.42    1.13
   4  12  -1   26.86    1.21
   4  12  -1   21.83    1.29
   4  12  -1   25.93    1.17
  -4  12   1   28.02    1.17
   4  12  -1   24.49    1.07
  -3 -12   1    1.78    0.35
   3 -12  -1    1.60    0.29
  -3 -12   1    1.76    0.34
   3 -12  -1    2.03    0.39
   3  12  -1    1.53    0.33
   3  12  -1    1.66    0.33
   3  12  -1    1.55    0.39
   3  12  -1    2.02    0.34
  -3  12   1    1.71    0.36
  -3  12   1    1.99    0.26
  -2 -12   1    1.43    0.35
   2 -12  -1    1.31    0.30
   2 -12  -1    1.45    0.27
  -2 -12   1    1.51    0.31
  -2 -12   1    1.20    0.27
  -2  12   1    0.78    0.24
   2  12  -1    1.11    0.31
   2  12  -1    1.21    0.27
  -2  12   1    1.84    0.30
  -2  12   1    0.69    0.47
   2  12  -1    0.86    0.27
   2  12  -1    1.76    0.33
  -2  12   1    1.48    0.21
  -1 -12   1    5.77    0.51
  -1 -12   1    7.15    0.50
  -1 -12   1    5.70    0.49
   1 -12  -1    6.09    0.48
  -1 -12   1    7.82    0.54
  -1 -12   1    6.02    0.53
  -1 -12   1    6.22    0.49
   1 -12  -1    5.91    0.52
  -1  12   1    5.32    0.49
  -1  12   1    5.83    0.52
   1  12  -1    6.24    0.49
   1  12  -1    6.56    0.52
  -1  12   1    5.02    0.47
   1  12  -1    7.06    0.56
  -1  12   1    5.65    0.39
   1  12  -1    5.64    0.45
   0 -12  -1    0.37    0.26
   0 -12   1    0.25    0.20
   0 -12   1    0.28    0.23
   0 -12  -1   -0.07    0.17
   0 -12   1    0.25    0.24
   0 -12  -1    0.22    0.20
   0 -12  -1    0.24    0.20
   0 -12   1    0.37    0.20
   0 -12   1    0.18    0.17
   0 -12   1    0.75    0.27
   0  12   1    0.34    0.21
   0  12  -1    0.01    0.21
   0  12   1    0.33    0.21
   0  12   1    0.03    0.16
   0  12  -1    0.18    0.19
   0  12   1    0.25    0.21
   0  12  -1   -0.08    0.16
   0  12  -1    0.38    0.20
  -1 -12  -1    9.11    0.53
  -1 -12  -1   10.86    0.56
   1 -12   1    9.96    0.51
   1 -12   1   11.03    0.60
   1 -12   1   12.05    0.65
  -1 -12  -1    8.73    0.61
   1 -12   1    9.93    0.56
   1 -12   1    9.65    0.62
  -1 -12  -1    9.87    0.64
   1  12   1   10.21    0.64
  -1  12  -1    9.90    0.50
   1  12   1   10.37    0.66
   1  12   1   10.24    0.70
  -1  12  -1    9.99    0.65
   1  12   1    9.88    0.61
  -1  12  -1   10.27    0.70
  -1  12  -1   10.76    0.56
  -2 -12  -1    0.14    0.18
   2 -12   1   -0.28    0.21
  -2 -12  -1   -0.06    0.19
   2 -12   1   -0.18    0.19
  -2 -12  -1   -0.18    0.25
   2  12   1    0.01    0.23
  -2  12  -1   -0.23    0.21
   2  12   1    0.11    0.25
  -2  12  -1   -0.13    0.16
  -3 -12  -1    2.83    0.33
  -3 -12  -1    3.35    0.38
  -3 -12  -1    3.02    0.45
  -3 -12  -1    2.88    0.41
   3 -12   1    3.33    0.42
   3 -12   1    3.38    0.46
   3  12   1    3.21    0.46
  -3  12  -1    3.43    0.31
  -3  12  -1    2.46    0.33
   3  12   1    2.34    0.34
   3  12   1    3.32    0.51
   3  12   1    2.89    0.40
  -4 -12  -1    1.73    0.42
   4 -12   1    0.88    0.28
  -4 -12  -1    0.49    0.22
   4 -12   1    1.20    0.29
  -4 -12  -1    0.80    0.28
  -4 -12  -1    1.29    0.22
   4  12   1    1.39    0.33
   4  12   1    1.17    0.36
   4  12   1    1.08    0.32
  -4  12  -1    1.15    0.15
   4  12   1    0.94    0.33
  -5 -12  -1    7.81    0.53
  -5 -12  -1    8.45    0.82
   5 -12   1    9.07    0.68
   5  12   1    8.33    0.76
   5  12   1    8.30    0.72
   5  12   1    8.14    0.85
   6 -12   1    6.07    0.72
  -6 -12  -1    7.35    0.91
   6  12   1    7.29    0.99
   6  12   1    6.91    0.82
   6  12   1    6.72    0.80
   7 -13  -1    0.06    0.53
   7  13  -1    0.95    0.56
   6 -13  -1    0.43    0.37
  -6 -13   1   -0.29    0.36
  -6 -13   1    0.49    0.44
   6  13  -1    0.41    0.40
   6  13  -1   -0.13    0.44
   6  13  -1   -0.22    0.46
  -5 -13   1    7.56    0.69
  -5 -13   1    9.80    0.76
  -5 -13   1    8.48    0.95
   5 -13  -1    9.60    0.74
   5  13  -1    9.21    0.84
   5  13  -1    7.24    0.82
   5  13  -1   10.67    0.76
   4 -13  -1    9.92    0.68
   4 -13  -1    8.53    0.79
  -4 -13   1    9.84    0.69
  -4 -13   1    9.09    0.81
   4  13  -1    8.38    0.74
   4  13  -1    9.45    0.75
   4  13  -1    9.57    0.73
  -4  13   1    8.98    0.42
  -4  13   1   10.62    0.82
   3 -13  -1   14.73    0.96
  -3 -13   1   15.75    0.80
  -3 -13   1   15.71    0.89
   3 -13  -1   13.52    0.75
   3  13  -1   14.57    0.84
   3  13  -1   14.59    0.82
  -3  13   1   14.91    0.84
   3  13  -1   15.39    0.87
   3  13  -1   14.95    0.90
  -3  13   1   15.99    0.58
   2 -13  -1   82.25    2.32
   2 -13  -1   88.53    2.23
  -2 -13   1   84.94    2.37
  -2 -13   1   86.26    2.23
  -2 -13   1   83.37    2.24
   2  13  -1   87.55    2.40
  -2  13   1   85.35    2.03
  -2  13   1   88.11    2.31
   2  13  -1   86.18    2.27
  -2  13   1   88.41    2.73
   2  13  -1   84.68    2.32
   1 -13  -1   94.97    2.38
   1 -13  -1   96.51    2.52
  -1 -13   1   95.10    2.39
  -1 -13   1   95.65    2.38
  -1 -13   1   97.21    2.54
  -1 -13   1   93.78    2.51
  -1  13   1   93.89    2.25
   1  13  -1   96.43    2.50
  -1  13   1   96.49    2.36
  -1  13   1   93.94    2.47
   1  13  -1   95.16    2.54
   1  13  -1   95.73    2.40
  -1  13   1   92.05    2.49
   0 -13  -1   13.86    0.78
   0 -13   1   15.53    0.74
   0 -13   1   15.25    0.81
   0 -13  -1   15.48    0.71
   0 -13   1   14.40    0.69
   0  13  -1   14.47    0.81
   0  13  -1   13.99    0.65
   0  13   1   15.20    0.80
   0  13   1   13.70    0.76
   0  13  -1   15.03    0.72
   0  13   1   13.80    0.89
   0  13   1   14.94    0.73
   0  13  -1   15.27    0.80
  -1 -13  -1   36.02    1.27
   1 -13   1   35.96    1.29
   1 -13   1   35.77    1.26
  -1 -13  -1   36.94    1.17
   1 -13   1   36.91    1.11
   1 -13   1   35.34    1.18
  -1  13  -1   37.25    1.30
   1  13   1   37.15    1.24
   1  13   1   36.04    1.29
  -1  13  -1   34.80    1.15
  -1  13  -1   34.12    1.07
   1  13   1   35.67    1.30
  -2 -13  -1   -0.19    0.27
  -2 -13  -1    0.17    0.21
   2 -13   1    0.44    0.25
   2 -13   1    0.10    0.24
   2  13   1    0.03    0.24
   2  13   1    1.11    0.36
   2  13   1    0.67    0.28
  -2  13  -1    0.41    0.19
  -2  13  -1    0.19    0.26
  -3 -13  -1    0.32    0.33
  -3 -13  -1    0.71    0.30
  -3 -13  -1    0.03    0.37
   3 -13   1    0.38    0.27
   3 -13   1    0.65    0.28
  -3 -13  -1    0.80    0.23
   3  13   1    1.12    0.35
  -3  13  -1    0.47    0.23
   3  13   1    0.60    0.44
  -3  13  -1    0.44    0.20
  -4 -13  -1    4.07    0.56
  -4 -13  -1    3.86    0.44
  -4 -13  -1    3.68    0.41
  -4 -13  -1    2.66    0.61
   4  13   1    3.37    0.46
   4  13   1    2.95    0.46
   4  13   1    4.45    0.65
  -5 -13  -1   81.87    2.46
   5 -13   1   84.89    2.39
   5  13   1   82.71    2.50
   5  13   1   84.44    2.37
   5  13   1   85.62    2.45
  -6 -13  -1    1.17    0.57
   6 -13   1    1.37    0.44
   6  13   1    2.20    0.67
   6  13   1    1.47    0.51
   6  13   1    1.06    0.49
   6 -14  -1    4.12    0.58
  -6 -14   1    3.83    0.53
  -6 -14   1    4.18    0.64
   6  14  -1    4.37    0.67
   6  14  -1    5.19    0.68
   6  14  -1    3.32    0.68
  -5 -14   1    0.20    0.38
  -5 -14   1   -0.37    0.41
   5 -14  -1    0.70    0.34
   5  14  -1    0.03    0.39
   5  14  -1    0.02    0.39
   5  14  -1    0.22    0.40
   4 -14  -1   75.70    2.08
  -4 -14   1   71.15    2.24
   4 -14  -1   75.22    2.86
  -4 -14   1   71.09    2.03
  -4  14   1   74.12    2.16
   4  14  -1   71.43    2.33
   4  14  -1   72.52    2.28
   4  14  -1   71.22    2.10
   4  14  -1   70.38    2.13
  -3 -14   1   37.12    1.31
   3 -14  -1   38.51    1.45
  -3 -14   1   37.73    1.45
   3 -14  -1   36.92    1.30
   3  14  -1   38.29    1.46
   3  14  -1   38.06    1.49
   3  14  -1   38.05    1.51
   3  14  -1   38.63    1.34
  -3  14   1   37.20    1.06
  -3  14   1   37.45    1.37
   2 -14  -1    0.20    0.25
  -2 -14   1    0.17    0.27
  -2 -14   1    0.33    0.30
   2 -14  -1   -0.18    0.26
  -2  14   1    0.08    0.19
   2  14  -1   -0.26    0.28
  -2  14   1    0.30    0.25
   2  14  -1   -0.49    0.24
   2  14  -1   -0.50    0.31
   1 -14  -1    2.62    0.39
   1 -14  -1    2.15    0.36
  -1 -14   1    3.75    0.45
  -1 -14   1    3.22    0.47
  -1 -14   1    1.98    0.35
  -1 -14   1    3.31    0.43
  -1  14   1    3.52    0.57
   1  14  -1    2.58    0.40
  -1  14   1    2.06    0.35
  -1  14   1    3.15    0.46
   1  14  -1    2.32    0.38
   1  14  -1    2.96    0.44
  -1  14   1    3.39    0.47
   0 -14   1   31.08    1.13
   0 -14   1   28.59    1.15
   0 -14   1   29.88    1.21
   0 -14  -1   30.61    1.09
   0 -14   1   32.33    1.14
   0 -14  -1   28.31    1.18
   0  14   1   31.00    1.21
   0  14   1   30.58    1.12
   0  14  -1   30.19    1.11
   0  14  -1   31.73    1.52
   0  14   1   30.12    1.20
   0  14  -1   28.25    1.16
   1 -14   1    0.14    0.26
   1 -14   1    0.06    0.24
  -1 -14  -1    0.29    0.23
  -1 -14  -1    0.23    0.23
  -1  14  -1    0.24    0.28
   1  14   1    0.46    0.26
   1  14   1    0.46    0.27
   1  14   1    0.05    0.28
  -1  14  -1   -0.10    0.21
  -1  14  -1    0.42    0.23
  -2 -14  -1   14.62    0.73
   2 -14   1   12.65    0.80
   2 -14   1   14.37    0.77
  -2 -14  -1   14.23    0.84
   2  14   1   14.07    0.85
  -2  14  -1   13.30    0.88
   2  14   1   13.75    0.86
  -2  14  -1   13.06    0.61
  -3 -14  -1   38.46    1.49
  -3 -14  -1   35.94    1.67
  -3 -14  -1   41.10    1.26
   3 -14   1   39.77    1.43
  -3  14  -1   37.87    1.10
  -3  14  -1   41.02    1.38
   3  14   1   41.92    1.46
   3  14   1   40.14    1.47
   3  14   1   40.41    1.48
  -4 -14  -1    8.27    0.56
   4 -14   1    7.64    0.68
  -4 -14  -1    7.56    0.85
   4  14   1    7.41    0.68
   4  14   1    8.13    0.75
   4  14   1    8.49    0.81
  -5 -14  -1   16.72    1.07
   5 -14   1   16.41    0.92
   5  14   1   15.34    1.03
   5  14   1   18.15    1.18
   5  14   1   15.00    0.99
  -6 -14  -1    5.43    0.78
   6 -14   1    6.99    0.85
   6  14   1    6.60    0.94
   6  14   1    5.64    0.90
   6  14   1    5.60    0.80
   6 -15  -1    1.78    0.53
  -6 -15   1    2.24    0.61
   6  15  -1    1.04    0.61
   6  15  -1    1.77    0.62
   6  15  -1    1.65    0.69
   5 -15  -1    4.85    0.72
  -5 -15   1    2.70    0.52
  -5 -15   1    4.66    0.67
   5  15  -1    3.58    0.57
   5  15  -1    3.21    0.54
   5  15  -1    4.41    0.62
   4 -15  -1   22.92    1.07
  -4 -15   1   22.19    1.04
  -4 -15   1   21.54    1.19
   4  15  -1   22.46    1.15
  -4  15   1   21.20    1.09
   4  15  -1   23.33    1.11
   4  15  -1   24.19    1.27
   3 -15  -1   15.99    1.07
   3 -15  -1   16.54    0.89
  -3 -15   1   16.33    0.99
  -3 -15   1   17.71    0.91
   3  15  -1   18.95    1.02
  -3  15   1   17.86    0.68
   3  15  -1   16.10    0.93
   3  15  -1   18.56    1.08
  -3  15   1   16.64    0.94
  -2 -15   1    0.74    0.30
   2 -15  -1    0.45    0.27
   2 -15  -1    0.11    0.34
  -2  15   1    0.94    0.29
   2  15  -1    0.26    0.30
   2  15  -1    0.21    0.38
   2  15  -1    0.46    0.36
  -2  15   1   -0.22    0.23
   1 -15  -1    8.31    0.70
   1 -15  -1    8.39    1.07
  -1 -15   1    8.92    0.74
  -1 -15   1    9.72    1.01
  -1  15   1   10.49    1.00
  -1  15   1    9.67    0.70
   1  15  -1   10.32    0.76
   1  15  -1    8.07    0.74
   0 -15   1    5.54    0.78
   0 -15   1    4.79    0.62
   0 -15   1    5.10    0.60
   0 -15  -1    6.40    0.57
   0  15   1    5.00    0.60
   0  15  -1    5.63    0.55
   0  15  -1    5.97    0.61
   0  15   1    4.93    0.63
   0  15   1    5.21    0.77
   1 -15   1    8.42    0.71
  -1 -15  -1    8.84    0.64
  -1  15  -1    8.75    0.70
   1  15   1   11.42    0.80
   1  15   1    9.99    0.82
   1  15   1   10.29    0.78
  -2 -15  -1   19.91    0.89
  -2 -15  -1   19.81    1.00
   2 -15   1   19.29    0.94
   2 -15   1   19.95    1.03
   2  15   1   19.26    1.04
   2  15   1   21.21    1.02
  -2  15  -1   18.47    0.78
  -2  15  -1   19.71    1.03
  -3 -15  -1   12.56    0.91
   3 -15   1   11.52    0.77
  -3 -15  -1   12.33    0.89
  -3 -15  -1   11.84    0.71
   3  15   1   12.81    0.87
   3  15   1   10.91    0.84
  -3  15  -1   10.69    0.82
  -3  15  -1   12.20    0.90
  -4 -15  -1    2.34    0.35
  -4 -15  -1    2.52    0.54
   4  15   1    1.05    0.45
   4  15   1    1.90    0.48
  -5 -15  -1    0.26    0.48
   5 -15   1    0.63    0.38
   5  15   1    0.77    0.46
   5  15   1    0.87    0.55
   5  15   1    0.52    0.43
  -5 -16   1    1.02    0.46
  -5 -16   1    1.19    0.45
   5 -16  -1    1.95    0.50
   5  16  -1    1.14    0.51
   5  16  -1    1.06    0.48
   5  16  -1    1.33    0.54
  -4 -16   1    9.45    0.93
   4 -16  -1    9.50    0.80
  -4 -16   1   10.08    0.80
   4  16  -1    8.62    0.91
   4  16  -1    9.01    0.84
   4  16  -1    9.54    0.84
  -3 -16   1    4.85    0.65
   3 -16  -1    3.30    0.47
  -3 -16   1    3.58    0.53
   3  16  -1    3.82    0.61
  -3  16   1    4.24    0.54
   3  16  -1    3.24    0.56
   3  16  -1    3.97    0.53
  -3  16   1    2.83    0.34
  -2 -16   1    0.51    0.48
   2 -16  -1    0.73    0.40
   2 -16  -1    1.42    0.37
  -2 -16   1    1.43    0.35
  -2  16   1    0.89    0.33
   2  16  -1    1.84    0.43
   2  16  -1    0.86    0.65
   2  16  -1    1.20    0.42
  -1 -16   1   15.99    0.88
   1 -16  -1   15.96    0.85
   1 -16  -1   13.64    1.04
  -1 -16   1   16.43    0.97
  -1  16   1   15.63    0.82
  -1  16   1   17.22    0.93
   1  16  -1   16.29    0.87
   1  16  -1   15.68    0.94
   0 -16   1    0.33    0.34
   0 -16  -1   -0.14    0.26
   0 -16   1    0.13    0.30
   0 -16   1    0.51    0.37
   0  16   1    0.18    0.40
   0  16  -1   -0.25    0.31
   0  16   1    0.07    0.28
   0  16  -1    0.49    0.29
   0  16   1    0.02    0.30
   1 -16   1    8.74    0.75
  -1 -16  -1    8.61    0.69
   1 -16   1    9.08    0.70
   1  16   1    9.17    0.71
   1  16   1    8.86    0.79
  -1  16  -1    9.18    0.64
  -1  16  -1    7.23    0.70
   1  16   1    7.93    0.78
   2 -16   1    1.10    0.33
  -2 -16  -1    0.90    0.33
   2  16   1    0.90    0.40
  -2  16  -1    1.47    0.40
   2  16   1    1.03    0.42
   2  16   1    1.13    0.40
  -3 -16  -1    0.53    0.42
  -3 -16  -1    0.62    0.35
  -3 -16  -1    0.51    0.38
   3 -16   1    0.53    0.34
   3  16   1   -0.06    0.36
   3  16   1    0.32    0.39
  -4 -16  -1    0.62    0.35
  -4 -16  -1    0.63    0.50
   4 -16   1    0.54    0.38
   4  16   1    0.73    0.51
   4  16   1    0.58    0.42
  -5 -16  -1    8.24    1.08
   5 -16   1    8.30    0.90
   5  16   1    7.67    1.09
   5  16   1    9.48    1.17
  -5 -17   1    0.48    0.45
  -5 -17   1    0.11    0.49
   5 -17  -1    0.17    0.50
   5  17  -1   -0.02    0.50
   5  17  -1    0.97    0.64
   5  17  -1    0.04    0.54
   4 -17  -1    0.89    0.44
  -4 -17   1    0.38    0.42
   4  17  -1   -0.18    0.45
   4  17  -1    0.63    0.45
  -3 -17   1    3.63    0.50
   3 -17  -1    3.47    0.49
  -3  17   1    3.96    0.54
   3  17  -1    3.13    0.62
   3  17  -1    2.99    0.72
   2 -17  -1    0.36    0.33
  -2 -17   1    0.83    0.35
  -2 -17   1    0.62    0.40
   2 -17  -1    0.91    0.49
   2  17  -1   -0.12    0.40
  -2  17   1    0.82    0.33
   2  17  -1    0.64    0.37
  -1 -17   1    1.44    0.40
  -1 -17   1    1.37    0.37
   1 -17  -1    1.67    0.38
   1  17  -1    0.97    0.42
  -1  17   1    1.88    0.43
   1  17  -1    1.86    0.40
  -1  17   1    1.31    0.34
   0 -17   1   21.35    1.02
   0 -17   1   20.31    1.12
   0 -17   1   19.61    1.13
   0 -17  -1   21.27    0.99
   0  17   1   22.56    1.04
   0  17  -1   21.30    1.08
   0  17   1   21.34    1.14
   0  17  -1   22.11    1.02
  -1 -17  -1    2.37    0.42
   1 -17   1    2.41    0.44
   1  17   1    1.47    0.44
  -1  17  -1    2.08    0.43
  -1  17  -1    2.29    0.38
   1  17   1    3.03    0.50
   1  17   1    1.92    0.45
  -2 -17  -1    0.41    0.32
   2 -17   1    0.97    0.38
  -2  17  -1    0.90    0.40
   2  17   1    0.73    0.40
   2  17   1    0.80    0.40
  -3 -17  -1    1.15    0.51
  -3 -17  -1    2.03    0.39
   3 -17   1    1.31    0.42
   3  17   1    1.08    0.50
   3  17   1    1.09    0.40
   4 -17   1    0.92    0.42
  -4 -17  -1    1.30    0.53
  -4 -17  -1    0.02    0.47
   4  17   1   -0.25    0.47
   4  17   1   -0.36    0.47
  -4 -18   1    0.54    0.45
   4 -18  -1    0.64    0.47
   4  18  -1    2.28    0.60
   4  18  -1    0.33    0.55
  -3 -18   1    4.41    0.64
  -3 -18   1    3.01    0.56
   3 -18  -1    2.96    0.54
   3  18  -1    2.21    0.57
   3  18  -1    4.47    0.64
  -3  18   1    3.47    0.63
   2 -18  -1    0.43    0.39
  -2 -18   1    0.61    0.42
  -2 -18   1    0.73    0.37
  -2  18   1    0.14    0.37
   2  18  -1    0.12    0.40
   2  18  -1    0.45    0.49
   1 -18  -1    4.88    0.66
  -1 -18   1    5.10    0.69
  -1 -18   1    5.10    0.68
  -1  18   1    5.42    0.63
   1  18  -1    5.18    0.65
  -1  18   1    4.12    0.58
   1  18  -1    4.85    0.67
   0 -18   1    1.18    0.40
   0 -18   1    1.58    0.39
   0 -18  -1    2.43    0.41
   0  18  -1    1.91    0.42
   0  18  -1    1.75    0.42
   0  18   1    1.67    0.41
   0  18   1    0.94    0.47
  -1 -18  -1    0.42    0.33
   1 -18   1    0.25    0.32
  -1  18  -1    0.16    0.37
  -1  18  -1    0.11    0.30
   1  18   1    0.17    0.41
   1  18   1   -0.16    0.37
  -2 -18  -1    0.04    0.34
   2 -18   1   -0.57    0.35
   2  18   1   -0.36    0.42
   2  18   1   -0.21    0.43
  -3 -18  -1    1.54    0.42
  -3 -18  -1    1.96    0.52
   3 -18   1    1.61    0.48
   3  18   1    2.26    0.59
   3  18   1    1.76    0.51
   4 -18   1    0.43    0.50
  -4 -18  -1    0.54    0.62
  -4 -18  -1    0.17    0.44
   4  18   1    0.55    0.54
   4  18   1    0.59    0.58
   4 -19  -1    2.74    0.71
  -4 -19   1    3.40    0.58
   4  19  -1    2.54    0.82
   4  19  -1    2.36    0.71
   3 -19  -1   16.27    1.10
  -3 -19   1   15.86    1.03
  -3 -19   1   14.84    1.31
   3  19  -1   14.05    1.13
   3  19  -1   15.36    1.25
   2 -19  -1    0.39    0.42
  -2 -19   1    0.13    0.39
  -2 -19   1    0.34    0.52
   2  19  -1    0.92    0.42
   2  19  -1    0.93    0.53
  -2  19   1    0.45    0.42
   1 -19  -1    1.20    0.40
  -1 -19   1    1.40    0.42
  -1 -19   1    1.80    0.45
   1  19  -1    0.91    0.43
   1  19  -1    1.20    0.54
  -1  19   1    0.94    0.43
  -1  19   1    1.46    0.38
   0 -19   1   -0.35    0.37
   0 -19  -1    0.10    0.34
   0  19   1    0.89    0.44
   0  19  -1   -0.04    0.36
   0  19   1    0.68    0.49
   0  19  -1    0.07    0.42
   1 -19   1    0.30    0.43
  -1 -19  -1    0.61    0.38
  -1  19  -1    0.20    0.47
   1  19   1    0.89    0.50
   1  19   1    1.41    0.47
   2 -19   1    1.02    0.46
  -2 -19  -1    0.26    0.39
   2  19   1    0.53    0.45
   2  19   1    0.22    0.45
  -3 -19  -1    8.64    0.86
  -3 -19  -1    9.44    1.09
   3 -19   1    9.96    1.00
   3  19   1   10.20    1.17
   3  19   1    9.78    1.06
   3 -20  -1   -0.11    0.59
  -3 -20   1    0.89    0.52
   3  20  -1   -0.95    0.59
   3  20  -1    1.26    0.71
  -2 -20   1    0.74    0.56
  -2 -20   1    1.33    0.50
   2 -20  -1    0.76    0.46
  -2  20   1    1.99    0.80
   2  20  -1    1.71    0.60
   2  20  -1    1.61    0.63
   1 -20  -1   -0.54    0.42
  -1 -20   1   -0.18    0.52
  -1 -20   1    0.11    0.43
   1  20  -1   -0.79    0.49
   1  20  -1    1.34    0.48
  -1  20   1    0.37    0.37
  -1  20   1    0.40    0.47
   0 -20   1   -0.36    0.42
   0 -20  -1   -0.57    0.41
   0  20   1   -0.10    0.46
   0  20  -1   -0.29    0.38
   0  20  -1    0.66    0.56
   0  20   1    0.12    0.49
  -1 -20  -1   -0.15    0.39
   1 -20   1   -0.01    0.44
   1  20   1    0.45    0.49
   1  20   1   -0.38    0.47
   2 -20   1    0.21    0.54
  -2 -20  -1    0.79    0.44
   2  20   1   -0.13    0.54
   2  20   1    0.21    0.57
   2 -21  -1    2.01    0.81
  -2 -21   1    1.81    0.65
  -2 -21   1    2.44    0.69
   2  21  -1    2.26    0.83
   2  21  -1    2.28    0.63
  -1 -21   1    1.85    0.62
   1 -21  -1    1.73    0.63
   1  21  -1    3.17    0.71
  -1  21   1    1.93    0.62
  -1  21   1    1.55    0.55
   1  21  -1    2.62    0.71
   0 -21   1    0.83    0.57
   0 -21  -1    1.64    0.56
   0  21  -1    1.39    0.58
   0  21   1    1.47    0.68
   0  21   1    0.94    0.50
  -1 -21  -1    0.61    0.51
   1 -21   1   -0.29    0.62
   1  21   1    0.94    0.70
   1  21   1    0.34    0.56
   8   0  -2   16.76    0.88
   8   0  -2   16.44    1.09
  -7   0   2   55.68    1.44
   7   0  -2   62.16    2.30
   7   0  -2   59.02    1.51
   7   0  -2   54.45    1.83
  -6   0   2   55.53    1.43
  -6   0   2   58.68    1.39
   6   0  -2   56.85    1.71
   6   0  -2   56.69    1.36
  -6   0   2   55.48    1.59
   6   0  -2   55.88    1.61
   6   0  -2   58.29    1.54
   5   0  -2    5.41    0.31
  -5   0   2    5.59    0.35
   5   0  -2    4.58    0.42
  -5   0   2    4.59    0.43
   5   0  -2    4.32    0.40
   5   0  -2    4.37    0.47
  -5   0   2    4.60    0.35
   4   0  -2  493.43    9.95
  -4   0   2  498.07    9.84
  -4   0   2  493.96    9.92
  -4   0   2  498.99    9.76
   4   0  -2  501.50    9.95
   4   0  -2  496.55    9.86
  -3   0   2    0.59    0.14
  -3   0   2    0.22    0.12
  -2   0   2  291.53    5.86
   2   0  -2  298.64    5.79
   2   0  -2  293.14    5.84
  -2   0   2  289.04    5.91
  -2   0   2  295.61    5.79
   2   0  -2  298.74    5.92
   2   0  -2  301.65    5.86
   1   0   2  599.53   11.80
   2   0   2   97.46    2.21
   2   0   2   95.42    2.10
  -2   0  -2   93.43    2.19
   2   0   2   98.02    2.10
   3   0   2   66.19    1.64
  -3   0  -2   63.63    1.63
   3   0   2   62.71    1.59
   3   0   2   64.34    1.51
   4   0   2   50.16    1.43
   4   0   2   50.90    1.28
  -4   0  -2   50.85    1.39
   4   0   2   49.99    1.09
   4   0   2   48.29    1.65
   5   0   2    0.69    0.28
   5   0   2    0.79    0.16
   5   0   2    0.77    0.20
   5   0   2    0.66    0.24
   5   0   2    0.61    0.18
   6   0   2  139.49    3.06
   6   0   2  140.10    2.99
   6   0   2  144.21    3.50
   6   0   2  140.90    3.26
   7   0   2   51.86    1.88
   8  -1  -2    7.43    0.89
   8  -1  -2    9.11    0.71
   8   1  -2    7.82    0.71
   8   1  -2    9.00    0.90
  -7  -1   2   -0.18    0.21
   7  -1  -2    0.79    0.33
  -7   1   2    0.43    0.35
  -7   1   2   -0.03    0.21
   7   1  -2    0.24    0.42
   7   1  -2    0.19    0.32
   6  -1  -2   86.15    2.13
   6  -1  -2   86.20    2.22
  -6  -1   2   85.71    2.02
   6  -1  -2   88.30    2.33
  -6  -1   2   87.29    2.21
  -6  -1   2   86.82    2.00
   6   1  -2   87.82    2.13
  -6   1   2   85.82    2.02
   6   1  -2   82.64    2.03
   6   1  -2   88.44    2.33
   6   1  -2   87.92    2.22
  -6   1   2   86.84    2.19
   5  -1  -2  299.31    6.38
  -5  -1   2  315.98    6.47
   5  -1  -2  321.64    6.64
   5  -1  -2  322.93    6.69
   5  -1  -2  320.15    6.54
  -5  -1   2  326.19    6.43
  -5  -1   2  324.37    6.63
   5   1  -2  320.54    6.62
   5   1  -2  319.65    6.68
   5   1  -2  312.01    6.51
  -5   1   2  323.45    6.35
  -5   1   2  319.73    6.48
  -5   1   2  320.76    6.60
   5   1  -2  323.91    6.42
   4  -1  -2    0.26    0.16
  -4  -1   2    0.35    0.15
   4  -1  -2    0.14    0.15
   4  -1  -2   -0.03    0.16
  -4  -1   2    0.36    0.14
  -4  -1   2    0.41    0.13
  -4   1   2    0.14    0.12
  -4   1   2    0.54    0.18
   4   1  -2    0.15    0.12
   4   1  -2    0.34    0.14
  -4   1   2    0.16    0.14
   4   1  -2    0.47    0.14
   3  -1  -2  513.82   10.00
  -3  -1   2  512.70    9.91
   3  -1  -2  512.32    9.85
   3  -1  -2  500.64    9.92
  -3  -1   2  501.96    9.98
  -3  -1   2  494.86    9.88
   3   1  -2  490.38    9.94
   3   1  -2  502.25    9.91
   3   1  -2  513.59    9.99
  -3   1   2  503.23    9.85
  -3   1   2  487.56    9.97
  -3   1   2  509.42    9.92
   2  -1  -2   46.81    1.04
  -2  -1   2   45.62    1.03
  -2  -1   2   47.73    1.10
   2  -1  -2   48.23    1.16
  -2  -1   2   44.39    1.14
   2  -1  -2   46.67    1.11
   2  -1  -2   46.61    1.08
   2   1  -2   47.19    1.10
  -2   1   2   46.49    1.11
   2   1  -2   45.93    1.08
  -2   1   2   46.13    1.03
  -2   1   2   47.00    1.08
  -2   1   2   44.40    1.13
   2   1  -2   48.33    1.15
   2   1  -2   48.02    1.10
   1  -1  -2   63.51    1.38
  -1  -1   2   65.22    1.44
  -1  -1   2   63.47    1.43
   1  -1  -2   65.21    1.43
  -1  -1   2   64.88    1.43
   1  -1  -2   63.42    1.42
  -1  -1   2   62.72    1.38
  -1  -1   2   63.99    1.31
   1  -1  -2   66.00    1.43
   1   1  -2   64.28    1.42
  -1   1   2   65.60    1.40
   1   1  -2   62.58    1.38
   1   1  -2   63.47    1.42
   1   1  -2   63.43    1.32
   1   1  -2   65.88    1.43
  -1   1   2   64.41    1.42
  -1   1   2   60.89    1.42
  -1   1   2   63.96    1.43
   0  -1  -2    6.84    0.25
   0  -1   2    6.90    0.26
   0  -1   2    6.45    0.22
   0  -1  -2    6.70    0.35
   0  -1   2    6.86    0.17
   0  -1  -2    7.02    0.21
   0  -1   2    6.84    0.31
   0  -1   2    6.59    0.33
   0  -1  -2    6.65    0.19
   0   1  -2    6.45    0.24
   0   1   2    6.76    0.22
   0   1   2    6.69    0.32
   0   1  -2    6.45    0.34
   0   1   2    6.53    0.26
   0   1  -2    6.72    0.21
  -2  -1  -2    0.54    0.19
   2  -1   2    0.41    0.14
   2  -1   2    0.41    0.15
   2  -1   2    0.46    0.14
   2   1   2    0.56    0.15
   2   1   2    0.47    0.14
  -2   1  -2    0.51    0.17
   3  -1   2  196.64    4.02
   3  -1   2  198.43    4.20
  -3  -1  -2  200.46    4.20
   3  -1   2  194.41    4.14
   3   1   2  193.90    4.15
  -3   1  -2  193.14    4.16
   3   1   2  196.69    4.18
  -4  -1  -2   44.36    1.27
   4  -1   2   42.96    1.29
   4  -1   2   42.12    1.57
   4  -1   2   43.51    0.97
   4  -1   2   45.32    1.12
   4   1   2   44.32    1.30
   4   1   2   43.88    0.97
   4   1   2   41.12    1.46
   5  -1   2    5.50    0.31
  -5  -1  -2    5.43    0.47
   5  -1   2    5.35    0.46
   5  -1   2    4.65    0.32
   5  -1   2    4.92    0.52
   5  -1   2    5.19    0.35
   5   1   2    5.01    0.25
   5   1   2    5.03    0.27
   5   1   2    5.19    0.53
   5   1   2    5.12    0.36
   5   1   2    5.28    0.45
   5   1   2    5.27    0.30
   6  -1   2   16.05    0.60
   6  -1   2   16.03    0.60
   6  -1   2   14.82    0.78
   6  -1   2   16.26    0.95
   6   1   2   16.53    0.68
   6   1   2   16.41    0.59
   6   1   2   14.87    0.75
   6   1   2   17.56    0.97
   7  -1   2    1.26    0.50
   7   1   2    1.24    0.54
   8  -2  -2    2.70    0.43
   8  -2  -2    2.22    0.51
   8   2  -2    2.75    0.45
   8   2  -2    2.83    0.60
   7  -2  -2   15.69    0.93
  -7  -2   2   15.37    0.92
  -7  -2   2   16.58    0.64
   7   2  -2   15.41    0.88
   7   2  -2   16.79    0.65
   7   2  -2   17.04    0.95
  -7   2   2   16.09    0.63
   6  -2  -2    1.30    0.26
   6  -2  -2    1.68    0.20
  -6  -2   2    0.99    0.25
   6  -2  -2    1.10    0.25
  -6  -2   2    1.74    0.24
  -6  -2   2    1.47    0.21
   6  -2  -2    1.15    0.34
   6   2  -2    1.38    0.22
   6   2  -2    1.55    0.27
   6   2  -2    1.24    0.35
  -6   2   2    1.41    0.27
  -6   2   2    1.88    0.25
   6   2  -2    1.79    0.28
   5  -2  -2  133.92    2.94
   5  -2  -2  130.53    3.07
  -5  -2   2  129.26    3.03
   5  -2  -2  132.40    2.71
  -5  -2   2  129.56    2.87
   5  -2  -2  133.23    3.04
  -5  -2   2  133.56    2.87
  -5   2   2  128.92    2.98
   5   2  -2  130.38    2.85
  -5   2   2  132.38    2.88
   5   2  -2  127.40    3.06
  -5   2   2  132.71    2.71
   5   2  -2  131.99    3.00
   5   2  -2  131.54    2.92
   4  -2  -2   11.87    0.51
  -4  -2   2   12.01    0.56
   4  -2  -2   11.30    0.53
   4  -2  -2   10.99    0.54
  -4  -2   2   12.72    0.49
  -4  -2   2   12.90    0.49
  -4   2   2   11.96    0.49
   4   2  -2   11.92    0.56
  -4   2   2   11.95    0.54
  -4   2   2   12.52    0.41
   4   2  -2   12.57    0.48
   4   2  -2   11.96    0.54
   4   2  -2   12.89    0.51
  -3  -2   2   44.77    1.09
   3  -2  -2   43.22    1.11
   3  -2  -2   43.23    0.94
  -3  -2   2   43.71    0.94
  -3  -2   2   43.56    1.09
   3  -2  -2   42.31    1.10
  -3  -2   2   43.56    1.16
   3  -2  -2   42.10    1.15
  -3   2   2   41.89    1.01
  -3   2   2   43.68    1.10
   3   2  -2   45.63    1.11
  -3   2   2   40.79    1.13
   3   2  -2   42.76    1.12
   3   2  -2   43.21    1.14
   3   2  -2   44.29    1.10
  -2  -2   2   18.61    0.54
   2  -2  -2   17.53    0.50
  -2  -2   2   18.45    0.57
   2  -2  -2   18.11    0.56
   2  -2  -2   18.06    0.52
  -2  -2   2   17.28    0.59
   2  -2  -2   18.42    0.59
  -2  -2   2   17.62    0.49
  -2   2   2   18.47    0.55
   2   2  -2   18.59    0.58
  -2   2   2   18.50    0.52
  -2   2   2   16.98    0.57
   2   2  -2   17.87    0.54
   2   2  -2   16.87    0.54
   1  -2  -2   90.55    1.92
  -1  -2   2   88.34    1.92
  -1  -2   2   89.97    1.91
   1  -2  -2   87.98    1.92
   1  -2  -2   87.12    1.86
  -1  -2   2   87.95    1.81
  -1  -2   2   88.79    1.86
   1  -2  -2   84.66    1.80
   1   2  -2   88.52    1.91
   1   2  -2   85.65    1.81
  -1   2   2   87.60    1.90
  -1   2   2   90.70    1.91
   1   2  -2   90.68    1.90
   1   2  -2   87.82    1.87
  -1   2   2   88.39    1.91
  -1   2   2   90.06    1.88
   0  -2   2   -0.03    0.04
   0  -2  -2    0.03    0.06
   0  -2  -2    0.01    0.06
   0  -2  -2    0.00    0.05
   0  -2   2    0.16    0.06
   0  -2   2   -0.10    0.09
   0   2  -2   -0.02    0.06
   0   2   2    0.01    0.10
   0   2  -2   -0.01    0.05
   0   2  -2    0.11    0.09
   0   2   2    0.01    0.05
   0   2   2    0.07    0.05
  -1  -2  -2  352.97    6.89
   1  -2   2  354.21    7.04
   1  -2   2  341.43    6.91
  -1  -2  -2  358.05    7.25
   1   2   2  341.21    6.88
  -1   2  -2  349.14    6.92
   1   2   2  354.68    7.04
   1   2   2  351.00    6.84
  -2  -2  -2  158.88    3.30
   2  -2   2  162.73    3.41
  -2  -2  -2  160.72    3.42
   2   2   2  158.16    3.31
   2   2   2  152.11    3.08
   2   2   2  156.79    3.13
   2   2   2  151.47    3.08
   2   2   2  162.03    3.40
   2   2   2  157.01    3.13
   3  -2   2    8.85    0.49
  -3  -2  -2    9.15    0.51
   3  -2   2    9.01    0.39
   3   2   2    8.30    0.47
   3   2   2    9.31    0.30
   3   2   2    8.95    0.28
   3   2   2    9.96    0.28
   3   2   2    9.23    0.48
   3   2   2    9.36    0.30
  -4  -2  -2    0.17    0.20
   4  -2   2   -0.04    0.19
   4  -2   2    0.11    0.19
   4  -2   2    0.32    0.16
   4  -2   2    0.14    0.10
   4   2   2    0.26    0.11
   4   2   2    0.08    0.19
   4   2   2    0.15    0.10
   4   2   2   -0.10    0.18
   5  -2   2   21.93    0.88
   5  -2   2   22.18    0.65
   5  -2   2   24.07    0.67
   5  -2   2   23.13    0.69
   5  -2   2   24.54    0.99
  -5  -2  -2   22.54    0.89
   5   2   2   23.45    0.63
   5   2   2   22.18    0.85
   5   2   2   22.60    0.76
   5   2   2   22.76    0.65
   5   2   2   24.22    0.99
   5   2   2   23.07    0.66
   6  -2   2    1.51    0.28
   6  -2   2    1.14    0.41
  -6  -2  -2    0.97    0.29
   6  -2   2    0.28    0.33
   6  -2   2    0.70    0.22
   6   2   2    0.08    0.30
   6   2   2    0.97    0.19
   6   2   2    0.25    0.35
   6   2   2    0.87    0.21
   7  -2   2    0.09    0.49
   7   2   2   -0.53    0.47
   8  -3  -2    1.62    0.41
   8  -3  -2    1.45    0.53
   8   3  -2    1.25    0.40
   8   3  -2    1.58    0.51
   7  -3  -2    6.43    0.58
  -7  -3   2    5.72    0.43
   7  -3  -2    4.91    0.68
  -7   3   2    6.37    0.48
   7   3  -2    4.95    0.45
   7   3  -2    6.23    0.68
   7   3  -2    5.73    0.54
  -6  -3   2   11.34    0.65
   6  -3  -2   11.99    0.65
  -6  -3   2   12.08    0.57
  -6  -3   2   11.03    0.52
   6  -3  -2   11.55    0.62
   6  -3  -2   11.79    0.75
  -6   3   2   11.23    0.62
   6   3  -2   10.65    0.52
  -6   3   2   11.00    0.52
   6   3  -2   11.32    0.76
   6   3  -2   11.89    0.60
   6   3  -2   11.48    0.63
   5  -3  -2   31.69    1.00
  -5  -3   2   32.33    0.94
   5  -3  -2   31.98    0.77
   5  -3  -2   31.77    1.07
  -5  -3   2   31.89    1.08
  -5  -3   2   32.89    0.97
  -5   3   2   33.52    0.77
   5   3  -2   32.53    0.96
  -5   3   2   32.35    0.95
   5   3  -2   30.57    1.11
   5   3  -2   31.56    1.04
   5   3  -2   31.95    0.99
  -5   3   2   32.92    1.05
   4  -3  -2    0.44    0.17
   4  -3  -2    0.70    0.10
  -4  -3   2    0.48    0.16
  -4  -3   2    0.46    0.18
   4  -3  -2    0.69    0.10
  -4  -3   2    0.53    0.14
   4  -3  -2    0.66    0.18
   4   3  -2    0.23    0.14
  -4   3   2    0.41    0.14
  -4   3   2    0.45    0.17
   4   3  -2    0.30    0.15
   4   3  -2    0.52    0.19
  -4   3   2    0.54    0.11
   3  -3  -2   16.64    0.47
   3  -3  -2   16.33    0.61
   3  -3  -2   16.36    0.58
  -3  -3   2   16.39    0.57
  -3  -3   2   17.21    0.65
  -3  -3   2   16.89    0.55
  -3  -3   2   16.50    0.59
  -3   3   2   15.98    0.48
   3   3  -2   16.55    0.60
   3   3  -2   16.99    0.61
  -3   3   2   17.31    0.57
   3   3  -2   16.15    0.57
  -3   3   2   16.69    0.61
   3   3  -2   16.56    0.57
  -2  -3   2    6.24    0.30
  -2  -3   2    5.96    0.36
   2  -3  -2    6.02    0.32
   2  -3  -2    6.65    0.32
  -2  -3   2    5.82    0.33
   2  -3  -2    6.13    0.28
  -2   3   2    6.21    0.28
  -2   3   2    5.52    0.29
   2   3  -2    6.29    0.32
  -2   3   2    6.12    0.34
   2   3  -2    6.27    0.31
   2   3  -2    6.06    0.32
   1  -3  -2    3.78    0.25
  -1  -3   2    4.47    0.29
   1  -3  -2    3.82    0.28
   1  -3  -2    3.64    0.19
  -1  -3   2    3.88    0.22
  -1  -3   2    4.44    0.21
  -1   3   2    3.76    0.24
   1   3  -2    3.66    0.25
  -1   3   2    3.10    0.30
   1   3  -2    3.72    0.21
  -1   3   2    3.73    0.23
   1   3  -2    3.83    0.26
  -1   3   2    3.46    0.29
   0  -3   2   36.81    0.82
   0  -3  -2   36.68    0.85
   0  -3   2   37.45    0.86
   0  -3  -2   36.39    0.84
   0  -3   2   36.84    0.91
   0  -3  -2   37.40    0.99
   0   3  -2   36.61    0.81
   0   3  -2   36.41    0.83
   0   3  -2   37.23    0.91
   0   3   2   37.23    0.90
   0   3   2   36.33    0.86
   0   3   2   35.54    0.84
   1  -3   2  597.48   11.64
  -1  -3  -2  590.96   11.66
   1   3   2  595.34   11.51
   1   3   2  576.78   11.62
   2  -3   2  101.18    2.23
  -2  -3  -2  107.82    2.32
   2  -3   2  106.26    2.41
  -2  -3  -2  104.69    2.42
   2  -3   2  105.57    2.15
  -2   3  -2  107.28    2.11
   2   3   2  103.06    2.14
   2   3   2  109.11    2.40
   2   3   2  103.50    2.14
   2   3   2  106.49    2.33
  -2   3  -2  104.47    2.12
   2   3   2  103.64    2.19
   2   3   2  105.53    2.19
  -3  -3  -2   38.39    1.10
   3  -3   2   39.57    1.15
   3  -3   2   40.01    0.89
  -3  -3  -2   36.01    0.96
  -3  -3  -2   40.16    1.18
   3  -3   2   38.33    0.86
   3   3   2   37.45    1.11
   3   3   2   38.80    1.13
   3   3   2   39.10    1.02
   3   3   2   38.20    0.89
   3   3   2   39.87    0.93
   4  -3   2   49.24    1.43
   4  -3   2   48.34    1.22
   4  -3   2   52.34    1.14
  -4  -3  -2   50.62    1.45
   4  -3   2   50.51    1.45
  -4  -3  -2   51.80    1.14
   4   3   2   50.49    1.47
   4   3   2   51.69    1.20
   4   3   2   50.18    1.40
   4   3   2   51.76    1.17
   4   3   2   51.39    1.17
   5  -3   2    3.30    0.33
   5  -3   2    4.14    0.25
   5  -3   2    4.05    0.24
  -5  -3  -2    3.93    0.45
   5  -3   2    3.42    0.47
   5  -3   2    4.24    0.30
   5  -3   2    4.21    0.52
   5   3   2    3.43    0.27
   5   3   2    4.43    0.37
   5   3   2    3.86    0.51
   5   3   2    3.32    0.38
   5   3   2    3.86    0.30
   5   3   2    3.63    0.29
   6  -3   2    0.35    0.20
   6  -3   2   -0.10    0.36
   6  -3   2    0.30    0.35
  -6  -3  -2    0.16    0.27
   6   3   2   -0.04    0.17
   6   3   2    0.35    0.17
   6   3   2    0.36    0.23
   6   3   2   -0.40    0.25
   6   3   2   -0.58    0.33
   7  -3   2    7.12    0.91
   7   3   2    8.03    0.95
   8  -4  -2    1.85    0.40
   8  -4  -2    1.61    0.50
   8   4  -2    1.36    0.40
   8   4  -2    1.54    0.49
   7  -4  -2    6.71    0.59
  -7  -4   2    5.25    0.51
   7  -4  -2    6.70    0.72
   7   4  -2    6.76    0.59
   7   4  -2    7.37    0.73
   7   4  -2    6.06    0.51
  -6  -4   2   23.60    0.86
  -6  -4   2   23.56    0.98
   6  -4  -2   23.37    0.88
  -6  -4   2   24.30    0.80
   6  -4  -2   24.59    0.97
   6   4  -2   23.94    0.89
   6   4  -2   24.34    1.05
   6   4  -2   23.20    0.84
   6   4  -2   23.80    0.93
  -6   4   2   23.73    0.90
  -6   4   2   23.70    0.79
  -5  -4   2   14.43    0.62
  -5  -4   2   13.32    0.39
   5  -4  -2   13.27    0.63
   5  -4  -2   12.55    0.74
  -5  -4   2   12.43    0.69
  -5  -4   2   13.65    0.56
  -5   4   2   13.21    0.64
  -5   4   2   13.72    0.37
   5   4  -2   13.94    0.58
   5   4  -2   13.83    0.73
   5   4  -2   13.38    0.61
  -5   4   2   13.51    0.73
   5   4  -2   13.18    0.64
  -4  -4   2  203.23    4.36
  -4  -4   2  203.78    4.24
   4  -4  -2  196.47    4.06
   4  -4  -2  203.01    4.29
   4  -4  -2  208.31    4.40
  -4  -4   2  206.26    4.42
  -4  -4   2  205.78    4.29
  -4   4   2  203.37    4.06
   4   4  -2  204.36    4.39
   4   4  -2  205.92    4.36
   4   4  -2  201.41    4.28
  -4   4   2  203.30    4.36
  -4   4   2  205.34    4.26
   4   4  -2  206.64    4.28
  -3  -4   2   26.84    0.88
  -3  -4   2   27.38    0.82
   3  -4  -2   25.57    0.79
  -3  -4   2   26.98    0.77
   3  -4  -2   26.08    0.84
   3  -4  -2   26.52    0.69
  -3  -4   2   26.65    0.80
  -3   4   2   26.55    0.68
   3   4  -2   26.70    0.80
   3   4  -2   27.04    0.84
  -3   4   2   25.86    0.78
   3   4  -2   27.62    0.84
   3   4  -2   27.04    0.80
  -3   4   2   26.59    0.84
  -2  -4   2  202.82    4.20
  -2  -4   2  204.01    4.17
   2  -4  -2  198.82    4.19
   2  -4  -2  201.03    4.15
   2  -4  -2  208.50    4.27
  -2  -4   2  205.01    4.22
   2   4  -2  203.43    4.19
   2   4  -2  209.69    4.23
  -2   4   2  207.45    4.26
   2   4  -2  207.94    4.25
  -2   4   2  204.50    4.20
   2   4  -2  203.60    4.20
  -2   4   2  205.65    4.13
   1  -4  -2  102.70    2.24
   1  -4  -2   99.11    2.35
  -1  -4   2  105.93    2.17
  -1  -4   2  104.21    2.24
   1  -4  -2  101.41    2.19
  -1  -4   2  104.81    2.20
  -1  -4   2  105.39    2.28
   1  -4  -2  104.09    2.17
  -1   4   2  100.53    2.25
   1   4  -2  102.14    2.17
   1   4  -2  104.09    2.24
  -1   4   2   99.16    2.14
   1   4  -2  105.20    2.21
   0  -4  -2  241.64    4.91
   0  -4   2  248.12    4.98
   0  -4  -2  248.90    4.99
   0  -4  -2  250.09    4.93
   0  -4   2  252.99    5.00
   0  -4  -2  248.12    5.07
   0  -4   2  245.99    4.93
   0  -4   2  248.78    4.90
   0   4   2  241.11    4.92
   0   4  -2  238.24    4.88
   0   4   2  250.85    4.94
   0   4  -2  255.05    4.97
   0   4   2  244.83    4.98
   1  -4   2   52.34    1.33
  -1  -4  -2   50.87    1.09
  -1  -4  -2   50.91    1.25
   1  -4   2   48.93    1.21
  -1  -4  -2   51.65    1.10
   1  -4   2   52.70    1.21
  -1  -4  -2   53.26    1.23
  -1  -4  -2   52.23    1.36
  -1   4  -2   51.93    1.21
   1   4   2   52.01    1.23
  -1   4  -2   51.28    1.18
   1   4   2   52.51    1.24
  -1   4  -2   51.87    1.20
   1   4   2   53.22    1.17
   1   4   2   53.70    1.33
   1   4   2   52.75    1.22
   2  -4   2   58.01    1.28
   2  -4   2   56.99    1.47
   2  -4   2   50.33    1.35
  -2  -4  -2   55.62    1.39
  -2  -4  -2   56.17    1.49
   2   4   2   55.73    1.40
   2   4   2   55.77    1.25
   2   4   2   57.33    1.31
  -2   4  -2   56.57    1.30
   2   4   2   57.50    1.31
  -2   4  -2   59.13    1.25
   2   4   2   59.09    1.47
  -2   4  -2   57.90    1.24
   2   4   2   56.32    1.27
  -3  -4  -2    0.03    0.15
   3  -4   2    0.26    0.10
   3  -4   2    0.07    0.16
   3  -4   2   -0.01    0.14
   3  -4   2    0.33    0.13
  -3  -4  -2   -0.04    0.17
   3   4   2   -0.05    0.10
  -3   4  -2   -0.07    0.09
   3   4   2   -0.04    0.17
  -3   4  -2    0.12    0.08
   3   4   2    0.08    0.09
   3   4   2    0.00    0.13
   4  -4   2   74.91    1.68
  -4  -4  -2   68.71    1.86
   4  -4   2   68.97    1.84
   4  -4   2   70.28    1.56
  -4  -4  -2   69.63    1.57
   4  -4   2   70.19    1.56
   4   4   2   70.37    1.59
   4   4   2   67.87    1.77
  -4   4  -2   71.27    1.47
   4   4   2   68.06    1.74
   4   4   2   69.95    1.88
   4   4   2   71.21    1.62
   4   4   2   70.74    1.59
   5  -4   2   33.04    0.79
  -5  -4  -2   32.32    1.14
   5  -4   2   33.50    1.23
   5  -4   2   32.42    0.78
   5  -4   2   33.80    1.16
  -5  -4  -2   34.78    0.87
   5  -4   2   34.73    0.87
   5  -4   2   33.71    0.91
   5   4   2   34.10    0.90
   5   4   2   34.71    0.95
   5   4   2   34.41    0.94
   5   4   2   34.99    1.26
   5   4   2   31.20    1.02
   6  -4   2   26.93    1.12
   6  -4   2   29.32    1.24
  -6  -4  -2   28.55    1.07
   6   4   2   27.33    0.99
   6   4   2   27.67    1.13
   6   4   2   28.76    0.86
   6   4   2   29.13    1.52
   7  -4   2    8.50    0.94
   7   4   2    6.67    0.96
   7   4   2    8.04    0.49
   8  -5  -2    3.42    0.50
   8  -5  -2    3.63    0.66
   8   5  -2    3.15    0.56
   8   5  -2    3.57    0.63
   7  -5  -2    4.15    0.54
   7  -5  -2    4.98    0.64
   7   5  -2    3.93    0.57
   7   5  -2    4.99    0.57
  -6  -5   2   24.27    0.82
  -6  -5   2   25.35    1.05
   6  -5  -2   26.14    0.96
   6  -5  -2   25.86    1.01
  -6  -5   2   25.58    0.92
   6   5  -2   25.39    0.95
   6   5  -2   24.80    0.97
   6   5  -2   23.58    0.88
  -6   5   2   23.75    0.81
  -6   5   2   24.74    0.94
  -5  -5   2  308.43    6.26
   5  -5  -2  315.67    6.54
  -5  -5   2  330.39    6.55
  -5  -5   2  314.03    6.45
  -5  -5   2  319.53    6.70
   5  -5  -2  317.86    6.65
  -5   5   2  313.21    6.46
  -5   5   2  317.49    6.59
   5   5  -2  318.07    6.69
   5   5  -2  314.54    6.54
   5   5  -2  320.00    6.61
   5   5  -2  304.26    6.48
  -4  -5   2   70.14    1.69
   4  -5  -2   68.95    1.82
   4  -5  -2   70.58    1.75
  -4  -5   2   71.05    1.87
  -4  -5   2   71.38    1.81
  -4  -5   2   72.30    1.75
   4   5  -2   72.15    1.81
  -4   5   2   72.03    1.74
   4   5  -2   70.02    1.73
  -4   5   2   70.83    1.80
   4   5  -2   71.96    1.75
   4   5  -2   71.54    1.84
  -4   5   2   70.40    1.51
  -3  -5   2  293.54    5.84
  -3  -5   2  283.85    5.89
   3  -5  -2  284.30    5.88
   3  -5  -2  294.11    5.98
  -3  -5   2  289.99    5.91
  -3   5   2  296.14    5.89
   3   5  -2  285.01    5.92
  -3   5   2  285.26    5.94
  -3   5   2  281.74    5.72
   3   5  -2  288.21    5.89
   3   5  -2  293.17    5.95
   3   5  -2  290.27    5.89
   2  -5  -2  421.09    8.29
   2  -5  -2  420.24    8.25
   2  -5  -2  418.93    8.37
  -2  -5   2  415.21    8.26
  -2  -5   2  429.46    8.40
  -2  -5   2  420.97    8.28
  -2  -5   2  410.75    8.30
   2   5  -2  414.00    8.29
  -2   5   2  386.83    8.30
   2   5  -2  409.88    8.61
  -2   5   2  421.20    8.39
   2   5  -2  422.75    8.31
  -2   5   2  425.80    8.29
   2   5  -2  420.22    8.31
   1  -5  -2   85.20    1.92
  -1  -5   2   90.01    2.05
  -1  -5   2   84.17    1.91
  -1  -5   2   89.30    1.90
  -1  -5   2   86.96    1.95
   1  -5  -2   87.20    1.98
   1  -5  -2   85.65    1.97
  -1   5   2   87.89    1.93
   1   5  -2   87.99    2.06
   1   5  -2   89.49    1.99
  -1   5   2   85.86    1.88
  -1   5   2   86.83    1.98
   0  -5  -2  607.04   11.63
   0  -5  -2  598.76   11.68
   0  -5  -2  582.14   11.73
   0   5  -2  591.16   11.65
   0   5  -2  592.35   11.68
   0   5  -2  593.83   11.64
   1  -5   2  160.13    3.34
  -1  -5  -2  162.42    3.26
  -1  -5  -2  163.20    3.51
  -1  -5  -2  156.86    3.25
  -1  -5  -2  164.26    3.38
   1  -5   2  160.61    3.32
   1  -5   2  166.08    3.37
   1  -5   2  165.95    3.36
  -1  -5  -2  160.72    3.38
  -1   5  -2  164.49    3.36
  -1   5  -2  162.50    3.35
   1   5   2  148.79    3.33
   1   5   2  163.47    3.37
   1   5   2  163.50    3.38
   1   5   2  160.64    3.39
  -2  -5  -2   10.83    0.42
   2  -5   2   11.33    0.42
   2  -5   2   10.68    0.51
  -2  -5  -2   11.42    0.49
  -2  -5  -2   11.44    0.56
   2   5   2   10.05    0.43
   2   5   2   10.60    0.50
  -2   5  -2   11.32    0.40
   2   5   2   10.95    0.44
   2   5   2   10.72    0.44
  -2   5  -2   12.38    0.42
   2   5   2   11.35    0.43
  -2   5  -2   10.86    0.38
   3  -5   2  224.38    4.68
   3  -5   2  208.66    4.31
  -3  -5  -2  214.40    4.65
   3  -5   2  213.99    4.37
   3  -5   2  217.31    4.33
  -3  -5  -2  213.61    4.38
  -3  -5  -2  215.95    4.57
   3   5   2  209.94    4.39
   3   5   2  213.06    4.58
   3   5   2  209.00    4.41
   3   5   2  213.62    4.37
  -3   5  -2  217.98    4.34
  -3   5  -2  217.76    4.31
  -4  -5  -2  162.48    3.82
   4  -5   2  180.71    3.67
  -4  -5  -2  184.38    4.02
   4  -5   2  181.72    3.69
   4  -5   2  176.08    3.96
  -4  -5  -2  184.11    4.62
   4  -5   2  173.37    3.58
   4   5   2  181.82    4.01
  -4   5  -2  184.45    3.60
   4   5   2  182.42    3.76
  -4   5  -2  171.43    3.62
   4   5   2  179.98    3.72
   4   5   2  176.42    3.87
  -5  -5  -2   14.90    0.76
   5  -5   2   15.01    0.54
   5  -5   2   13.67    0.76
   5  -5   2   14.79    0.56
  -5  -5  -2   14.61    0.53
  -5   5  -2   14.29    0.43
   5   5   2   14.97    0.61
   5   5   2   14.49    0.56
   5   5   2   15.38    0.87
   5   5   2   14.39    0.58
   5   5   2   13.79    0.83
   6  -5   2   20.40    0.67
   6  -5   2   21.23    1.08
  -6  -5  -2   21.57    0.95
   6  -5   2   20.71    0.75
   6   5   2   19.98    0.74
   6   5   2   20.06    1.11
   6   5   2   19.54    0.70
   6   5   2   18.65    0.77
   7  -5   2   10.40    1.02
   7   5   2   11.48    1.10
   7   5   2    9.32    0.58
   8  -6  -2    2.67    0.48
   8  -6  -2    2.90    0.64
   8   6  -2    2.02    0.61
   8   6  -2    2.03    0.50
   7  -6  -2   40.70    1.35
   7   6  -2   40.36    1.37
   7   6  -2   39.78    1.55
   6  -6  -2    3.33    0.36
  -6  -6   2    2.93    0.40
  -6  -6   2    3.58    0.56
   6  -6  -2    3.71    0.24
   6  -6  -2    3.33    0.47
  -6  -6   2    3.25    0.45
  -6  -6   2    3.24    0.30
   6  -6  -2    3.37    0.61
  -6   6   2    4.15    0.47
  -6   6   2    3.14    0.39
   6   6  -2    4.78    0.48
   6   6  -2    2.93    0.47
   6   6  -2    3.43    0.48
   5  -6  -2  271.59    5.63
   5  -6  -2  270.08    5.75
  -5  -6   2  270.55    5.41
  -5  -6   2  263.36    5.52
  -5  -6   2  263.74    5.78
  -5  -6   2  269.03    5.64
   5   6  -2  270.96    5.78
   5   6  -2  261.91    5.60
  -5   6   2  266.58    5.69
   5   6  -2  267.86    5.70
  -5   6   2  258.69    5.53
   5   6  -2  271.94    5.65
  -4  -6   2  102.72    2.40
  -4  -6   2  101.90    2.32
   4  -6  -2  103.38    2.48
  -4  -6   2  104.46    2.46
   4  -6  -2  103.86    2.40
   4   6  -2  101.33    2.47
  -4   6   2  100.95    2.12
  -4   6   2  103.43    2.48
   4   6  -2  104.41    2.43
   4   6  -2  102.39    2.41
  -4   6   2  101.33    2.45
   4   6  -2  102.07    2.47
  -3  -6   2   74.46    1.78
   3  -6  -2   80.05    1.93
  -3  -6   2   77.37    1.85
  -3  -6   2   78.15    1.97
  -3  -6   2   76.84    1.85
   3  -6  -2   75.96    1.83
   3   6  -2   78.35    1.85
   3   6  -2   75.10    1.83
  -3   6   2   76.58    1.68
   3   6  -2   72.70    1.91
  -3   6   2   78.49    1.83
   3   6  -2   75.48    1.87
  -2  -6   2  157.19    3.48
   2  -6  -2  154.40    3.36
   2  -6  -2  162.30    3.45
   2  -6  -2  159.03    3.33
  -2  -6   2  153.37    3.38
  -2  -6   2  159.62    3.36
  -2  -6   2  154.91    3.33
   2   6  -2  156.21    3.38
   2   6  -2  160.24    3.44
  -2   6   2  159.99    3.37
   2   6  -2  160.93    3.39
  -2   6   2  161.62    3.44
   2   6  -2  158.77    3.37
  -1  -6   2   28.52    0.84
  -1  -6   2   28.93    0.90
  -1  -6   2   27.85    0.81
  -1  -6   2   29.02    0.81
   1  -6  -2   29.29    0.82
   1  -6  -2   28.66    0.81
   1  -6  -2   28.65    0.87
  -1   6   2   27.54    0.86
   1   6  -2   29.36    0.83
  -1   6   2   29.68    0.83
   1   6  -2   28.50    0.86
   1   6  -2   29.18    0.90
  -1   6   2   29.14    0.79
   1   6  -2   28.20    0.81
   0  -6   2   40.56    1.03
   0  -6  -2   41.33    1.15
   0  -6  -2   41.97    1.12
   0  -6   2   41.53    1.05
   0  -6  -2   42.20    1.07
   0  -6   2   41.44    1.13
   0  -6  -2   41.21    1.03
   0  -6   2   41.73    1.07
   0   6  -2   42.08    1.03
   0   6   2   42.12    1.13
   0   6   2   41.66    1.06
   0   6   2   42.20    1.07
   0   6  -2   43.06    1.13
   0   6  -2   40.40    1.07
   0   6   2   41.99    1.11
   0   6  -2   41.15    1.09
  -1  -6  -2  267.81    5.35
  -1  -6  -2  250.52    5.43
   1  -6   2  262.48    5.27
   1  -6   2  261.81    5.32
   1  -6   2  260.26    5.32
  -1  -6  -2  252.08    5.22
   1  -6   2  256.20    5.28
  -1  -6  -2  270.14    5.34
   1   6   2  256.51    5.32
   1   6   2  263.63    5.36
  -1   6  -2  266.56    5.27
   1   6   2  260.98    5.33
   1   6   2  259.35    5.27
  -1   6  -2  265.12    5.31
   2  -6   2  748.67   14.47
  -2  -6  -2  713.89   14.65
   2  -6   2  746.38   14.47
  -2  -6  -2  758.63   14.56
  -2  -6  -2  735.43   14.48
   2   6   2  739.62   14.57
   2   6   2  739.44   14.50
   2   6   2  738.46   14.43
   2   6   2  722.28   14.43
   2   6   2  733.54   14.50
  -2   6  -2  754.51   14.45
  -2   6  -2  740.30   14.42
  -3  -6  -2    0.16    0.12
   3  -6   2   -0.21    0.17
   3  -6   2    0.03    0.12
  -3  -6  -2    0.44    0.22
  -3  -6  -2    0.01    0.16
   3  -6   2    0.12    0.13
   3  -6   2    0.14    0.12
  -3   6  -2    0.05    0.13
   3   6   2    0.20    0.13
   3   6   2    0.16    0.14
   3   6   2    0.19    0.13
  -3   6  -2    0.05    0.10
   3   6   2   -0.08    0.18
  -4  -6  -2   22.04    0.73
   4  -6   2   21.69    0.57
   4  -6   2   22.71    0.90
  -4  -6  -2   22.95    0.94
   4  -6   2   23.45    0.71
   4  -6   2   23.66    0.75
   4   6   2   22.65    0.75
  -4   6  -2   22.32    0.65
   4   6   2   22.54    0.75
   4   6   2   23.66    0.95
   4   6   2   22.93    0.84
   4   6   2   23.66    0.78
   5  -6   2   91.28    2.01
  -5  -6  -2   84.57    2.28
   5  -6   2   80.08    2.75
   5  -6   2   89.88    2.02
  -5  -6  -2   87.97    2.01
   5   6   2   94.67    2.47
   5   6   2   89.29    2.02
   5   6   2   87.68    2.06
  -5   6  -2   88.14    1.93
   5   6   2   73.01    2.19
   6  -6   2    0.77    0.37
   6  -6   2    0.16    0.30
  -6  -6  -2    0.85    0.36
   6  -6   2    0.31    0.42
   6   6   2    0.19    0.23
   6   6   2    0.36    0.28
   6   6   2    0.60    0.22
   6   6   2    0.36    0.41
   7  -6   2    0.56    0.54
   7   6   2    0.06    0.27
   7   6   2   -0.26    0.54
   8  -7  -2    1.69    0.55
   8  -7  -2    2.84    0.47
   8   7  -2    3.48    0.58
   8   7  -2    2.39    0.64
   7  -7  -2   11.81    1.02
   7   7  -2   12.96    0.82
   7   7  -2   11.86    0.92
  -6  -7   2   29.61    1.09
  -6  -7   2   27.87    0.86
   6  -7  -2   27.65    1.11
  -6  -7   2   26.35    1.17
  -6  -7   2   27.16    1.24
   6  -7  -2   27.50    1.03
  -6   7   2   28.21    0.93
  -6   7   2   29.27    1.14
   6   7  -2   28.29    1.09
   6   7  -2   29.55    1.20
  -5  -7   2   17.90    0.77
  -5  -7   2   14.36    0.63
   5  -7  -2   17.11    0.80
   5  -7  -2   15.94    0.73
   5   7  -2   17.53    0.99
   5   7  -2   16.33    0.84
  -5   7   2   16.58    0.66
   5   7  -2   15.44    0.90
  -5   7   2   16.94    0.80
   5   7  -2   15.97    0.75
  -4  -7   2   55.33    1.39
  -4  -7   2   52.05    1.51
  -4  -7   2   52.26    1.47
   4  -7  -2   53.91    1.47
   4  -7  -2   54.96    1.57
  -4  -7   2   55.36    1.64
  -4   7   2   50.42    1.66
   4   7  -2   53.56    1.46
   4   7  -2   53.25    1.48
  -4   7   2   53.81    1.20
  -4   7   2   55.48    1.43
   4   7  -2   57.39    1.55
   4   7  -2   54.86    1.55
   3  -7  -2   96.75    2.27
  -3  -7   2   96.02    2.28
   3  -7  -2   99.84    2.25
  -3  -7   2   97.54    2.30
   3  -7  -2   94.05    2.40
  -3  -7   2   96.88    2.21
  -3  -7   2   98.80    2.42
   3   7  -2   96.96    2.32
   3   7  -2   99.93    2.37
   3   7  -2   98.47    2.29
  -3   7   2   99.97    2.36
   3   7  -2   96.31    2.28
  -3   7   2   97.37    2.26
  -3   7   2   99.51    2.12
   2  -7  -2   36.82    1.01
   2  -7  -2   36.67    1.04
  -2  -7   2   37.82    1.05
  -2  -7   2   38.24    1.16
  -2  -7   2   37.12    1.06
   2  -7  -2   35.97    1.10
  -2   7   2   38.16    1.12
  -2   7   2   36.39    1.03
   2   7  -2   37.98    1.12
   2   7  -2   37.26    1.06
   2   7  -2   36.88    1.15
   2   7  -2   38.38    1.08
  -1  -7   2   38.15    1.02
   1  -7  -2   38.11    1.02
   1  -7  -2   37.57    1.02
   1  -7  -2   39.24    1.10
  -1  -7   2   38.19    1.04
  -1  -7   2   37.94    1.12
  -1   7   2   37.30    0.99
  -1   7   2   37.28    1.03
   1   7  -2   37.17    1.08
   1   7  -2   37.96    1.02
   1   7  -2   37.12    1.03
   1   7  -2   37.31    1.12
   1   7  -2   37.27    1.03
  -1   7   2   36.74    1.08
   0  -7  -2  261.74    5.46
   0  -7  -2  261.12    5.32
   0  -7   2  258.39    5.34
   0  -7  -2  267.21    5.44
   0  -7   2  257.36    5.44
   0  -7   2  258.95    5.34
   0  -7   2  262.08    5.34
   0  -7  -2  266.65    5.37
   0   7   2  255.85    5.34
   0   7  -2  259.42    5.44
   0   7   2  266.99    5.42
   0   7  -2  267.61    5.42
   0   7  -2  259.26    5.32
   0   7   2  264.00    5.44
   0   7  -2  270.07    5.37
   0   7   2  267.65    5.36
   1  -7   2   11.75    0.46
   1  -7   2   11.91    0.51
  -1  -7  -2   11.97    0.52
  -1  -7  -2   13.06    0.46
  -1  -7  -2   12.36    0.46
   1  -7   2   12.48    0.47
  -1  -7  -2   11.27    0.57
   1  -7   2   12.11    0.48
   1  -7   2   12.60    0.51
  -1  -7  -2   12.15    0.53
  -1   7  -2   11.79    0.49
   1   7   2   12.07    0.53
  -1   7  -2   12.21    0.47
   1   7   2   12.02    0.52
   1   7   2   11.17    0.51
   1   7   2   11.90    0.47
  -2  -7  -2    1.63    0.17
   2  -7   2    1.66    0.25
   2  -7   2    1.17    0.19
   2  -7   2    1.59    0.24
  -2  -7  -2    1.13    0.21
  -2  -7  -2    1.50    0.19
  -2  -7  -2    1.05    0.18
  -2  -7  -2    2.32    0.35
   2   7   2    1.42    0.22
  -2   7  -2    1.32    0.18
  -2   7  -2    1.63    0.21
   2   7   2    1.55    0.25
   2   7   2    1.24    0.19
   2   7   2    1.80    0.25
  -2   7  -2    1.64    0.23
   2   7   2    1.31    0.19
  -3  -7  -2   60.98    1.53
   3  -7   2   58.68    1.65
   3  -7   2   62.64    1.47
   3  -7   2   60.97    1.52
  -3  -7  -2   59.73    1.63
  -3  -7  -2   60.84    1.71
   3   7   2   62.26    1.55
   3   7   2   62.83    1.57
   3   7   2   61.25    1.51
  -3   7  -2   61.62    1.46
   3   7   2   59.59    1.65
  -3   7  -2   59.77    1.49
  -3   7  -2   61.63    1.39
   3   7   2   59.35    1.61
   4  -7   2   44.67    1.17
   4  -7   2   43.44    0.98
  -4  -7  -2   43.84    1.43
   4  -7   2   43.96    1.39
  -4  -7  -2   44.39    1.22
   4   7   2   44.72    1.22
   4   7   2   43.68    1.21
   4   7   2   45.20    1.27
  -4   7  -2   45.05    1.13
   4   7   2   45.52    1.43
   5  -7   2    0.33    0.21
  -5  -7  -2    0.96    0.34
   5  -7   2    0.75    0.20
  -5  -7  -2    0.77    0.22
   5   7   2    0.60    0.36
   5   7   2    0.95    0.25
  -5   7  -2    1.01    0.17
   5   7   2    0.94    0.25
   5   7   2    0.84    0.27
  -6  -7  -2   11.89    0.84
   6  -7   2   11.85    0.62
   6  -7   2   13.60    0.75
   6   7   2   13.23    0.77
   6   7   2   12.91    0.68
   6   7   2   12.44    0.98
   7  -7   2   18.08    1.28
   7   7   2   20.58    1.07
   7   7   2   20.24    1.37
   8  -8  -2    9.18    1.10
   8  -8  -2    8.12    1.01
   8   8  -2    6.49    0.94
   8   8  -2    8.00    1.08
   8   8  -2    6.51    0.88
   7  -8  -2    8.43    0.69
   7   8  -2    7.51    0.85
   7   8  -2    7.77    0.75
  -6  -8   2    0.02    0.21
   6  -8  -2    0.13    0.31
   6  -8  -2    0.30    0.28
  -6  -8   2   -0.11    0.41
   6   8  -2    0.30    0.30
   6   8  -2    0.40    0.37
  -6   8   2   -0.03    0.29
   6   8  -2    0.26    0.42
  -6   8   2    0.11    0.26
   5  -8  -2   28.74    1.03
  -5  -8   2   29.80    1.08
   5  -8  -2   29.09    1.12
  -5  -8   2   29.87    1.27
  -5  -8   2   26.52    1.01
  -5   8   2   27.87    0.95
   5   8  -2   28.12    1.08
   5   8  -2   29.33    1.14
  -5   8   2   29.84    1.10
   5   8  -2   28.90    1.06
   4  -8  -2   13.80    0.64
   4  -8  -2   14.48    0.95
  -4  -8   2   12.83    0.57
  -4  -8   2   13.55    0.71
   4  -8  -2   12.79    0.72
  -4  -8   2   16.85    0.87
  -4  -8   2   13.75    0.67
  -4   8   2   14.10    0.75
  -4   8   2   14.02    0.61
   4   8  -2   13.96    0.71
   4   8  -2   13.33    0.65
  -4   8   2   13.16    0.44
   4   8  -2   13.91    0.68
   4   8  -2   13.56    0.71
   3  -8  -2   26.10    0.88
  -3  -8   2   26.50    0.91
   3  -8  -2   26.75    0.96
  -3  -8   2   26.03    0.90
   3  -8  -2   25.32    0.99
  -3  -8   2   27.44    1.03
  -3  -8   2   27.46    0.85
  -3   8   2   26.45    0.87
  -3   8   2   27.46    0.98
   3   8  -2   27.66    1.02
   3   8  -2   27.04    0.94
   3   8  -2   27.49    0.96
   3   8  -2   27.26    0.92
   3   8  -2   26.48    0.89
   2  -8  -2  396.48    8.09
  -2  -8   2  400.39    8.00
   2  -8  -2  392.75    7.97
  -2  -8   2  401.08    8.15
  -2  -8   2  391.98    7.96
  -2  -8   2  388.00    8.00
   2  -8  -2  394.45    7.99
   2   8  -2  388.98    8.00
   2   8  -2  392.57    8.14
  -2   8   2  395.42    8.08
  -2   8   2  402.37    8.00
   2   8  -2  401.90    8.09
   2   8  -2  393.46    8.02
   2   8  -2  402.53    8.02
  -1  -8   2  992.36   19.23
  -1  -8   2  983.97   19.07
  -1   8   2 1000.00   19.09
   1   8  -2  982.57   19.17
  -1   8   2  960.47   19.21
   1   8  -2  959.55   19.08
  -1   8   2  969.65   19.16
   1   8  -2  964.81   19.06
   0  -8  -2    5.58    0.33
   0  -8  -2    5.21    0.37
   0  -8  -2    4.73    0.32
   0  -8   2    4.98    0.34
   0  -8  -2    5.39    0.36
   0  -8   2    4.34    0.33
   0  -8   2    4.90    0.40
   0  -8   2    4.90    0.33
   0   8   2    5.59    0.36
   0   8   2    4.93    0.36
   0   8   2    4.71    0.32
   0   8   2    5.26    0.38
   0   8  -2    5.66    0.35
   0   8  -2    4.85    0.33
   0   8  -2    4.76    0.36
   0   8  -2    5.30    0.38
  -1  -8  -2    2.88    0.32
   1  -8   2    3.15    0.30
  -1  -8  -2    3.33    0.27
   1  -8   2    2.61    0.28
  -1  -8  -2    2.89    0.30
  -1  -8  -2    3.06    0.36
   1  -8   2    3.36    0.31
   1  -8   2    2.89    0.27
  -1  -8  -2    3.19    0.26
   1  -8   2    2.93    0.26
   1   8   2    2.72    0.27
  -1   8  -2    3.13    0.27
   1   8   2    3.13    0.32
   1   8   2    3.17    0.31
   1   8   2    2.78    0.40
  -1   8  -2    2.90    0.28
  -1   8  -2    2.87    0.29
   2  -8   2    4.00    0.34
  -2  -8  -2    3.89    0.42
   2  -8   2    3.55    0.31
  -2  -8  -2    3.88    0.30
  -2  -8  -2    3.79    0.35
   2  -8   2    4.02    0.33
   2  -8   2    4.05    0.29
  -2  -8  -2    3.49    0.35
  -2  -8  -2    3.67    0.25
  -2   8  -2    4.39    0.31
   2   8   2    3.78    0.33
  -2   8  -2    4.12    0.32
   2   8   2    4.28    0.37
   2   8   2    3.27    0.31
   2   8   2    4.40    0.41
  -2   8  -2    3.91    0.27
  -3  -8  -2   93.93    1.94
   3  -8   2   92.15    2.23
   3  -8   2   98.07    2.17
  -3  -8  -2   93.99    1.95
  -3  -8  -2   93.76    2.42
   3  -8   2   97.53    2.04
  -3  -8  -2   92.31    2.23
  -3  -8  -2   90.93    2.32
   3  -8   2   94.54    2.22
   3   8   2   95.73    2.61
   3   8   2   91.31    2.24
  -3   8  -2   97.13    2.17
   3   8   2   96.24    2.28
   3   8   2   94.09    2.36
   3   8   2   93.75    2.21
   4  -8   2  133.39    2.88
   4  -8   2  130.67    2.93
  -4  -8  -2  136.22    3.21
   4  -8   2  127.40    2.63
   4  -8   2  117.57    3.17
  -4  -8  -2  128.78    2.93
   4   8   2  134.00    3.00
  -4   8  -2  127.97    2.89
   4   8   2  128.74    2.94
   4   8   2  132.40    3.15
   4   8   2  131.96    2.93
   5  -8   2  122.58    2.74
   5  -8   2  110.50    2.83
  -5  -8  -2  122.55    3.05
   5   8   2  123.14    2.82
   5   8   2  118.95    3.11
   5   8   2  122.43    2.84
  -5   8  -2  126.00    2.67
   5   8   2  115.63    3.23
  -6  -8  -2    1.21    0.45
   6  -8   2    1.39    0.56
   6   8   2    2.03    0.54
   6   8   2    1.87    0.40
   6   8   2    1.79    0.33
   7  -8   2    2.16    0.65
   7   8   2    1.93    0.70
   7   8   2    3.02    0.43
   8  -9  -2    5.56    0.81
   8   9  -2    3.03    0.80
   8   9  -2    4.21    0.67
   8   9  -2    3.26    0.77
   7  -9  -2    5.08    0.67
  -7  -9   2    8.23    0.96
   7   9  -2    8.08    0.85
   7   9  -2    6.05    0.78
   7   9  -2    7.13    0.85
   6  -9  -2    5.23    0.59
  -6  -9   2    5.41    0.72
  -6  -9   2    5.58    0.46
   6   9  -2    5.75    0.64
   6   9  -2    4.89    0.69
  -6   9   2    4.52    0.61
   6   9  -2    5.46    0.68
  -5  -9   2   27.65    1.09
  -5  -9   2   29.32    1.27
   5  -9  -2   29.03    1.06
   5   9  -2   29.43    1.10
   5   9  -2   30.04    1.18
   5   9  -2   28.26    1.11
   5   9  -2   29.86    1.23
  -5   9   2   28.38    1.02
   4  -9  -2   61.29    1.77
  -4  -9   2   61.31    1.86
  -4  -9   2   62.65    2.07
   4  -9  -2   62.64    1.68
  -4  -9   2   62.21    1.73
   4   9  -2   63.58    1.74
  -4   9   2   61.35    1.39
   4   9  -2   63.54    1.86
  -4   9   2   62.91    1.78
  -4   9   2   59.29    1.62
   4   9  -2   63.07    1.80
   4   9  -2   61.56    1.77
  -3  -9   2    9.59    0.48
  -3  -9   2    7.91    0.52
  -3  -9   2    8.23    0.52
   3  -9  -2    9.41    0.52
   3  -9  -2    9.55    0.57
   3  -9  -2    8.93    0.49
  -3  -9   2    9.58    0.65
   3   9  -2    9.24    0.57
   3   9  -2    8.72    0.54
  -3   9   2   10.18    0.60
   3   9  -2   10.18    0.58
  -3   9   2    9.27    0.48
   3   9  -2    8.65    0.52
   3   9  -2    9.63    0.64
   2  -9  -2    2.14    0.31
  -2  -9   2    2.26    0.34
  -2  -9   2    2.30    0.31
  -2  -9   2    2.26    0.31
   2  -9  -2    2.25    0.29
   2  -9  -2    2.58    0.35
  -2  -9   2    2.09    0.28
  -2   9   2    2.84    0.37
   2   9  -2    2.09    0.35
   2   9  -2    1.71    0.26
  -2   9   2    2.75    0.29
   2   9  -2    2.20    0.30
   2   9  -2    2.44    0.31
  -1  -9   2    3.24    0.33
   1  -9  -2    2.97    0.36
  -1  -9   2    2.50    0.31
  -1  -9   2    2.67    0.36
  -1  -9   2    2.73    0.30
   1  -9  -2    3.61    0.32
   1  -9  -2    2.69    0.31
   1   9  -2    1.87    0.31
   1   9  -2    3.04    0.35
  -1   9   2    2.54    0.36
  -1   9   2    2.83    0.30
   1   9  -2    2.48    0.31
  -1   9   2    3.46    0.31
   1   9  -2    3.12    0.33
  -1   9   2    2.92    0.37
   1   9  -2    2.96    0.31
   0  -9   2   41.93    1.15
   0  -9   2   40.54    1.15
   0  -9   2   40.66    1.14
   0  -9  -2   42.52    1.25
   0  -9  -2   41.88    1.14
   0  -9  -2   43.58    1.20
   0  -9  -2   42.00    1.14
   0  -9   2   42.12    1.27
   0   9  -2   41.37    1.25
   0   9   2   40.80    1.24
   0   9   2   40.99    1.16
   0   9   2   43.11    1.24
   0   9  -2   41.02    1.14
   0   9   2   42.05    1.16
   0   9  -2   41.00    1.21
   0   9  -2   42.13    1.15
   1  -9   2  105.30    2.51
   1  -9   2  106.72    2.42
   1  -9   2  106.68    2.45
  -1  -9  -2  107.52    2.39
  -1  -9  -2  101.84    2.37
  -1  -9  -2  112.65    2.56
   1  -9   2  110.99    2.39
  -1  -9  -2  108.28    2.60
   1  -9   2  109.39    2.53
  -1  -9  -2  108.94    2.55
   1   9   2  107.00    2.49
  -1   9  -2  106.34    2.40
  -1   9  -2  106.66    2.50
  -1   9  -2  104.66    2.50
   1   9   2  106.33    2.52
   1   9   2  104.81    2.54
   1   9   2  106.71    2.45
  -2  -9  -2    5.11    0.45
  -2  -9  -2    5.07    0.42
   2  -9   2    5.95    0.34
   2  -9   2    5.45    0.39
  -2  -9  -2    5.63    0.32
   2  -9   2    5.22    0.39
   2  -9   2    5.81    0.39
  -2  -9  -2    5.16    0.49
  -2  -9  -2    5.70    0.34
   2   9   2    5.25    0.37
  -2   9  -2    5.37    0.34
   2   9   2    6.11    0.48
  -2   9  -2    5.42    0.42
   2   9   2    6.07    0.48
   2   9   2    5.32    0.43
   2   9   2    6.18    0.43
  -3  -9  -2    5.01    0.39
  -3  -9  -2    5.33    0.54
   3  -9   2    5.32    0.76
   3  -9   2    5.36    0.39
  -3  -9  -2    4.95    0.28
   3  -9   2    5.30    0.33
   3  -9   2    5.73    0.40
   3   9   2    5.47    0.44
   3   9   2    5.90    0.53
   3   9   2    5.43    0.46
  -3   9  -2    5.60    0.38
   3   9   2    5.87    0.43
  -3   9  -2    5.38    0.32
  -4  -9  -2   21.84    1.02
   4  -9   2   21.42    0.57
   4  -9   2   22.24    0.79
   4  -9   2   21.15    0.82
  -4  -9  -2   21.76    0.90
   4   9   2   21.84    0.82
   4   9   2   22.22    0.85
   4   9   2   21.72    1.01
  -4   9  -2   20.41    0.74
  -5  -9  -2   19.31    0.99
   5  -9   2   18.16    0.82
   5  -9   2   17.14    0.75
   5   9   2   17.92    0.83
   5   9   2   17.08    0.98
   5   9   2   17.78    0.82
   5   9   2   17.54    0.79
   6  -9   2    0.41    0.36
   6   9   2    0.11    0.47
   6   9   2    0.17    0.31
  -7 -10   2    7.38    0.71
   7 -10  -2    8.05    0.73
   7  10  -2    6.66    0.90
   7  10  -2    6.23    0.78
   7  10  -2    7.88    0.92
   6 -10  -2   20.92    0.96
  -6 -10   2   18.26    1.23
  -6 -10   2   19.33    0.80
  -6  10   2   21.79    1.32
   6  10  -2   19.96    1.06
   6  10  -2   20.22    1.10
   6  10  -2   20.44    1.09
  -5 -10   2   11.67    0.75
  -5 -10   2   11.15    0.85
   5 -10  -2   10.39    0.74
   5 -10  -2   10.84    0.84
   5  10  -2    9.97    0.74
   5  10  -2   12.84    0.87
  -5  10   2   11.40    0.82
   5  10  -2   10.75    0.97
   5  10  -2   11.70    0.79
   4 -10  -2   39.30    1.34
  -4 -10   2   39.68    1.29
  -4 -10   2   39.52    1.41
   4 -10  -2   39.77    1.25
  -4  10   2   39.85    1.34
   4  10  -2   39.50    1.42
   4  10  -2   38.02    1.30
  -4  10   2   39.87    1.02
   4  10  -2   38.10    1.29
   4  10  -2   39.60    1.35
  -4  10   2   38.65    0.99
   3 -10  -2   22.13    0.87
  -3 -10   2   24.73    1.05
  -3 -10   2   25.20    0.93
  -3 -10   2   24.14    0.94
   3 -10  -2   23.65    0.96
   3 -10  -2   25.24    0.91
  -3 -10   2   24.49    0.87
  -3  10   2   24.90    0.89
   3  10  -2   25.25    1.05
  -3  10   2   24.69    0.74
  -3  10   2   26.56    1.00
   3  10  -2   24.80    0.93
   3  10  -2   23.98    0.96
   3  10  -2   28.69    1.38
   3  10  -2   26.45    0.97
   2 -10  -2   21.80    0.80
  -2 -10   2   20.99    0.81
  -2 -10   2   20.12    0.86
  -2 -10   2   20.76    0.76
   2 -10  -2   20.38    0.87
  -2 -10   2   22.23    0.93
   2 -10  -2   21.25    0.78
   2  10  -2   21.85    0.86
   2  10  -2   19.57    0.78
   2  10  -2   20.46    0.91
  -2  10   2   21.98    0.88
   2  10  -2   20.73    0.81
  -2  10   2   20.22    0.84
   2  10  -2   21.22    0.82
  -1 -10   2   93.38    2.35
  -1 -10   2   91.32    2.20
  -1 -10   2   91.22    2.19
   1 -10  -2   93.58    2.31
   1 -10  -2   93.72    2.20
  -1 -10   2   91.92    2.21
  -1  10   2   91.80    2.17
  -1  10   2   96.94    2.32
   1  10  -2   92.65    2.36
   1  10  -2   88.09    2.26
  -1  10   2   92.48    2.32
   1  10  -2   92.47    2.29
  -1  10   2   89.74    2.21
   1  10  -2   92.15    2.21
   0 -10   2   55.89    1.46
   0 -10  -2   53.64    1.54
   0 -10  -2   55.58    1.44
   0 -10   2   55.13    1.57
   0 -10   2   55.87    1.44
   0 -10  -2   56.22    1.50
   0 -10   2   54.16    1.46
   0 -10  -2   54.00    1.43
   0  10  -2   55.53    1.54
   0  10  -2   53.27    1.56
   0  10  -2   54.91    1.44
   0  10   2   56.05    1.54
   0  10  -2   54.98    1.44
   0  10   2   53.89    1.45
   0  10   2   55.07    1.47
  -1 -10  -2   40.04    1.29
  -1 -10  -2   39.15    1.10
  -1 -10  -2   41.44    1.23
  -1 -10  -2   39.00    1.10
   1 -10   2   40.67    1.23
   1 -10   2   39.26    1.13
  -1 -10  -2   38.46    1.24
   1 -10   2   40.39    1.17
   1 -10   2   39.70    1.10
   1 -10   2   39.92    1.17
   1 -10   2   38.66    1.21
   1  10   2   39.70    1.25
   1  10   2   41.28    1.24
  -1  10  -2   39.38    1.22
   1  10   2   38.26    1.15
  -1  10  -2   40.32    1.11
   1  10   2   39.59    1.20
   1  10   2   38.84    1.20
  -1  10  -2   40.77    1.22
  -2 -10  -2  218.78    4.79
  -2 -10  -2  217.24    4.55
  -2 -10  -2  223.09    4.91
  -2 -10  -2  223.12    4.57
   2 -10   2  217.56    4.76
   2 -10   2  219.93    4.68
   2 -10   2  214.89    4.70
   2 -10   2  216.48    4.54
   2  10   2  226.51    4.80
   2  10   2  220.06    4.80
  -2  10  -2  224.46    4.58
   2  10   2  221.74    4.70
   2  10   2  224.05    4.81
   3 -10   2   12.15    0.58
   3 -10   2   10.91    0.60
   3 -10   2   11.74    0.46
  -3 -10  -2   11.61    0.48
  -3 -10  -2   12.02    0.77
  -3 -10  -2   11.32    0.43
   3  10   2   10.28    0.61
  -3  10  -2   11.03    0.46
   3  10   2   10.52    0.58
   3  10   2   11.74    0.70
   3  10   2   11.82    0.68
  -3  10  -2   11.87    0.56
  -4 -10  -2   29.64    1.23
   4 -10   2   29.73    0.99
   4 -10   2   30.32    1.05
   4 -10   2   29.60    0.74
  -4 -10  -2   29.30    1.03
  -4  10  -2   28.96    1.00
   4  10   2   30.62    1.10
   4  10   2   30.67    1.06
   4  10   2   28.17    1.16
   5 -10   2   45.35    1.51
  -5 -10  -2   44.75    1.63
   5 -10   2   44.50    1.35
   5  10   2   44.50    1.62
   5  10   2   43.11    1.42
   5  10   2   43.37    1.41
  -6 -10  -2    1.06    0.55
   6 -10   2    1.62    0.52
   6  10   2    0.69    0.37
   6  10   2    1.49    0.46
   6  10   2    1.16    0.53
   7 -11  -2    0.46    0.38
  -7 -11   2    0.00    0.41
   7  11  -2   -0.06    0.46
   7  11  -2    1.31    0.55
   7  11  -2   -0.13    0.46
  -6 -11   2   23.24    1.03
   6 -11  -2   24.51    1.09
  -6 -11   2   22.13    0.95
   6  11  -2   23.82    1.16
   6  11  -2   24.01    1.14
   6  11  -2   24.25    1.24
  -5 -11   2   23.72    1.19
   5 -11  -2   24.95    1.02
  -5 -11   2   24.28    1.07
   5 -11  -2   24.42    1.13
   5  11  -2   23.07    1.06
   5  11  -2   24.30    1.07
  -5  11   2   25.03    1.12
   5  11  -2   23.77    1.20
   5  11  -2   25.51    1.13
   4 -11  -2   45.89    1.53
  -4 -11   2   46.51    1.60
  -4 -11   2   46.52    1.48
   4 -11  -2   45.44    1.43
   4  11  -2   47.51    1.53
   4  11  -2   44.64    1.46
  -4  11   2   45.84    1.17
  -4  11   2   45.18    1.49
   4  11  -2   45.25    1.48
   4  11  -2   47.86    1.63
  -4  11   2   45.80    1.13
  -3 -11   2    2.48    0.38
   3 -11  -2    3.00    0.41
  -3 -11   2    3.53    0.46
   3 -11  -2    3.14    0.45
  -3  11   2    3.46    0.48
   3  11  -2    3.19    0.43
  -3  11   2    3.62    0.46
   3  11  -2    3.48    0.46
   3  11  -2    2.56    0.40
   3  11  -2    3.54    0.46
  -3  11   2    3.53    0.29
   2 -11  -2   10.01    0.64
   2 -11  -2   10.41    0.58
  -2 -11   2    9.88    0.61
   2 -11  -2   10.40    0.60
  -2 -11   2   11.33    0.70
  -2 -11   2   11.59    0.61
  -2  11   2   12.46    0.66
   2  11  -2   11.37    0.70
   2  11  -2   11.21    0.62
   2  11  -2   12.03    0.66
  -2  11   2   11.32    0.49
   2  11  -2   10.77    0.61
  -2  11   2   11.60    0.66
   2  11  -2   10.68    0.62
  -2  11   2    9.75    0.59
  -1 -11   2   24.25    0.90
   1 -11  -2   27.13    0.92
  -1 -11   2   26.70    1.05
  -1 -11   2   26.86    0.92
   1 -11  -2   25.89    0.99
   1 -11  -2   25.74    0.92
  -1 -11   2   26.19    0.93
  -1  11   2   25.91    1.01
  -1  11   2   26.82    0.90
   1  11  -2   26.87    0.93
   1  11  -2   24.84    0.89
  -1  11   2   27.52    1.01
   1  11  -2   25.58    0.97
   1  11  -2   26.84    1.05
  -1  11   2   25.58    0.93
  -1  11   2   26.07    0.86
   0 -11   2   33.31    1.07
   0 -11  -2   33.51    1.03
   0 -11  -2   33.26    1.03
   0 -11   2   33.32    1.16
   0 -11  -2   32.20    1.07
   0 -11   2   30.77    1.03
   0 -11  -2   33.89    1.16
   0 -11   2   33.49    1.03
   0 -11   2   32.86    1.15
   0  11  -2   34.19    1.05
   0  11   2   33.32    1.17
   0  11   2   32.82    1.06
   0  11  -2   32.52    1.12
   0  11   2   32.12    1.03
   0  11  -2   34.12    1.03
   0  11   2   34.44    1.08
   0  11   2   32.61    1.13
  -1 -11  -2   33.05    0.99
  -1 -11  -2   32.45    0.98
   1 -11   2   31.13    1.10
  -1 -11  -2   32.10    1.10
   1 -11   2   33.02    1.12
   1 -11   2   31.72    1.02
  -1 -11  -2   30.16    1.11
   1 -11   2   31.43    1.05
   1 -11   2   33.19    0.98
  -1 -11  -2   32.87    1.15
   1 -11   2   33.12    1.05
   1  11   2   30.48    1.03
  -1  11  -2   31.21    1.09
   1  11   2   34.73    1.25
  -1  11  -2   29.07    1.18
  -1  11  -2   31.09    0.98
   1  11   2   32.38    1.14
   1  11   2   32.47    1.12
   1  11   2   32.00    1.08
   2 -11   2    5.74    0.52
   2 -11   2    4.57    0.45
   2 -11   2    4.76    0.45
  -2 -11  -2    5.45    0.38
   2 -11   2    6.18    0.38
  -2 -11  -2    6.09    0.37
  -2 -11  -2    5.92    0.59
  -2  11  -2    4.99    0.43
   2  11   2    5.59    0.51
  -2  11  -2    4.47    0.37
   2  11   2    5.74    0.52
   2  11   2    5.49    0.50
  -3 -11  -2    0.44    0.21
   3 -11   2    0.75    0.23
   3 -11   2    0.41    0.18
  -3 -11  -2    0.51    0.16
   3 -11   2    0.18    0.22
  -3 -11  -2    0.31    0.17
  -3 -11  -2    1.22    0.38
  -3  11  -2    0.41    0.18
   3  11   2    0.50    0.31
  -3  11  -2    0.84    0.19
   3  11   2    0.29    0.24
   3  11   2    0.48    0.26
   4 -11   2    0.83    0.28
  -4 -11  -2    1.07    0.26
  -4 -11  -2    0.91    0.19
  -4 -11  -2    0.89    0.38
   4 -11   2    0.96    0.26
   4  11   2    0.83    0.30
   4  11   2    0.63    0.26
  -4  11  -2    0.89    0.17
  -4  11  -2    0.36    0.24
   4  11   2    1.41    0.32
   4  11   2    1.30    0.37
  -5 -11  -2    0.49    0.43
   5 -11   2    1.09    0.35
   5  11   2    0.76    0.34
   5  11   2    1.43    0.51
   5  11   2    1.44    0.46
   6 -11   2   10.09    0.81
  -6 -11  -2    8.89    0.98
   6  11   2    7.81    0.86
   6  11   2    7.97    0.79
   6  11   2    7.55    1.00
   7 -12  -2   11.21    0.95
   7  12  -2    9.17    1.17
   7  12  -2   10.27    1.10
   7  12  -2    9.46    1.00
  -6 -12   2    0.88    0.37
   6 -12  -2    1.14    0.42
   6  12  -2    0.36    0.40
   6  12  -2    1.13    0.42
   6  12  -2    0.80    0.40
   5 -12  -2   10.74    0.75
  -5 -12   2   12.29    0.81
  -5 -12   2   10.10    0.76
  -5 -12   2   12.39    0.93
   5  12  -2   11.47    0.85
   5  12  -2   12.12    0.91
   5  12  -2   10.49    0.75
   5  12  -2   11.09    0.81
  -5  12   2   11.83    0.84
  -4 -12   2   42.52    1.56
   4 -12  -2   43.44    1.50
   4  12  -2   43.33    1.46
  -4  12   2   44.21    1.11
   4  12  -2   45.48    1.64
   4  12  -2   41.44    1.61
   4  12  -2   42.05    1.79
  -4  12   2   44.50    1.49
   3 -12  -2    2.22    0.36
   3 -12  -2    2.10    0.35
  -3 -12   2    2.15    0.42
  -3 -12   2    2.04    0.39
   3  12  -2    1.74    0.32
   3  12  -2    1.49    0.33
  -3  12   2    2.22    0.29
   3  12  -2    2.06    0.48
  -3  12   2    1.89    0.30
   3  12  -2    1.86    0.36
  -2 -12   2  184.28    4.23
  -2 -12   2  185.37    4.05
   2 -12  -2  180.86    4.01
   2 -12  -2  179.93    4.17
  -2  12   2  174.49    3.85
   2  12  -2  181.49    4.03
   2  12  -2  185.11    4.23
   2  12  -2  179.26    4.04
  -2  12   2  179.91    4.12
  -2  12   2  171.50    4.12
   2  12  -2  174.79    4.11
   1 -12  -2  268.46    5.72
  -1 -12   2  266.59    5.75
  -1 -12   2  272.98    5.73
  -1 -12   2  282.60    5.97
   1 -12  -2  273.22    5.91
   1 -12  -2  263.43    5.98
  -1  12   2  273.72    5.71
   1  12  -2  280.81    5.95
  -1  12   2  285.38    5.90
  -1  12   2  270.15    5.67
  -1  12   2  272.32    5.94
   1  12  -2  272.92    5.88
   1  12  -2  273.92    5.75
   1  12  -2  237.95    6.18
   0 -12   2    0.20    0.26
   0 -12  -2    0.41    0.19
   0 -12   2    0.40    0.20
   0 -12   2    0.54    0.20
   0 -12   2    0.54    0.22
   0 -12  -2    0.77    0.23
   0 -12  -2    0.29    0.24
   0 -12   2    0.12    0.24
   0 -12   2    0.22    0.28
   0  12   2    0.47    0.26
   0  12  -2    0.37    0.20
   0  12  -2    0.74    0.28
   0  12   2    0.46    0.21
   0  12  -2    0.21    0.27
   0  12   2    0.55    0.23
   0  12  -2    0.35    0.22
  -1 -12  -2    8.75    0.52
   1 -12   2    9.44    0.61
  -1 -12  -2    9.50    0.51
   1 -12   2    9.08    0.61
  -1 -12  -2    9.73    0.65
   1 -12   2    8.61    0.49
   1 -12   2    8.35    0.55
   1 -12   2    8.34    0.58
   1 -12   2    9.26    0.56
  -1  12  -2    9.34    0.50
   1  12   2    9.25    0.59
   1  12   2    8.67    0.63
  -1  12  -2    8.97    0.59
   2 -12   2   -0.21    0.22
   2 -12   2    0.11    0.27
  -2 -12  -2   -0.11    0.16
  -2 -12  -2   -0.28    0.18
   2 -12   2   -0.13    0.16
   2 -12   2    0.10    0.20
  -2 -12  -2    0.05    0.31
   2  12   2    0.26    0.24
   2  12   2   -0.19    0.23
   2  12   2    0.02    0.24
  -2  12  -2   -0.12    0.19
  -2  12  -2   -0.14    0.19
   3 -12   2   47.66    1.22
  -3 -12  -2   47.39    1.26
  -3 -12  -2   47.57    1.22
   3 -12   2   47.23    1.41
   3 -12   2   43.92    1.44
  -3 -12  -2   49.49    1.66
  -3 -12  -2   47.24    1.46
   3  12   2   46.59    1.51
   3  12   2   48.83    1.61
   3  12   2   48.15    1.67
  -3  12  -2   46.49    1.22
  -4 -12  -2   79.72    1.80
   4 -12   2   81.95    2.12
  -4 -12  -2   77.98    2.39
   4 -12   2   78.07    2.48
   4  12   2   78.59    2.33
   4  12   2   81.25    2.32
   4  12   2   80.63    2.23
  -5 -12  -2   36.30    1.53
   5 -12   2   35.70    1.38
   5  12   2   38.02    1.68
   5  12   2   37.80    1.53
   5  12   2   35.75    1.34
   6 -12   2    1.51    0.47
  -6 -12  -2   -0.18    0.56
   6  12   2   -0.08    0.60
   6  12   2    0.52    0.45
   6  12   2    0.60    0.47
   7 -13  -2    2.59    0.59
   7  13  -2    2.81    0.84
   7  13  -2    3.06    0.78
   7  13  -2    2.59    0.64
   6 -13  -2   10.15    0.83
  -6 -13   2    9.20    0.79
  -6 -13   2    9.55    0.81
   6  13  -2    9.59    0.85
   6  13  -2    9.27    0.97
   6  13  -2    9.18    0.94
  -5 -13   2    7.44    0.70
  -5 -13   2    7.65    0.81
   5 -13  -2    7.50    0.70
   5  13  -2    7.52    1.08
   5  13  -2    7.38    0.78
  -5  13   2    7.85    0.77
   5  13  -2    6.99    0.69
  -4 -13   2    0.97    0.41
   4 -13  -2    1.71    0.37
  -4 -13   2    0.95    0.35
  -4 -13   2    0.86    0.32
   4 -13  -2    0.55    0.38
   4  13  -2    0.16    0.30
  -4  13   2    1.05    0.20
   4  13  -2    0.42    0.31
  -4  13   2    1.38    0.35
   4  13  -2    0.97    0.32
   4  13  -2    1.27    0.41
  -3 -13   2    5.72    0.65
   3 -13  -2    5.37    0.65
   3 -13  -2    6.15    0.57
  -3 -13   2    6.78    0.68
  -3 -13   2    5.95    0.59
  -3  13   2    6.74    0.41
   3  13  -2    6.02    0.60
  -3  13   2    6.24    0.57
   3  13  -2    6.24    0.60
   3  13  -2    7.72    0.71
   3  13  -2    6.04    0.61
   2 -13  -2  117.92    3.04
   2 -13  -2  120.84    2.90
  -2 -13   2  119.48    2.94
  -2 -13   2  119.33    2.92
  -2 -13   2  122.79    3.11
  -2  13   2  117.19    2.73
  -2  13   2  118.53    3.05
   2  13  -2  122.00    3.02
  -2  13   2  122.61    3.03
   2  13  -2  120.10    3.10
   2  13  -2  121.48    2.94
   1 -13  -2   13.68    0.70
  -1 -13   2   15.03    0.76
  -1 -13   2   14.40    0.84
  -1 -13   2   15.05    0.72
   1 -13  -2   13.03    0.83
   1  13  -2   14.38    0.73
   1  13  -2   12.52    0.81
  -1  13   2   14.41    0.71
  -1  13   2   13.83    0.78
  -1  13   2   14.28    0.78
   1  13  -2   14.46    0.83
  -1  13   2   15.90    0.69
   0 -13   2   54.07    1.50
   0 -13   2   53.03    1.56
   0 -13  -2   53.52    2.04
   0 -13  -2   54.07    1.51
   0 -13   2   50.98    1.65
   0  13  -2   53.81    1.52
   0  13   2   51.64    1.52
   0  13  -2   52.60    1.66
   0  13  -2   48.46    1.47
   0  13   2   55.02    1.65
   0  13   2   49.96    1.63
   1 -13   2   40.01    1.37
   1 -13   2   38.67    1.35
   1 -13   2   38.53    1.18
   1 -13   2   39.26    1.27
  -1 -13  -2   38.98    1.21
  -1  13  -2   38.74    1.35
   1  13   2   39.60    1.41
   1  13   2   41.32    1.32
   1  13   2   41.85    1.39
  -1  13  -2   37.95    1.19
  -2 -13  -2    2.60    0.37
   2 -13   2    3.47    0.36
  -2 -13  -2    3.37    0.51
   2 -13   2    2.88    0.39
   2 -13   2    3.59    0.48
  -2 -13  -2    2.76    0.40
  -2  13  -2    2.86    0.37
   2  13   2    2.57    0.42
  -2  13  -2    3.65    0.46
   2  13   2    2.55    0.40
   2  13   2    3.57    0.53
   3 -13   2    0.76    0.29
   3 -13   2    0.54    0.28
  -3 -13  -2    0.68    0.20
  -3 -13  -2    0.38    0.37
   3 -13   2    0.89    0.21
  -3 -13  -2    0.97    0.24
  -3  13  -2    0.58    0.20
   3  13   2    1.23    0.38
   3  13   2    0.61    0.30
  -4 -13  -2    7.51    0.83
  -4 -13  -2    7.34    0.45
   4  13   2    8.98    0.85
   4  13   2    8.19    0.70
   5 -13   2   -0.05    0.37
  -5 -13  -2    0.44    0.50
   5  13   2   -0.37    0.35
   5  13   2    0.04    0.46
   5  13   2   -0.10    0.35
  -6 -14   2    0.21    0.43
   6 -14  -2    0.31    0.42
  -6 -14   2    0.88    0.47
   6  14  -2    0.93    0.50
   6  14  -2    0.90    0.55
   6  14  -2    0.98    0.52
  -5 -14   2    7.62    0.74
   5 -14  -2    7.01    0.73
  -5 -14   2    8.96    0.90
   5  14  -2    7.67    0.75
   5  14  -2    7.97    0.89
   5  14  -2    8.56    0.88
  -4 -14   2    0.96    0.35
   4 -14  -2    1.02    0.35
  -4 -14   2    0.91    0.39
  -4 -14   2    1.55    0.39
   4 -14  -2    1.78    0.46
   4  14  -2    1.56    0.39
   4  14  -2    1.05    0.37
  -4  14   2    1.54    0.38
   4  14  -2    0.76    0.49
  -4  14   2    1.63    0.25
   4  14  -2    0.99    0.37
   3 -14  -2   -0.17    0.35
   3 -14  -2    0.21    0.26
  -3 -14   2   -0.13    0.27
  -3 -14   2   -0.20    0.33
  -3 -14   2    0.45    0.30
   3  14  -2   -0.12    0.27
   3  14  -2    0.20    0.29
   3  14  -2    0.24    0.34
  -3  14   2    0.02    0.21
  -3  14   2   -0.11    0.26
   3  14  -2    0.29    0.36
   2 -14  -2   -0.18    0.26
   2 -14  -2   -0.16    0.29
  -2 -14   2    0.04    0.25
  -2 -14   2    0.51    0.31
  -2 -14   2    0.31    0.33
  -2  14   2    0.01    0.25
   2  14  -2   -0.17    0.28
  -2  14   2   -0.01    0.24
  -2  14   2   -0.13    0.31
   2  14  -2    0.32    0.25
   2  14  -2    0.07    0.39
  -1 -14   2   60.36    1.92
  -1 -14   2   62.49    1.82
  -1 -14   2   63.57    1.78
   1 -14  -2   59.19    1.96
   1 -14  -2   61.78    1.75
   1  14  -2   62.32    1.78
  -1  14   2   63.21    1.75
   1  14  -2   62.03    1.92
  -1  14   2   61.33    1.87
  -1  14   2   59.23    1.88
   0 -14   2    0.05    0.25
   0 -14   2   -0.18    0.21
   0 -14   2    0.01    0.25
   0 -14  -2    0.28    0.23
   0  14   2    0.10    0.29
   0  14  -2    0.07    0.25
   0  14   2    0.29    0.27
   0  14  -2   -0.29    0.25
   0  14   2    0.29    0.26
  -1 -14  -2   17.99    0.80
   1 -14   2   17.73    0.91
   1 -14   2   17.36    0.91
   1 -14   2   17.35    0.85
   1 -14   2   18.65    0.76
   1  14   2   17.52    0.93
  -1  14  -2   16.98    0.98
   1  14   2   17.97    0.96
   1  14   2   18.16    0.88
  -1  14  -2   16.70    0.80
   2 -14   2    4.42    0.42
  -2 -14  -2    4.43    0.45
   2 -14   2    3.66    0.48
   2 -14   2    3.60    0.54
  -2 -14  -2    4.11    0.60
  -2  14  -2    3.99    0.44
   2  14   2    5.23    0.60
   2  14   2    3.10    0.47
  -2  14  -2    5.14    0.73
   2  14   2    4.07    0.60
  -3 -14  -2   -0.24    0.38
  -3 -14  -2    0.60    0.30
   3 -14   2    0.08    0.30
  -3 -14  -2    0.67    0.23
   3  14   2   -0.01    0.38
   3  14   2    0.25    0.30
   4 -14   2    0.48    0.36
  -4 -14  -2    1.11    0.44
   4  14   2    0.61    0.32
   4  14   2    0.31    0.41
   5 -14   2    2.39    0.50
  -5 -14  -2    3.57    0.65
   5  14   2    2.74    0.55
   5  14   2    3.11    0.66
  -6 -15   2    0.03    0.48
  -6 -15   2   -0.30    0.45
   6 -15  -2    0.38    0.50
   6  15  -2   -0.67    0.52
   6  15  -2    0.03    0.59
   6  15  -2   -0.93    0.56
   5 -15  -2    3.71    0.54
  -5 -15   2    4.21    0.55
   5  15  -2    3.72    0.60
   5  15  -2    2.98    0.63
   5  15  -2    3.73    0.60
  -4 -15   2    4.85    0.64
   4 -15  -2    4.54    0.63
  -4 -15   2    5.02    0.66
  -4 -15   2    5.19    0.66
  -4  15   2    3.44    0.53
   4  15  -2    4.35    0.68
   4  15  -2    3.91    0.54
   4  15  -2    4.91    0.65
  -3 -15   2    0.39    0.30
   3 -15  -2    0.37    0.36
  -3 -15   2    0.00    0.30
   3 -15  -2    0.45    0.38
  -3 -15   2    0.39    0.39
  -3  15   2    0.13    0.29
  -3  15   2    0.55    0.25
   3  15  -2   -0.46    0.37
   3  15  -2    0.09    0.27
   3  15  -2    0.18    0.42
   3  15  -2    0.52    0.32
   2 -15  -2    0.71    0.58
   2 -15  -2    0.34    0.26
  -2 -15   2    0.24    0.30
  -2 -15   2    0.57    0.35
  -2 -15   2    0.19    0.31
   2  15  -2   -0.15    0.30
   2  15  -2    0.47    0.32
  -2  15   2    0.81    0.34
  -1 -15   2    0.46    0.28
  -1 -15   2    0.23    0.28
  -1 -15   2    0.38    0.29
  -1  15   2    0.19    0.32
   1  15  -2    0.50    0.28
   1  15  -2    0.56    0.32
  -1  15   2    0.40    0.36
  -1  15   2    0.46    0.43
   0 -15   2   10.46    0.73
   0 -15   2   11.12    0.82
   0 -15   2   10.07    0.68
   0 -15  -2   11.30    0.69
   0  15   2    9.56    0.77
   0  15  -2    8.84    0.72
   0  15   2    9.72    0.76
   0  15  -2   11.15    0.70
   1 -15   2   22.06    1.06
   1 -15   2   22.11    1.09
   1 -15   2   23.37    1.02
   1 -15   2   22.87    0.90
  -1 -15  -2   23.07    0.96
  -1  15  -2   21.63    1.09
   1  15   2   22.43    1.02
   1  15   2   25.14    1.44
   1  15   2   21.18    1.09
  -2 -15  -2    1.70    0.43
   2 -15   2    1.96    0.37
  -2 -15  -2    1.57    0.31
   2 -15   2    2.14    0.50
   2  15   2    0.81    0.46
  -2  15  -2    1.33    0.37
   2  15   2    1.85    0.41
   2  15   2    1.46    0.39
  -2  15  -2    1.66    0.37
   3 -15   2   -0.30    0.31
  -3 -15  -2    0.01    0.40
  -3 -15  -2   -0.33    0.25
   3  15   2    0.40    0.40
   3  15   2    0.51    0.32
   4 -15   2   -0.22    0.37
  -4 -15  -2    1.14    0.51
   4  15   2   -0.22    0.46
   4  15   2    0.27    0.39
  -5 -15  -2    3.50    0.68
   5 -15   2    3.67    0.58
   5  15   2    3.78    0.76
   5  15   2    3.62    0.68
  -6 -16   2   -0.07    0.52
   6 -16  -2    0.34    0.66
  -6 -16   2    0.58    0.54
   6  16  -2    1.03    0.75
   6  16  -2    0.22    0.80
   5 -16  -2    0.17    0.43
  -5 -16   2   -0.61    0.39
   5  16  -2    0.22    0.46
   5  16  -2    0.54    0.55
   5  16  -2   -0.19    0.46
  -4 -16   2   -0.44    0.48
  -4 -16   2   -0.28    0.35
   4 -16  -2    0.12    0.38
   4  16  -2   -0.82    0.43
   4  16  -2    0.23    0.36
  -4  16   2    0.14    0.40
   4  16  -2    0.83    0.42
   3 -16  -2    2.50    0.63
  -3 -16   2    2.01    0.45
   3 -16  -2    2.14    0.44
  -3 -16   2    1.13    0.40
  -3 -16   2    2.15    0.42
   3  16  -2    2.49    0.43
  -3  16   2    1.85    0.44
   3  16  -2    1.71    0.48
  -2 -16   2    6.82    0.71
  -2 -16   2    8.75    0.83
  -2 -16   2    7.06    0.69
   2 -16  -2    8.49    0.70
   2  16  -2    8.28    0.70
   2  16  -2    7.74    0.82
  -2  16   2    8.87    0.77
  -1 -16   2   20.21    1.00
  -1 -16   2   18.83    0.94
  -1 -16   2   17.61    1.06
   1  16  -2   18.94    0.94
  -1  16   2   19.85    0.91
  -1  16   2   21.48    1.73
  -1  16   2   17.11    0.99
   1  16  -2   18.46    1.07
   0 -16  -2   -0.05    0.26
   0 -16   2   -0.40    0.45
   0 -16   2   -0.26    0.30
   0 -16   2   -0.29    0.27
   0  16  -2   -0.16    0.29
   0  16   2   -0.54    0.42
   0  16   2   -0.28    0.26
   0  16  -2   -0.06    0.27
   0  16   2    0.14    0.29
   1 -16   2    0.69    0.32
   1 -16   2    1.81    0.63
   1 -16   2    1.07    0.36
   1 -16   2    0.50    0.31
  -1 -16  -2    0.95    0.52
  -1  16  -2    1.49    0.41
   1  16   2    1.05    0.41
   1  16   2    1.40    0.47
   1  16   2    0.68    0.32
   2 -16   2    1.96    0.42
  -2 -16  -2    2.89    0.40
  -2 -16  -2    2.55    0.50
   2  16   2    2.92    0.49
   2  16   2    2.67    0.51
   3 -16   2    0.26    0.37
  -3 -16  -2   -0.06    0.31
  -3 -16  -2    0.32    0.46
   3  16   2   -0.33    0.38
   3  16   2    0.69    0.36
  -4 -16  -2    5.97    0.76
   4 -16   2    5.11    0.76
   4  16   2    3.62    0.68
   4  16   2    4.08    0.58
   5 -17  -2   13.18    1.07
  -5 -17   2    8.14    0.92
   5  17  -2   10.34    1.07
   5  17  -2   10.24    1.14
   5  17  -2   10.98    1.21
  -4 -17   2    0.10    0.47
  -4 -17   2    1.62    0.64
   4 -17  -2    0.87    0.45
   4  17  -2    1.12    0.50
   4  17  -2    1.47    0.51
   4  17  -2    2.05    0.51
   3 -17  -2   10.40    0.84
  -3 -17   2   11.56    1.02
  -3 -17   2   11.25    0.87
   3  17  -2   11.61    0.85
   3  17  -2   11.26    1.03
  -3  17   2   10.33    0.91
  -2 -17   2   26.82    1.19
  -2 -17   2   25.90    1.31
   2 -17  -2   26.32    1.14
  -2 -17   2   24.81    1.15
  -2  17   2   26.11    1.24
   2  17  -2   26.76    1.37
   2  17  -2   25.74    1.15
  -1 -17   2    7.05    0.77
   1 -17  -2    7.54    0.68
  -1 -17   2    8.27    0.73
  -1 -17   2    6.74    1.00
   1  17  -2    8.18    0.71
   1  17  -2    8.64    0.84
  -1  17   2    7.66    0.83
  -1  17   2    7.37    0.67
   0 -17  -2    7.31    0.65
   0 -17   2    6.47    0.67
   0 -17   2    8.02    0.73
   0 -17   2    5.94    0.73
   0  17   2    7.45    0.75
   0  17  -2    7.74    0.76
   0  17  -2    6.67    0.67
   0  17   2    7.33    0.92
   0  17   2    7.92    0.70
  -1 -17  -2    0.19    0.30
   1 -17   2    0.04    0.36
  -1  17  -2    0.46    0.39
   1  17   2    0.06    0.35
   1  17   2   -0.09    0.35
   2 -17   2    0.22    0.36
  -2 -17  -2    0.64    0.34
  -2 -17  -2    0.25    0.44
   2  17   2    0.52    0.43
   2  17   2    0.09    0.37
   3 -17   2    1.81    0.48
  -3 -17  -2    2.32    0.62
  -3 -17  -2    1.86    0.41
   3  17   2    1.64    0.53
   3  17   2    2.44    0.53
  -4 -17  -2    2.71    0.65
   4 -17   2    3.25    0.84
   4  17   2    2.44    0.61
   4  17   2    2.49    0.67
  -4 -18   2    0.87    0.49
   4 -18  -2    0.62    0.51
   4  18  -2    0.70    0.51
   4  18  -2    0.30    0.54
   3 -18  -2    4.29    0.58
  -3 -18   2    4.21    0.61
  -3 -18   2    4.06    0.68
   3  18  -2    4.86    0.67
   3  18  -2    4.20    0.59
  -3  18   2    3.83    0.57
  -2 -18   2    0.04    0.39
   2 -18  -2    0.76    0.39
  -2 -18   2    0.21    0.40
   2  18  -2   -0.53    0.33
   2  18  -2    0.54    0.48
  -2  18   2    0.94    0.46
   1 -18  -2    0.27    0.34
  -1 -18   2    0.42    0.38
  -1 -18   2    0.28    0.39
   1  18  -2   -0.08    0.39
  -1  18   2    0.29    0.41
   1  18  -2   -0.05    0.34
  -1  18   2    0.14    0.32
   0 -18   2    5.41    0.73
   0 -18   2    2.93    0.50
   0 -18  -2    6.04    0.66
   0  18  -2    3.70    0.53
   0  18   2    5.29    0.71
   0  18  -2    4.48    0.63
   0  18   2    4.93    0.74
  -1 -18  -2    2.90    0.43
   1 -18   2    3.03    0.47
   1  18   2    1.52    0.47
   1  18   2    3.50    0.56
   2 -18   2    1.66    0.47
  -2 -18  -2    1.91    0.41
  -2 -18  -2    2.16    0.62
   2  18   2    2.19    0.52
   2  18   2    1.63    0.48
   3 -18   2    0.92    0.47
  -3 -18  -2   -0.11    0.37
  -3 -18  -2   -0.58    0.60
   3  18   2    0.31    0.48
   3  18   2    0.20    0.56
  -4 -19   2    0.54    0.55
   4 -19  -2    0.61    0.70
   4  19  -2   -0.06    0.64
   4  19  -2    1.85    0.65
   3 -19  -2    3.29    0.59
  -3 -19   2    2.46    0.56
  -3 -19   2    3.27    0.74
  -3  19   2    3.26    0.75
   3  19  -2    3.87    0.64
   3  19  -2    2.40    0.66
   2 -19  -2   -0.22    0.40
  -2 -19   2    0.37    0.44
  -2 -19   2    0.47    0.51
  -2  19   2    0.19    0.53
   2  19  -2    0.26    0.97
   2  19  -2   -0.14    0.40
  -1 -19   2   -0.66    0.38
  -1 -19   2   -0.18    0.41
   1 -19  -2   -0.12    0.38
   1  19  -2    0.73    0.41
  -1  19   2   -0.25    0.45
   1  19  -2   -0.15    0.48
  -1  19   2    0.67    0.39
   0 -19  -2    2.66    0.48
   0 -19   2    1.64    0.51
   0 -19   2    0.52    0.44
   0  19   2    1.68    0.49
   0  19  -2    3.02    0.75
   0  19  -2    2.14    0.46
   0  19   2    1.75    0.44
   1 -19   2    1.71    0.51
  -1 -19  -2    1.62    0.42
  -1 -19  -2    3.47    0.65
   1  19   2    1.44    0.49
   1  19   2    1.23    0.51
   2 -19   2    0.17    0.46
  -2 -19  -2   -0.13    0.56
  -2 -19  -2   -0.08    0.39
   2  19   2    0.16    0.48
   2  19   2    0.58    0.51
  -3 -19  -2    3.39    0.86
  -3 -19  -2    2.79    0.72
   3 -19   2    1.77    0.59
   3  19   2    1.95    0.86
   3  19   2    2.51    0.73
   3 -20  -2    1.50    0.69
  -3 -20   2    0.87    0.61
  -3 -20   2    0.73    0.66
   3  20  -2   -0.17    0.67
   3  20  -2    0.93    0.61
  -2 -20   2   -0.23    0.60
  -2 -20   2    0.01    0.54
   2 -20  -2    0.32    0.52
   2  20  -2    0.39    0.64
   2  20  -2    0.24    0.48
  -2  20   2   -0.77    0.54
   1 -20  -2    0.83    0.50
  -1 -20   2    0.43    0.51
  -1 -20   2    0.00    0.46
   1  20  -2    1.25    0.62
  -1  20   2    1.08    0.48
   1  20  -2    0.96    0.47
  -1  20   2    0.70    0.42
   0 -20  -2    0.41    0.46
   0 -20   2    0.30    0.45
   0 -20   2    1.12    0.55
   0  20   2    0.66    0.50
   0  20   2    0.37    0.50
   0  20  -2    1.01    0.43
   1 -20   2    6.45    0.93
  -1 -20  -2    8.24    1.09
  -1 -20  -2    6.20    0.79
   1  20   2    6.69    1.01
   1  20   2    7.38    0.95
  -2 -20  -2   -0.37    0.44
   2 -20   2   -0.43    0.67
  -2 -20  -2    0.69    0.80
   2  20   2   -0.33    0.66
   2  20   2   -0.01    0.60
  -1 -21   2    3.22    0.84
  -1 -21   2    3.85    0.66
   1 -21  -2    3.49    0.72
   1  21  -2    4.43    0.76
  -1  21   2    3.79    0.74
  -1  21   2    3.64    0.74
   0 -21  -2    1.45    0.57
   0 -21   2    1.34    0.86
   0  21   2    0.81    0.65
   0  21   2    0.45    0.54
   0  21  -2    0.39    0.52
   8   0  -3    0.98    0.41
   8   0  -3   -0.29    0.31
  -7   0   3   -0.27    0.29
  -7   0   3    0.37    0.21
   7   0  -3   -0.30    0.21
   7   0  -3   -0.31    0.31
   7   0  -3    0.10    0.25
  -6   0   3   -0.14    0.26
   6   0  -3    0.12    0.17
  -6   0   3    0.23    0.17
   6   0  -3   -0.12    0.23
   6   0  -3   -0.15    0.26
  -5   0   3   -0.47    0.25
  -5   0   3   -0.04    0.16
   5   0  -3   -0.25    0.21
  -5   0   3   -0.21    0.15
   5   0  -3    0.32    0.16
   5   0  -3   -0.16    0.17
   5   0  -3   -0.04    0.23
  -4   0   3   -0.11    0.11
   4   0  -3   -0.08    0.12
  -4   0   3    0.07    0.14
   4   0  -3   -0.13    0.14
   4   0  -3    0.03    0.12
   4   0  -3    0.05    0.13
  -4   0   3    0.05    0.19
   3   0  -3   -0.18    0.13
  -3   0   3    0.30    0.14
   3   0  -3   -0.03    0.13
  -3   0   3    0.00    0.12
   3   0  -3    0.08    0.12
  -3   0   3   -0.05    0.17
  -2   0   3   -0.11    0.11
   2   0  -3   -0.19    0.10
   2   0  -3   -0.16    0.10
   2   0  -3   -0.07    0.10
  -2   0   3   -0.24    0.11
  -2   0   3    0.03    0.12
   2   0  -3   -0.14    0.08
  -2   0   3    0.01    0.14
   1   0  -3    0.09    0.09
   1   0  -3    0.10    0.10
  -1   0   3    0.00    0.10
  -1   0   3   -0.20    0.09
  -1   0   3   -0.11    0.12
   1   0  -3    0.07    0.13
  -1   0   3   -0.06    0.10
   1   0  -3   -0.16    0.12
   0   0   3   -0.03    0.07
   0   0  -3   -0.27    0.13
   0   0   3   -0.11    0.11
   0   0  -3   -0.10    0.04
   0   0  -3   -0.08    0.09
   0   0   3   -0.04    0.13
   0   0  -3   -0.12    0.07
   0   0   3   -0.16    0.07
   1   0   3   -0.03    0.04
  -1   0  -3   -0.06    0.13
   1   0   3    0.03    0.06
   1   0   3   -0.04    0.13
  -1   0  -3   -0.06    0.05
   1   0   3    0.04    0.12
   1   0   3    0.04    0.08
  -2   0  -3    0.01    0.16
   2   0   3   -0.24    0.11
   2   0   3   -0.12    0.15
   2   0   3    0.27    0.14
   3   0   3    0.29    0.21
  -3   0  -3    0.10    0.23
   3   0   3    0.64    0.20
   3   0   3    0.02    0.19
   4   0   3   -0.07    0.28
   4   0   3   -0.43    0.24
  -4   0  -3    0.02    0.27
   5   0   3   -0.15    0.20
   5   0   3    0.18    0.29
   6   0   3    0.42    0.43
   6   0   3   -0.54    0.26
   7   0   3   -0.40    0.56
   8  -1  -3    0.18    0.41
   8  -1  -3    0.05    0.32
   8   1  -3    0.26    0.37
   8   1  -3    0.87    0.42
   7  -1  -3    0.18    0.32
   7  -1  -3    0.12    0.23
  -7  -1   3    0.07    0.21
   7   1  -3   -0.04    0.22
  -7   1   3    0.16    0.20
   7   1  -3    0.11    0.30
   7   1  -3   -0.13    0.27
  -7   1   3    0.26    0.33
  -6  -1   3   26.76    1.04
  -6  -1   3   28.76    0.89
  -6  -1   3   30.36    1.22
   6  -1  -3   27.45    1.00
   6  -1  -3   28.21    1.12
   6  -1  -3   28.08    0.84
  -6   1   3   27.76    0.84
   6   1  -3   27.94    1.23
   6   1  -3   26.66    1.11
  -6   1   3   29.97    1.64
   6   1  -3   28.60    0.88
  -6   1   3   26.92    1.12
   6   1  -3   28.81    1.02
   5  -1  -3    4.36    0.48
   5  -1  -3    5.30    0.45
   5  -1  -3    5.83    0.35
  -5  -1   3    4.95    0.39
  -5  -1   3    6.14    0.39
  -5  -1   3    4.47    0.58
   5  -1  -3    5.02    0.49
   5   1  -3    4.93    0.50
  -5   1   3    5.58    0.60
   5   1  -3    5.78    0.37
  -5   1   3    4.99    0.40
   5   1  -3    5.69    0.50
  -5   1   3    5.89    0.38
   5   1  -3    5.06    0.44
  -4  -1   3    5.67    0.36
  -4  -1   3    5.74    0.47
   4  -1  -3    5.78    0.33
   4  -1  -3    5.46    0.42
  -4  -1   3    6.38    0.38
  -4  -1   3    5.88    0.21
   4  -1  -3    6.16    0.39
   4   1  -3    5.84    0.43
   4   1  -3    5.57    0.37
  -4   1   3    6.48    0.46
   4   1  -3    5.65    0.34
  -4   1   3    5.80    0.36
  -4   1   3    6.33    0.36
   4   1  -3    5.93    0.39
   3  -1  -3  689.41   13.43
   3  -1  -3  688.31   13.31
  -3  -1   3  684.39   13.42
   3  -1  -3  657.99   13.32
  -3  -1   3  679.22   13.34
  -3  -1   3  659.90   13.32
  -3   1   3  686.16   13.41
   3   1  -3  681.69   13.41
   3   1  -3  693.59   13.34
  -3   1   3  679.53   13.35
  -3   1   3  674.16   13.30
   2  -1  -3  540.60   10.43
  -2  -1   3  533.17   10.40
   2  -1  -3  534.92   10.47
  -2  -1   3  530.17   10.44
  -2  -1   3  519.13   10.45
   2   1  -3  526.80   10.38
   2   1  -3  519.27   10.43
  -2   1   3  530.78   10.45
  -2   1   3  528.52   10.47
   2   1  -3  534.03   10.46
  -2   1   3  529.15   10.39
  -2   1   3  519.62   10.41
   1  -1  -3   85.70    1.92
  -1  -1   3   87.54    1.92
  -1  -1   3   86.88    1.94
   1  -1  -3   85.46    1.94
  -1  -1   3   84.25    1.88
   1  -1  -3   82.08    1.87
   1  -1  -3   83.81    1.68
  -1  -1   3   79.38    1.85
  -1   1   3   85.16    1.94
  -1   1   3   83.92    1.87
   1   1  -3   86.29    1.87
   1   1  -3   84.61    1.92
  -1   1   3   83.83    1.83
  -1   1   3   82.58    1.90
   0  -1   3   11.44    0.39
   0  -1  -3   10.58    0.52
   0  -1  -3   10.49    0.29
   0  -1  -3   11.10    0.37
   0  -1   3   10.73    0.34
   0  -1  -3   10.23    0.27
   0  -1   3   11.01    0.50
   0  -1   3   10.43    0.44
   0   1   3   10.97    0.34
   0   1  -3    9.96    0.29
   0   1   3   11.23    0.38
   0   1   3   10.19    0.49
   0   1  -3   10.54    0.37
   0   1  -3    9.96    0.49
   0   1  -3   11.11    0.45
   0   1   3    9.96    0.46
   1  -1   3  101.33    2.13
  -1  -1  -3  105.46    2.09
  -1  -1  -3  103.70    2.40
   1  -1   3  100.51    2.07
   1  -1   3  104.05    2.10
   1  -1   3  102.57    2.28
  -1   1  -3  103.96    2.39
  -1   1  -3  102.35    2.07
   1   1   3  103.29    2.40
   1   1   3  100.37    2.30
   1   1   3  103.75    2.14
   1   1   3  101.02    2.05
   1   1   3  102.64    2.09
  -2  -1  -3   12.57    0.61
   2  -1   3   12.68    0.49
   2  -1   3   13.19    0.61
   2  -1   3   12.56    0.51
  -2   1  -3   12.51    0.60
   2   1   3   12.88    0.54
   2   1   3   12.85    0.49
   2   1   3   12.81    0.60
   3  -1   3  234.08    4.89
   3  -1   3  229.19    4.83
   3  -1   3  237.60    5.07
  -3  -1  -3  234.81    5.05
   3   1   3  235.00    4.90
  -3   1  -3  232.43    5.01
   3   1   3  230.83    5.02
   3   1   3  234.82    4.90
   4  -1   3  513.15   10.60
   4  -1   3  510.13   10.33
   4  -1   3  522.27   10.50
  -4  -1  -3  525.56   10.81
   4   1   3  525.53   10.52
   4   1   3  516.08   10.58
   4   1   3  521.56   10.41
  -5  -1  -3   18.21    0.86
   5  -1   3   17.36    0.68
   5  -1   3   17.33    0.89
   5   1   3   17.61    0.75
   5   1   3   17.45    0.54
   5   1   3   17.76    0.90
   6  -1   3   11.65    0.63
   6  -1   3   11.94    0.89
   6   1   3   12.51    0.94
   6   1   3   12.48    0.67
   7  -1   3    1.27    0.59
   7   1   3   -0.44    0.56
   8  -2  -3   24.19    1.22
   8  -2  -3   23.52    1.06
   8   2  -3   23.47    1.21
   8   2  -3   24.02    1.43
  -7  -2   3   28.40    0.97
  -7  -2   3   27.55    1.38
   7  -2  -3   29.50    1.22
   7  -2  -3   30.68    1.24
   7   2  -3   29.43    1.14
  -7   2   3   28.87    1.18
   7   2  -3   28.85    1.21
  -7   2   3   29.14    0.84
   7   2  -3   29.59    0.95
   6  -2  -3  249.16    5.42
  -6  -2   3  248.75    5.17
   6  -2  -3  246.16    5.02
   6  -2  -3  245.21    5.27
  -6  -2   3  265.98    5.47
  -6  -2   3  258.41    5.47
  -6   2   3  240.79    5.02
   6   2  -3  250.61    5.43
   6   2  -3  248.76    5.15
   6   2  -3  251.60    5.28
  -6   2   3  230.21    5.60
  -6   2   3  215.25    5.61
   6   2  -3  256.42    5.42
  -5  -2   3  518.11   10.32
  -5  -2   3  496.56   10.08
   5  -2  -3  514.74   10.31
   5  -2  -3  500.50    9.98
  -5  -2   3  502.06   10.13
   5  -2  -3  505.19   10.24
   5  -2  -3  507.89   10.17
   5   2  -3  505.47   10.24
   5   2  -3  519.76   10.27
  -5   2   3  497.41    9.97
   5   2  -3  508.87   10.10
  -5   2   3  503.57   10.13
   5   2  -3  492.84   10.14
  -5   2   3  506.22   10.24
  -4  -2   3   48.48    1.09
   4  -2  -3   50.27    1.23
   4  -2  -3   48.90    1.31
  -4  -2   3   49.22    1.41
  -4  -2   3   50.34    1.30
  -4  -2   3   47.59    1.29
   4  -2  -3   49.92    1.40
   4  -2  -3   49.88    1.08
   4   2  -3   49.46    1.31
   4   2  -3   51.20    1.35
  -4   2   3   49.42    1.31
  -4   2   3   49.07    1.23
  -4   2   3   53.72    1.42
   4   2  -3   47.02    1.38
   4   2  -3   49.55    1.29
   3  -2  -3    9.40    0.46
  -3  -2   3    9.90    0.43
   3  -2  -3    9.92    0.51
   3  -2  -3   10.43    0.40
  -3  -2   3   10.34    0.47
  -3  -2   3    9.93    0.53
  -3  -2   3    9.88    0.39
   3  -2  -3    9.93    0.43
   3   2  -3   10.73    0.46
  -3   2   3    9.32    0.51
  -3   2   3   10.34    0.44
   3   2  -3    9.54    0.48
   3   2  -3   10.58    0.46
   3   2  -3    9.75    0.45
   2  -2  -3   10.28    0.59
   2  -2  -3    9.22    0.41
  -2  -2   3    9.78    0.45
  -2  -2   3    9.42    0.34
  -2  -2   3    9.01    0.45
   2  -2  -3    9.47    0.45
   2  -2  -3    9.13    0.41
  -2  -2   3    8.07    0.45
  -2  -2   3    8.94    0.38
  -2   2   3   10.34    0.42
  -2   2   3    9.51    0.45
  -2   2   3    9.32    0.41
   2   2  -3    9.98    0.43
   2   2  -3    9.61    0.36
  -2   2   3    9.28    0.40
   2   2  -3    9.26    0.42
   2   2  -3    9.09    0.39
   1  -2  -3  853.99   16.70
  -1  -2  -3  724.66   14.18
   1  -2   3  727.36   14.17
   1   2   3  705.05   14.06
  -1   2  -3  720.28   14.03
   1   2   3  699.16   14.14
  -1   2  -3  716.64   14.13
   2  -2   3   34.55    0.96
  -2  -2  -3   34.27    1.11
   2  -2   3   35.76    1.11
   2  -2   3   35.53    0.95
   2   2   3   35.41    0.76
   2   2   3   32.84    1.07
   2   2   3   35.45    1.04
   2   2   3   35.39    0.77
   2   2   3   36.13    0.96
   2   2   3   36.08    0.79
   2   2   3   35.02    0.77
   3  -2   3    3.40    0.41
   3  -2   3    2.48    0.36
   3  -2   3    3.59    0.32
  -3  -2  -3    3.06    0.45
   3   2   3    2.72    0.39
   3   2   3    2.59    0.36
   4  -2   3   65.16    1.90
   4  -2   3   65.69    1.82
   4  -2   3   66.85    1.80
  -4  -2  -3   67.09    2.16
   4   2   3   68.96    1.75
   4   2   3   65.34    1.41
   4   2   3   65.06    1.84
   4   2   3   66.66    1.82
   5  -2   3   23.04    0.77
   5  -2   3   22.89    0.67
  -5  -2  -3   23.51    1.00
   5  -2   3   24.95    1.04
   5   2   3   23.45    0.89
   5   2   3   23.42    1.04
   5   2   3   23.28    0.75
   6  -2   3   15.34    1.01
   6   2   3   15.06    0.79
   6   2   3   16.09    1.04
   7  -2   3    0.86    0.56
   7   2   3    0.61    0.61
   8  -3  -3    2.02    0.42
   8  -3  -3    0.82    0.48
   8   3  -3    1.01    0.42
   8   3  -3    1.37    0.49
   7  -3  -3   41.79    1.50
   7  -3  -3   43.56    1.47
  -7  -3   3   40.25    1.25
  -7   3   3   42.68    1.45
   7   3  -3   40.35    1.23
   7   3  -3   40.58    1.49
   7   3  -3   40.83    1.35
   6  -3  -3   59.55    1.65
   6  -3  -3   58.88    1.38
  -6  -3   3   59.60    1.57
   6  -3  -3   56.89    1.75
   6  -3  -3   57.67    1.95
  -6  -3   3   59.36    1.81
   6   3  -3   59.78    1.65
   6   3  -3   60.75    1.65
   6   3  -3   58.70    1.77
  -6   3   3   56.76    1.38
   6   3  -3   59.33    1.73
  -6   3   3   58.91    1.80
  -6   3   3   59.70    1.81
   5  -3  -3    0.94    0.18
  -5  -3   3    1.60    0.36
   5  -3  -3    1.41    0.32
  -5  -3   3    1.45    0.25
   5  -3  -3    0.88    0.25
  -5  -3   3    1.05    0.22
   5   3  -3    1.04    0.28
  -5   3   3    2.02    0.30
  -5   3   3    1.38    0.33
  -5   3   3    0.97    0.23
   5   3  -3    1.29    0.25
   5   3  -3    1.18    0.24
   5   3  -3    1.92    0.29
  -4  -3   3   75.54    1.62
   4  -3  -3   75.11    1.72
   4  -3  -3   74.02    1.82
  -4  -3   3   73.19    1.93
  -4  -3   3   76.24    1.82
   4  -3  -3   74.53    1.62
  -4  -3   3   70.91    1.79
   4  -3  -3   76.50    1.93
   4   3  -3   77.47    1.87
  -4   3   3   77.28    1.92
   4   3  -3   72.57    1.82
  -4   3   3   75.58    1.82
  -4   3   3   76.68    1.72
   4   3  -3   75.90    1.82
   4   3  -3   74.12    1.89
   3  -3  -3  479.35    9.54
  -3  -3   3  477.96    9.45
  -3  -3   3  476.17    9.38
   3  -3  -3  465.26    9.37
   3  -3  -3  468.63    9.43
  -3  -3   3  478.41    9.41
  -3  -3   3  480.27    9.33
  -3  -3   3  476.88    9.54
   3  -3  -3  463.60    9.33
  -3   3   3  473.61    9.51
   3   3  -3  483.85    9.51
  -3   3   3  470.80    9.44
   3   3  -3  487.02    9.46
   3   3  -3  460.80    9.41
   3   3  -3  470.67    9.40
  -3   3   3  468.73    9.36
  -2  -3   3  245.56    4.91
  -2  -3   3  238.69    5.04
   2  -3  -3  238.10    4.98
  -2  -3   3  244.73    5.08
  -2  -3   3  247.34    4.98
   2  -3  -3  246.76    5.02
  -2  -3   3  250.79    5.01
   2  -3  -3  240.84    5.07
   2   3  -3  243.44    4.99
  -2   3   3  249.38    5.01
   2   3  -3  251.77    5.06
  -2   3   3  243.50    4.98
  -2   3   3  245.00    5.06
  -2   3   3  242.79    5.00
   2   3  -3  256.13    5.05
   2   3  -3  240.77    4.91
  -1  -3   3  262.24    5.30
   1  -3  -3  262.14    5.30
  -1  -3   3  257.83    5.10
  -1  -3   3  265.50    5.34
   1  -3  -3  258.94    5.20
   1  -3  -3  256.02    5.12
  -1  -3   3  256.21    5.20
   1  -3  -3  260.58    5.35
  -1  -3   3  254.62    5.30
   1   3  -3  266.80    5.31
   1   3  -3  264.99    5.22
   1   3  -3  250.56    5.10
  -1   3   3  258.36    5.23
  -1   3   3  267.08    5.33
  -1   3   3  255.19    5.30
   1   3  -3  261.06    5.27
  -1   3   3  259.65    5.28
   0  -3  -3  234.35    4.76
   0  -3   3  234.75    4.94
   0  -3   3  240.71    4.75
   0  -3   3  241.15    4.82
   0  -3  -3  238.38    4.79
   0  -3  -3  247.45    4.89
   0  -3   3  242.80    5.04
   0  -3   3  245.90    4.89
   0   3   3  244.45    4.84
   0   3   3  240.97    4.88
   0   3   3  235.92    4.98
   0   3   3  238.20    4.77
   0   3  -3  247.26    4.95
   0   3   3  251.41    5.07
   1  -3   3    5.28    0.38
  -1  -3  -3    5.86    0.29
   1  -3   3    5.20    0.33
  -1  -3  -3    5.43    0.41
  -1  -3  -3    4.98    0.26
   1  -3   3    5.32    0.27
  -1   3  -3    5.26    0.32
   1   3   3    5.10    0.23
   1   3   3    5.33    0.39
   1   3   3    4.77    0.26
  -1   3  -3    5.46    0.25
   1   3   3    5.20    0.38
  -1   3  -3    5.34    0.22
   1   3   3    5.18    0.26
   2  -3   3   13.41    0.52
  -2  -3  -3   13.05    0.65
  -2  -3  -3   13.52    0.51
   2  -3   3   13.74    0.64
   2   3   3   12.94    0.38
   2   3   3   13.81    0.53
   2   3   3   13.70    0.40
   2   3   3   13.16    0.62
   2   3   3   13.50    0.40
  -3  -3  -3  370.47    7.45
   3  -3   3  345.03    7.12
   3  -3   3  363.82    7.43
   3   3   3  364.93    7.39
   3   3   3  341.28    6.95
   3   3   3  343.08    6.95
   3   3   3  359.47    7.26
   4  -3   3  117.58    2.95
   4  -3   3  121.34    2.64
   4  -3   3  120.40    2.45
   4  -3   3  123.28    2.87
  -4  -3  -3  121.01    2.95
   4   3   3  123.27    2.89
   4   3   3  117.86    2.92
   4   3   3  118.52    2.54
   5  -3   3   36.72    0.91
   5  -3   3   35.62    0.99
  -5  -3  -3   36.83    1.31
   5  -3   3   36.56    1.30
   5   3   3   36.64    1.33
   5   3   3   35.15    0.93
   5   3   3   31.34    1.31
  -6  -3  -3   17.12    0.91
   6  -3   3   16.25    1.04
   6   3   3   16.60    0.83
   6   3   3   16.28    1.05
   7  -3   3    1.32    0.63
   7   3   3    0.47    0.56
   8  -4  -3    6.86    0.71
   8  -4  -3    5.69    0.87
   8   4  -3    7.62    0.75
   8   4  -3    7.24    0.88
   7  -4  -3   28.58    1.23
  -7  -4   3   28.69    1.04
   7  -4  -3   30.13    1.12
  -7  -4   3   28.61    1.37
   7   4  -3   28.37    1.11
  -7   4   3   28.21    1.20
   7   4  -3   29.23    1.24
  -6  -4   3   20.40    1.02
   6  -4  -3   20.63    0.94
  -6  -4   3   21.44    0.82
   6  -4  -3   20.54    0.88
   6   4  -3   21.79    0.88
   6   4  -3   21.76    0.93
   6   4  -3   20.44    0.97
   6   4  -3   18.85    0.79
  -6   4   3   20.92    0.99
   5  -4  -3   17.62    0.46
  -5  -4   3   17.65    0.48
  -5  -4   3   18.48    0.89
  -5  -4   3   17.18    0.70
   5  -4  -3   17.06    0.74
   5  -4  -3   17.58    0.82
  -5  -4   3   19.30    0.74
  -5   4   3   18.24    0.60
  -5   4   3   16.98    0.83
   5   4  -3   19.06    0.76
  -5   4   3   15.94    0.69
   5   4  -3   19.18    0.89
   5   4  -3   17.94    0.70
   5   4  -3   17.56    0.79
   4  -4  -3   64.42    1.64
  -4  -4   3   64.33    1.71
  -4  -4   3   65.70    1.46
  -4  -4   3   63.37    1.64
  -4  -4   3   64.65    1.64
   4  -4  -3   64.85    1.74
   4  -4  -3   64.12    1.47
  -4  -4   3   67.89    1.78
   4   4  -3   62.64    1.62
  -4   4   3   64.30    1.64
   4   4  -3   64.83    1.71
  -4   4   3   65.21    1.51
   4   4  -3   66.64    1.68
  -4   4   3   65.14    1.71
   4   4  -3   63.99    1.63
  -3  -4   3   30.50    1.01
   3  -4  -3   31.42    0.87
  -3  -4   3   31.90    0.90
   3  -4  -3   30.53    0.91
   3  -4  -3   30.41    0.98
  -3  -4   3   31.58    0.94
  -3  -4   3   29.08    1.04
  -3   4   3   31.03    0.86
   3   4  -3   30.74    0.96
   3   4  -3   30.84    0.93
  -3   4   3   31.50    0.99
   3   4  -3   30.90    0.91
   3   4  -3   30.41    0.92
  -3   4   3   31.75    0.92
   2  -4  -3  706.13   13.88
  -2  -4   3  703.44   13.91
  -2  -4   3  715.26   13.84
   2  -4  -3  705.46   13.94
  -2  -4   3  701.54   13.96
   2   4  -3  711.57   13.93
  -2   4   3  702.87   13.87
   2   4  -3  710.29   13.92
  -2   4   3  715.97   13.86
  -2   4   3  700.61   13.93
  -1  -4   3  156.84    3.35
   1  -4  -3  153.23    3.38
  -1  -4   3  160.97    3.37
   1  -4  -3  153.91    3.20
  -1  -4   3  153.41    3.25
   1  -4  -3  154.13    3.25
  -1  -4   3  156.72    3.18
  -1  -4   3  158.12    3.36
   1  -4  -3  158.62    3.34
  -1   4   3  155.43    3.28
   1   4  -3  160.26    3.32
   1   4  -3  159.98    3.27
   1   4  -3  154.32    3.17
   1   4  -3  155.23    3.38
  -1   4   3  156.70    3.34
  -1   4   3  156.65    3.34
  -1   4   3  158.91    3.36
   0  -4   3  113.72    2.48
   0  -4  -3  112.39    2.62
   0  -4  -3  117.06    2.40
   0  -4  -3  117.50    2.50
   0  -4   3  111.49    2.51
   0  -4   3  114.04    2.60
   0  -4   3  112.73    2.35
   0  -4  -3  111.98    2.36
   0   4   3  114.29    2.38
   0   4  -3  113.86    2.58
   0   4   3  113.74    2.47
   0   4  -3  117.31    2.45
   0   4   3  114.86    2.43
   0   4   3  117.11    2.60
  -1  -4  -3   92.55    2.07
   1  -4   3   93.12    1.99
  -1  -4  -3   96.73    2.06
  -1  -4  -3   91.59    2.27
   1  -4   3   90.94    2.10
   1  -4   3   94.28    1.98
   1  -4   3   93.58    2.26
   1  -4   3   92.76    2.04
   1   4   3   94.28    2.00
  -1   4  -3   94.07    2.11
   1   4   3   92.77    2.04
   1   4   3   92.69    2.05
   1   4   3   96.31    2.07
  -1   4  -3   93.75    2.02
  -1   4  -3   97.30    1.99
   2  -4   3   55.87    1.37
   2  -4   3   55.49    1.56
  -2  -4  -3   55.50    1.27
  -2  -4  -3   54.00    1.57
  -2  -4  -3   55.58    1.39
   2   4   3   55.63    1.28
  -2   4  -3   56.45    1.19
   2   4   3   55.39    1.30
   2   4   3   55.13    1.41
   2   4   3   57.15    1.26
   2   4   3   56.55    1.54
  -2   4  -3   57.48    1.20
  -2   4  -3   57.51    1.39
  -3  -4  -3   12.49    0.57
  -3  -4  -3   12.17    0.70
   3  -4   3   12.07    0.66
   3  -4   3   12.22    0.51
   3   4   3   12.14    0.61
   3   4   3   11.57    0.63
   3   4   3   12.36    0.42
   3   4   3   14.44    0.48
   3   4   3   11.42    0.41
   3   4   3   13.08    0.44
   4  -4   3   24.95    0.97
  -4  -4  -3   26.02    1.07
   4  -4   3   25.47    0.78
   4  -4   3   21.89    1.29
   4   4   3   26.16    1.00
   4   4   3   25.59    0.65
   4   4   3   26.63    0.65
   4   4   3   26.11    0.74
   5  -4   3  131.04    3.13
   5  -4   3  115.66    2.78
  -5  -4  -3  127.10    3.15
   5  -4   3  126.88    2.73
   5   4   3  130.09    3.16
   5   4   3  126.50    2.72
  -6  -4  -3    8.14    0.76
   6  -4   3    7.66    0.82
   6   4   3    5.28    0.82
   7  -4   3   20.61    1.33
   7   4   3   17.10    1.33
   8  -5  -3    1.87    0.54
   8  -5  -3    3.94    0.53
   8   5  -3    3.40    0.52
   8   5  -3    3.02    0.58
  -7  -5   3   12.64    1.09
   7  -5  -3   12.92    0.77
   7  -5  -3   12.83    0.85
  -7  -5   3   13.03    0.73
   7   5  -3   12.40    0.88
   7   5  -3   12.71    0.79
   6  -5  -3   16.97    0.86
   6  -5  -3   16.16    0.80
  -6  -5   3   16.69    0.97
  -6  -5   3   16.62    0.76
   6   5  -3   15.99    0.89
   6   5  -3   15.19    0.88
   6   5  -3   16.54    0.90
  -6   5   3   16.15    0.88
   6   5  -3   16.84    0.83
  -6   5   3   14.43    0.48
   5  -5  -3    8.40    0.37
  -5  -5   3    9.67    0.55
   5  -5  -3    9.22    0.55
  -5  -5   3    8.62    0.62
  -5  -5   3   11.05    0.82
  -5  -5   3    8.63    0.88
   5  -5  -3    7.60    0.59
  -5   5   3    8.85    0.64
   5   5  -3    8.99    0.53
   5   5  -3    9.72    0.63
   5   5  -3    9.17    0.65
  -5   5   3    8.87    0.53
   5   5  -3    9.31    0.56
  -5   5   3    8.87    0.43
  -4  -5   3  136.47    3.03
  -4  -5   3  139.07    3.09
   4  -5  -3  140.11    2.93
  -4  -5   3  138.67    3.23
   4  -5  -3  135.40    3.08
   4  -5  -3  141.78    3.55
  -4  -5   3  132.79    3.09
  -4   5   3  135.70    3.15
   4   5  -3  139.04    3.09
  -4   5   3  136.63    2.91
   4   5  -3  138.73    3.12
  -4   5   3  133.81    3.06
   4   5  -3  140.56    3.14
   4   5  -3  139.26    3.16
   3  -5  -3   16.32    0.60
  -3  -5   3   16.59    0.61
  -3  -5   3   16.79    0.61
   3  -5  -3   16.37    0.68
  -3  -5   3   15.73    0.64
  -3  -5   3   15.86    0.72
   3  -5  -3   15.56    0.62
  -3   5   3   17.18    0.69
   3   5  -3   16.02    0.66
  -3   5   3   16.58    0.57
  -3   5   3   17.20    0.63
   3   5  -3   16.31    0.62
   3   5  -3   17.01    0.65
   3   5  -3   16.09    0.64
   2  -5  -3  261.99    5.40
   2  -5  -3  271.70    5.52
  -2  -5   3  264.68    5.53
   2  -5  -3  265.18    5.47
   2  -5  -3  276.05    5.58
  -2  -5   3  265.26    5.59
  -2  -5   3  270.95    5.46
  -2  -5   3  272.83    5.42
   2   5  -3  280.81    5.55
   2   5  -3  275.50    5.55
  -2   5   3  269.07    5.49
  -2   5   3  266.68    5.56
   2   5  -3  255.85    5.41
   2   5  -3  265.53    5.49
  -2   5   3  263.05    5.47
   1  -5  -3    0.49    0.16
  -1  -5   3    0.60    0.14
  -1  -5   3    0.50    0.16
   1  -5  -3    0.47    0.13
  -1  -5   3    0.38    0.11
  -1  -5   3    0.45    0.16
   1  -5  -3    0.43    0.14
   1   5  -3    0.45    0.14
  -1   5   3    0.32    0.13
   1   5  -3    0.66    0.15
   1   5  -3    0.59    0.14
  -1   5   3    0.46    0.13
   1   5  -3    0.35    0.15
  -1   5   3    0.54    0.13
   0  -5   3  182.98    4.00
   0  -5   3  189.61    3.83
   0  -5  -3  191.78    3.92
   0  -5  -3  183.95    4.03
   0  -5   3  189.03    3.92
   0  -5  -3  184.15    3.78
   0  -5   3  179.15    3.91
   0  -5   3  188.23    3.78
   0  -5  -3  170.90    3.91
   0   5   3  191.52    3.99
   0   5   3  186.28    3.90
   0   5  -3  192.75    3.87
   0   5   3  189.50    3.81
   0   5   3  188.30    3.84
   0   5  -3  188.54    3.91
  -1  -5  -3   27.72    0.81
  -1  -5  -3   28.13    0.97
   1  -5   3   28.25    0.75
   1  -5   3   27.91    0.94
   1  -5   3   28.89    0.81
   1  -5   3   28.19    0.76
   1  -5   3   27.20    0.83
  -1  -5  -3   28.19    0.81
  -1  -5  -3   27.42    0.63
  -1  -5  -3   27.99    0.64
  -1   5  -3   28.75    0.83
   1   5   3   27.88    0.81
  -1   5  -3   27.63    0.78
   1   5   3   29.42    0.77
  -1   5  -3   28.35    0.76
   1   5   3   28.13    0.80
  -2  -5  -3   17.38    0.63
   2  -5   3   16.43    0.60
  -2  -5  -3   16.72    0.55
   2  -5   3   15.42    0.71
  -2  -5  -3   16.46    0.77
   2  -5   3   17.17    0.52
   2   5   3   16.88    0.65
   2   5   3   16.94    0.57
   2   5   3   16.67    0.55
  -2   5  -3   17.12    0.50
  -2   5  -3   16.38    0.59
   2   5   3   15.88    0.55
  -2   5  -3   16.30    0.48
   2   5   3   16.34    0.71
  -3  -5  -3    1.77    0.35
   3  -5   3    2.46    0.29
  -3  -5  -3    2.56    0.32
   3  -5   3    1.53    0.33
   3   5   3    2.65    0.38
   3   5   3    2.06    0.24
   3   5   3    2.16    0.23
   3   5   3    1.53    0.30
   3   5   3    1.92    0.26
   3   5   3    3.07    0.31
   4  -5   3  272.71    5.47
  -4  -5  -3  276.03    5.98
   4  -5   3  271.25    5.54
   4   5   3  271.04    5.47
   4   5   3  277.31    5.54
   4   5   3  277.70    5.87
   4   5   3  269.30    5.46
  -5  -5  -3    0.74    0.37
   5  -5   3    0.99    0.20
   5  -5   3    1.22    0.38
   5  -5   3    1.23    0.22
   5   5   3    1.46    0.23
   5   5   3    1.45    0.24
   6  -5   3    1.48    0.49
   6   5   3    1.44    0.52
   8  -6  -3    3.96    0.53
   8  -6  -3    2.96    0.59
   8   6  -3    5.67    0.88
   8   6  -3    3.29    0.57
  -7  -6   3    7.80    0.68
   7  -6  -3    8.35    0.67
   7   6  -3    7.73    0.71
   7   6  -3    8.68    0.79
  -6  -6   3    7.53    0.32
  -6  -6   3    7.50    0.59
  -6  -6   3    6.55    0.40
   6  -6  -3    7.33    0.91
   6  -6  -3    6.50    0.66
  -6  -6   3    8.08    0.76
   6   6  -3    7.48    0.62
   6   6  -3    6.97    0.60
  -6   6   3    7.55    0.70
  -6   6   3    6.16    0.27
   5  -6  -3   57.83    1.71
   5  -6  -3   58.10    1.61
  -5  -6   3   58.31    1.76
   5  -6  -3   56.81    1.39
  -5  -6   3   55.96    1.58
   5   6  -3   56.10    1.65
   5   6  -3   59.29    1.68
  -5   6   3   57.37    1.68
   5   6  -3   57.60    1.63
   5   6  -3   57.31    1.67
  -5   6   3   58.12    1.35
  -5   6   3   57.74    1.78
  -4  -6   3    3.17    0.45
   4  -6  -3    2.52    0.35
  -4  -6   3    2.23    0.30
   4  -6  -3    2.76    0.31
   4  -6  -3    2.27    0.33
  -4  -6   3    1.91    0.28
  -4  -6   3    2.67    0.34
   4   6  -3    2.70    0.34
  -4   6   3    2.29    0.27
  -4   6   3    1.96    0.26
   4   6  -3    2.44    0.34
  -4   6   3    2.22    0.34
   4   6  -3    1.62    0.28
   4   6  -3    1.68    0.25
  -3  -6   3    1.85    0.28
   3  -6  -3    1.18    0.24
   3  -6  -3    1.79    0.24
  -3  -6   3    1.47    0.28
   3  -6  -3    1.47    0.23
  -3  -6   3    1.75    0.25
  -3  -6   3    1.65    0.26
   3  -6  -3    1.18    0.21
   3   6  -3    1.17    0.21
  -3   6   3    1.72    0.24
  -3   6   3    1.65    0.25
  -3   6   3    1.26    0.23
   3   6  -3    1.31    0.22
   3   6  -3    1.87    0.29
   3   6  -3    1.27    0.23
   2  -6  -3    1.83    0.26
   2  -6  -3    1.84    0.21
   2  -6  -3    1.69    0.24
  -2  -6   3    2.02    0.27
   2  -6  -3    1.84    0.29
  -2  -6   3    1.46    0.23
  -2  -6   3    1.71    0.26
  -2  -6   3    1.81    0.24
  -2   6   3    1.87    0.25
   2   6  -3    1.78    0.25
   2   6  -3    1.38    0.22
  -2   6   3    1.81    0.26
   2   6  -3    1.93    0.26
   2   6  -3    1.57    0.23
  -2   6   3    1.94    0.30
  -1  -6   3   18.17    0.62
  -1  -6   3   18.74    0.68
  -1  -6   3   18.39    0.70
   1  -6  -3   18.83    0.62
   1  -6  -3   18.08    0.71
  -1  -6   3   18.71    0.59
   1  -6  -3   18.48    0.60
   1  -6  -3   17.77    0.66
   1   6  -3   18.69    0.66
  -1   6   3   18.50    0.63
   1   6  -3   18.50    0.60
   1   6  -3   19.36    0.64
   1   6  -3   18.86    0.67
  -1   6   3   18.90    0.68
  -1   6   3   18.55    0.58
   0  -6   3    0.05    0.12
   0  -6   3    0.15    0.11
   0  -6  -3   -0.10    0.11
   0  -6  -3    0.05    0.12
   0  -6  -3    0.18    0.17
   0  -6  -3    0.11    0.12
   0  -6   3    0.03    0.10
   0  -6   3    0.15    0.13
   0   6  -3    0.12    0.12
   0   6  -3    0.19    0.12
   0   6  -3   -0.02    0.12
   0   6   3    0.10    0.12
   0   6   3    0.08    0.11
   0   6  -3    0.01    0.11
   0   6   3    0.01    0.11
  -1  -6  -3   21.71    0.86
   1  -6   3   22.94    0.69
   1  -6   3   21.82    0.73
  -1  -6  -3   22.13    0.58
  -1  -6  -3   22.73    0.72
  -1  -6  -3   22.21    0.73
   1  -6   3   22.37    0.73
  -1  -6  -3   22.24    0.59
   1  -6   3   22.26    0.67
  -1   6  -3   22.82    0.72
   1   6   3   22.29    0.73
  -1   6  -3   22.33    0.68
  -1   6  -3   22.43    0.70
   1   6   3   22.05    0.71
   1   6   3   22.80    0.69
   1   6   3   22.85    0.74
  -2  -6  -3   11.77    0.49
  -2  -6  -3   12.50    0.70
  -2  -6  -3   11.79    0.53
   2  -6   3   12.13    0.46
   2  -6   3   11.74    0.63
   2  -6   3   12.16    0.49
   2  -6   3   12.25    0.51
   2   6   3   12.05    0.50
  -2   6  -3   12.28    0.50
   2   6   3   12.99    0.58
   2   6   3   11.65    0.55
  -2   6  -3   12.42    0.45
   2   6   3   12.58    0.51
  -2   6  -3   12.28    0.44
   3  -6   3    0.24    0.25
  -3  -6  -3    0.49    0.21
   3  -6   3    0.62    0.18
  -3  -6  -3    0.71    0.30
   3   6   3    0.80    0.22
  -3   6  -3    0.82    0.12
   3   6   3    0.88    0.17
   3   6   3    0.43    0.23
   3   6   3    0.63    0.17
  -3   6  -3    0.47    0.13
   3   6   3    0.25    0.15
   4  -6   3    8.43    0.41
   4  -6   3    8.25    0.41
  -4  -6  -3    7.56    0.69
   4   6   3    8.68    0.42
   4   6   3    8.29    0.44
   4   6   3    8.29    0.43
   4   6   3    8.21    0.62
   5  -6   3    9.62    0.48
  -5  -6  -3   10.10    0.79
   5  -6   3    9.38    0.54
   5   6   3   10.30    0.54
   5   6   3    9.44    0.77
   5   6   3    8.90    0.63
   5   6   3   10.00    0.45
  -6  -6  -3    0.62    0.44
   6  -6   3    0.28    0.43
   6   6   3   -0.13    0.45
   6   6   3    0.97    0.40
   8  -7  -3    8.34    0.84
   8  -7  -3    9.05    0.99
   8   7  -3    8.78    0.92
   8   7  -3    8.66    1.06
   7  -7  -3   25.53    1.09
   7   7  -3   25.08    1.21
   7   7  -3   26.40    1.17
   6  -7  -3    1.79    0.36
  -6  -7   3    1.71    0.28
  -6  -7   3    1.98    0.37
  -6  -7   3    2.08    0.43
   6  -7  -3    2.04    0.35
  -6   7   3    1.73    0.39
   6   7  -3    1.50    0.32
   6   7  -3    2.19    0.43
   6   7  -3    2.62    0.39
  -5  -7   3    3.59    0.54
  -5  -7   3    3.64    0.47
   5  -7  -3    3.51    0.46
   5  -7  -3    3.27    0.33
   5  -7  -3    3.18    0.49
   5   7  -3    3.03    0.47
  -5   7   3    2.75    0.38
   5   7  -3    3.14    0.45
   5   7  -3    2.72    0.39
  -5   7   3    3.33    0.32
  -4  -7   3    4.55    0.43
   4  -7  -3    4.18    0.46
  -4  -7   3    5.04    0.54
  -4  -7   3    5.15    0.41
   4  -7  -3    4.63    0.38
  -4  -7   3    4.59    0.45
   4  -7  -3    5.00    0.42
   4   7  -3    4.48    0.45
   4   7  -3    5.06    0.44
  -4   7   3    4.92    0.42
   4   7  -3    5.36    0.46
   4   7  -3    4.52    0.45
  -4   7   3    4.97    0.48
  -4   7   3    5.14    0.33
  -3  -7   3   10.02    0.48
  -3  -7   3   10.36    0.53
   3  -7  -3    9.68    0.45
  -3  -7   3   10.42    0.63
   3  -7  -3   10.24    0.51
   3  -7  -3    9.88    0.52
  -3  -7   3    9.82    0.54
   3  -7  -3    9.91    0.57
   3   7  -3   10.12    0.55
   3   7  -3   10.41    0.53
  -3   7   3   10.03    0.45
  -3   7   3    9.89    0.50
   3   7  -3    8.38    0.50
  -3   7   3   10.18    0.57
   3   7  -3    9.53    0.52
   2  -7  -3  158.56    3.49
   2  -7  -3  164.13    3.56
   2  -7  -3  160.49    3.41
  -2  -7   3  165.81    3.42
  -2  -7   3  152.89    3.48
  -2  -7   3  154.31    3.42
   2  -7  -3  155.38    3.44
  -2  -7   3  162.76    3.61
   2   7  -3  158.42    3.49
   2   7  -3  157.12    3.47
  -2   7   3  159.42    3.47
   2   7  -3  164.46    3.54
   2   7  -3  159.61    3.43
  -2   7   3  161.12    3.55
  -1  -7   3   72.62    1.67
  -1  -7   3   70.67    1.69
   1  -7  -3   72.46    1.69
  -1  -7   3   71.41    1.83
  -1  -7   3   72.18    1.76
   1  -7  -3   68.01    1.80
   1  -7  -3   71.34    1.79
   1  -7  -3   71.07    1.69
  -1   7   3   70.40    1.72
   1   7  -3   71.16    1.82
   1   7  -3   69.92    1.76
   1   7  -3   71.44    1.66
  -1   7   3   72.76    1.65
   1   7  -3   71.31    1.76
   1   7  -3   70.54    1.70
  -1   7   3   72.16    1.79
   0  -7  -3  203.33    4.19
   0  -7  -3  189.46    4.02
   0  -7   3  197.37    4.14
   0  -7   3  197.13    4.08
   0  -7  -3  192.61    4.27
   0  -7  -3  202.21    4.06
   0  -7   3  194.09    4.04
   0  -7   3  199.47    4.20
   0  -7  -3  198.10    4.10
   0   7  -3  194.84    4.12
   0   7  -3  198.52    4.14
   0   7  -3  194.42    4.17
   0   7   3  195.18    4.15
   0   7   3  198.56    4.10
   0   7   3  182.86    4.42
   0   7   3  189.81    4.05
   0   7  -3  191.70    4.01
  -1  -7  -3  114.24    2.59
   1  -7   3  116.04    2.50
  -1  -7  -3  112.14    2.74
  -1  -7  -3  113.07    2.43
   1  -7   3  113.72    2.49
   1  -7   3  114.76    2.54
   1  -7   3  116.71    2.58
  -1  -7  -3  117.39    2.57
  -1  -7  -3  109.91    2.43
   1   7   3  110.91    2.59
   1   7   3  113.38    2.55
   1   7   3  115.33    2.57
   1   7   3  112.39    2.50
  -1   7  -3  113.79    2.55
  -1   7  -3  112.82    2.51
  -1   7  -3  114.70    2.54
   2  -7   3   19.32    0.65
  -2  -7  -3   19.46    0.72
   2  -7   3   18.62    0.65
   2  -7   3   16.55    0.79
   2  -7   3   18.36    0.64
  -2  -7  -3   19.06    0.97
  -2  -7  -3   17.38    0.67
   2   7   3   18.40    0.64
  -2   7  -3   18.18    0.64
   2   7   3   18.97    0.67
   2   7   3   17.95    0.68
   2   7   3   19.09    0.74
  -2   7  -3   18.12    0.62
  -2   7  -3   19.60    0.63
  -3  -7  -3   32.09    1.10
   3  -7   3   34.33    0.95
   3  -7   3   33.38    1.03
   3  -7   3   34.56    0.95
  -3  -7  -3   34.03    1.26
  -3   7  -3   35.19    0.90
   3   7   3   34.13    0.98
   3   7   3   34.78    1.01
   3   7   3   34.89    1.00
   3   7   3   33.92    0.98
   3   7   3   34.14    1.17
  -3   7  -3   34.76    0.96
   4  -7   3    0.87    0.18
   4  -7   3    0.92    0.21
  -4  -7  -3    1.01    0.37
   4   7   3    0.76    0.25
   4   7   3    1.15    0.23
   4   7   3    1.03    0.33
  -4   7  -3    0.60    0.12
   4   7   3    0.43    0.20
  -5  -7  -3    3.39    0.51
   5  -7   3    2.95    0.60
   5   7   3    3.29    0.36
   5   7   3    3.27    0.44
   5   7   3    3.17    0.36
   5   7   3    3.21    0.50
  -6  -7  -3    2.95    0.54
   6  -7   3    3.00    0.58
   6   7   3    3.86    0.41
   6   7   3    2.98    0.46
   6   7   3    3.26    0.65
   8  -8  -3    2.87    0.53
   8   8  -3    2.36    0.56
   8   8  -3    2.65    0.62
   7  -8  -3   15.62    0.89
  -7  -8   3   15.28    0.90
   7   8  -3   15.52    0.97
   7   8  -3   16.02    0.94
   6  -8  -3   25.52    1.03
  -6  -8   3   24.55    1.18
   6  -8  -3   24.63    0.88
   6  -8  -3   25.24    1.15
  -6  -8   3   24.21    1.04
  -6   8   3   24.71    1.08
   6   8  -3   25.80    1.10
   6   8  -3   23.46    1.04
   6   8  -3   22.75    1.09
  -5  -8   3   16.93    0.82
   5  -8  -3   14.13    0.98
  -5  -8   3   17.59    0.93
   5  -8  -3   16.28    0.79
   5  -8  -3   18.01    0.67
  -5   8   3   17.94    0.58
  -5   8   3   17.48    0.87
   5   8  -3   18.00    0.88
   5   8  -3   17.41    0.84
   5   8  -3   16.94    0.83
  -4  -8   3   53.43    1.56
   4  -8  -3   58.12    1.79
   4  -8  -3   56.54    1.45
  -4  -8   3   53.90    1.68
   4  -8  -3   54.65    1.54
  -4  -8   3   50.74    1.53
   4  -8  -3   54.71    1.64
   4   8  -3   57.26    1.65
  -4   8   3   56.99    1.63
  -4   8   3   55.82    1.36
   4   8  -3   54.00    1.59
   4   8  -3   54.70    1.58
  -3  -8   3    2.68    0.32
   3  -8  -3    2.76    0.34
  -3  -8   3    2.42    0.34
   3  -8  -3    2.94    0.30
   3  -8  -3    2.48    0.33
  -3  -8   3    2.52    0.33
  -3  -8   3    2.34    0.36
   3  -8  -3    2.83    0.35
   3   8  -3    1.68    0.28
  -3   8   3    2.64    0.34
  -3   8   3    2.01    0.31
  -3   8   3    2.35    0.28
   3   8  -3    2.13    0.30
   3   8  -3    1.77    0.28
   3   8  -3    1.82    0.32
   2  -8  -3  146.82    3.20
   2  -8  -3  148.97    3.24
  -2  -8   3  148.12    3.20
  -2  -8   3  145.59    3.39
   2  -8  -3  146.63    3.29
  -2  -8   3  144.64    3.20
  -2  -8   3  141.72    3.26
   2  -8  -3  148.84    3.35
   2   8  -3  147.07    3.40
   2   8  -3  145.43    3.26
   2   8  -3  150.21    3.29
  -2   8   3  147.11    3.33
   2   8  -3  147.39    3.32
   2   8  -3  143.53    3.21
  -2   8   3  149.17    3.26
   1  -8  -3    5.69    0.35
  -1  -8   3    4.71    0.34
   1  -8  -3    4.37    0.42
   1  -8  -3    3.84    0.37
  -1  -8   3    5.47    0.44
   1  -8  -3    4.98    0.35
  -1  -8   3    4.37    0.33
  -1  -8   3    4.96    0.38
   1   8  -3    5.12    0.37
  -1   8   3    4.56    0.35
   1   8  -3    4.47    0.34
  -1   8   3    4.83    0.39
   1   8  -3    4.86    0.38
   1   8  -3    4.77    0.44
  -1   8   3    4.86    0.34
   1   8  -3    5.56    0.37
   0  -8   3  127.67    2.91
   0  -8   3  123.12    2.81
   0  -8  -3  126.60    2.74
   0  -8  -3  128.31    2.90
   0  -8   3  127.96    2.77
   0  -8  -3  125.80    2.75
   0  -8  -3  127.09    2.81
   0  -8   3  122.90    2.78
   0  -8  -3  124.85    2.96
   0   8   3  125.23    2.77
   0   8   3  127.53    2.87
   0   8  -3  130.90    2.85
   0   8   3  127.42    2.91
   0   8  -3  126.62    2.73
   0   8  -3  124.98    2.83
   0   8   3  121.43    2.79
   0   8  -3  126.08    2.90
  -1  -8  -3   20.04    0.79
  -1  -8  -3   19.99    0.63
  -1  -8  -3   20.54    0.87
  -1  -8  -3   19.78    0.63
   1  -8   3   20.00    0.69
  -1  -8  -3   21.14    0.75
   1  -8   3   20.31    0.75
   1  -8   3   20.54    0.71
   1  -8   3   20.51    0.70
  -1   8  -3   20.33    0.70
   1   8   3   20.94    0.75
   1   8   3   19.48    0.69
  -1   8  -3   18.98    0.71
  -1   8  -3   20.26    0.72
   1   8   3   19.70    0.73
   1   8   3   19.74    0.75
   2  -8   3   60.35    1.51
   2  -8   3   58.50    1.46
  -2  -8  -3   58.01    1.27
   2  -8   3   54.56    1.68
   2  -8   3   58.13    1.49
  -2  -8  -3   57.75    1.26
  -2  -8  -3   59.93    1.77
  -2  -8  -3   58.39    1.57
   2   8   3   60.99    1.60
  -2   8  -3   60.32    1.48
   2   8   3   60.20    1.54
  -2   8  -3   59.29    1.63
   2   8   3   58.71    1.49
   2   8   3   58.87    1.56
  -2   8  -3   59.84    1.48
  -3  -8  -3    0.78    0.37
   3  -8   3    0.57    0.23
   3  -8   3    0.33    0.17
  -3  -8  -3    0.83    0.32
   3  -8   3    0.57    0.18
   3   8   3    0.48    0.20
  -3   8  -3    0.30    0.20
   3   8   3    0.37    0.20
  -3   8  -3    0.65    0.19
   3   8   3    0.59    0.27
   3   8   3    0.65    0.22
   4  -8   3   19.86    0.71
   4  -8   3   18.47    0.61
  -4  -8  -3   18.44    1.02
   4   8   3   19.31    0.80
   4   8   3   19.02    0.75
   4   8   3   19.05    0.75
  -4   8  -3   19.03    0.60
  -5  -8  -3   16.04    1.03
   5  -8   3   17.60    0.72
   5   8   3   17.74    0.99
   5   8   3   18.53    0.79
   5   8   3   17.14    0.71
   5   8   3   17.27    0.69
   6  -8   3    2.79    0.57
  -6  -8  -3    3.31    0.59
   6   8   3    3.07    0.68
   6   8   3    3.57    0.64
   6   8   3    3.53    0.49
   8  -9  -3    3.89    0.63
   8   9  -3    1.74    0.72
   8   9  -3    3.73    0.66
   8   9  -3    2.64    0.76
   7  -9  -3    3.27    0.48
  -7  -9   3    3.29    0.51
   7   9  -3    4.06    0.58
   7   9  -3    3.74    0.59
  -6  -9   3   48.56    1.58
  -6  -9   3   47.68    1.77
   6  -9  -3   47.69    1.53
   6  -9  -3   48.28    1.30
   6   9  -3   50.38    1.63
  -6   9   3   50.87    1.66
   6   9  -3   47.92    1.66
   5  -9  -3   31.62    1.25
  -5  -9   3   33.45    1.19
  -5  -9   3   32.87    1.32
   5  -9  -3   33.56    1.02
   5   9  -3   33.71    1.23
   5   9  -3   33.19    1.25
  -5   9   3   33.28    0.89
  -5   9   3   31.82    1.22
   4  -9  -3   13.24    0.62
  -4  -9   3   13.87    0.82
   4  -9  -3   12.40    0.73
  -4  -9   3   13.22    0.70
   4  -9  -3   13.68    0.69
   4   9  -3   12.58    0.71
   4   9  -3   14.64    0.74
  -4   9   3   14.25    0.55
   4   9  -3   13.96    0.73
  -4   9   3   14.07    0.76
   3  -9  -3   90.56    2.20
   3  -9  -3   85.28    2.15
  -3  -9   3   92.85    2.41
   3  -9  -3   93.98    2.24
  -3  -9   3   92.59    2.35
  -3  -9   3   91.76    2.27
  -3  -9   3   93.67    2.23
   3  -9  -3   89.23    2.33
  -3   9   3   90.17    2.31
  -3   9   3   84.02    2.22
   3   9  -3   90.92    2.39
  -3   9   3   91.53    2.12
   3   9  -3   90.68    2.24
   3   9  -3   90.88    2.43
   3   9  -3   90.89    2.30
   3   9  -3   91.53    2.27
   2  -9  -3    1.24    0.27
   2  -9  -3    1.21    0.24
  -2  -9   3    1.11    0.22
   2  -9  -3    1.08    0.27
  -2  -9   3    1.03    0.30
  -2  -9   3    1.21    0.22
   2  -9  -3    0.91    0.20
  -2  -9   3    1.32    0.27
  -2   9   3    0.96    0.22
  -2   9   3    1.21    0.25
   2   9  -3    1.16    0.23
   2   9  -3    1.28    0.25
   2   9  -3    1.03    0.23
   2   9  -3    1.46    0.27
   2   9  -3    1.17    0.26
  -1  -9   3   23.45    0.84
   1  -9  -3   24.39    0.82
  -1  -9   3   24.92    0.95
   1  -9  -3   25.30    0.98
   1  -9  -3   25.10    0.93
   1  -9  -3   23.61    0.89
  -1  -9   3   24.19    0.82
  -1  -9   3   23.40    0.80
   1   9  -3   24.16    0.80
  -1   9   3   26.21    0.81
  -1   9   3   23.24    0.82
   1   9  -3   24.88    0.84
  -1   9   3   23.60    0.89
  -1   9   3   23.67    0.93
   1   9  -3   23.29    0.87
   1   9  -3   24.80    0.98
   1   9  -3   24.81    0.87
   0  -9  -3   94.44    2.21
   0  -9  -3   98.17    2.23
   0  -9  -3   97.88    2.29
   0  -9   3   97.35    2.28
   0  -9   3   99.15    2.39
   0  -9   3   95.89    2.24
   0  -9  -3   97.99    2.38
   0  -9  -3   94.99    2.45
   0  -9   3   95.60    2.26
   0   9   3   96.36    2.34
   0   9  -3   97.03    2.37
   0   9   3   97.14    2.24
   0   9   3   94.43    2.26
   0   9   3   99.62    2.41
   0   9  -3   98.96    2.22
   0   9  -3   95.98    2.28
   0   9  -3   92.95    2.30
  -1  -9  -3   27.40    0.79
   1  -9   3   25.98    0.85
  -1  -9  -3   27.03    1.04
  -1  -9  -3   23.84    0.92
  -1  -9  -3   26.74    0.79
  -1  -9  -3   26.88    0.90
   1  -9   3   25.35    0.84
   1  -9   3   25.88    0.91
   1  -9   3   25.84    0.84
   1   9   3   25.49    0.85
   1   9   3   26.37    0.92
   1   9   3   26.52    0.94
   1   9   3   26.68    0.90
  -1   9  -3   26.72    0.86
  -1   9  -3   24.42    0.87
  -2  -9  -3   43.48    1.31
   2  -9   3   44.12    1.19
  -2  -9  -3   44.87    1.07
  -2  -9  -3   46.97    1.51
   2  -9   3   43.68    1.25
   2  -9   3   43.04    1.19
   2  -9   3   42.86    1.23
   2   9   3   44.31    1.33
  -2   9  -3   43.79    1.19
  -2   9  -3   44.25    1.22
   2   9   3   43.76    1.30
   2   9   3   43.72    1.23
   2   9   3   44.73    1.29
  -3  -9  -3    4.05    0.61
   3  -9   3    3.15    0.41
   3  -9   3    3.82    0.33
   3  -9   3    3.14    0.36
   3   9   3    3.51    0.42
   3   9   3    3.37    0.39
  -3   9  -3    3.07    0.34
   3   9   3    4.17    0.42
  -3   9  -3    3.57    0.34
   3   9   3    3.78    0.47
  -4  -9  -3    1.07    0.43
   4  -9   3    0.94    0.25
   4  -9   3    1.27    0.27
   4  -9   3    0.72    0.27
   4   9   3    1.04    0.33
   4   9   3    1.24    0.27
  -4   9  -3    1.25    0.20
   4   9   3    0.64    0.37
   4   9   3    0.38    0.25
  -5  -9  -3    1.87    0.51
   5  -9   3    2.26    0.38
   5   9   3    2.28    0.32
   5   9   3    1.35    0.35
   5   9   3    1.80    0.48
  -6  -9  -3   14.11    1.09
   6   9   3   15.92    0.74
   6   9   3   17.02    1.20
  -7 -10   3    0.96    0.43
   7 -10  -3    0.87    0.41
   7  10  -3    1.69    0.49
   7  10  -3    1.75    0.50
   7  10  -3    1.52    0.50
   6 -10  -3    0.10    0.28
   6 -10  -3    0.43    0.31
  -6 -10   3   -0.08    0.31
  -6 -10   3    0.70    0.42
   6  10  -3    0.30    0.35
  -6  10   3    0.63    0.36
   6  10  -3    0.00    0.35
   6  10  -3    0.10    0.32
   5 -10  -3    5.37    0.55
   5 -10  -3    5.50    0.51
  -5 -10   3    4.11    0.54
   5 -10  -3    4.37    0.51
  -5  10   3    5.11    0.43
   5  10  -3    4.85    0.56
  -5  10   3    4.81    0.35
   5  10  -3    5.84    0.59
   5  10  -3    4.23    0.56
  -5  10   3    4.49    0.61
   4 -10  -3   39.66    1.29
  -4 -10   3   41.86    1.48
   4 -10  -3   39.87    1.38
  -4 -10   3   39.70    1.32
   4  10  -3   37.91    1.33
   4  10  -3   41.29    1.49
   4  10  -3   39.40    1.33
  -4  10   3   39.57    1.36
   4  10  -3   42.46    1.37
  -4  10   3   40.57    1.10
   3 -10  -3   22.20    0.93
  -3 -10   3   22.92    0.91
  -3 -10   3   21.01    1.01
  -3 -10   3   21.27    0.87
   3 -10  -3   23.39    0.89
   3 -10  -3   22.16    0.95
   3  10  -3   23.02    1.03
   3  10  -3   23.17    1.10
  -3  10   3   23.07    0.96
   3  10  -3   20.42    0.89
   3  10  -3   22.23    0.91
   2 -10  -3    0.32    0.19
  -2 -10   3   -0.03    0.19
  -2 -10   3   -0.02    0.20
   2 -10  -3    0.15    0.20
   2 -10  -3    0.00    0.16
  -2 -10   3    0.32    0.27
  -2 -10   3   -0.12    0.19
   2 -10  -3    0.09    0.22
  -2  10   3    0.27    0.19
  -2  10   3   -0.04    0.22
   2  10  -3    0.16    0.19
   2  10  -3   -0.01    0.18
   2  10  -3   -0.20    0.19
   2  10  -3    0.38    0.26
   2  10  -3    0.00    0.22
  -1 -10   3   20.09    0.75
  -1 -10   3   21.04    0.89
  -1 -10   3   19.25    0.76
  -1 -10   3   21.24    0.81
   1 -10  -3   20.42    0.76
   1 -10  -3   20.33    0.77
   1 -10  -3   20.41    0.86
   1 -10  -3   19.77    0.85
   1  10  -3   21.84    0.96
  -1  10   3   21.44    0.86
  -1  10   3   20.09    0.74
   1  10  -3   20.98    0.76
  -1  10   3   18.88    0.78
   1  10  -3   20.45    0.80
   1  10  -3   19.28    0.82
  -1  10   3   21.18    0.88
   0 -10   3   -0.13    0.17
   0 -10   3    0.16    0.19
   0 -10   3    0.06    0.17
   0 -10  -3    0.08    0.15
   0 -10  -3    0.11    0.16
   0 -10  -3    0.35    0.20
   0 -10  -3   -0.17    0.18
   0 -10  -3    0.12    0.21
   0  10   3    0.11    0.18
   0  10   3   -0.10    0.16
   0  10  -3    0.10    0.16
   0  10  -3   -0.16    0.17
   0  10   3    0.03    0.17
   0  10   3    0.55    0.21
   0  10  -3    0.15    0.21
   0  10  -3    0.11    0.18
  -1 -10  -3   16.28    0.62
  -1 -10  -3   16.96    0.85
  -1 -10  -3   16.76    0.61
  -1 -10  -3   17.54    0.73
   1 -10   3   15.87    0.65
   1 -10   3   16.23    0.68
   1 -10   3   14.87    0.65
   1 -10   3   17.10    0.75
   1  10   3   14.92    0.67
   1  10   3   17.24    0.73
  -1  10  -3   16.70    0.70
  -1  10  -3   16.79    0.67
   1  10   3   15.77    0.75
   1  10   3   16.26    0.74
   2 -10   3   83.89    1.98
  -2 -10  -3   73.96    2.25
  -2 -10  -3   86.78    2.35
   2 -10   3   88.69    2.12
  -2 -10  -3   85.53    1.87
  -2 -10  -3   84.92    1.88
   2 -10   3   85.06    2.05
   2 -10   3   81.56    2.06
   2 -10   3   79.28    2.00
   2  10   3   86.42    2.17
   2  10   3   85.25    2.08
   2  10   3   83.83    2.13
   2  10   3   84.59    2.16
  -2  10  -3   83.85    1.99
  -2  10  -3   83.07    2.05
   3 -10   3    4.27    0.35
   3 -10   3    3.94    0.43
   3 -10   3    4.14    0.42
  -3 -10  -3    4.67    0.61
  -3  10  -3    4.01    0.37
  -3  10  -3    3.23    0.37
   3  10   3    3.86    0.51
   3  10   3    4.09    0.53
   3  10   3    3.69    0.44
  -4 -10  -3   21.92    1.16
   4 -10   3   22.11    0.90
   4 -10   3   21.28    0.84
   4 -10   3   21.48    0.69
   4  10   3   22.11    0.89
   4  10   3   23.05    1.06
   4  10   3   21.89    0.89
  -5 -10  -3    3.60    0.55
   5 -10   3    3.41    0.42
   5  10   3    3.09    0.54
   5  10   3    3.56    0.53
   5  10   3    3.39    0.45
  -6 -10  -3    1.34    0.56
   6  10   3    1.63    0.51
   6  10   3    1.64    0.38
   6  10   3    2.43    0.81
   7 -11  -3    1.27    0.45
   7  11  -3    1.59    0.55
   7  11  -3    1.62    0.56
   7  11  -3    1.45    0.53
   6 -11  -3   11.10    0.79
   6 -11  -3   11.42    0.79
  -6 -11   3   12.29    0.84
  -6 -11   3   10.94    1.02
   6  11  -3   11.83    0.99
  -6  11   3   10.73    0.95
   6  11  -3   11.30    0.86
   6  11  -3   11.38    0.84
   5 -11  -3    0.60    0.32
  -5 -11   3    0.43    0.39
   5 -11  -3    0.25    0.37
  -5 -11   3    0.63    0.33
  -5  11   3    0.63    0.17
   5  11  -3    0.38    0.33
   5  11  -3    0.42    0.34
   5  11  -3    0.38    0.38
  -5  11   3    0.54    0.31
   5  11  -3    0.41    0.34
  -5  11   3    0.77    0.19
   4 -11  -3   13.67    0.82
  -4 -11   3   14.25    0.79
   4 -11  -3   14.40    1.19
  -4 -11   3   13.27    0.88
   4  11  -3   14.45    0.80
  -4  11   3   15.02    0.82
   4  11  -3   14.16    0.81
  -4  11   3   13.56    0.58
   4  11  -3   12.76    1.12
   4  11  -3   16.91    0.97
   3 -11  -3    1.47    0.29
  -3 -11   3    0.98    0.27
  -3 -11   3    1.28    0.33
   3 -11  -3    1.58    0.30
   3  11  -3    1.77    0.34
   3  11  -3    0.82    0.32
   3  11  -3    2.08    0.35
  -3  11   3    1.09    0.30
   3  11  -3    1.07    0.29
   2 -11  -3    9.79    0.60
  -2 -11   3   10.04    0.61
  -2 -11   3   12.00    0.64
   2 -11  -3   10.17    0.66
   2 -11  -3   11.69    0.61
   2 -11  -3   11.40    0.65
  -2 -11   3   10.05    0.73
   2  11  -3   11.71    0.62
  -2  11   3   10.82    0.66
   2  11  -3   11.65    0.65
  -2  11   3   11.92    0.67
   2  11  -3   10.27    0.72
   2  11  -3    9.79    0.66
   1 -11  -3   16.91    0.71
  -1 -11   3   17.86    1.09
  -1 -11   3   16.21    0.73
   1 -11  -3   15.92    0.81
  -1 -11   3   16.83    0.84
   1 -11  -3   15.62    0.71
   1 -11  -3   16.60    0.80
  -1 -11   3   15.87    0.69
   1  11  -3   13.63    1.13
  -1  11   3   14.82    0.76
  -1  11   3   15.71    0.80
  -1  11   3   16.57    0.68
   1  11  -3   16.92    0.88
   1  11  -3   16.23    0.70
   1  11  -3   15.34    0.77
   0 -11   3   20.03    0.79
   0 -11  -3   19.83    0.93
   0 -11  -3   19.69    0.74
   0 -11  -3   20.42    0.81
   0 -11   3   19.51    0.78
   0 -11  -3   20.51    0.76
   0 -11   3   21.01    0.90
   0 -11   3   18.66    0.78
   0  11  -3   20.30    0.88
   0  11   3   20.79    0.80
   0  11   3   17.55    0.92
   0  11   3   19.62    0.86
   0  11  -3   20.37    0.79
   0  11   3   20.40    0.91
   0  11  -3   20.74    0.78
  -1 -11  -3   14.87    0.83
   1 -11   3   15.66    0.65
   1 -11   3   14.88    0.68
   1 -11   3   14.07    0.66
   1 -11   3   15.78    0.76
  -1 -11  -3   14.71    0.76
  -1 -11  -3   15.36    0.62
  -1 -11  -3   14.72    0.60
  -1  11  -3   14.39    0.65
   1  11   3   14.92    0.74
   1  11   3   14.70    0.71
  -1  11  -3   15.01    0.98
   1  11   3   14.54    0.75
   2 -11   3   34.71    1.10
  -2 -11  -3   35.35    0.97
  -2 -11  -3   34.59    1.36
   2 -11   3   36.14    1.05
   2 -11   3   34.38    1.11
  -2 -11  -3   35.14    0.95
   2  11   3   35.16    1.20
   2  11   3   33.97    1.20
   2  11   3   36.77    1.22
  -2  11  -3   34.19    1.04
  -2  11  -3   33.88    1.10
  -3 -11  -3    3.58    0.25
   3 -11   3    3.57    0.46
  -3 -11  -3    3.43    0.27
   3 -11   3    4.06    0.34
   3 -11   3    2.92    0.44
  -3  11  -3    3.46    0.38
   3  11   3    3.50    0.47
  -3  11  -3    3.38    0.39
   3  11   3    3.05    0.46
   3  11   3    3.44    0.46
   4 -11   3    1.03    0.32
   4 -11   3    1.32    0.44
  -4 -11  -3    0.95    0.45
   4 -11   3    1.34    0.23
   4  11   3    0.91    0.37
   4  11   3    0.85    0.29
  -5 -11  -3    0.05    0.47
   5 -11   3    0.34    0.34
   5  11   3    0.53    0.49
   5  11   3    0.00    0.32
  -7 -12   3    0.99    0.48
   7 -12  -3    0.21    0.44
   7  12  -3    0.74    0.57
   7  12  -3    0.53    0.53
   7  12  -3    0.69    0.53
  -6 -12   3    1.09    0.39
  -6 -12   3    2.62    0.82
   6 -12  -3    1.90    0.44
   6 -12  -3    1.55    0.40
   6  12  -3    1.41    0.47
   6  12  -3    1.71    0.44
   6  12  -3    1.50    0.45
  -5 -12   3    0.38    0.29
  -5 -12   3    0.67    0.42
   5 -12  -3    0.23    0.37
   5 -12  -3   -0.04    0.32
   5  12  -3    0.26    0.40
   5  12  -3   -0.07    0.32
   5  12  -3    0.44    0.37
  -5  12   3    0.08    0.34
  -5  12   3   -0.20    0.18
   5  12  -3    0.31    0.30
  -4 -12   3    0.59    0.30
   4 -12  -3    0.02    0.31
   4 -12  -3    0.48    0.27
  -4 -12   3    0.01    0.33
  -4  12   3    0.05    0.17
   4  12  -3    0.29    0.33
  -4  12   3   -0.15    0.18
   4  12  -3    0.01    0.34
   4  12  -3    0.08    0.27
   4  12  -3   -0.13    0.28
  -4  12   3   -0.20    0.27
   3 -12  -3   20.53    0.95
  -3 -12   3   20.27    1.06
  -3 -12   3   18.62    0.93
   3 -12  -3   21.76    1.15
   3  12  -3   20.82    0.92
  -3  12   3   20.37    0.98
   3  12  -3   19.71    0.94
   3  12  -3   19.56    1.03
  -3  12   3   21.09    0.96
   3  12  -3   20.88    0.96
   2 -12  -3   51.01    1.50
  -2 -12   3   51.59    1.69
   2 -12  -3   51.37    1.66
  -2 -12   3   49.93    1.53
  -2  12   3   51.83    1.63
   2  12  -3   51.92    1.52
   2  12  -3   51.51    1.61
   2  12  -3   49.71    1.66
   2  12  -3   52.51    1.54
  -2  12   3   51.07    1.61
  -1 -12   3    1.67    0.32
  -1 -12   3    1.00    0.25
   1 -12  -3    1.05    0.56
  -1 -12   3    1.60    0.35
   1 -12  -3    1.34    0.28
   1 -12  -3    1.34    0.35
   1  12  -3    0.97    0.25
  -1  12   3    1.52    0.33
  -1  12   3    0.78    0.24
   1  12  -3    0.73    0.28
  -1  12   3    1.28    0.28
   0 -12   3    3.18    0.44
   0 -12   3    3.36    0.49
   0 -12  -3    3.13    0.40
   0 -12  -3    3.89    0.54
   0 -12  -3    3.60    0.49
   0 -12   3    2.95    0.41
   0  12   3    4.16    0.49
   0  12  -3    3.71    0.42
   0  12  -3    3.78    0.47
   0  12   3    4.20    0.51
   0  12  -3    3.62    0.54
   1 -12   3    0.03    0.19
   1 -12   3    0.33    0.22
  -1 -12  -3   -0.21    0.19
  -1 -12  -3   -0.01    0.31
  -1 -12  -3   -0.05    0.18
   1  12   3   -0.22    0.22
   1  12   3    0.37    0.24
  -1  12  -3    0.49    0.24
   1  12   3   -0.39    0.25
  -1  12  -3   -0.34    0.19
  -2 -12  -3    0.94    0.21
   2 -12   3    0.94    0.23
  -2 -12  -3    1.12    0.21
   2 -12   3    0.69    0.25
   2  12   3    0.52    0.29
   2  12   3    0.88    0.27
  -2  12  -3    1.03    0.23
   2  12   3    0.95    0.29
   3 -12   3    0.30    0.26
   3 -12   3    0.22    0.26
  -3 -12  -3   -0.08    0.39
   3 -12   3    0.57    0.21
  -3 -12  -3    0.08    0.20
   3  12   3    0.06    0.31
  -3  12  -3    0.18    0.23
   3  12   3   -0.43    0.27
   3  12   3    0.28    0.26
  -4 -12  -3    2.69    0.52
   4 -12   3    2.37    0.43
   4  12   3    3.12    0.49
   4  12   3    2.60    0.41
   5 -12   3    2.70    0.45
  -5 -12  -3    2.41    0.58
   5  12   3    2.16    0.41
   5  12   3    1.76    0.55
   7 -13  -3    0.54    0.57
  -7 -13   3   -0.14    0.48
   7  13  -3    1.54    0.73
   7  13  -3    0.10    0.61
   7  13  -3    0.55    0.62
  -6 -13   3   10.26    0.89
   6 -13  -3    8.97    0.84
   6 -13  -3    9.65    0.76
   6  13  -3   10.12    0.92
   6  13  -3    9.39    0.93
   6  13  -3    8.36    0.99
  -5 -13   3   17.91    0.99
   5 -13  -3   18.43    0.94
  -5 -13   3   17.68    1.16
  -5  13   3   16.72    0.63
   5  13  -3   15.90    1.13
   5  13  -3   16.74    0.96
   5  13  -3   15.75    0.97
  -5  13   3   18.11    1.02
  -4 -13   3    0.96    0.39
   4 -13  -3    0.02    0.27
   4 -13  -3    0.10    0.35
  -4 -13   3   -0.31    0.32
  -4  13   3   -0.05    0.19
   4  13  -3   -0.36    0.36
  -4  13   3   -0.20    0.27
   4  13  -3   -0.05    0.32
   4  13  -3    0.20    0.40
  -4  13   3    0.24    0.21
   4  13  -3   -0.40    0.28
   3 -13  -3   30.16    1.14
  -3 -13   3   29.59    1.16
   3 -13  -3   29.40    1.28
  -3 -13   3   31.91    1.33
  -3  13   3   32.80    1.26
   3  13  -3   32.29    1.34
   3  13  -3   31.25    1.19
   3  13  -3   34.94    1.69
  -3  13   3   29.73    0.98
   3  13  -3   28.65    1.34
   2 -13  -3    4.73    0.69
   2 -13  -3    6.07    0.56
  -2 -13   3    5.39    0.70
  -2 -13   3    7.20    0.60
   2  13  -3    6.36    0.63
   2  13  -3    5.63    0.54
  -2  13   3    5.24    0.60
  -2  13   3    5.62    0.58
   1 -13  -3    2.97    0.44
  -1 -13   3    3.61    0.46
  -1 -13   3    3.28    0.51
   1 -13  -3    3.64    0.54
   1  13  -3    2.97    0.45
  -1  13   3    2.16    0.37
  -1  13   3    3.98    0.45
  -1  13   3    3.76    0.53
   1  13  -3    2.99    0.45
   0 -13  -3    7.36    0.54
   0 -13   3    6.65    0.54
   0 -13   3    7.62    0.66
   0 -13  -3    7.05    0.68
   0  13  -3    7.47    0.55
   0  13   3    7.11    0.55
   0  13   3    6.20    0.61
   0  13  -3    7.58    0.76
   0  13   3    6.70    0.66
  -1 -13  -3    3.94    0.47
  -1 -13  -3    5.01    0.81
   1 -13   3    4.73    0.47
  -1 -13  -3    3.79    0.41
   1 -13   3    4.90    0.53
   1  13   3    4.98    0.56
  -1  13  -3    3.76    0.53
   1  13   3    3.58    0.52
   1  13   3    5.29    0.61
  -1  13  -3    3.68    0.50
  -2 -13  -3   10.05    0.53
   2 -13   3    9.77    0.57
   2 -13   3   10.69    0.69
  -2 -13  -3    9.36    0.50
  -2 -13  -3    9.88    0.81
   2  13   3   10.67    0.71
   2  13   3    9.77    0.72
  -2  13  -3   10.06    0.58
   2  13   3   10.48    0.77
  -2  13  -3    9.44    0.87
  -3 -13  -3    1.54    0.45
   3 -13   3    1.51    0.27
  -3 -13  -3    1.51    0.22
   3 -13   3    1.74    0.38
   3  13   3    1.38    0.33
   3  13   3    1.67    0.42
  -4 -13  -3    1.20    0.49
   4 -13   3    0.35    0.37
   4  13   3    0.72    0.44
   4  13   3    0.38    0.33
   5 -13   3    1.30    0.46
  -5 -13  -3    1.23    0.59
   5  13   3    1.37    0.60
   5  13   3    1.18    0.44
  -6 -14   3    4.30    0.55
   6 -14  -3    3.28    0.55
  -6 -14   3    3.39    0.58
   6  14  -3    3.57    0.64
   6  14  -3    3.53    0.58
   6  14  -3    3.93    0.66
  -5 -14   3    0.06    0.44
   5 -14  -3    0.42    0.37
  -5 -14   3   -0.34    0.37
   5  14  -3    0.63    0.47
   5  14  -3   -0.12    0.40
   5  14  -3    0.56    0.40
   4 -14  -3   24.04    1.08
  -4 -14   3   23.72    1.25
   4 -14  -3   23.31    1.26
  -4 -14   3   22.02    1.06
   4  14  -3   22.49    1.23
  -4  14   3   22.40    0.88
  -4  14   3   23.90    1.12
   4  14  -3   23.31    1.09
  -4  14   3   23.01    0.85
   4  14  -3   22.65    1.07
   3 -14  -3   -0.08    0.26
   3 -14  -3    0.20    0.54
  -3 -14   3    0.25    0.38
  -3 -14   3   -0.15    0.28
  -3  14   3   -0.43    0.28
   3  14  -3   -0.07    0.33
  -3  14   3    0.00    0.29
   3  14  -3    0.01    0.27
   3  14  -3   -0.13    0.36
   2 -14  -3    7.09    0.62
  -2 -14   3    7.70    0.77
  -2 -14   3    6.80    0.62
   2  14  -3    6.84    0.73
   2  14  -3    6.90    0.62
  -2  14   3    7.06    0.67
  -2  14   3    5.50    0.72
  -1 -14   3   44.19    1.43
   1 -14  -3   43.64    1.40
  -1 -14   3   43.79    1.61
  -1  14   3   45.13    1.56
   1  14  -3   44.47    1.41
   1  14  -3   39.79    1.65
  -1  14   3   44.74    1.54
  -1  14   3   44.18    1.38
   0 -14   3    6.18    0.76
   0 -14   3    7.33    1.02
   0 -14  -3    6.67    0.71
   0 -14  -3    8.51    0.60
   0 -14   3    8.01    0.62
   0  14  -3    7.29    0.60
   0  14  -3    7.86    0.78
   0  14   3    7.77    0.69
   0  14   3    8.17    0.61
   0  14   3    7.15    0.69
  -1 -14  -3    4.23    0.64
   1 -14   3    2.76    0.41
  -1 -14  -3    3.89    0.46
   1 -14   3    4.49    0.49
   1 -14   3    3.86    0.70
   1  14   3    3.98    0.54
  -1  14  -3    3.52    0.53
   1  14   3    4.22    0.59
   1  14   3    3.12    0.44
   2 -14   3   40.20    1.63
  -2 -14  -3   44.40    1.25
   2 -14   3   43.86    1.28
  -2 -14  -3   44.51    1.66
  -2 -14  -3   40.71    1.35
   2  14   3   42.99    1.48
   2  14   3   43.34    1.48
  -2  14  -3   36.57    1.43
  -3 -14  -3    0.47    0.23
   3 -14   3    0.24    0.25
   3 -14   3    0.25    0.35
  -3 -14  -3    0.65    0.47
   3  14   3    0.51    0.33
   3  14   3   -0.13    0.33
   4 -14   3    8.00    0.78
  -4 -14  -3    8.29    0.99
   4  14   3    5.70    0.85
   4  14   3    8.47    0.76
   5 -14   3    2.01    0.53
  -5 -14  -3    1.78    0.71
   5  14   3    1.23    0.63
   5  14   3    0.98    0.61
  -6 -15   3   11.43    0.98
   6 -15  -3   10.10    1.05
   6  15  -3   10.82    1.13
   6  15  -3   11.01    1.13
   6  15  -3   12.15    1.20
   5 -15  -3   -0.55    0.39
  -5 -15   3    0.43    0.58
  -5 -15   3    0.22    0.38
  -5 -15   3   -0.40    0.40
   5  15  -3    0.31    0.39
   5  15  -3   -0.15    0.43
   5  15  -3   -0.80    0.44
  -4 -15   3   13.47    1.09
  -4 -15   3   11.93    0.87
   4 -15  -3   11.51    0.83
   4  15  -3   12.52    0.88
  -4  15   3   11.52    0.90
   4  15  -3   10.26    1.00
   4  15  -3   11.02    0.86
  -3 -15   3    0.71    0.34
   3 -15  -3   -0.08    0.28
  -3 -15   3   -0.21    0.43
  -3  15   3    0.05    0.35
   3  15  -3   -0.02    0.32
   3  15  -3    0.14    0.31
  -2 -15   3    0.69    0.31
  -2 -15   3   -0.81    0.38
   2 -15  -3    0.51    0.29
   2  15  -3    0.13    0.29
  -2  15   3    0.41    0.34
   2  15  -3    0.10    0.36
  -1 -15   3    6.68    0.63
  -1 -15   3    6.24    0.89
   1 -15  -3    6.91    0.70
   1 -15  -3    7.54    0.62
  -1 -15   3    6.91    0.69
   1  15  -3    6.87    0.70
  -1  15   3    7.83    0.75
  -1  15   3    6.63    0.60
  -1  15   3    7.93    0.73
   1  15  -3    6.63    0.71
   0 -15   3   86.74    2.34
   0 -15  -3   85.94    2.50
   0 -15   3   86.81    2.48
   0 -15   3   84.31    2.25
   0 -15  -3   85.26    2.24
   0  15  -3   82.95    2.43
   0  15  -3   82.45    2.51
   0  15   3   86.18    2.49
   0  15   3   85.41    2.47
   0  15   3   89.26    2.32
  -1 -15  -3   18.92    0.85
  -1 -15  -3   19.48    1.44
   1 -15   3   18.85    1.01
   1 -15   3   20.97    0.96
   1 -15   3   21.36    1.09
  -1  15  -3   20.64    1.04
   1  15   3   19.36    1.01
   1  15   3   21.52    0.99
   2 -15   3    2.93    0.41
  -2 -15  -3    3.09    0.55
   2 -15   3    4.25    0.62
  -2 -15  -3    3.36    0.46
   2  15   3    3.98    0.58
   2  15   3    2.71    0.47
   3 -15   3    0.57    0.39
   3 -15   3   -0.08    0.30
  -3 -15  -3    0.91    0.47
   3  15   3    0.06    0.39
   3  15   3    0.34    0.34
  -4 -15  -3    1.13    0.63
   4 -15   3    1.07    0.44
   4  15   3    1.74    0.53
   4  15   3    1.33    0.50
  -5 -16   3    5.33    0.63
   5 -16  -3    5.95    0.88
  -5 -16   3    6.10    0.85
   5  16  -3    7.66    0.94
   5  16  -3    6.83    1.03
   5  16  -3    7.03    0.91
  -4 -16   3    1.08    0.43
   4 -16  -3    0.85    0.41
  -4 -16   3    0.25    0.54
  -4 -16   3    0.65    0.40
   4  16  -3    1.30    0.42
  -4  16   3    0.67    0.46
   4  16  -3    0.18    0.49
   4  16  -3    0.87    0.37
  -3 -16   3   18.00    1.01
  -3 -16   3   16.01    1.61
  -3 -16   3   18.07    1.00
   3 -16  -3   19.79    0.98
  -3  16   3   19.73    1.11
   3  16  -3   19.02    1.00
   3  16  -3   19.48    1.26
   2 -16  -3   77.58    2.19
  -2 -16   3   77.86    2.23
  -2 -16   3   78.27    2.28
   2  16  -3   77.78    2.43
   2  16  -3   78.99    2.22
  -2  16   3   77.21    2.35
   1 -16  -3    0.33    0.36
  -1 -16   3    0.85    0.36
  -1 -16   3    0.29    0.32
  -1 -16   3    1.00    0.35
   1 -16  -3    0.37    0.31
  -1  16   3    0.12    0.28
  -1  16   3    0.90    0.43
  -1  16   3    0.36    0.42
   1  16  -3    0.53    0.35
   1  16  -3    0.28    0.31
   0 -16   3    2.84    0.45
   0 -16  -3    2.17    0.48
   0 -16   3    2.25    0.44
   0 -16   3    2.45    0.45
   0 -16  -3    1.65    0.39
   0  16   3    2.75    0.46
   0  16  -3    1.88    0.41
   0  16  -3    2.60    0.40
   0  16   3    2.30    0.45
  -1 -16  -3    1.29    0.34
  -1 -16  -3    1.74    0.49
   1 -16   3    1.26    0.37
   1 -16   3    2.41    0.44
   1 -16   3    1.97    0.41
   1  16   3    1.70    0.39
   1  16   3    1.98    0.46
   2 -16   3    0.44    0.36
   2 -16   3    0.94    0.36
  -2 -16  -3    0.41    0.46
  -2 -16  -3    1.02    0.34
   2  16   3    0.86    0.44
   2  16   3    1.05    0.36
  -3 -16  -3    0.94    0.56
   3 -16   3    0.15    0.40
   3  16   3    0.02    0.38
   3  16   3    0.26    0.44
  -4 -16  -3    2.93    0.77
   4 -16   3    3.42    0.59
   4  16   3    3.12    0.69
   4  16   3    2.30    0.63
  -5 -17   3   -0.37    0.51
   5 -17  -3    0.20    0.57
   5  17  -3   -0.31    0.63
   5  17  -3    0.52    0.53
   5  17  -3   -0.88    0.56
  -4 -17   3    0.06    0.44
  -4 -17   3   -0.13    0.44
   4 -17  -3    0.17    0.41
   4  17  -3   -0.39    0.42
  -4  17   3   -0.13    0.49
   4  17  -3    0.45    0.43
   4  17  -3    1.12    0.63
   3 -17  -3    1.73    0.40
  -3 -17   3    0.92    0.42
  -3 -17   3    0.73    0.44
  -3 -17   3    1.33    0.51
   3  17  -3   -0.04    0.56
   3  17  -3    1.15    0.41
  -3  17   3    1.55    0.49
   2 -17  -3   14.61    0.86
  -2 -17   3   12.81    0.92
  -2 -17   3   14.51    1.08
  -2 -17   3   13.21    0.91
  -2  17   3   10.31    1.16
   2  17  -3   13.50    1.08
   2  17  -3   14.71    0.89
   1 -17  -3   -0.66    0.36
  -1 -17   3    0.19    0.35
  -1 -17   3   -0.75    0.55
  -1 -17   3    0.23    0.38
   1 -17  -3    0.17    0.34
  -1  17   3    0.25    0.33
   1  17  -3   -0.87    0.41
   1  17  -3   -0.52    0.31
  -1  17   3   -0.30    0.35
   0 -17   3    9.32    0.83
   0 -17   3    7.62    0.84
   0 -17   3    7.13    0.73
   0 -17  -3    7.69    0.69
   0 -17  -3    8.32    0.89
   0  17  -3    7.69    0.69
   0  17   3    8.45    0.76
   0  17  -3    7.11    0.82
   0  17   3    8.20    0.82
   1 -17   3   -0.31    0.36
  -1 -17  -3    0.17    0.34
   1 -17   3   -0.36    0.34
  -1 -17  -3   -0.44    0.43
   1 -17   3    0.38    0.39
   1  17   3    0.53    0.40
   1  17   3    0.44    0.34
  -2 -17  -3    0.40    0.35
   2 -17   3    0.75    0.43
   2 -17   3   -0.01    0.37
  -2 -17  -3    0.29    0.53
   2  17   3    0.41    0.37
   2  17   3    0.69    0.43
   3 -17   3    8.11    0.88
  -3 -17  -3    7.45    1.09
   3  17   3    7.48    0.88
   3  17   3    8.40    0.98
  -4 -18   3    0.02    0.65
   4 -18  -3    0.78    0.55
  -4 -18   3    1.41    0.56
  -4 -18   3    0.94    0.52
   4  18  -3    0.02    0.46
   4  18  -3   -0.19    0.63
   3 -18  -3    0.48    0.42
  -3 -18   3    0.08    0.43
  -3 -18   3   -1.00    0.44
  -3 -18   3   -0.32    0.49
  -3  18   3    0.04    0.55
   3  18  -3    0.10    0.40
   3  18  -3    0.24    0.51
  -2 -18   3   13.09    1.05
  -2 -18   3   14.01    1.00
  -2 -18   3   15.38    1.02
   2 -18  -3   14.27    0.93
  -2  18   3   13.36    1.03
   2  18  -3   14.71    1.22
   2  18  -3   15.82    0.93
  -1 -18   3    1.83    0.51
  -1 -18   3    1.62    0.50
  -1 -18   3    1.98    0.47
   1 -18  -3    1.98    0.54
   1 -18  -3    1.87    0.42
  -1  18   3    1.78    0.44
   1  18  -3    1.55    0.50
  -1  18   3    1.99    0.43
   1  18  -3    1.90    0.41
   0 -18   3    1.19    0.43
   0 -18  -3    1.08    0.38
   0 -18  -3    0.99    0.47
   0 -18   3    1.79    0.49
   0 -18   3    1.20    0.46
   0  18   3    0.40    0.38
   0  18   3    1.56    0.46
   0  18  -3    1.26    0.39
   1 -18   3    2.46    0.50
  -1 -18  -3    2.54    0.43
  -1 -18  -3    1.97    0.55
   1 -18   3    3.42    0.61
   1  18   3    2.60    0.49
   1  18   3    2.46    0.51
  -2 -18  -3    0.10    0.38
   2 -18   3    0.24    0.43
   2 -18   3    0.49    0.46
  -2 -18  -3    0.58    0.62
   2  18   3    0.61    0.51
   2  18   3    0.70    0.47
   3 -18   3    2.98    0.62
  -3 -18  -3    3.71    0.86
   3  18   3    3.88    0.71
  -3 -19   3    1.60    0.57
  -3 -19   3    1.26    0.60
   3 -19  -3    1.86    0.54
  -3 -19   3    2.55    0.63
  -3  19   3    2.11    0.66
   3  19  -3    2.07    0.57
   3  19  -3    2.03    0.66
  -2 -19   3    1.40    0.50
   2 -19  -3    1.40    0.48
  -2 -19   3    1.26    0.50
   2  19  -3    0.13    0.41
  -2  19   3    0.81    0.44
   2  19  -3   -0.51    0.58
   1 -19  -3    2.10    0.48
  -1 -19   3    1.79    0.54
   1 -19  -3    1.39    0.54
  -1 -19   3    1.99    0.52
  -1  19   3    1.85    0.47
   1  19  -3    1.36    0.45
  -1  19   3    1.17    0.45
   0 -19  -3   33.61    1.64
   0 -19   3   32.52    1.51
   0 -19  -3   33.58    1.34
   0 -19   3   34.98    1.43
   0 -19   3   33.37    1.58
   0  19   3   34.75    1.53
   0  19   3   38.34    1.50
   0  19  -3   32.92    1.35
  -1 -19  -3   31.64    1.68
  -1 -19  -3   29.45    1.23
   1 -19   3   31.47    1.47
   1 -19   3   30.18    1.46
   1  19   3   29.25    1.48
   1  19   3   32.05    1.45
  -2 -19  -3    0.39    0.44
  -2 -19  -3    0.45    0.80
   2 -19   3    0.18    0.53
   2  19   3    0.59    0.56
   2  19   3    0.18    0.57
   2 -20  -3   16.21    1.55
  -2 -20   3   16.98    1.36
  -2 -20   3   14.24    1.38
  -2 -20   3   13.47    1.17
  -2  20   3   14.60    1.18
   2  20  -3   15.72    1.17
   1 -20  -3   -0.45    0.59
  -1 -20   3    0.58    0.62
   1 -20  -3    0.46    0.46
  -1 -20   3   -0.04    0.51
  -1 -20   3    1.48    0.63
  -1  20   3   -0.48    0.43
   1  20  -3    0.82    0.50
  -1  20   3    1.05    0.54
   0 -20   3    7.49    0.92
   0 -20   3    9.66    1.10
   0 -20  -3    8.32    0.84
   0 -20  -3    6.26    0.97
   0  20   3    9.62    1.06
   0  20  -3   10.23    0.93
   0  20   3    9.52    1.09
   8   0  -4   20.50    1.13
   8   0  -4   19.89    1.04
   7   0  -4   38.28    1.29
  -7   0   4   38.76    1.44
   7   0  -4   36.42    1.38
  -7   0   4   36.33    1.12
   6   0  -4    7.01    0.76
   6   0  -4    8.48    0.64
  -6   0   4    9.66    0.51
   6   0  -4    8.71    0.66
   6   0  -4    7.78    0.53
  -6   0   4    8.91    0.67
  -5   0   4  141.85    3.38
   5   0  -4  141.22    3.19
   5   0  -4  147.62    3.41
   5   0  -4  145.35    3.29
   5   0  -4  144.11    3.26
  -5   0   4  149.06    3.22
  -4   0   4   22.37    0.65
  -4   0   4   21.14    0.79
   4   0  -4   23.14    0.78
   4   0  -4   23.09    0.77
  -4   0   4   21.81    0.87
   4   0  -4   24.29    0.89
  -4   0   4   21.78    0.78
   4   0  -4   22.50    0.79
   3   0  -4  486.72    9.82
  -3   0   4  494.21    9.80
   3   0  -4  486.32    9.72
   3   0  -4  505.85    9.78
  -3   0   4  487.64    9.86
  -3   0   4  489.15    9.85
   3   0  -4  508.19    9.95
   3   0  -4  494.10    9.88
  -3   0   4  493.83    9.93
   2   0  -4  306.98    6.24
  -2   0   4  299.69    6.22
   2   0  -4  301.09    6.12
   2   0  -4  317.36    6.24
   2   0  -4  296.54    5.96
  -2   0   4  306.45    6.23
   2   0  -4  306.30    6.22
  -2   0   4  300.46    6.23
  -2   0   4  303.52    6.15
   1   0  -4  291.07    6.06
  -1   0   4  293.71    5.88
   1   0  -4  296.10    6.04
  -1   0   4  287.39    6.01
   1   0  -4  291.06    5.94
  -1   0   4  295.77    5.95
   1   0  -4  289.95    5.83
  -1   0   4  301.82    6.09
   0   0   4    5.82    0.38
   0   0  -4    5.77    0.43
   0   0   4    5.87    0.42
   0   0   4    5.70    0.31
   0   0  -4    6.67    0.30
   1   0   4   62.25    1.69
  -1   0  -4   58.31    1.65
  -1   0  -4   61.04    1.30
   1   0   4   58.69    1.31
   1   0   4   59.84    1.55
   1   0   4   57.77    1.28
   1   0   4   61.17    1.32
   2   0   4   91.49    2.04
   2   0   4   88.49    2.34
  -2   0  -4   92.09    2.35
   2   0   4   92.26    2.20
   3   0   4  379.70    7.68
  -3   0  -4  378.68    7.88
   3   0   4  365.04    7.60
   4   0   4  123.81    2.89
   4   0   4  120.46    2.86
  -4   0  -4  120.46    3.04
   5   0   4    5.53    0.53
   5   0   4    5.26    0.67
   6   0   4    5.81    0.72
   8  -1  -4    6.11    0.74
   8  -1  -4    6.06    0.74
   8   1  -4    5.79    0.74
   8   1  -4    5.75    0.78
   7  -1  -4   12.26    0.82
  -7  -1   4   12.49    0.64
   7  -1  -4   12.84    0.74
  -7  -1   4   12.25    0.85
   7   1  -4   12.13    0.63
  -7   1   4   12.99    0.86
   7   1  -4   13.07    0.83
   7   1  -4   14.19    0.78
  -7   1   4   13.05    0.60
   6  -1  -4    0.16    0.19
   6  -1  -4    0.20    0.27
  -6  -1   4    0.39    0.29
  -6  -1   4   -0.08    0.20
   6  -1  -4    0.28    0.30
  -6   1   4    0.67    0.21
   6   1  -4    0.39    0.31
   6   1  -4   -0.17    0.25
  -6   1   4    0.01    0.26
   6   1  -4   -0.10    0.22
   5  -1  -4    9.89    0.57
   5  -1  -4    9.93    0.58
   5  -1  -4    9.08    0.61
  -5  -1   4   10.66    0.65
   5  -1  -4   10.34    0.50
  -5  -1   4   10.90    0.55
  -5   1   4   11.39    0.54
   5   1  -4   10.39    0.57
   5   1  -4   10.04    0.62
   5   1  -4    9.93    0.59
   5   1  -4   10.03    0.51
  -5   1   4   10.67    0.64
  -4  -1   4   88.61    1.96
   4  -1  -4   89.04    2.10
   4  -1  -4   89.97    2.09
  -4  -1   4   85.40    2.12
   4  -1  -4   89.99    2.24
   4  -1  -4   89.04    2.13
  -4  -1   4   89.82    2.13
   4  -1  -4   87.34    2.06
  -4  -1   4   92.68    2.25
  -4   1   4   90.75    2.23
   4   1  -4   89.21    2.13
   4   1  -4   88.22    2.08
  -4   1   4   89.86    1.95
   4   1  -4   91.26    2.24
   4   1  -4   91.40    2.13
  -4   1   4   89.07    2.10
  -4   1   4   86.78    2.14
   3  -1  -4  145.56    3.09
   3  -1  -4  147.37    3.15
  -3  -1   4  149.76    3.16
  -3  -1   4  145.55    3.23
   3  -1  -4  142.41    3.17
  -3  -1   4  150.07    3.20
   3  -1  -4  150.28    3.30
  -3  -1   4  144.60    3.28
   3  -1  -4  146.01    3.22
   3   1  -4  151.99    3.24
  -3   1   4  149.70    3.22
   3   1  -4  146.15    3.28
  -3   1   4  147.66    3.29
  -3   1   4  147.19    3.21
  -3   1   4  146.51    3.14
   3   1  -4  144.36    3.09
   3   1  -4  146.60    3.18
  -2  -1   4  166.87    3.62
   2  -1  -4  165.12    3.61
  -2  -1   4  169.18    3.62
   2  -1  -4  171.75    3.63
   2  -1  -4  164.58    3.50
  -2  -1   4  169.02    3.54
  -2  -1   4  170.00    3.62
   2  -1  -4  167.58    3.61
   2  -1  -4  162.67    3.36
   2   1  -4  172.31    3.62
  -2   1   4  170.83    3.61
   2   1  -4  163.84    3.36
   2   1  -4  170.69    3.60
   2   1  -4  165.71    3.51
  -2   1   4  162.71    3.59
  -2   1   4  170.53    3.55
  -2   1   4  171.17    3.62
   1  -1  -4   34.24    1.06
  -1  -1   4   34.63    0.91
   1  -1  -4   34.86    0.88
  -1  -1   4   35.04    0.97
  -1  -1   4   36.32    1.03
   1  -1  -4   35.01    1.03
   1  -1  -4   34.43    0.97
  -1   1   4   35.02    0.97
   1   1  -4   36.77    0.90
   1   1  -4   33.48    1.01
   1   1  -4   33.63    1.04
  -1   1   4   35.11    1.06
   1   1  -4   35.34    0.96
  -1   1   4   34.84    0.92
  -1   1   4   34.58    1.02
   0  -1  -4    6.73    0.46
   0  -1   4    6.59    0.45
   0  -1   4    5.95    0.39
   0  -1   4    6.18    0.32
   0  -1  -4    6.43    0.31
   0   1  -4    6.52    0.31
   0   1  -4    6.23    0.44
   0   1   4    6.87    0.36
   0   1   4    6.49    0.44
   0   1   4    6.92    0.41
   0   1  -4    6.12    0.38
   0   1   4    6.73    0.32
  -1  -1  -4   10.54    0.60
  -1  -1  -4   11.07    0.36
   1  -1   4    9.74    0.58
   1  -1   4   10.11    0.33
   1  -1   4   10.80    0.38
   1  -1   4   10.93    0.36
   1  -1   4   10.25    0.51
   1   1   4   11.04    0.61
   1   1   4   10.54    0.34
   1   1   4   10.90    0.37
  -1   1  -4   10.42    0.33
   1   1   4   10.57    0.36
  -1   1  -4   10.98    0.60
   1   1   4   10.27    0.53
   2  -1   4  122.63    2.78
  -2  -1  -4  120.02    2.95
   2  -1   4  125.73    2.64
   2  -1   4  115.12    2.94
   2   1   4  120.88    2.43
   2   1   4  119.73    2.94
   2   1   4  124.96    2.83
   2   1   4  123.91    2.64
  -2   1  -4  123.58    2.94
   3  -1   4   13.84    0.64
   3  -1   4   14.18    0.63
  -3  -1  -4   12.17    0.77
   3   1   4   14.02    0.68
  -3   1  -4   13.95    0.79
   3   1   4   13.91    0.63
  -4  -1  -4   23.09    1.07
   4  -1   4   24.75    0.94
   4  -1   4   25.17    0.89
   4   1   4   25.33    0.95
   4   1   4   24.19    0.95
  -5  -1  -4   31.53    1.30
   5  -1   4   29.56    1.04
   5  -1   4   31.04    1.23
   5   1   4   32.44    1.26
   5   1   4   32.27    1.13
   6  -1   4    5.61    0.71
   6   1   4    5.05    0.69
  -8  -2   4    7.32    0.67
   8  -2  -4    8.45    0.78
   8  -2  -4    8.55    0.86
   8   2  -4    8.18    0.85
   8   2  -4    7.94    0.78
   7  -2  -4    2.30    0.41
   7  -2  -4    2.41    0.43
  -7  -2   4    2.64    0.47
  -7  -2   4    2.90    0.36
   7   2  -4    2.89    0.42
  -7   2   4    2.66    0.32
   7   2  -4    2.53    0.37
  -7   2   4    2.60    0.44
   7   2  -4    2.20    0.44
  -6  -2   4   64.32    1.96
   6  -2  -4   63.81    1.60
   6  -2  -4   63.37    1.89
  -6  -2   4   63.95    1.68
   6  -2  -4   63.50    1.84
   6   2  -4   62.06    1.83
  -6   2   4   66.22    1.61
   6   2  -4   62.19    1.66
   6   2  -4   64.19    1.88
  -6   2   4   63.07    1.98
   5  -2  -4   16.32    0.72
  -5  -2   4   16.48    0.69
   5  -2  -4   16.82    0.74
  -5  -2   4   15.93    0.44
   5  -2  -4   16.99    0.63
  -5  -2   4   16.44    0.81
   5  -2  -4   15.18    0.78
   5   2  -4   16.55    0.73
   5   2  -4   15.20    0.66
  -5   2   4   15.75    0.76
  -5   2   4   16.34    0.63
   5   2  -4   15.46    0.72
   5   2  -4   15.71    0.77
   4  -2  -4    1.22    0.24
   4  -2  -4    0.66    0.23
   4  -2  -4    1.01    0.25
   4  -2  -4    0.72    0.19
   4  -2  -4    0.73    0.18
  -4  -2   4    1.04    0.23
  -4  -2   4    0.75    0.23
  -4  -2   4    1.02    0.18
  -4  -2   4    1.24    0.25
   4   2  -4    0.75    0.23
  -4   2   4    1.04    0.21
  -4   2   4    0.88    0.23
   4   2  -4    0.82    0.21
   4   2  -4    0.99    0.20
  -4   2   4    0.74    0.21
   4   2  -4    0.99    0.23
   3  -2  -4    0.12    0.17
  -3  -2   4    0.28    0.17
   3  -2  -4    0.12    0.14
  -3  -2   4    0.37    0.15
   3  -2  -4    0.86    0.20
  -3  -2   4    0.29    0.17
  -3  -2   4    0.53    0.19
   3  -2  -4   -0.07    0.16
  -3   2   4   -0.02    0.13
   3   2  -4    0.24    0.16
  -3   2   4    0.57    0.16
   3   2  -4    0.06    0.15
   3   2  -4    0.13    0.16
  -3   2   4    0.02    0.16
  -2  -2   4  119.24    2.56
   2  -2  -4  117.65    2.65
   2  -2  -4  118.43    2.65
   2  -2  -4  119.00    2.55
   2  -2  -4  119.79    2.66
  -2  -2   4  118.13    2.65
  -2  -2   4  115.43    2.65
   2  -2  -4  116.84    2.40
  -2  -2   4  118.27    2.65
  -2   2   4  115.93    2.63
   2   2  -4  115.45    2.41
  -2   2   4  117.33    2.58
   2   2  -4  118.78    2.67
  -2   2   4  114.04    2.63
  -2   2   4  111.35    2.61
   2   2  -4  117.23    2.55
   2   2  -4  117.66    2.63
   1  -2  -4   -0.04    0.05
   1  -2  -4   -0.01    0.15
   1  -2  -4   -0.06    0.11
  -1  -2   4    0.07    0.09
  -1  -2   4    0.20    0.17
  -1  -2   4    0.08    0.10
  -1  -2   4    0.00    0.12
   1  -2  -4   -0.11    0.09
   1   2  -4    0.14    0.13
   1   2  -4    0.23    0.11
  -1   2   4    0.04    0.10
  -1   2   4   -0.03    0.13
  -1   2   4    0.00    0.09
  -1   2   4   -0.04    0.12
   1   2  -4    0.19    0.14
   0  -2  -4  106.89    2.31
   0  -2  -4  103.86    2.53
   0  -2   4  106.99    2.32
   0  -2   4  106.81    2.43
   0  -2   4  106.36    2.25
   0  -2  -4  105.10    2.13
   0  -2   4  109.12    2.65
   0  -2  -4  103.34    2.12
   0   2  -4  102.89    2.43
   0   2   4  106.72    2.26
   0   2  -4  105.86    2.50
   0   2   4  105.45    2.12
   0   2   4  107.70    2.46
   0   2   4  105.82    2.54
   0   2  -4  108.33    2.28
   0   2   4  106.08    2.30
   1  -2   4  120.31    2.49
   1  -2   4  116.97    2.45
  -1  -2  -4  120.14    2.86
  -1  -2  -4  120.19    2.48
   1  -2   4  118.65    2.84
   1  -2   4  117.07    2.68
   1  -2   4  116.34    2.44
  -1   2  -4  119.06    2.81
   1   2   4  118.65    2.83
   1   2   4  117.73    2.73
   1   2   4  118.36    2.48
  -1   2  -4  121.41    2.72
   1   2   4  118.68    2.46
  -1   2  -4  120.26    2.47
  -1   2  -4  120.00    2.45
   1   2   4  118.80    2.48
  -2  -2  -4   28.36    1.06
   2  -2   4   27.67    0.90
   2  -2   4   25.38    1.03
   2  -2   4   26.49    0.63
   2  -2   4   28.48    0.81
   2   2   4   27.60    0.82
   2   2   4   27.42    0.66
   2   2   4   28.82    0.97
   2   2   4   25.05    1.00
   3  -2   4    0.39    0.22
  -3  -2  -4    0.19    0.31
   3  -2   4    0.02    0.19
   3   2   4   -0.22    0.19
   3   2   4    0.29    0.10
   3   2   4    0.05    0.22
   4  -2   4    3.25    0.47
   4  -2   4    3.45    0.40
  -4  -2  -4    3.76    0.51
   4   2   4    3.26    0.48
   4   2   4    3.23    0.47
  -5  -2  -4    9.57    0.77
   5  -2   4    9.96    0.60
   5  -2   4    9.17    0.77
   5   2   4    9.34    0.88
   5   2   4    8.67    0.68
   6  -2   4    0.23    0.45
   6   2   4   -0.17    0.40
   6   2   4    0.26    0.49
  -8  -3   4    2.41    0.42
   8  -3  -4    1.49    0.45
   8  -3  -4    1.52    0.49
   8   3  -4    2.10    0.48
   8   3  -4    1.99    0.49
  -7  -3   4    1.78    0.34
  -7  -3   4    2.21    0.46
   7  -3  -4    1.13    0.41
   7  -3  -4    1.12    0.33
   7   3  -4    1.23    0.34
   7   3  -4    1.41    0.41
  -7   3   4    1.97    0.42
  -7   3   4    1.38    0.25
   6  -3  -4   65.77    1.88
   6  -3  -4   65.70    1.61
   6  -3  -4   63.39    1.90
  -6  -3   4   67.20    1.98
   6  -3  -4   67.07    1.96
  -6  -3   4   66.00    1.75
   6   3  -4   64.55    1.88
   6   3  -4   65.46    1.91
   6   3  -4   63.53    1.74
   6   3  -4   61.94    1.84
  -6   3   4   69.39    2.10
  -6   3   4   63.54    1.59
   5  -3  -4    8.84    0.33
   5  -3  -4    9.25    0.46
  -5  -3   4    9.62    0.64
  -5  -3   4    8.41    0.35
  -5  -3   4    9.26    0.55
   5  -3  -4    9.04    0.56
   5  -3  -4    8.26    0.60
  -5   3   4    9.20    0.61
   5   3  -4    8.43    0.56
  -5   3   4    8.78    0.46
   5   3  -4    8.97    0.57
   5   3  -4    8.22    0.52
   5   3  -4    8.70    0.57
  -4  -3   4   94.55    2.35
   4  -3  -4   96.08    2.35
   4  -3  -4   89.73    2.15
  -4  -3   4   94.73    2.25
   4  -3  -4   95.58    2.23
  -4  -3   4   88.00    2.19
   4  -3  -4   95.18    2.09
  -4  -3   4   91.27    2.07
   4   3  -4   90.71    2.21
   4   3  -4   93.33    2.30
  -4   3   4   86.97    2.21
   4   3  -4   93.50    2.23
  -4   3   4   94.18    2.16
   4   3  -4   95.57    2.20
  -4   3   4   92.76    2.30
   3  -3  -4    6.95    0.46
  -3  -3   4    7.21    0.50
  -3  -3   4    6.50    0.39
   3  -3  -4    6.99    0.43
   3  -3  -4    6.75    0.43
  -3  -3   4    7.10    0.45
   3  -3  -4    6.57    0.40
  -3  -3   4    6.71    0.39
   3   3  -4    6.79    0.39
  -3   3   4    6.91    0.37
   3   3  -4    7.00    0.42
   3   3  -4    6.05    0.42
  -3   3   4    6.88    0.46
  -3   3   4    6.48    0.41
   3   3  -4    6.55    0.42
  -3   3   4    6.49    0.40
   2  -3  -4   74.60    1.60
  -2  -3   4   74.30    1.59
   2  -3  -4   73.13    1.83
  -2  -3   4   72.72    1.82
   2  -3  -4   72.73    1.82
  -2  -3   4   75.14    1.73
  -2  -3   4   75.59    1.85
  -2  -3   4   74.80    1.82
   2  -3  -4   75.62    1.73
   2   3  -4   74.27    1.74
   2   3  -4   71.16    1.78
  -2   3   4   73.62    1.80
  -2   3   4   76.42    1.83
   2   3  -4   74.97    1.82
  -2   3   4   69.36    1.74
   2   3  -4   72.38    1.60
  -2   3   4   73.79    1.80
   1  -3  -4    1.26    0.24
  -1  -3   4    1.73    0.28
  -1  -3   4    1.23    0.17
   1  -3  -4    1.69    0.23
  -1  -3   4    1.34    0.21
   1  -3  -4    1.48    0.15
  -1  -3   4    1.64    0.26
  -1  -3   4    1.31    0.11
   1  -3  -4    1.38    0.20
  -1   3   4    1.27    0.20
   1   3  -4    1.42    0.10
   1   3  -4    1.54    0.21
  -1   3   4    1.18    0.23
  -1   3   4    1.37    0.20
  -1   3   4    1.38    0.22
   1   3  -4    1.83    0.25
   1   3  -4    1.42    0.19
   0  -3  -4   40.97    1.27
   0  -3  -4   42.16    0.94
   0  -3   4   40.78    1.16
   0  -3   4   42.90    0.93
   0  -3   4   41.40    1.09
   0  -3  -4   40.36    1.06
   0  -3  -4   40.03    0.91
   0  -3   4   42.75    1.14
   0  -3   4   41.69    1.25
   0   3   4   41.54    1.24
   0   3  -4   39.72    1.15
   0   3   4   40.77    1.03
   0   3   4   41.40    0.92
   0   3  -4   41.36    1.03
   0   3   4   40.93    1.19
   0   3   4   40.27    1.06
  -1  -3  -4    5.80    0.50
   1  -3   4    6.09    0.49
  -1  -3  -4    6.69    0.31
  -1  -3  -4    6.18    0.30
   1  -3   4    6.46    0.28
   1  -3   4    6.30    0.32
   1  -3   4    6.28    0.26
   1  -3   4    6.31    0.41
   1   3   4    5.91    0.32
  -1   3  -4    6.39    0.30
   1   3   4    5.99    0.46
   1   3   4    6.17    0.30
  -1   3  -4    6.52    0.40
   1   3   4    6.36    0.45
  -1   3  -4    6.28    0.27
   2  -3   4    6.78    0.39
   2  -3   4    5.61    0.24
   2  -3   4    6.53    0.42
  -2  -3  -4    6.16    0.54
   2  -3   4    5.07    0.54
   2   3   4    7.54    0.57
   2   3   4    6.32    0.27
   2   3   4    6.22    0.27
   2   3   4    6.18    0.39
   2   3   4    6.15    0.48
   2   3   4    6.37    0.30
   3  -3   4  132.51    3.01
   3  -3   4  137.89    3.03
  -3  -3  -4  134.63    3.30
   3   3   4  132.09    3.03
   3   3   4  133.81    2.75
   3   3   4  137.99    3.17
   4  -3   4    2.10    0.29
  -4  -3  -4    2.35    0.43
   4  -3   4    1.92    0.35
   4   3   4    2.30    0.31
   4   3   4    2.15    0.36
   4   3   4    1.98    0.34
   4   3   4    1.99    0.24
   5  -3   4    5.39    0.48
  -5  -3  -4    5.23    0.69
   5  -3   4    5.26    0.80
   5   3   4    5.90    0.67
   6  -3   4    0.02    0.48
  -6  -3  -4    0.28    0.46
   6   3   4   -0.55    0.47
   6   3   4    0.13    0.57
   8  -4  -4    3.51    0.53
   8  -4  -4    3.99    0.64
  -8  -4   4    3.40    0.49
   8   4  -4    3.91    0.60
   8   4  -4    4.96    0.61
   7  -4  -4   14.60    0.81
  -7  -4   4   13.77    0.76
   7  -4  -4   15.15    0.90
  -7  -4   4   13.22    0.93
   7   4  -4   15.31    1.17
  -7   4   4   13.82    0.57
  -7   4   4   16.20    0.92
   7   4  -4   15.33    0.83
   6  -4  -4    5.76    0.58
  -6  -4   4    5.08    0.51
  -6  -4   4    5.12    0.59
   6  -4  -4    4.28    0.76
   6  -4  -4    6.14    0.58
  -6   4   4    5.17    0.39
   6   4  -4    5.47    0.62
   6   4  -4    5.00    0.53
  -6   4   4    5.05    0.56
   6   4  -4    5.80    0.57
   5  -4  -4   63.53    1.81
  -5  -4   4   63.00    1.83
  -5  -4   4   60.37    1.42
  -5  -4   4   62.39    1.67
   5  -4  -4   60.87    1.68
   5   4  -4   61.34    1.69
   5   4  -4   60.47    1.66
  -5   4   4   61.17    1.53
  -5   4   4   63.78    1.78
   5   4  -4   61.05    1.70
   5   4  -4   59.93    1.73
  -4  -4   4    6.12    0.37
  -4  -4   4    5.42    0.52
   4  -4  -4    6.35    0.48
   4  -4  -4    6.40    0.45
  -4  -4   4    4.98    0.43
  -4  -4   4    6.02    0.46
   4  -4  -4    6.07    0.41
   4   4  -4    5.98    0.43
   4   4  -4    5.89    0.44
   4   4  -4    5.81    0.45
  -4   4   4    5.92    0.45
  -4   4   4    6.11    0.48
  -4   4   4    6.10    0.40
   4   4  -4    5.94    0.45
   3  -4  -4  265.39    5.55
   3  -4  -4  269.06    5.56
  -3  -4   4  275.19    5.71
  -3  -4   4  263.82    5.68
  -3  -4   4  270.02    5.54
  -3  -4   4  265.01    5.62
  -3  -4   4  264.58    5.54
   3   4  -4  269.17    5.62
  -3   4   4  268.16    5.55
  -3   4   4  273.01    5.67
   3   4  -4  259.84    5.47
  -3   4   4  274.21    5.60
   3   4  -4  269.98    5.58
   3   4  -4  274.91    5.66
  -2  -4   4   29.15    0.95
  -2  -4   4   30.77    0.98
   2  -4  -4   29.59    0.86
  -2  -4   4   29.58    0.76
  -2  -4   4   30.12    0.94
  -2  -4   4   29.19    0.86
   2  -4  -4   29.18    0.94
   2  -4  -4   28.86    0.96
  -2   4   4   28.35    0.89
  -2   4   4   29.56    0.91
   2   4  -4   28.12    0.79
   2   4  -4   29.86    0.88
   2   4  -4   29.52    0.94
  -2   4   4   29.00    0.94
  -2   4   4   29.05    0.92
   2   4  -4   29.21    0.91
   1  -4  -4   33.85    1.10
   1  -4  -4   34.26    0.90
   1  -4  -4   34.42    1.00
  -1  -4   4   34.20    1.07
  -1  -4   4   33.68    0.92
  -1  -4   4   34.06    1.04
   1  -4  -4   35.34    0.86
  -1  -4   4   33.83    0.80
  -1  -4   4   35.27    1.03
  -1   4   4   33.17    0.99
   1   4  -4   35.65    0.98
  -1   4   4   33.35    0.95
   1   4  -4   34.30    1.03
  -1   4   4   34.38    1.06
   1   4  -4   34.57    0.93
  -1   4   4   34.13    1.04
   1   4  -4   34.26    0.79
   0  -4   4   28.30    0.99
   0  -4  -4   29.15    0.74
   0  -4  -4   28.25    0.70
   0  -4  -4   28.72    0.83
   0  -4   4   28.43    0.91
   0  -4  -4   27.32    1.00
   0  -4   4   28.46    0.78
   0  -4   4   28.97    0.86
   0  -4   4   28.01    0.71
   0   4   4   28.19    0.95
   0   4   4   28.68    0.84
   0   4   4   28.24    0.97
   0   4   4   28.29    0.73
   0   4  -4   28.21    0.90
   0   4   4   28.95    0.81
   0   4  -4   29.05    0.80
   1  -4   4   49.32    1.13
  -1  -4  -4   51.31    1.22
  -1  -4  -4   50.04    1.51
   1  -4   4   49.94    1.21
  -1  -4  -4   50.22    1.20
   1  -4   4   49.43    1.33
   1  -4   4   47.78    1.47
   1   4   4   48.42    1.20
   1   4   4   49.26    1.18
  -1   4  -4   49.59    1.19
  -1   4  -4   45.87    1.51
   1   4   4   48.47    1.40
  -1   4  -4   49.18    1.14
   1   4   4   50.24    1.21
   1   4   4   49.25    1.23
   1   4   4   47.09    1.44
  -2  -4  -4   11.31    0.71
   2  -4   4   12.86    0.75
   2  -4   4   11.33    0.55
  -2  -4  -4   11.99    0.51
   2  -4   4   11.28    0.39
  -2  -4  -4   11.19    0.40
   2  -4   4   11.84    0.39
   2   4   4   12.25    0.42
   2   4   4   12.30    0.48
   2   4   4   11.66    0.53
   2   4   4   10.21    0.81
   2   4   4   12.75    0.65
   3  -4   4  310.88    6.41
   3  -4   4  317.56    6.45
  -3  -4  -4  311.17    6.76
   3   4   4  316.98    6.47
   3   4   4  317.96    6.61
   3   4   4  297.66    6.20
   4  -4   4   19.42    0.85
   4  -4   4   18.59    0.56
  -4  -4  -4   17.88    0.98
   4  -4   4   19.22    0.72
   4   4   4   19.24    0.90
   4   4   4   18.96    0.60
   4   4   4   18.35    0.87
   4   4   4   17.53    0.66
   5  -4   4    1.92    0.55
  -5  -4  -4    1.46    0.41
   5   4   4    1.11    0.40
   5   4   4    0.96    0.40
   6  -4   4    0.68    0.49
  -6  -4  -4    0.44    0.47
   6   4   4    0.66    0.46
   6   4   4    0.58    0.53
   8  -5  -4   -0.26    0.43
   8  -5  -4   -0.26    0.36
  -8  -5   4   -0.42    0.41
   8   5  -4   -0.48    0.44
   8   5  -4    0.40    0.42
  -7  -5   4    3.41    0.47
   7  -5  -4    2.65    0.44
  -7  -5   4    3.26    0.55
   7  -5  -4    4.32    0.58
  -7   5   4    3.66    0.53
   7   5  -4    2.89    0.48
   7   5  -4    2.60    0.45
  -6  -5   4    4.46    0.50
  -6  -5   4    3.87    0.60
   6  -5  -4    3.97    0.50
   6  -5  -4    4.87    0.54
   6   5  -4    4.35    0.59
  -6   5   4    4.62    0.37
  -6   5   4    3.91    0.53
   6   5  -4    3.86    0.51
   6   5  -4    4.14    0.54
  -5  -5   4    8.90    0.42
   5  -5  -4    9.14    0.47
  -5  -5   4    8.81    0.67
   5  -5  -4    8.25    0.61
  -5  -5   4    8.39    0.58
   5  -5  -4    9.50    0.59
   5   5  -4    8.47    0.59
   5   5  -4    8.70    0.61
  -5   5   4    9.20    0.46
   5   5  -4    8.68    0.60
  -5   5   4    8.41    0.60
  -4  -5   4  152.09    3.56
   4  -5  -4  155.54    3.41
  -4  -5   4  149.79    3.44
   4  -5  -4  154.40    3.30
  -4  -5   4  147.19    3.33
  -4  -5   4  155.41    3.29
   4  -5  -4  151.69    3.59
   4   5  -4  149.14    3.42
   4   5  -4  155.57    3.50
  -4   5   4  156.67    3.63
  -4   5   4  151.23    3.29
   4   5  -4  151.01    3.37
  -4   5   4  149.13    3.49
   4   5  -4  153.11    3.43
   3  -5  -4  237.32    4.97
   3  -5  -4  237.61    5.09
  -3  -5   4  235.76    4.94
  -3  -5   4  240.17    5.13
   3  -5  -4  232.59    4.96
   3  -5  -4  230.45    4.83
  -3  -5   4  235.67    4.87
  -3  -5   4  237.40    5.03
  -3  -5   4  243.63    4.95
  -3   5   4  233.19    5.06
  -3   5   4  237.34    4.94
  -3   5   4  234.41    4.99
   3   5  -4  240.37    4.99
   3   5  -4  236.61    5.03
   3   5  -4  234.44    4.89
   2  -5  -4   10.19    0.41
  -2  -5   4    9.58    0.45
   2  -5  -4   10.83    0.54
  -2  -5   4   10.55    0.55
  -2  -5   4   10.30    0.52
   2  -5  -4   10.28    0.56
  -2  -5   4    9.89    0.47
   2  -5  -4   10.22    0.48
  -2  -5   4   10.54    0.58
   2   5  -4   10.15    0.50
   2   5  -4   10.06    0.50
  -2   5   4   10.06    0.48
  -2   5   4   10.05    0.51
   2   5  -4   10.10    0.44
   2   5  -4    9.95    0.49
  -2   5   4   10.18    0.53
   1  -5  -4   34.12    0.92
  -1  -5   4   35.00    1.05
  -1  -5   4   33.80    0.94
  -1  -5   4   34.46    1.09
  -1  -5   4   33.60    1.04
   1  -5  -4   31.73    0.93
   1  -5  -4   34.12    1.01
  -1  -5   4   34.12    0.84
   1  -5  -4   34.55    1.12
   1   5  -4   33.14    0.93
  -1   5   4   34.22    1.06
  -1   5   4   33.27    1.04
   1   5  -4   34.49    1.04
  -1   5   4   32.99    0.96
  -1   5   4   32.81    1.00
   1   5  -4   33.83    0.98
   1   5  -4   34.67    0.83
   0  -5   4    1.23    0.21
   0  -5   4    1.02    0.17
   0  -5   4    1.03    0.20
   0  -5   4    1.34    0.17
   0  -5  -4    1.69    0.24
   0  -5  -4    1.01    0.26
   0  -5   4    1.32    0.25
   0   5   4    1.43    0.21
   0   5  -4    1.32    0.20
   0   5  -4    0.81    0.18
   0   5   4    1.53    0.23
   0   5   4    1.52    0.23
   0   5   4    1.21    0.24
   0   5  -4    1.34    0.21
   0   5   4    1.51    0.27
   1  -5   4   13.74    0.47
   1  -5   4   13.45    0.48
  -1  -5  -4   13.11    0.72
  -1  -5  -4   13.36    0.53
   1  -5   4   12.89    0.72
  -1  -5  -4   13.69    0.52
   1  -5   4   13.47    0.53
   1  -5   4   13.23    0.59
   1   5   4   13.81    0.53
   1   5   4   11.70    0.66
  -1   5  -4   13.73    0.51
   1   5   4   13.23    0.53
  -1   5  -4   12.99    0.58
   1   5   4   13.47    0.50
   1   5   4   14.00    0.53
  -1   5  -4   13.45    0.46
   2  -5   4   33.68    1.16
  -2  -5  -4   39.52    1.10
   2  -5   4   37.84    1.13
   2  -5   4   38.11    1.02
  -2  -5  -4   41.21    1.38
  -2  -5  -4   41.81    1.10
   2  -5   4   40.12    0.98
  -2   5  -4   40.63    0.92
  -2   5  -4   38.77    0.92
   2   5   4   39.44    1.01
   2   5   4   40.57    1.13
  -2   5  -4   37.47    1.12
   2   5   4   40.58    1.02
  -3  -5  -4  217.95    4.91
   3  -5   4  213.70    4.52
   3   5   4  212.15    4.32
   3   5   4  214.07    4.37
   3   5   4  209.90    4.59
   3   5   4  215.31    4.31
   4  -5   4    0.19    0.22
   4  -5   4   -0.20    0.26
   4  -5   4   -0.15    0.17
  -4  -5  -4   -0.37    0.37
   4   5   4    0.10    0.16
   4   5   4    0.22    0.29
   5  -5   4   12.20    0.87
  -5  -5  -4   11.38    0.91
   5  -5   4   12.47    0.65
   5   5   4   13.50    0.69
   5   5   4   11.70    0.85
   5   5   4   12.12    0.86
   6  -5   4   11.14    1.03
  -6  -5  -4   11.85    0.96
   6   5   4   13.08    1.08
   6   5   4   10.68    1.00
   8  -6  -4   20.15    1.07
   8  -6  -4   21.47    1.22
  -8  -6   4   17.78    1.04
   8   6  -4   16.87    1.19
   8   6  -4   19.22    1.13
   7  -6  -4    0.36    0.30
  -7  -6   4    0.20    0.45
   7   6  -4    0.15    0.35
   7   6  -4    0.28    0.37
  -7   6   4   -0.19    0.33
  -6  -6   4  106.54    2.87
   6  -6  -4  107.57    2.84
   6  -6  -4  104.77    2.25
  -6  -6   4  104.51    2.28
   6  -6  -4  107.19    2.68
  -6  -6   4  107.72    2.69
   6   6  -4  111.07    2.74
  -6   6   4  107.68    2.38
   6   6  -4  108.62    2.80
  -6   6   4  106.60    2.76
   6   6  -4  108.22    2.79
   5  -6  -4   93.41    2.34
  -5  -6   4   91.09    2.33
  -5  -6   4   91.25    2.49
   5  -6  -4   92.19    2.46
   5  -6  -4   91.49    2.11
  -5  -6   4   92.39    2.11
  -5   6   4   92.57    2.41
   5   6  -4   93.37    2.36
  -5   6   4   94.16    2.14
   5   6  -4   93.73    2.42
   5   6  -4   95.43    2.41
  -4  -6   4   10.74    0.62
   4  -6  -4   11.17    0.55
   4  -6  -4   10.92    0.64
   4  -6  -4   10.86    0.50
  -4  -6   4    9.59    0.69
  -4  -6   4   10.73    0.56
   4  -6  -4   11.19    0.59
  -4  -6   4   10.15    0.50
   4   6  -4   10.72    0.57
  -4   6   4   11.36    0.65
   4   6  -4   10.43    0.62
   4   6  -4   10.15    0.60
   4   6  -4   10.24    0.64
  -4   6   4   10.68    0.51
   3  -6  -4   12.60    0.59
  -3  -6   4   13.21    0.58
  -3  -6   4   12.58    0.63
   3  -6  -4   11.75    0.57
  -3  -6   4   12.15    0.57
   3  -6  -4   13.45    0.51
  -3  -6   4   12.73    0.69
   3  -6  -4   12.71    0.65
  -3  -6   4   12.59    0.59
  -3   6   4   12.96    0.65
   3   6  -4   12.97    0.62
  -3   6   4   13.19    0.58
   3   6  -4   12.45    0.56
   3   6  -4   12.09    0.61
  -3   6   4   12.16    0.59
   3   6  -4   11.60    0.62
   2  -6  -4  170.83    3.80
  -2  -6   4  170.10    3.58
   2  -6  -4  170.93    3.79
   2  -6  -4  171.35    3.60
  -2  -6   4  172.44    3.67
  -2  -6   4  173.20    3.84
   2  -6  -4  173.65    3.67
  -2  -6   4  173.08    3.79
  -2  -6   4  169.94    3.77
  -2   6   4  173.06    3.74
   2   6  -4  172.60    3.77
   2   6  -4  173.91    3.71
  -2   6   4  170.05    3.71
  -2   6   4  167.81    3.77
   2   6  -4  169.05    3.74
   2   6  -4  170.53    3.59
  -1  -6   4    1.63    0.25
   1  -6  -4    2.33    0.30
   1  -6  -4    2.41    0.26
  -1  -6   4    2.36    0.33
   1  -6  -4    2.17    0.26
   1  -6  -4    1.99    0.32
  -1  -6   4    1.81    0.24
  -1  -6   4    2.23    0.34
  -1   6   4    1.79    0.27
  -1   6   4    2.11    0.26
  -1   6   4    2.07    0.28
   1   6  -4    2.51    0.31
   1   6  -4    2.14    0.28
   1   6  -4    2.52    0.28
   1   6  -4    2.03    0.25
  -1   6   4    2.54    0.23
   0  -6  -4   30.67    0.85
   0  -6   4   30.07    0.96
   0  -6  -4   28.04    0.92
   0  -6   4   30.35    0.97
   0  -6  -4   29.18    0.80
   0  -6  -4   30.05    0.79
   0  -6   4   28.07    0.84
   0  -6   4   28.29    1.03
   0  -6   4   28.82    0.88
   0  -6  -4   28.81    1.08
   0   6  -4   29.46    0.94
   0   6   4   29.90    0.88
   0   6  -4   26.95    0.89
   0   6   4   30.38    0.82
   0   6   4   29.49    0.92
   0   6   4   30.06    1.01
   0   6  -4   28.53    0.86
  -1  -6  -4  326.00    6.65
  -1  -6  -4  330.13    6.96
   1  -6   4  323.15    6.91
   1  -6   4  328.87    6.52
   1  -6   4  331.70    6.56
   1  -6   4  318.83    6.68
  -1  -6  -4  333.54    6.60
   1  -6   4  329.33    6.63
   1   6   4  320.68    6.58
  -1   6  -4  328.47    6.60
   1   6   4  325.83    6.58
  -1   6  -4  331.49    6.71
   1   6   4  327.17    6.87
   1   6   4  323.07    6.61
  -1   6  -4  311.84    6.52
   1   6   4  326.05    6.66
   2  -6   4    3.86    0.30
   2  -6   4    3.82    0.30
   2  -6   4    3.53    0.36
  -2  -6  -4    3.95    0.34
   2  -6   4    3.25    0.29
  -2  -6  -4    3.98    0.53
   2   6   4    4.16    0.31
   2   6   4    3.52    0.31
  -2   6  -4    4.40    0.36
   2   6   4    4.15    0.39
  -2   6  -4    3.89    0.37
  -2   6  -4    4.42    0.28
   2   6   4    3.85    0.36
  -3  -6  -4    2.01    0.29
  -3  -6  -4    1.60    0.42
   3  -6   4    1.29    0.30
   3  -6   4    1.40    0.26
   3   6   4    1.50    0.30
   3   6   4    1.40    0.21
   3   6   4    1.61    0.23
   3   6   4    1.22    0.22
  -4  -6  -4   14.65    1.09
   4  -6   4   17.54    0.68
   4  -6   4   17.37    0.61
   4   6   4   16.00    0.70
   4   6   4   17.38    0.53
   4   6   4   17.11    0.99
   5  -6   4   18.78    1.02
  -5  -6  -4   18.83    1.08
   5   6   4   19.29    1.05
   5   6   4   19.39    0.77
  -6  -6  -4    0.97    0.55
   6  -6   4    2.01    0.60
   6   6   4    0.83    0.55
   6   6   4    2.04    0.56
   8  -7  -4    1.42    0.50
   8  -7  -4    1.30    0.56
  -8  -7   4    1.74    0.49
   8   7  -4    1.16    0.54
   8   7  -4    2.01    0.61
  -7  -7   4   70.39    2.41
   7  -7  -4   69.72    2.02
  -7  -7   4   67.15    1.99
   7   7  -4   66.38    2.06
   7   7  -4   69.11    2.13
   6  -7  -4   94.28    2.57
   6  -7  -4   90.22    2.08
   6  -7  -4   93.13    2.43
  -6  -7   4   91.23    2.43
  -6  -7   4   94.09    2.64
  -6  -7   4   95.22    2.26
  -6   7   4   95.48    2.52
  -6   7   4   89.20    2.07
   6   7  -4   89.78    2.60
   6   7  -4   92.78    2.45
   6   7  -4   88.79    2.46
  -5  -7   4    6.52    0.55
  -5  -7   4    6.38    0.40
  -5  -7   4    6.96    0.68
   5  -7  -4    5.40    0.57
   5  -7  -4    7.16    0.46
   5  -7  -4    6.02    0.62
   5   7  -4    6.64    0.57
  -5   7   4    6.15    0.40
  -5   7   4    6.41    0.59
   5   7  -4    6.62    0.60
   5   7  -4    6.32    0.56
  -4  -7   4  148.13    3.60
  -4  -7   4  149.51    3.45
   4  -7  -4  149.77    3.56
  -4  -7   4  147.04    3.37
   4  -7  -4  152.14    3.33
   4  -7  -4  152.95    3.43
   4  -7  -4  152.14    3.34
   4   7  -4  152.23    3.46
  -4   7   4  150.59    3.28
   4   7  -4  149.79    3.50
  -4   7   4  150.51    3.53
   4   7  -4  153.85    3.42
   3  -7  -4   33.76    1.06
   3  -7  -4   33.27    0.97
   3  -7  -4   32.93    1.08
  -3  -7   4   33.32    1.02
   3  -7  -4   33.89    1.15
  -3  -7   4   33.75    1.11
  -3  -7   4   35.14    1.22
  -3   7   4   33.41    1.14
   3   7  -4   34.83    1.04
   3   7  -4   33.91    1.09
   3   7  -4   31.70    1.09
   3   7  -4   34.23    1.38
  -3   7   4   35.02    1.05
  -3   7   4   31.62    1.09
   2  -7  -4    1.39    0.29
   2  -7  -4    1.02    0.22
  -2  -7   4    1.36    0.27
   2  -7  -4    1.15    0.19
  -2  -7   4    1.34    0.22
  -2  -7   4    1.67    0.30
  -2  -7   4    1.43    0.22
   2  -7  -4    0.87    0.20
  -2   7   4    1.23    0.24
   2   7  -4    1.19    0.21
  -2   7   4    1.18    0.25
   2   7  -4    1.90    0.30
   2   7  -4    1.40    0.23
   2   7  -4    1.26    0.23
   1  -7  -4  266.15    5.61
   1  -7  -4  261.62    5.45
  -1  -7   4  270.24    5.67
   1  -7  -4  269.84    5.71
  -1  -7   4  270.89    5.71
  -1  -7   4  261.41    5.59
  -1  -7   4  268.41    5.66
  -1  -7   4  270.62    5.41
   1  -7  -4  270.09    5.46
  -1   7   4  259.56    5.38
  -1   7   4  271.54    5.61
   1   7  -4  263.64    5.60
   1   7  -4  267.12    5.63
  -1   7   4  263.34    5.52
   1   7  -4  264.33    5.55
   1   7  -4  258.36    5.37
   1   7  -4  267.61    5.47
   0  -7   4  230.40    4.91
   0  -7   4  229.42    4.73
   0  -7  -4  237.16    4.81
   0  -7   4  227.12    5.04
   0  -7   4  231.59    4.93
   0  -7   4  231.66    4.80
   0  -7  -4  234.88    4.74
   0  -7  -4  224.85    4.90
   0  -7  -4  231.78    5.09
   0  -7  -4  230.14    4.70
   0   7   4  237.27    4.84
   0   7  -4  237.33    4.92
   0   7  -4  228.11    4.84
   0   7   4  230.05    4.89
   0   7   4  230.01    4.75
  -1  -7  -4   11.45    0.51
   1  -7   4   11.14    0.55
   1  -7   4   12.07    0.56
  -1  -7  -4   11.05    0.36
  -1  -7  -4   11.28    0.34
  -1  -7  -4   10.71    0.71
   1  -7   4   11.60    0.58
   1  -7   4   11.48    0.48
   1   7   4   11.27    0.50
   1   7   4   10.97    0.53
  -1   7  -4   11.51    0.55
  -1   7  -4   10.65    0.50
  -1   7  -4   10.32    0.53
   1   7   4   11.26    0.54
   1   7   4   12.22    0.54
   2  -7   4   87.11    1.99
   2  -7   4   82.07    1.95
  -2  -7  -4   84.35    2.38
  -2  -7  -4   87.62    2.09
   2  -7   4   84.16    1.99
   2  -7   4   88.54    2.09
   2   7   4   85.73    2.06
   2   7   4   87.69    2.03
   2   7   4   86.61    2.10
   2   7   4   86.08    2.00
  -2   7  -4   84.01    2.06
  -2   7  -4   85.92    1.94
   3  -7   4   51.23    1.27
  -3  -7  -4   50.33    1.72
   3  -7   4   51.18    1.37
   3  -7   4   48.84    1.36
  -3  -7  -4   50.55    1.58
   3   7   4   51.11    1.35
   3   7   4   49.83    1.30
   3   7   4   50.58    1.32
   3   7   4   50.37    1.49
   4  -7   4    0.62    0.21
   4  -7   4    0.11    0.22
  -4  -7  -4   -0.24    0.37
   4   7   4    0.53    0.19
   4   7   4    0.07    0.32
   4   7   4    0.63    0.18
  -5  -7  -4    8.10    0.86
   5  -7   4    9.47    0.85
   5   7   4    8.77    0.82
  -6  -7  -4    6.36    0.76
   6  -7   4    7.80    1.00
   6   7   4    6.67    1.00
  -8  -8   4    2.56    0.53
   8  -8  -4    1.88    0.56
   8  -8  -4    2.24    0.56
   8   8  -4    1.90    0.59
   8   8  -4    2.64    0.64
  -7  -8   4    0.67    0.37
   7  -8  -4   -0.12    0.34
   7   8  -4    0.27    0.38
   7   8  -4    0.08    0.39
  -6  -8   4    0.07    0.35
   6  -8  -4    0.90    0.27
   6  -8  -4    0.74    0.41
  -6  -8   4    1.25    0.36
   6  -8  -4    0.72    0.32
   6   8  -4    0.97    0.36
   6   8  -4    1.39    0.38
   6   8  -4    1.22    0.36
  -6   8   4    1.02    0.23
  -6   8   4    1.25    0.36
  -5  -8   4    4.48    0.55
  -5  -8   4    2.73    0.41
   5  -8  -4    2.66    0.39
   5  -8  -4    3.48    0.39
   5  -8  -4    3.46    0.47
   5   8  -4    3.59    0.49
   5   8  -4    3.94    0.52
  -5   8   4    3.27    0.34
   5   8  -4    2.59    0.40
  -5   8   4    3.37    0.53
  -4  -8   4    0.62    0.25
  -4  -8   4    0.16    0.26
   4  -8  -4    0.53    0.22
   4  -8  -4    0.16    0.21
  -4  -8   4    0.37    0.26
   4  -8  -4    0.18    0.26
   4  -8  -4    0.40    0.23
   4   8  -4    0.46    0.27
   4   8  -4    1.24    0.32
  -4   8   4   -0.06    0.21
  -4   8   4    0.41    0.19
   3  -8  -4    0.13    0.17
  -3  -8   4    0.14    0.23
   3  -8  -4   -0.01    0.15
   3  -8  -4    0.05    0.22
   3  -8  -4    0.44    0.23
  -3  -8   4   -0.30    0.18
  -3  -8   4    0.68    0.23
  -3   8   4   -0.11    0.20
  -3   8   4    0.42    0.18
   3   8  -4    0.21    0.18
   3   8  -4    0.01    0.19
   3   8  -4    0.18    0.19
  -2  -8   4   24.39    0.92
   2  -8  -4   25.51    0.95
  -2  -8   4   25.03    1.00
  -2  -8   4   24.78    0.85
   2  -8  -4   26.68    0.88
   2  -8  -4   25.17    0.82
  -2  -8   4   24.85    0.81
   2  -8  -4   25.03    0.96
  -2   8   4   26.41    0.97
   2   8  -4   25.60    0.90
  -2   8   4   24.72    0.90
   2   8  -4   24.54    0.94
   2   8  -4   25.42    0.82
   2   8  -4   24.07    0.91
  -2   8   4   24.14    0.89
   1  -8  -4    8.27    0.61
  -1  -8   4    8.08    0.56
   1  -8  -4    7.95    0.45
   1  -8  -4    8.05    0.45
  -1  -8   4    7.80    0.52
  -1  -8   4    7.94    0.45
  -1  -8   4    7.72    0.41
   1  -8  -4    6.66    0.49
   1   8  -4    7.59    0.50
   1   8  -4    8.31    0.42
  -1   8   4    7.66    0.41
   1   8  -4    8.17    0.45
   1   8  -4    7.55    0.54
  -1   8   4    8.00    0.51
   1   8  -4    7.45    0.50
  -1   8   4    7.28    0.46
   0  -8   4   52.51    1.36
   0  -8  -4   55.62    1.57
   0  -8   4   53.29    1.41
   0  -8   4   52.91    1.65
   0  -8   4   55.60    1.55
   0  -8  -4   54.57    1.36
   0  -8  -4   57.67    1.45
   0  -8  -4   54.22    1.35
   0  -8  -4   57.10    1.69
   0  -8   4   55.41    1.52
   0   8   4   55.58    1.40
   0   8  -4   54.71    1.49
   0   8   4   54.68    1.51
   0   8  -4   56.22    1.71
   0   8  -4   49.68    1.61
   0   8   4   56.33    1.55
   0   8   4   54.03    1.44
   1  -8   4    7.08    0.48
  -1  -8  -4    7.39    0.64
   1  -8   4    7.79    0.49
   1  -8   4    7.57    0.42
  -1  -8  -4    6.70    0.43
   1  -8   4    6.63    0.42
   1   8   4    7.21    0.47
   1   8   4    7.70    0.46
  -1   8  -4    7.81    0.46
  -1   8  -4    7.33    0.45
   1   8   4    7.38    0.47
   1   8   4    6.95    0.42
  -2  -8  -4   68.86    1.82
   2  -8   4   73.22    1.76
   2  -8   4   71.89    1.80
   2  -8   4   70.17    1.71
   2  -8   4   70.90    1.74
  -2  -8  -4   72.18    2.13
   2   8   4   69.88    1.78
   2   8   4   72.50    1.85
   2   8   4   71.61    1.75
  -2   8  -4   71.30    1.72
  -2   8  -4   70.30    1.79
   2   8   4   68.89    1.81
   3  -8   4   64.39    1.68
   3  -8   4   63.61    1.72
   3  -8   4   62.59    1.57
   3   8   4   63.53    1.69
  -3   8  -4   66.68    1.66
  -3   8  -4   67.38    1.49
   3   8   4   64.26    1.64
   3   8   4   66.35    1.81
   3   8   4   61.29    1.63
   4  -8   4   12.28    0.59
   4  -8   4   13.59    0.68
  -4  -8  -4   11.30    0.92
   4   8   4   13.66    0.71
   4   8   4   12.87    0.84
   4   8   4   12.58    0.65
  -5  -8  -4    2.16    0.53
   5   8   4    1.80    0.26
   5   8   4    1.13    0.47
   5   8   4    1.53    0.28
  -8  -9   4    1.07    0.53
   8  -9  -4    1.56    0.64
   8   9  -4    0.54    0.62
   8   9  -4    1.84    0.75
  -7  -9   4    3.49    0.53
   7  -9  -4    2.88    0.49
   7   9  -4    2.62    0.54
   7   9  -4    2.89    0.50
  -6  -9   4    1.22    0.37
  -6  -9   4    1.10    0.39
   6  -9  -4    0.51    0.33
   6  -9  -4    0.46    0.28
  -6   9   4    0.78    0.34
  -6   9   4    0.45    0.21
   6   9  -4    1.22    0.37
   6   9  -4    0.95    0.36
   5  -9  -4   21.15    1.03
  -5  -9   4   17.93    1.12
   5  -9  -4   21.29    0.82
   5  -9  -4   21.79    0.95
  -5  -9   4   21.19    1.09
  -5   9   4   20.50    0.72
   5   9  -4   20.47    0.98
  -5   9   4   20.89    0.98
   5   9  -4   21.58    0.98
   5   9  -4   21.32    0.97
   4  -9  -4   24.78    0.93
  -4  -9   4   28.42    1.41
   4  -9  -4   24.36    1.06
  -4  -9   4   25.67    1.02
  -4  -9   4   23.41    1.09
   4  -9  -4   22.21    1.02
   4   9  -4   23.85    0.96
  -4   9   4   25.68    1.05
   4   9  -4   24.54    1.01
   4   9  -4   25.29    1.03
  -4   9   4   24.98    0.85
  -3  -9   4   44.16    1.37
   3  -9  -4   43.26    1.31
   3  -9  -4   42.28    1.40
  -3  -9   4   44.99    1.50
   3  -9  -4   42.68    1.35
  -3  -9   4   42.58    1.26
   3  -9  -4   43.33    1.25
   3   9  -4   43.29    1.30
   3   9  -4   44.95    1.36
  -3   9   4   44.70    1.42
   3   9  -4   42.04    1.38
  -3   9   4   42.97    1.27
  -2  -9   4   21.34    0.96
   2  -9  -4   21.02    0.81
  -2  -9   4   21.61    0.87
   2  -9  -4   19.48    0.88
  -2  -9   4   20.80    0.76
   2  -9  -4   21.27    0.76
   2  -9  -4   20.71    0.89
   2   9  -4   20.60    0.87
   2   9  -4   21.01    0.98
  -2   9   4   21.83    0.84
   2   9  -4   20.83    0.76
  -2   9   4   21.80    0.91
   2   9  -4   21.67    0.84
   1  -9  -4    3.03    0.35
   1  -9  -4    3.44    0.35
   1  -9  -4    3.01    0.46
  -1  -9   4    2.40    0.35
  -1  -9   4    2.99    0.41
  -1  -9   4    2.15    0.32
  -1  -9   4    2.21    0.32
   1  -9  -4    3.08    0.44
  -1   9   4    3.27    0.34
   1   9  -4    2.98    0.31
   1   9  -4    2.82    0.43
  -1   9   4    3.35    0.41
   1   9  -4    2.08    0.36
  -1   9   4    2.14    0.30
   1   9  -4    2.12    0.44
   0  -9  -4   49.74    1.35
   0  -9  -4   47.98    1.26
   0  -9   4   50.03    1.47
   0  -9   4   48.16    1.39
   0  -9  -4   48.55    1.27
   0  -9   4   47.40    1.32
   0  -9  -4   48.36    1.56
   0  -9   4   48.20    1.28
   0   9   4   47.55    1.42
   0   9   4   46.89    1.36
   0   9   4   48.15    1.45
   0   9  -4   47.89    1.39
   0   9   4   48.45    1.31
   0   9  -4   48.67    1.43
   1  -9   4    4.98    0.46
  -1  -9  -4    5.27    0.34
   1  -9   4    4.37    0.38
  -1  -9  -4    5.09    0.60
  -1  -9  -4    4.20    0.40
  -1  -9  -4    4.86    0.32
   1  -9   4    5.07    0.44
   1  -9   4    4.44    0.38
   1   9   4    4.99    0.42
   1   9   4    4.05    0.40
   1   9   4    4.21    0.41
   1   9   4    5.32    0.44
  -1   9  -4    4.44    0.39
  -1   9  -4    4.69    0.45
  -2  -9  -4    3.73    0.47
   2  -9   4    3.59    0.38
  -2  -9  -4    4.08    0.57
   2  -9   4    4.02    0.40
   2  -9   4    3.52    0.39
   2  -9   4    3.99    0.40
   2   9   4    3.91    0.42
   2   9   4    3.94    0.53
   2   9   4    3.70    0.39
  -2   9  -4    3.64    0.36
  -2   9  -4    3.82    0.41
   2   9   4    3.42    0.40
  -3  -9  -4   67.94    2.19
   3  -9   4   72.11    1.76
   3  -9   4   70.94    1.77
   3  -9   4   71.98    1.78
  -3   9  -4   73.94    1.68
   3   9   4   69.79    1.80
  -3   9  -4   68.78    1.77
   3   9   4   71.75    1.97
   3   9   4   72.25    1.91
   3   9   4   69.63    1.82
  -4  -9  -4    0.41    0.42
   4  -9   4    0.09    0.22
   4  -9   4   -0.11    0.27
   4   9   4    0.23    0.21
   4   9   4   -0.09    0.25
   4   9   4    0.87    0.36
  -5  -9  -4    0.18    0.44
   5   9   4    0.38    0.23
   5   9   4    0.12    0.45
   7 -10  -4    7.89    0.79
  -7 -10   4    8.37    0.81
   7  10  -4    7.45    0.91
   7  10  -4    6.89    0.85
   6 -10  -4    0.63    0.35
   6 -10  -4    0.41    0.28
  -6 -10   4    1.42    0.50
  -6 -10   4    0.76    0.35
  -6  10   4    1.43    0.43
   6  10  -4    1.09    0.35
   6  10  -4    0.78    0.39
   5 -10  -4   24.05    1.25
  -5 -10   4   25.26    1.23
   5 -10  -4   26.11    0.97
   5 -10  -4   26.34    1.08
  -5 -10   4   24.68    1.07
  -5  10   4   26.96    1.14
   5  10  -4   25.72    1.12
   5  10  -4   25.32    1.10
  -5  10   4   25.97    0.84
   5  10  -4   24.73    1.13
  -4 -10   4    6.13    0.85
   4 -10  -4    5.44    0.63
   4 -10  -4    6.08    0.55
  -4 -10   4    6.05    0.72
  -4  10   4    6.32    0.46
  -4  10   4    6.56    0.61
   4  10  -4    5.91    0.69
   4  10  -4    6.23    0.72
   4  10  -4    7.25    0.59
   4  10  -4    6.45    0.63
   3 -10  -4    0.63    0.25
  -3 -10   4    0.61    0.25
  -3 -10   4    0.62    0.26
   3 -10  -4    0.72    0.27
   3 -10  -4    0.34    0.27
  -3 -10   4    0.27    0.30
   3  10  -4   -0.05    0.31
  -3  10   4    0.55    0.21
  -3  10   4    0.40    0.27
   3  10  -4    1.69    0.34
   3  10  -4    0.79    0.26
   3  10  -4    0.57    0.32
   2 -10  -4   13.80    0.64
   2 -10  -4   12.07    0.71
  -2 -10   4   12.20    0.76
   2 -10  -4   11.73    0.59
   2 -10  -4   12.06    0.88
  -2 -10   4   11.27    0.57
  -2 -10   4   12.01    0.67
   2  10  -4   11.92    0.60
   2  10  -4   11.27    0.78
  -2  10   4   12.54    0.71
   2  10  -4   11.27    0.64
  -1 -10   4   59.32    1.77
   1 -10  -4   59.96    1.56
  -1 -10   4   58.43    1.54
   1 -10  -4   58.21    1.58
   1 -10  -4   57.83    1.76
  -1 -10   4   58.71    1.65
   1  10  -4   56.63    1.74
  -1  10   4   58.66    1.52
  -1  10   4   59.33    1.70
   1  10  -4   59.45    1.53
  -1  10   4   59.19    1.76
   0 -10   4   35.12    1.21
   0 -10  -4   33.84    1.00
   0 -10   4   33.48    1.11
   0 -10  -4   33.95    1.08
   0 -10  -4   35.33    1.02
   0 -10   4   32.49    1.06
   0 -10  -4   34.63    1.30
   0 -10   4   34.15    1.03
   0  10  -4   31.73    1.40
   0  10   4   35.13    1.05
   0  10   4   33.34    1.18
   0  10   4   30.83    1.33
   0  10   4   34.80    1.18
   0  10  -4   32.20    1.14
  -1 -10  -4   47.29    1.40
  -1 -10  -4   49.95    1.21
   1 -10   4   47.67    1.33
  -1 -10  -4   48.25    1.22
   1 -10   4   49.33    1.38
   1 -10   4   48.37    1.44
  -1 -10  -4   47.82    1.67
   1 -10   4   46.75    1.34
   1  10   4   48.33    1.43
  -1  10  -4   47.75    1.39
   1  10   4   49.18    1.38
   1  10   4   47.09    1.46
  -1  10  -4   44.87    1.38
   1  10   4   46.87    1.40
   2 -10   4   19.10    0.79
   2 -10   4   18.83    0.75
   2 -10   4   19.55    0.76
   2 -10   4   19.49    0.83
  -2 -10  -4   19.09    1.22
  -2  10  -4   18.13    0.76
   2  10   4   19.32    0.93
   2  10   4   19.59    1.00
   2  10   4   20.30    0.83
   2  10   4   19.36    0.85
  -2  10  -4   19.61    0.75
   3 -10   4    1.27    0.30
  -3 -10  -4    1.18    0.41
   3 -10   4    1.63    0.29
   3 -10   4    1.28    0.29
   3  10   4    1.55    0.39
   3  10   4    1.23    0.32
  -3  10  -4    0.99    0.28
   3  10   4    1.50    0.28
   4 -10   4    4.29    0.52
   4 -10   4    4.24    0.47
  -4 -10  -4    4.07    0.66
   4  10   4    3.53    0.46
   4  10   4    3.05    0.53
  -5 -10  -4    9.17    1.02
   5  10   4    8.54    0.57
   5  10   4    8.93    0.94
  -7 -11   4   44.41    1.65
   7 -11  -4   43.15    1.65
   7  11  -4   46.59    1.81
   7  11  -4   45.77    1.90
   7  11  -4   43.43    1.74
  -6 -11   4   47.62    1.64
   6 -11  -4   45.01    1.40
  -6 -11   4   45.62    1.85
   6 -11  -4   47.10    1.62
   6  11  -4   44.88    1.65
   6  11  -4   45.76    1.81
   6  11  -4   45.12    1.66
  -6  11   4   48.11    1.71
  -5 -11   4    1.26    0.33
   5 -11  -4    1.53    0.35
   5 -11  -4    1.62    0.47
  -5 -11   4    2.51    0.54
  -5  11   4    1.67    0.41
   5  11  -4    1.91    0.41
   5  11  -4    2.89    0.55
  -5  11   4    1.97    0.27
   5  11  -4    1.66    0.39
  -4 -11   4   14.38    0.81
   4 -11  -4   12.88    1.01
   4 -11  -4   14.42    0.79
   4 -11  -4   13.67    0.76
  -4 -11   4   13.72    0.95
  -4  11   4   13.87    0.65
   4  11  -4   14.54    0.80
  -4  11   4   13.13    0.81
   4  11  -4   14.41    0.94
   4  11  -4   13.75    0.79
   3 -11  -4   54.39    1.63
   3 -11  -4   57.41    1.83
   3 -11  -4   57.70    1.70
  -3 -11   4   57.07    1.87
  -3 -11   4   56.17    1.95
   3  11  -4   55.04    1.61
   3  11  -4   56.21    1.83
  -3  11   4   55.52    1.74
   3  11  -4   56.49    1.69
  -3  11   4   57.52    1.59
   2 -11  -4    0.32    0.23
   2 -11  -4    0.05    0.25
  -2 -11   4    0.34    0.23
  -2 -11   4    0.27    0.26
  -2 -11   4   -0.13    0.26
   2 -11  -4    0.11    0.25
   2  11  -4   -0.05    0.24
  -2  11   4    0.25    0.25
   2  11  -4    0.33    0.21
   2  11  -4    0.31    0.27
  -1 -11   4  205.63    4.61
   1 -11  -4  199.08    4.38
   1 -11  -4  201.52    4.59
   1 -11  -4  201.43    4.34
  -1 -11   4  196.81    4.32
  -1 -11   4  201.06    4.43
  -1  11   4  204.38    4.52
  -1  11   4  201.74    4.57
  -1  11   4  202.14    4.30
   1  11  -4  204.94    4.32
   1  11  -4  177.57    5.29
   0 -11  -4  191.26    4.20
   0 -11   4  181.78    4.10
   0 -11  -4  191.49    4.06
   0 -11  -4  190.13    4.45
   0 -11   4  195.23    4.35
   0 -11  -4  187.90    4.09
   0 -11   4  189.20    4.19
   0  11   4  191.31    4.12
   0  11  -4  184.96    4.28
   0  11   4  186.86    4.33
   0  11   4  191.82    4.29
   1 -11   4    6.20    0.48
   1 -11   4    6.86    0.72
  -1 -11  -4    6.07    0.42
  -1 -11  -4    6.49    0.41
   1 -11   4    6.34    0.50
   1  11   4    6.47    0.51
   1  11   4    6.40    0.56
  -1  11  -4    6.96    0.67
   2 -11   4   18.51    0.76
  -2 -11  -4   18.83    1.04
   2 -11   4   16.26    0.77
   2 -11   4   17.42    0.79
  -2  11  -4   17.36    0.74
   2  11   4   17.18    0.80
  -2  11  -4   16.41    0.77
   2  11   4   17.98    0.85
   2  11   4   16.96    0.82
   3 -11   4   -0.13    0.43
   3 -11   4    0.52    0.25
  -3 -11  -4   -0.16    0.40
   3 -11   4    0.20    0.55
   3  11   4    0.32    0.26
   4 -11   4    6.10    0.62
  -4 -11  -4    5.88    0.75
   4  11   4    4.55    0.64
   4  11   4    4.80    0.53
  -5 -11  -4   14.52    1.19
   5  11   4   15.83    0.80
   5  11   4   13.63    1.10
   7 -12  -4    1.90    0.54
  -7 -12   4    1.33    0.51
   7  12  -4    0.86    0.60
   7  12  -4    1.00    0.62
   7  12  -4    1.25    0.59
  -6 -12   4    2.19    0.63
   6 -12  -4    2.41    0.45
  -6 -12   4    2.57    0.49
   6 -12  -4    2.72    0.52
   6  12  -4    1.90    0.51
   6  12  -4    1.57    0.54
   6  12  -4    2.59    0.55
  -6  12   4    2.83    0.71
   5 -12  -4   20.95    1.00
  -5 -12   4   20.62    1.25
   5 -12  -4   22.02    1.13
  -5 -12   4   20.71    1.02
  -5  12   4   20.26    0.78
   5  12  -4   21.91    1.06
  -5  12   4   19.48    1.07
   5  12  -4   21.09    1.05
  -4 -12   4    1.46    0.45
  -4 -12   4    1.44    0.40
   4 -12  -4    1.99    0.36
   4 -12  -4    1.18    0.35
   4  12  -4    1.26    0.40
  -4  12   4    1.11    0.35
   4  12  -4    1.63    0.36
  -4  12   4    0.94    0.26
   4  12  -4    1.44    0.35
  -3 -12   4   18.54    0.93
  -3 -12   4   19.27    1.06
   3 -12  -4   17.11    1.03
   3 -12  -4   20.56    0.94
  -3  12   4   18.15    0.81
   3  12  -4   18.20    0.84
   3  12  -4   17.65    0.98
  -3  12   4   17.64    0.95
   3  12  -4   18.77    1.02
   2 -12  -4   13.37    0.74
   2 -12  -4   13.52    0.84
  -2 -12   4   13.98    0.88
  -2 -12   4   13.54    0.91
  -2 -12   4   14.87    0.79
   2  12  -4   14.19    0.88
   2  12  -4   14.31    0.75
  -2  12   4   14.04    0.83
   2  12  -4   14.38    0.71
  -2  12   4   13.29    0.80
  -1 -12   4    2.03    0.42
   1 -12  -4    1.82    0.43
  -1 -12   4    2.25    0.35
   1 -12  -4    1.96    0.33
   1  12  -4    2.72    0.40
  -1  12   4    1.50    0.34
  -1  12   4    1.68    0.34
  -1  12   4    1.86    0.29
   1  12  -4    1.80    0.43
   0 -12  -4   27.65    1.00
   0 -12   4   30.18    1.45
   0 -12   4   26.23    0.98
   0 -12  -4   26.60    0.97
   0 -12   4   28.32    1.05
   0  12  -4   28.67    1.12
   0  12   4   28.30    1.00
   0  12   4   27.98    1.15
   0  12   4   28.34    1.11
   1 -12   4    1.49    0.31
  -1 -12  -4    1.65    0.25
  -1 -12  -4    1.50    0.46
   1 -12   4    1.61    0.33
  -1 -12  -4    1.49    0.25
   1  12   4    1.13    0.35
   1  12   4    1.91    0.33
   1  12   4    1.46    0.34
   2 -12   4   70.17    2.04
   2 -12   4   69.42    1.92
   2 -12   4   70.50    1.83
  -2 -12  -4   70.24    2.24
  -2 -12  -4   67.16    1.59
   2  12   4   71.51    2.28
   2  12   4   71.20    1.98
   2  12   4   68.40    1.98
  -3 -12  -4    1.92    0.53
   3 -12   4    1.42    0.39
   3 -12   4    1.19    0.37
   3  12   4    1.91    0.34
   3  12   4    1.83    0.42
   4 -12   4    6.65    0.83
  -4 -12  -4    7.20    0.93
   4  12   4    5.66    0.84
   4  12   4    6.38    0.63
  -6 -13   4   10.25    0.91
  -6 -13   4    9.28    1.29
   6 -13  -4    7.93    0.83
   6 -13  -4    8.93    0.88
   6  13  -4    9.67    0.89
   6  13  -4    7.40    0.89
   6  13  -4    7.63    1.05
  -5 -13   4    0.97    0.40
  -5 -13   4    1.59    0.53
   5 -13  -4    0.16    0.42
   5 -13  -4    0.55    0.38
   5  13  -4    0.93    0.38
  -5  13   4    1.10    0.27
  -5  13   4    0.85    0.43
   5  13  -4    0.53    0.35
   5  13  -4    0.36    0.47
   4 -13  -4    0.24    0.35
   4 -13  -4   -0.37    0.30
  -4 -13   4    0.10    0.41
  -4 -13   4   -0.40    0.32
  -4  13   4   -0.26    0.24
   4  13  -4    0.19    0.30
   4  13  -4   -0.53    0.38
   4  13  -4    0.28    0.34
  -4  13   4    0.42    0.36
  -3 -13   4    0.17    0.33
  -3 -13   4    0.00    0.42
   3 -13  -4    0.44    0.35
   3 -13  -4    0.13    0.25
   3  13  -4    0.63    0.31
   3  13  -4    0.24    0.36
   3  13  -4   -0.04    0.27
  -3  13   4    0.42    0.30
  -3  13   4    0.35    0.43
   2 -13  -4    0.17    0.26
  -2 -13   4    0.90    0.30
   2 -13  -4    0.14    0.40
  -2 -13   4    0.16    0.35
   2  13  -4    0.58    0.27
   2  13  -4    0.33    0.28
  -2  13   4   -0.02    0.31
  -2  13   4    0.11    0.32
   1 -13  -4   12.42    0.87
   1 -13  -4   12.61    0.70
  -1 -13   4   13.47    0.79
  -1  13   4   11.32    0.86
   1  13  -4   13.10    0.69
  -1  13   4   11.30    0.77
  -1  13   4   13.04    0.67
   1  13  -4   11.67    0.87
   0 -13  -4   22.03    1.12
   0 -13   4   22.35    1.06
   0 -13   4   24.01    1.10
   0 -13  -4   24.06    0.89
   0  13  -4   21.34    1.03
   0  13   4   23.14    1.02
   0  13   4   22.24    0.91
   0  13   4   23.38    1.10
  -1 -13  -4    2.51    0.46
   1 -13   4    2.74    0.39
  -1 -13  -4    2.14    0.30
   1 -13   4    1.94    0.38
  -1 -13  -4    2.47    0.31
  -1  13  -4    2.52    0.35
   1  13   4    2.36    0.43
   1  13   4    2.10    0.36
   1  13   4    3.65    0.46
   2 -13   4    3.59    0.49
  -2 -13  -4    4.03    0.38
   2 -13   4    4.81    0.65
  -2 -13  -4    3.35    0.60
   2  13   4    3.32    0.50
   2  13   4    3.75    0.53
   3 -13   4   -0.44    0.41
  -3 -13  -4    0.70    0.49
   3 -13   4    0.41    0.30
   3  13   4    0.65    0.33
   3  13   4    0.53    0.51
  -4 -13  -4    3.00    0.65
   4 -13   4    3.37    0.50
   4  13   4    2.89    0.56
   4  13   4    2.42    0.44
   6 -14  -4    9.06    0.97
   6 -14  -4    9.66    1.53
  -6 -14   4    9.37    1.01
   6  14  -4    9.43    1.17
   6  14  -4    8.49    0.97
   6  14  -4    7.15    0.96
   5 -14  -4    0.42    0.37
  -5 -14   4    0.37    0.41
  -5 -14   4    0.80    0.59
   5  14  -4    0.42    0.49
  -5  14   4    0.13    0.46
   5  14  -4    0.85    0.44
  -5  14   4    0.87    0.30
   5  14  -4    0.44    0.41
  -4 -14   4    1.69    0.58
  -4 -14   4    0.76    0.37
   4 -14  -4    1.25    0.45
   4 -14  -4    1.32    0.38
   4  14  -4    2.43    0.57
  -4  14   4    1.06    0.40
   4  14  -4    0.67    0.38
  -4  14   4    1.33    0.34
   4  14  -4    1.01    0.35
  -3 -14   4    1.97    0.43
   3 -14  -4    1.97    0.36
   3 -14  -4    1.96    0.46
  -3 -14   4    2.63    0.55
  -3  14   4    2.52    0.49
   3  14  -4    1.89    0.45
   3  14  -4    2.05    0.40
   3  14  -4    2.44    0.57
  -2 -14   4    1.09    0.55
  -2 -14   4    3.35    0.48
   2 -14  -4    2.85    0.40
   2 -14  -4    3.28    0.55
   2  14  -4    2.90    0.41
   2  14  -4    1.61    0.37
  -2  14   4    2.64    0.44
  -2  14   4    2.19    0.41
   1 -14  -4   16.61    0.81
  -1 -14   4   15.93    1.02
   1 -14  -4   16.80    0.99
  -1 -14   4   16.31    0.90
   1  14  -4   17.00    0.81
   1  14  -4   15.65    0.99
  -1  14   4   16.03    1.06
  -1  14   4   17.18    0.81
  -1  14   4   15.60    0.93
   0 -14  -4   21.46    1.15
   0 -14   4   19.96    1.04
   0 -14  -4   20.19    0.86
   0  14  -4   21.39    1.08
   0  14   4   20.44    0.91
   0  14   4   20.42    1.09
   0  14   4   19.57    0.99
  -1 -14  -4   20.41    1.17
   1 -14   4   21.78    1.02
  -1 -14  -4   21.30    0.82
   1 -14   4   19.25    0.99
   1 -14   4   21.21    0.95
   1  14   4   20.79    0.99
   1  14   4   23.56    1.04
  -2 -14  -4    6.63    0.47
  -2 -14  -4    6.87    0.95
   2 -14   4    6.55    0.71
   2 -14   4    6.27    0.61
   2  14   4    5.86    0.72
   2  14   4    6.29    0.63
   3 -14   4   14.56    0.79
   3 -14   4   14.06    0.95
  -3 -14  -4   16.71    1.21
   3  14   4   15.86    1.00
   3  14   4   13.87    0.87
  -4 -14  -4    1.21    0.70
   4 -14   4    2.96    0.54
   4  14   4    1.28    0.46
   4  14   4    3.04    0.63
  -6 -15   4   15.94    1.26
   6 -15  -4   14.56    1.29
   6  15  -4   13.50    1.19
   6  15  -4   14.18    1.32
   6  15  -4   14.96    1.39
   5 -15  -4    1.72    0.47
   5 -15  -4    2.75    0.60
  -5 -15   4    1.73    0.47
  -5  15   4    2.30    0.62
   5  15  -4    2.13    0.53
   5  15  -4    2.53    0.64
   5  15  -4    2.86    0.53
   4 -15  -4    0.51    0.45
  -4 -15   4    0.74    0.68
  -4 -15   4    1.14    0.42
   4 -15  -4    0.92    0.39
   4  15  -4    1.21    0.39
  -4  15   4    0.82    0.35
  -4  15   4    1.13    0.45
   4  15  -4    0.56    0.51
   4  15  -4    0.24    0.36
  -3 -15   4    8.03    0.96
   3 -15  -4    7.51    0.79
  -3 -15   4    6.39    0.74
   3 -15  -4    7.34    0.69
   3  15  -4    6.92    0.70
   3  15  -4    7.25    0.68
   3  15  -4    7.80    0.88
  -3  15   4    7.87    0.84
  -2 -15   4    1.47    0.47
   2 -15  -4    1.63    0.36
  -2 -15   4    1.96    0.42
   2 -15  -4    2.78    0.55
  -2  15   4    2.33    0.54
   2  15  -4    2.07    0.46
  -2  15   4    1.99    0.42
   2  15  -4    2.19    0.38
   1 -15  -4    5.59    0.60
  -1 -15   4    5.30    0.67
  -1 -15   4    3.24    0.51
   1 -15  -4    5.48    0.76
   1  15  -4    5.92    0.93
   1  15  -4    3.35    0.52
  -1  15   4    4.33    0.58
  -1  15   4    4.25    0.65
   0 -15  -4   61.94    2.11
   0 -15   4   61.69    2.01
   0 -15  -4   60.73    1.75
   0 -15   4   64.24    1.86
   0  15   4   60.54    1.94
   0  15   4   63.29    1.83
   1 -15   4    8.15    0.73
  -1 -15  -4    6.59    0.83
   1 -15   4    8.29    0.79
  -1 -15  -4    7.65    0.58
   1  15   4    7.11    0.72
   1  15   4    7.44    0.69
  -2 -15  -4    3.03    0.60
   2 -15   4    3.90    0.50
   2 -15   4    3.37    0.52
   2  15   4    2.94    0.52
   2  15   4    3.49    0.49
   3 -15   4   -0.38    0.43
  -3 -15  -4   -0.63    0.57
   3  15   4    0.05    0.39
   3  15   4   -0.22    0.44
   5 -16  -4   -0.14    0.52
  -5 -16   4    0.20    0.73
  -5 -16   4    0.23    0.52
   5 -16  -4    0.04    0.53
   5  16  -4    0.20    0.47
   5  16  -4    0.71    0.63
   5  16  -4    0.19    0.52
   4 -16  -4    3.35    0.54
  -4 -16   4    5.81    0.79
   4 -16  -4    4.64    0.65
  -4 -16   4    5.85    0.83
   4  16  -4    6.81    1.02
   4  16  -4    5.20    0.74
   4  16  -4    5.72    0.73
  -4  16   4    4.48    0.54
   3 -16  -4    2.14    0.40
  -3 -16   4    1.53    0.44
   3 -16  -4    1.95    0.55
  -3 -16   4    0.13    0.53
  -3  16   4    1.08    0.46
   3  16  -4    1.19    0.49
   3  16  -4    1.13    0.38
   2 -16  -4    5.05    0.64
  -2 -16   4    4.11    0.56
  -2 -16   4    4.86    0.68
   2 -16  -4    3.96    0.67
   2  16  -4    4.14    0.61
   2  16  -4    3.52    0.59
  -2  16   4    4.97    0.75
  -1 -16   4    0.43    0.36
   1 -16  -4    0.48    0.45
   1 -16  -4    0.40    0.32
  -1 -16   4   -0.62    0.36
  -1  16   4    0.22    0.32
   1  16  -4    0.86    0.40
   1  16  -4    0.66    0.31
  -1  16   4    0.24    0.33
   0 -16   4   30.88    1.33
   0 -16  -4   31.75    1.18
   0 -16   4   34.73    1.30
   0 -16  -4   31.44    1.47
   0 -16   4   32.76    1.39
   0  16   4   29.28    1.30
   0  16   4   30.37    1.41
  -1 -16  -4    0.50    0.32
   1 -16   4    0.42    0.41
  -1 -16  -4    1.34    0.46
   1 -16   4    0.42    0.36
   1 -16   4    0.89    0.41
   1  16   4    1.08    0.41
   1  16   4    0.57    0.35
   2 -16   4    1.27    0.52
   2 -16   4    1.24    0.46
  -2 -16  -4    2.26    0.67
   2  16   4    0.75    0.41
   2  16   4    0.58    0.47
   3 -16   4    6.13    0.88
  -3 -16  -4    5.85    0.95
   3  16   4    4.14    0.64
   3  16   4    5.01    0.70
   5 -17  -4    0.15    0.94
  -5 -17   4    0.41    0.64
   5 -17  -4    1.19    0.63
   5  17  -4    0.02    0.77
   5  17  -4    0.96    0.56
   5  17  -4    0.22    0.62
   4 -17  -4    2.94    0.58
   4 -17  -4    4.12    0.67
  -4 -17   4    2.46    0.70
  -4 -17   4    2.30    0.55
   4  17  -4    3.54    0.53
   4  17  -4    2.26    0.68
  -4  17   4    3.56    0.66
  -4  17   4    3.46    0.48
   3 -17  -4    6.36    0.79
  -3 -17   4    4.37    0.68
   3 -17  -4    4.52    0.72
  -3 -17   4    4.10    0.62
   3  17  -4    6.01    0.70
  -3  17   4    3.61    0.54
   3  17  -4    5.39    0.84
   2 -17  -4    0.09    0.35
  -2 -17   4   -0.12    0.49
  -2 -17   4    0.75    0.42
   2 -17  -4   -0.18    0.49
  -2 -17   4    0.38    0.44
   2  17  -4    0.40    0.35
   2  17  -4   -0.65    0.48
  -2  17   4    0.32    0.41
  -1 -17   4    3.02    0.54
  -1 -17   4    2.26    0.47
   1 -17  -4    2.36    0.42
  -1 -17   4    1.65    0.47
   1 -17  -4    3.31    0.64
  -1  17   4    2.80    0.44
   1  17  -4    3.20    0.49
  -1  17   4    2.18    0.50
   0 -17   4    0.55    0.43
   0 -17  -4    0.40    0.57
   0 -17  -4   -0.24    0.32
   0 -17   4    0.53    0.44
   0 -17   4   -0.45    0.39
   0  17   4   -0.12    0.36
   0  17   4    0.23    0.40
   1 -17   4    1.12    0.46
   1 -17   4    0.87    0.41
   1 -17   4    0.77    0.53
  -1 -17  -4    1.55    0.56
   1  17   4    0.42    0.38
   1  17   4    1.08    0.55
   2 -17   4    2.45    0.57
   2 -17   4    1.75    0.48
  -2 -17  -4    2.59    0.74
   2  17   4    2.81    0.55
   2  17   4    1.60    0.48
   4 -18  -4    5.25    0.81
  -4 -18   4    5.90    0.88
   4 -18  -4    4.94    0.80
  -4 -18   4    4.86    0.86
  -4 -18   4    4.94    0.88
   4  18  -4    4.58    0.81
   4  18  -4    7.60    0.94
  -4  18   4    7.17    1.08
  -3 -18   4    1.50    0.53
   3 -18  -4    2.47    0.51
  -3 -18   4    1.31    0.57
   3 -18  -4    0.46    0.58
  -3 -18   4    2.07    0.66
  -3  18   4    1.98    0.54
   3  18  -4    1.83    0.49
  -2 -18   4   11.72    0.99
   2 -18  -4   11.98    0.90
  -2 -18   4   11.03    0.99
  -2 -18   4   12.24    1.13
   2 -18  -4   12.68    1.16
  -2  18   4   11.50    1.04
   2  18  -4   10.54    0.88
  -1 -18   4    1.16    0.52
  -1 -18   4    1.05    0.44
   1 -18  -4    0.63    0.41
   1 -18  -4    0.05    0.54
  -1 -18   4    0.18    0.50
  -1  18   4    0.91    0.43
   1  18  -4    1.13    0.42
  -1  18   4    0.56    0.39
   0 -18   4    7.45    0.84
   0 -18  -4    7.13    0.74
   0 -18   4    6.53    0.97
   0 -18   4    5.58    0.73
   0 -18  -4    7.90    1.13
   0  18   4    8.56    0.87
   0  18   4    6.50    0.87
  -1 -18  -4   11.54    0.84
  -1 -18  -4   12.07    1.30
   1 -18   4   11.66    1.05
   1 -18   4   11.34    1.08
   1 -18   4   12.34    0.92
   1  18   4   11.72    1.05
   1  18   4   13.80    1.01
  -3 -19   4    0.29    0.68
   3 -19  -4   -1.22    0.62
  -3 -19   4    0.27    0.59
  -3 -19   4    0.18    0.79
   3 -19  -4   -0.34    0.56
  -3  19   4    0.37    0.62
   3  19  -4    0.32    0.53
   2 -19  -4    2.22    0.52
  -2 -19   4    2.78    0.65
  -2 -19   4    2.48    0.63
  -2 -19   4    1.57    0.72
   2 -19  -4    2.64    0.76
   2  19  -4    1.69    0.50
  -2  19   4    2.27    0.63
  -1 -19   4    0.07    0.49
   1 -19  -4   -0.58    0.66
  -1 -19   4   -0.65    0.55
   1 -19  -4    0.63    0.46
  -1 -19   4   -0.41    0.51
  -1  19   4   -0.27    0.48
  -1  19   4    0.04    0.41
   1  19  -4    0.01    0.43
   0 -19  -4    1.01    0.44
   0 -19  -4    0.73    0.79
   0 -19   4    1.35    0.56
   0 -19   4    2.39    0.69
   0 -19   4    1.83    0.60
   0  19   4    1.51    0.57
   0  19   4    0.81    0.49
   8   0  -5    0.02    0.39
   8   0  -5    0.08    0.40
  -7   0   5    0.16    0.26
  -7   0   5    0.32    0.39
   7   0  -5   -0.23    0.29
   7   0  -5    0.49    0.32
   6   0  -5    0.04    0.26
  -6   0   5    0.41    0.29
   6   0  -5   -0.09    0.31
   6   0  -5   -0.23    0.25
  -6   0   5    0.02    0.22
   6   0  -5   -0.08    0.30
   5   0  -5   -0.16    0.20
   5   0  -5   -0.11    0.23
   5   0  -5    0.43    0.26
  -5   0   5    0.52    0.25
  -5   0   5    0.15    0.22
   5   0  -5    0.30    0.23
   4   0  -5    0.02    0.15
  -4   0   5   -0.21    0.16
  -4   0   5    0.24    0.20
  -4   0   5    0.06    0.20
   4   0  -5   -0.02    0.18
   4   0  -5   -0.01    0.23
   4   0  -5   -0.21    0.19
  -3   0   5    0.05    0.20
   3   0  -5    0.28    0.18
  -3   0   5   -0.05    0.17
  -3   0   5   -0.01    0.17
   3   0  -5    0.18    0.18
   3   0  -5    0.04    0.15
   3   0  -5    0.02    0.16
   3   0  -5   -0.23    0.19
  -3   0   5   -0.26    0.15
  -2   0   5   -0.07    0.16
   2   0  -5   -0.06    0.14
  -2   0   5   -0.29    0.18
   2   0  -5    0.00    0.13
   2   0  -5    0.03    0.20
  -2   0   5    0.16    0.14
  -2   0   5    0.00    0.16
   2   0  -5    0.00    0.15
   1   0  -5    0.08    0.13
  -1   0   5    0.14    0.22
  -1   0   5    0.21    0.12
   1   0  -5   -0.03    0.15
  -1   0   5    0.11    0.15
   1   0  -5   -0.23    0.17
   1   0  -5   -0.09    0.14
   0   0  -5    0.09    0.12
   0   0   5    0.34    0.19
   0   0   5    0.23    0.28
   0   0   5    0.19    0.14
   0   0  -5    0.66    0.28
   1   0   5    0.07    0.09
   1   0   5    0.52    0.20
   1   0   5   -0.02    0.11
   1   0   5    0.07    0.11
  -1   0  -5    0.04    0.23
   2   0   5   -0.03    0.15
  -2   0  -5   -0.29    0.24
   2   0   5   -0.13    0.09
   2   0   5   -0.06    0.21
   3   0   5    0.14    0.21
   3   0   5   -0.05    0.24
   4   0   5   -0.04    0.29
  -4   0  -5    0.18    0.42
   4   0   5    0.14    0.30
   5   0   5   -0.06    0.51
   5   0   5    0.24    0.38
  -8  -1   5   -0.01    0.36
   8  -1  -5    1.16    0.42
   8  -1  -5   -0.12    0.40
   8   1  -5   -0.30    0.39
   8   1  -5    0.08    0.40
  -7  -1   5   25.72    0.99
   7  -1  -5   25.98    1.08
   7  -1  -5   24.86    1.10
  -7  -1   5   24.67    1.19
  -7   1   5   25.66    1.21
   7   1  -5   25.24    1.11
  -7   1   5   25.33    0.93
   7   1  -5   25.86    1.09
  -6  -1   5   13.01    0.81
   6  -1  -5   12.16    0.71
   6  -1  -5   12.95    0.73
   6  -1  -5   12.32    0.67
   6  -1  -5   12.51    0.81
  -6  -1   5   13.70    0.70
   6   1  -5   12.12    0.71
   6   1  -5   11.31    0.80
  -6   1   5   12.58    0.65
   6   1  -5   12.49    0.72
  -6   1   5   12.19    0.79
  -5  -1   5   27.26    1.10
   5  -1  -5   28.57    1.02
   5  -1  -5   27.73    1.09
   5  -1  -5   27.62    0.98
  -5  -1   5   28.52    1.02
   5  -1  -5   29.32    0.98
  -5  -1   5   27.74    0.86
   5   1  -5   27.89    1.09
  -5   1   5   30.02    1.14
   5   1  -5   29.86    1.08
   5   1  -5   29.29    1.03
  -5   1   5   29.20    1.00
   5   1  -5   27.64    0.97
   4  -1  -5   28.20    0.95
  -4  -1   5   29.11    1.00
   4  -1  -5   26.90    1.03
   4  -1  -5   28.14    0.96
   4  -1  -5   29.04    0.89
  -4  -1   5   28.89    1.06
  -4  -1   5   26.49    0.87
   4  -1  -5   27.90    0.86
   4   1  -5   27.70    0.95
   4   1  -5   27.93    0.87
  -4   1   5   28.97    0.99
  -4   1   5   29.07    1.05
   4   1  -5   28.22    0.98
   4   1  -5   27.85    1.04
  -4   1   5   28.81    0.87
   3  -1  -5   30.16    1.04
   3  -1  -5   31.85    1.00
  -3  -1   5   31.47    1.00
   3  -1  -5   30.53    1.02
  -3  -1   5   29.53    0.96
  -3  -1   5   30.01    1.10
   3  -1  -5   32.92    0.98
  -3  -1   5   31.15    1.06
   3  -1  -5   32.85    0.85
   3   1  -5   30.24    1.03
   3   1  -5   30.95    0.89
   3   1  -5   30.95    1.04
  -3   1   5   31.11    1.02
  -3   1   5   32.01    0.99
   3   1  -5   32.66    0.98
  -3   1   5   31.17    0.99
  -3   1   5   32.53    1.06
   2  -1  -5    2.67    0.33
  -2  -1   5    3.14    0.38
   2  -1  -5    2.84    0.40
   2  -1  -5    2.48    0.34
   2  -1  -5    2.72    0.30
  -2  -1   5    3.11    0.36
  -2  -1   5    2.25    0.35
  -2  -1   5    2.84    0.30
  -2   1   5    2.23    0.35
   2   1  -5    2.82    0.33
   2   1  -5    2.80    0.39
  -2   1   5    2.57    0.28
   2   1  -5    3.11    0.31
   2   1  -5    2.66    0.35
  -2   1   5    2.69    0.35
  -2   1   5    2.26    0.34
   1  -1  -5   -0.09    0.20
   1  -1  -5    0.13    0.15
  -1  -1   5   -0.09    0.12
   1  -1  -5   -0.03    0.14
  -1  -1   5   -0.07    0.14
  -1  -1   5    0.15    0.19
  -1  -1   5    0.13    0.19
  -1   1   5   -0.05    0.19
  -1   1   5   -0.12    0.12
  -1   1   5    0.39    0.18
  -1   1   5    0.10    0.14
   1   1  -5    0.10    0.20
   1   1  -5    0.20    0.16
   1   1  -5   -0.16    0.14
   1   1  -5   -0.17    0.16
   0  -1  -5   87.20    2.31
   0  -1   5   88.71    2.19
   0  -1  -5   87.80    2.01
   0  -1   5   89.81    1.96
   0  -1   5   92.63    2.05
   0  -1   5   82.40    2.29
   0   1  -5   90.42    2.30
   0   1   5   87.88    2.31
   0   1  -5   85.63    2.19
   0   1   5   91.32    2.04
   0   1   5   91.08    2.24
   0   1  -5   86.48    1.99
   0   1   5   91.13    1.98
  -1  -1  -5   20.26    0.59
   1  -1   5   19.62    0.60
   1  -1   5   20.70    0.62
  -1  -1  -5   20.31    0.94
   1  -1   5   19.59    0.52
   1  -1   5   19.91    0.81
   1   1   5   20.72    0.60
   1   1   5   20.76    0.61
  -1   1  -5   20.73    0.92
   1   1   5   22.00    0.85
   1   1   5   20.00    0.54
  -1   1  -5   20.99    0.58
  -2  -1  -5    1.27    0.33
   2  -1   5    1.56    0.32
   2  -1   5    1.13    0.16
   2  -1   5    1.40    0.22
  -2   1  -5    0.49    0.30
   2   1   5    1.10    0.28
   2   1   5    1.71    0.23
   2   1   5    1.39    0.18
   3  -1   5    9.11    0.53
   3  -1   5   10.09    0.63
   3   1   5    9.13    0.31
   3   1   5    8.68    0.53
   3   1   5    9.52    0.64
   4  -1   5    3.05    0.42
  -4  -1  -5    3.05    0.71
   4  -1   5    2.90    0.43
   4   1   5    2.62    0.44
   4   1   5    3.44    0.44
   5  -1   5   14.12    0.94
   5  -1   5   12.31    1.25
   5   1   5   12.84    1.33
   8  -2  -5   19.52    1.03
   8  -2  -5   15.53    1.02
  -8  -2   5   16.24    0.91
   8   2  -5   15.87    1.03
   8   2  -5   16.47    1.03
  -7  -2   5    2.70    0.46
   7  -2  -5    3.39    0.50
   7  -2  -5    2.35    0.40
  -7  -2   5    4.05    0.55
   7   2  -5    3.18    0.48
  -7   2   5    3.12    0.48
   7   2  -5    2.93    0.45
  -7   2   5    3.91    0.49
   6  -2  -5   38.14    1.28
  -6  -2   5   38.34    1.25
   6  -2  -5   34.60    1.15
   6  -2  -5   38.02    1.28
   6  -2  -5   36.99    1.40
  -6  -2   5   37.23    1.39
   6   2  -5   38.10    1.30
  -6   2   5   38.78    1.38
   6   2  -5   37.16    1.28
  -6   2   5   37.43    1.16
   6   2  -5   37.82    1.37
   5  -2  -5   99.34    2.65
   5  -2  -5   98.58    2.47
   5  -2  -5  104.95    2.53
  -5  -2   5  105.82    2.55
  -5  -2   5  102.17    2.29
   5  -2  -5  104.42    2.49
  -5  -2   5  106.26    2.70
   5   2  -5  102.59    2.64
  -5   2   5  107.04    2.49
  -5   2   5  105.87    2.67
   5   2  -5  104.14    2.49
   5   2  -5  106.19    2.56
   4  -2  -5   14.82    0.75
  -4  -2   5   14.86    0.77
   4  -2  -5   14.83    0.66
   4  -2  -5   15.37    0.60
  -4  -2   5   15.36    0.94
   4  -2  -5   14.24    0.66
  -4  -2   5   15.23    0.62
   4  -2  -5   15.12    0.63
  -4   2   5   14.69    0.68
  -4   2   5   14.79    0.59
   4   2  -5   15.01    0.60
   4   2  -5   14.63    0.70
   4   2  -5   16.10    0.70
  -4   2   5   14.75    0.74
   4   2  -5   14.11    0.74
   3  -2  -5   21.92    0.82
   3  -2  -5   22.49    0.67
  -3  -2   5   23.28    0.87
   3  -2  -5   22.02    0.82
   3  -2  -5   21.90    0.86
  -3  -2   5   19.64    0.76
  -3  -2   5   21.72    0.80
  -3  -2   5   21.74    0.87
   3  -2  -5   22.57    0.78
   3   2  -5   21.13    0.84
   3   2  -5   22.71    0.79
  -3   2   5   23.02    0.87
   3   2  -5   21.64    0.84
   3   2  -5   21.47    0.67
  -3   2   5   23.27    0.80
  -3   2   5   22.60    0.84
  -2  -2   5  247.98    5.25
  -2  -2   5  253.90    5.40
   2  -2  -5  257.04    5.43
   2  -2  -5  248.53    5.01
   2  -2  -5  258.76    5.59
   2  -2  -5  242.38    5.00
  -2  -2   5  255.23    5.38
  -2  -2   5  261.91    5.49
   2  -2  -5  253.57    5.21
  -2   2   5  258.54    5.39
  -2   2   5  259.74    5.42
   2   2  -5  256.25    5.24
   2   2  -5  254.19    5.46
  -2   2   5  256.63    5.36
  -2   2   5  256.23    5.29
   2   2  -5  253.48    5.41
   1  -2  -5  128.41    3.05
   1  -2  -5  129.03    2.71
  -1  -2   5  127.38    2.78
  -1  -2   5  128.39    3.05
   1  -2  -5  123.07    3.12
  -1  -2   5  132.76    2.91
  -1  -2   5  131.16    2.98
  -1   2   5  125.32    3.02
  -1   2   5  131.59    2.88
  -1   2   5  129.49    2.98
   1   2  -5  130.16    2.74
   1   2  -5  129.61    2.99
   1   2  -5  126.26    2.85
  -1   2   5  131.84    2.83
   0  -2   5  228.41    4.65
   0  -2   5  232.06    4.74
   0  -2  -5  229.43    5.05
   0  -2   5  224.57    5.05
   0  -2   5  227.72    4.93
   0  -2  -5  227.04    4.72
   0   2  -5  227.82    4.92
   0   2  -5  225.07    4.69
   0   2   5  241.69    4.83
   0   2  -5  233.85    5.02
   0   2   5  233.71    4.69
   0   2   5  215.44    5.00
   0   2   5  226.61    4.93
  -1  -2  -5   31.89    0.86
   1  -2   5   32.71    0.88
   1  -2   5   33.54    1.09
   1  -2   5   32.54    0.76
  -1  -2  -5   34.79    1.25
   1  -2   5   32.56    0.83
   1  -2   5   32.82    0.78
   1   2   5   31.19    0.82
   1   2   5   32.99    0.86
   1   2   5   32.88    1.12
   1   2   5   32.79    0.86
  -1   2  -5   31.24    0.81
  -1   2  -5   33.12    1.20
  -1   2  -5   32.92    0.84
   2  -2   5    0.35    0.16
  -2  -2  -5    0.07    0.28
   2  -2   5    0.34    0.11
   2  -2   5    0.15    0.20
   2   2   5    0.52    0.18
   2   2   5    0.35    0.13
   2   2   5    0.15    0.24
  -3  -2  -5   11.97    1.09
   3  -2   5   11.12    0.60
   3  -2   5   11.77    0.65
   3   2   5   11.99    0.72
   3   2   5   12.10    0.60
   3   2   5   11.47    0.40
   4  -2   5    7.13    0.60
  -4  -2  -5    7.28    1.15
   4  -2   5    7.52    0.61
   4   2   5    7.43    0.61
   4   2   5    6.16    0.67
   5  -2   5   42.71    1.40
  -5  -2  -5   42.45    1.62
   5  -2   5   46.00    2.03
   5   2   5   40.73    1.55
   5   2   5   41.82    1.50
   8  -3  -5   23.56    1.18
   8  -3  -5   23.10    1.14
  -8  -3   5   20.00    1.04
   8   3  -5   22.90    1.16
   8   3  -5   22.64    1.19
  -7  -3   5   56.14    1.66
   7  -3  -5   56.93    1.74
  -7  -3   5   58.61    1.95
   7  -3  -5   55.85    1.79
  -7   3   5   57.34    1.87
  -7   3   5   57.41    1.53
   7   3  -5   54.66    1.74
   7   3  -5   55.26    1.79
   6  -3  -5    4.47    0.52
  -6  -3   5    4.16    0.61
  -6  -3   5    5.28    0.55
   6  -3  -5    4.89    0.45
   6  -3  -5    3.52    0.53
   6  -3  -5    3.65    0.52
   6   3  -5    2.98    0.45
  -6   3   5    4.05    0.59
  -6   3   5    4.70    0.44
   6   3  -5    4.52    0.55
   6   3  -5    3.71    0.52
   5  -3  -5   62.17    1.88
   5  -3  -5   68.40    1.57
   5  -3  -5   63.67    1.72
  -5  -3   5   64.64    1.78
  -5  -3   5   66.31    1.93
   5  -3  -5   62.70    1.69
   5  -3  -5   65.36    1.77
  -5  -3   5   62.39    1.56
  -5   3   5   64.84    1.71
  -5   3   5   64.72    1.88
   5   3  -5   65.16    1.88
   5   3  -5   63.19    1.77
   5   3  -5   66.29    1.74
  -4  -3   5   88.62    2.32
   4  -3  -5   90.90    2.10
  -4  -3   5   88.84    2.22
   4  -3  -5   87.42    2.15
   4  -3  -5   86.20    2.29
   4  -3  -5   84.81    2.15
  -4  -3   5   85.92    2.08
   4   3  -5   85.11    2.24
  -4   3   5   85.91    2.25
  -4   3   5   89.30    2.16
   4   3  -5   87.55    2.17
   4   3  -5   87.88    2.06
   3  -3  -5    4.71    0.38
  -3  -3   5    4.82    0.44
   3  -3  -5    4.26    0.27
  -3  -3   5    4.39    0.40
   3  -3  -5    4.18    0.43
   3  -3  -5    3.71    0.40
  -3  -3   5    4.12    0.37
  -3  -3   5    3.87    0.44
  -3   3   5    5.04    0.42
  -3   3   5    4.78    0.41
  -3   3   5    4.58    0.38
   3   3  -5    4.20    0.42
   3   3  -5    4.79    0.34
  -3   3   5    4.76    0.43
   3   3  -5    5.01    0.42
   2  -3  -5   95.33    2.34
   2  -3  -5   92.32    2.27
   2  -3  -5   93.60    2.13
  -2  -3   5   92.05    2.16
  -2  -3   5   94.51    2.32
   2  -3  -5   94.47    1.97
  -2  -3   5   93.08    2.34
  -2  -3   5   96.75    2.31
   2   3  -5   92.17    2.30
  -2   3   5   93.90    2.30
  -2   3   5   90.62    2.19
   2   3  -5   95.61    2.17
  -2   3   5   95.34    2.27
  -2   3   5   95.48    2.29
   2   3  -5   92.56    2.35
   2   3  -5   91.17    1.93
   1  -3  -5  296.58    6.09
  -1  -3   5  294.36    6.10
  -1  -3   5  295.98    6.18
  -1  -3   5  297.11    6.27
   1  -3  -5  287.35    5.89
   1  -3  -5  303.24    6.29
  -1  -3   5  287.86    5.97
  -1   3   5  289.76    6.08
  -1   3   5  299.70    6.20
   1   3  -5  292.05    5.92
  -1   3   5  304.24    6.26
   1   3  -5  290.46    6.03
  -1   3   5  289.42    6.01
   1   3  -5  294.76    6.18
   0  -3   5   26.36    0.77
   0  -3  -5   25.33    0.83
   0  -3   5   27.01    0.96
   0  -3   5   28.80    0.87
   0  -3  -5   27.39    1.08
   0   3   5   24.41    1.03
   0   3   5   27.18    0.80
   0   3   5   27.61    0.83
   0   3   5   27.24    0.62
   0   3   5   28.20    1.00
   0   3  -5   27.02    0.96
   0   3  -5   26.59    0.80
   1  -3   5   35.51    0.86
  -1  -3  -5   34.76    0.96
   1  -3   5   35.77    0.95
   1  -3   5   35.93    1.15
   1  -3   5   34.80    0.90
  -1  -3  -5   35.79    1.31
   1  -3   5   35.66    0.83
   1   3   5   33.90    1.18
  -1   3  -5   33.80    1.13
   1   3   5   35.89    0.95
  -1   3  -5   35.56    0.92
   1   3   5   36.69    0.94
  -1   3  -5   35.38    0.92
   2  -3   5    9.35    0.38
   2  -3   5   10.42    0.47
   2  -3   5    9.97    0.58
  -2  -3  -5   10.94    0.76
   2   3   5    9.99    0.35
   2   3   5    9.92    0.41
   2   3   5   10.69    0.39
   2   3   5   10.48    0.49
   2   3   5   11.37    0.67
   3  -3   5    0.29    0.23
  -3  -3  -5   -0.45    0.36
   3  -3   5    0.01    0.12
   3  -3   5    0.05    0.22
   3   3   5    0.29    0.15
   3   3   5   -0.14    0.33
   3   3   5    0.01    0.21
   4  -3   5   15.27    0.77
   4  -3   5   15.41    0.79
  -4  -3  -5   14.00    1.31
   4   3   5   15.30    0.89
   4   3   5   14.30    1.04
  -5  -3  -5   38.24    1.54
   5  -3   5   35.02    1.72
   5   3   5   37.67    1.52
   5   3   5   36.92    1.44
   8  -4  -5    7.51    0.80
  -8  -4   5    7.14    0.79
   8  -4  -5    6.27    0.82
   8   4  -5    9.15    0.92
   8   4  -5    8.72    0.87
   7  -4  -5    0.45    0.35
   7  -4  -5    1.13    0.35
  -7  -4   5    0.96    0.43
  -7   4   5    1.89    0.41
   7   4  -5    1.36    0.38
  -7   4   5    1.72    0.29
   7   4  -5    1.50    0.40
   6  -4  -5   28.04    1.38
  -6  -4   5   30.76    1.13
  -6  -4   5   28.50    0.79
   6  -4  -5   31.92    1.17
  -6  -4   5   30.49    1.26
   6  -4  -5   29.99    1.15
   6   4  -5   30.33    1.15
  -6   4   5   30.40    0.99
   6   4  -5   28.56    1.17
  -6   4   5   28.85    1.19
   6   4  -5   28.86    1.22
  -5  -4   5    3.05    0.34
  -5  -4   5    3.31    0.47
  -5  -4   5    3.79    0.47
   5  -4  -5    3.53    0.43
   5  -4  -5    2.37    0.37
   5  -4  -5    3.15    0.36
   5   4  -5    3.11    0.43
   5   4  -5    3.00    0.40
   5   4  -5    3.23    0.49
  -5   4   5    3.47    0.41
  -5   4   5    2.04    0.33
   4  -4  -5   10.97    0.60
  -4  -4   5   10.90    0.64
  -4  -4   5    8.98    0.66
  -4  -4   5   10.01    0.52
   4  -4  -5    9.69    0.63
   4  -4  -5    9.49    0.54
   4   4  -5   10.06    0.60
  -4   4   5   10.27    0.57
  -4   4   5    9.94    0.63
   4   4  -5    8.34    0.59
   4   4  -5    9.45    0.50
  -3  -4   5  137.55    3.21
  -3  -4   5  140.94    3.27
   3  -4  -5  140.92    2.93
  -3  -4   5  134.40    3.09
   3  -4  -5  138.21    3.24
  -3  -4   5  141.79    3.28
   3  -4  -5  141.16    3.17
   3  -4  -5  141.14    3.09
  -3   4   5  138.91    3.11
  -3   4   5  139.29    3.21
   3   4  -5  146.90    3.14
   3   4  -5  137.91    2.95
  -3   4   5  125.24    3.26
   3   4  -5  135.67    3.37
   3   4  -5  131.58    3.17
  -3   4   5  143.04    3.16
   2  -4  -5   39.75    1.09
  -2  -4   5   39.21    1.11
   2  -4  -5   39.71    0.97
  -2  -4   5   39.39    1.24
  -2  -4   5   39.85    0.92
  -2  -4   5   40.07    1.24
   2  -4  -5   39.21    1.22
  -2  -4   5   39.63    1.24
   2  -4  -5   38.85    1.27
  -2   4   5   38.93    1.20
  -2   4   5   39.81    1.15
   2   4  -5   38.81    1.17
   2   4  -5   39.82    0.93
   2   4  -5   41.00    1.13
  -2   4   5   39.27    1.23
  -2   4   5   40.21    1.22
  -1  -4   5    0.33    0.25
   1  -4  -5    0.03    0.22
  -1  -4   5    0.63    0.17
   1  -4  -5   -0.11    0.17
   1  -4  -5    0.03    0.10
  -1  -4   5    0.18    0.17
   1  -4  -5   -0.07    0.13
  -1  -4   5    0.27    0.26
   1   4  -5    0.27    0.17
  -1   4   5    0.04    0.20
  -1   4   5    0.09    0.17
   1   4  -5    0.21    0.19
   1   4  -5    0.33    0.16
  -1   4   5    0.25    0.15
  -1   4   5    0.81    0.25
   0  -4  -5   21.86    0.59
   0  -4   5   22.78    0.86
   0  -4  -5   22.52    0.98
   0  -4   5   21.16    0.67
   0  -4  -5   21.10    0.54
   0  -4   5   22.11    0.77
   0  -4   5   20.39    1.13
   0  -4  -5   22.51    0.86
   0  -4   5   20.93    0.56
   0  -4  -5   21.12    0.52
   0   4  -5   20.42    0.83
   0   4  -5   20.89    0.80
   0   4   5   22.24    0.74
   0   4   5   21.95    0.88
   0   4   5   21.98    0.57
   0   4   5   21.97    1.11
   0   4   5   21.43    0.72
   1  -4   5   83.68    2.12
   1  -4   5   80.82    1.90
  -1  -4  -5   83.83    2.33
   1  -4   5   86.32    1.82
   1  -4   5   84.35    1.90
   1  -4   5   84.84    1.95
  -1  -4  -5   86.01    1.87
   1   4   5   85.60    2.21
   1   4   5   86.33    1.88
  -1   4  -5   80.92    2.12
  -1   4  -5   86.93    1.91
   1   4   5   83.68    1.92
   1   4   5   86.34    1.93
   2  -4   5    8.64    0.39
   2  -4   5    8.87    0.47
   2  -4   5    8.50    0.42
   2  -4   5    8.61    0.54
  -2  -4  -5    8.55    0.73
   2  -4   5    8.94    0.33
   2   4   5    9.57    0.37
   2   4   5    8.86    0.41
   2   4   5    9.48    0.48
   2   4   5    9.36    0.66
   2   4   5    8.57    0.41
   3  -4   5    7.72    0.36
  -3  -4  -5    7.32    0.75
   3  -4   5    7.97    0.57
   3  -4   5    8.86    0.53
   3   4   5    6.94    0.65
   3   4   5    7.59    0.40
   3   4   5    8.34    0.54
   4  -4   5   40.16    1.33
  -4  -4  -5   42.82    1.68
   4  -4   5   41.23    1.29
   4   4   5   40.20    1.36
   4   4   5   40.48    1.47
   5  -4   5    9.41    0.91
  -5  -4  -5   10.90    0.97
   5   4   5   10.91    0.92
   5   4   5   10.08    0.91
  -8  -5   5    5.11    0.76
   8  -5  -5    4.79    0.62
   8  -5  -5    3.09    0.56
   8   5  -5    3.95    0.64
   8   5  -5    4.58    0.63
   7  -5  -5    1.01    0.40
  -7  -5   5   -0.29    0.41
   7  -5  -5   -0.06    0.36
  -7  -5   5    0.60    0.35
  -7   5   5    0.69    0.39
   7   5  -5    0.18    0.37
   7   5  -5   -0.02    0.36
  -7   5   5   -0.19    0.25
   6  -5  -5    1.43    0.34
  -6  -5   5    2.07    0.41
   6  -5  -5    1.36    0.44
  -6  -5   5    1.88    0.36
  -6   5   5    2.12    0.31
   6   5  -5    1.70    0.35
   6   5  -5    2.49    0.40
  -6   5   5    2.33    0.38
   6   5  -5    1.98    0.46
  -5  -5   5    1.06    0.31
   5  -5  -5    0.55    0.30
   5  -5  -5    1.31    0.25
  -5  -5   5    1.26    0.24
  -5  -5   5    0.69    0.31
   5   5  -5    0.76    0.27
  -5   5   5    0.99    0.32
   5   5  -5    0.98    0.28
  -5   5   5    1.15    0.24
  -4  -5   5   26.76    0.89
   4  -5  -5   26.59    0.93
   4  -5  -5   26.47    0.83
  -4  -5   5   25.81    1.01
   4  -5  -5   25.18    1.05
  -4  -5   5   28.02    1.12
   4  -5  -5   26.74    0.95
  -4   5   5   27.00    0.93
  -4   5   5   25.48    1.01
   4   5  -5   25.50    1.00
   4   5  -5   25.86    0.98
   4   5  -5   26.57    0.89
  -3  -5   5    7.65    0.60
  -3  -5   5    8.76    0.58
   3  -5  -5    8.76    0.39
   3  -5  -5    9.01    0.59
   3  -5  -5    8.31    0.56
  -3  -5   5    8.19    0.52
  -3  -5   5    7.87    0.42
   3  -5  -5    8.32    0.51
   3   5  -5    7.22    0.51
  -3   5   5    8.30    0.58
  -3   5   5    8.10    0.51
   3   5  -5    8.72    0.54
   3   5  -5    8.13    0.43
   2  -5  -5   23.69    0.70
   2  -5  -5   23.58    0.95
  -2  -5   5   24.66    0.94
  -2  -5   5   23.54    0.65
  -2  -5   5   23.31    0.92
  -2  -5   5   22.92    0.90
  -2  -5   5   21.83    0.78
   2  -5  -5   24.48    0.79
   2  -5  -5   22.67    0.89
   2   5  -5   21.29    0.78
  -2   5   5   24.87    0.90
   2   5  -5   22.70    0.85
   2   5  -5   23.80    0.82
  -2   5   5   23.34    0.84
  -2   5   5   23.37    0.87
  -2   5   5   24.83    0.90
  -1  -5   5   58.79    1.60
   1  -5  -5   58.52    1.34
  -1  -5   5   58.85    1.27
  -1  -5   5   54.78    1.67
   1  -5  -5   55.41    1.57
  -1  -5   5   58.23    1.62
  -1  -5   5   57.22    1.45
   1  -5  -5   59.35    1.40
   1  -5  -5   59.89    1.81
  -1   5   5   59.13    1.56
   1   5  -5   56.11    1.53
  -1   5   5   58.75    1.51
  -1   5   5   55.11    1.64
   1   5  -5   58.95    1.43
  -1   5   5   59.44    1.65
   0  -5  -5    1.15    0.33
   0  -5  -5    1.26    0.18
   0  -5  -5    1.78    0.18
   0  -5   5    1.21    0.19
   0  -5   5    1.43    0.24
   0  -5   5    1.20    0.15
   0  -5   5    1.15    0.26
   0  -5  -5    1.60    0.20
   0   5   5    1.51    0.22
   0   5  -5    0.97    0.27
   0   5   5    1.42    0.22
   0   5  -5    1.54    0.27
   0   5   5    1.41    0.32
   0   5   5    1.71    0.25
   1  -5   5    0.71    0.23
  -1  -5  -5    0.72    0.17
  -1  -5  -5    0.90    0.34
   1  -5   5    0.89    0.20
   1  -5   5    0.51    0.18
   1   5   5    0.49    0.17
  -1   5  -5    1.07    0.28
   1   5   5    0.88    0.28
   1   5   5    0.68    0.19
   1   5   5    0.80    0.18
   2  -5   5  112.75    2.69
   2  -5   5  115.95    2.40
   2  -5   5  113.80    2.44
  -2  -5  -5  109.14    2.97
   2  -5   5  111.68    2.47
   2   5   5  116.44    2.87
   2   5   5  113.74    2.49
   2   5   5  113.26    2.45
   2   5   5  113.61    2.56
   2   5   5  112.62    2.50
   3  -5   5    0.12    0.24
   3  -5   5    0.32    0.18
  -3  -5  -5    0.43    0.38
   3  -5   5    0.00    0.21
   3  -5   5   -0.02    0.22
   3   5   5    0.52    0.19
   3   5   5    0.59    0.40
   3   5   5    0.17    0.24
  -4  -5  -5   28.62    1.33
   4  -5   5   28.44    1.02
   4  -5   5   28.54    1.11
   4   5   5   27.79    1.12
   4   5   5   27.63    1.23
   5  -5   5    0.96    0.49
  -5  -5  -5    0.76    0.51
   5   5   5   -0.35    0.85
   5   5   5    0.68    0.49
   8  -6  -5    4.89    0.66
   8  -6  -5    6.27    0.92
  -8  -6   5    6.06    0.82
   8   6  -5    6.16    0.90
   8   6  -5    5.59    0.75
   7  -6  -5   72.84    2.15
   7  -6  -5   71.26    2.14
  -7  -6   5   76.23    2.37
  -7  -6   5   70.66    2.06
  -7   6   5   72.22    2.23
   7   6  -5   72.28    2.17
   7   6  -5   73.20    2.17
  -6  -6   5    2.84    0.45
   6  -6  -5    4.04    0.41
  -6  -6   5    4.79    0.58
   6  -6  -5    3.56    0.53
   6  -6  -5    3.65    0.48
   6   6  -5    4.01    0.57
   6   6  -5    3.78    0.57
  -6   6   5    4.11    0.44
  -6   6   5    4.88    0.60
   6   6  -5    3.46    0.51
   5  -6  -5   11.82    0.69
   5  -6  -5   11.23    0.59
   5  -6  -5   10.68    0.77
  -5  -6   5   10.84    0.53
  -5  -6   5   10.34    0.79
  -5  -6   5   11.18    0.71
  -5   6   5   10.91    0.59
  -5   6   5   11.68    0.73
   5   6  -5   10.68    0.79
   5   6  -5   11.26    0.64
   5   6  -5   10.49    0.68
  -4  -6   5    0.60    0.21
   4  -6  -5    0.29    0.30
  -4  -6   5    0.68    0.25
   4  -6  -5    0.56    0.17
  -4  -6   5    0.51    0.21
  -4  -6   5    0.94    0.32
   4  -6  -5    0.18    0.23
   4  -6  -5    0.59    0.25
   4   6  -5    0.99    0.29
  -4   6   5    1.01    0.23
   4   6  -5    0.69    0.25
  -4   6   5    0.97    0.29
   4   6  -5    0.63    0.22
   3  -6  -5    5.85    0.45
  -3  -6   5    5.61    0.55
  -3  -6   5    5.91    0.52
  -3  -6   5    5.34    0.37
   3  -6  -5    5.94    0.51
   3  -6  -5    5.63    0.55
  -3  -6   5    5.42    0.46
   3  -6  -5    5.80    0.35
  -3   6   5    5.59    0.51
   3   6  -5    4.64    0.48
   3   6  -5    5.16    0.47
   3   6  -5    5.87    0.39
  -3   6   5    4.93    0.46
  -2  -6   5    7.30    0.46
  -2  -6   5    6.70    0.55
   2  -6  -5    8.33    0.40
   2  -6  -5    7.23    0.58
  -2  -6   5    7.05    0.36
   2  -6  -5    7.24    0.44
  -2  -6   5    6.63    0.53
  -2  -6   5    6.69    0.53
   2  -6  -5    6.96    0.54
  -2   6   5    6.83    0.51
  -2   6   5    7.72    0.54
   2   6  -5    7.87    0.40
  -2   6   5    7.10    0.50
   2   6  -5    6.66    0.45
  -1  -6   5  360.19    7.82
   1  -6  -5  379.42    7.84
  -1  -6   5  364.08    7.31
  -1  -6   5  363.54    7.68
  -1  -6   5  373.16    7.68
  -1  -6   5  364.17    7.49
   1  -6  -5  365.46    7.42
   1  -6  -5  371.29    7.40
  -1   6   5  386.22    8.06
  -1   6   5  367.10    7.61
   1   6  -5  373.95    7.45
  -1   6   5  376.58    7.56
  -1   6   5  374.68    7.72
   0  -6   5   30.28    1.01
   0  -6   5   29.44    1.04
   0  -6  -5   30.65    1.20
   0  -6  -5   29.55    0.84
   0  -6  -5   30.25    0.85
   0  -6   5   28.12    0.95
   0  -6   5   29.52    0.78
   0   6   5   29.69    1.09
   0   6  -5   25.75    1.37
   0   6   5   30.97    0.82
   0   6   5   29.77    0.96
   0   6  -5   29.50    0.96
   0   6   5   29.40    0.91
   1  -6   5   66.73    1.81
  -1  -6  -5   68.73    2.05
   1  -6   5   68.28    1.57
   1  -6   5   65.91    1.62
  -1  -6  -5   69.21    1.63
   1  -6   5   66.55    1.69
  -1   6  -5   66.02    1.93
   1   6   5   67.51    1.72
   1   6   5   69.38    1.94
  -1   6  -5   67.57    1.66
   1   6   5   67.16    1.66
   1   6   5   69.75    1.64
   1   6   5   69.38    1.69
   2  -6   5    1.57    0.22
  -2  -6  -5    1.76    0.25
   2  -6   5    1.58    0.22
   2  -6   5    1.53    0.22
   2  -6   5    1.43    0.28
  -2   6  -5    1.87    0.36
   2   6   5    1.31    0.25
   2   6   5    1.54    0.22
   2   6   5    1.74    0.23
   2   6   5    2.43    0.44
  -2   6  -5    1.16    0.16
   2   6   5    1.83    0.28
   3  -6   5    2.30    0.37
   3  -6   5    3.06    0.44
   3  -6   5    3.05    0.45
  -3  -6  -5    2.80    0.53
   3   6   5    3.21    0.46
   3   6   5    2.30    0.31
   3   6   5    2.73    0.36
   3   6   5    2.51    0.42
   3   6   5    2.71    0.28
   4  -6   5   -0.10    0.29
   4  -6   5   -0.25    0.37
  -4  -6  -5    0.87    0.44
   4   6   5    0.09    0.40
   4   6   5    0.81    0.40
   5  -6   5   12.34    0.98
  -5  -6  -5   13.33    1.08
   5   6   5   11.99    1.00
   5   6   5   11.35    1.03
   8  -7  -5    9.22    1.01
  -8  -7   5   10.54    0.98
   8  -7  -5   12.11    1.04
   8   7  -5   10.28    1.14
   8   7  -5   10.43    1.02
  -7  -7   5   13.60    1.17
  -7  -7   5   12.47    0.85
   7  -7  -5   11.44    0.89
  -7   7   5   13.00    0.97
   7   7  -5   13.20    0.94
   7   7  -5   12.63    0.90
   6  -7  -5    0.04    0.25
  -6  -7   5    0.47    0.32
   6  -7  -5    0.12    0.29
   6  -7  -5    0.26    0.48
  -6  -7   5   -0.32    0.38
  -6   7   5   -0.02    0.30
   6   7  -5    0.37    0.32
  -6   7   5    0.03    0.24
   5  -7  -5    0.13    0.26
   5  -7  -5   -0.08    0.23
   5  -7  -5   -0.52    0.42
  -5  -7   5    0.52    0.33
  -5  -7   5    0.27    0.23
   5   7  -5   -0.24    0.27
   5   7  -5    0.36    0.25
  -5   7   5   -0.12    0.22
  -5   7   5    0.30    0.24
   4  -7  -5    5.51    0.51
  -4  -7   5    4.32    0.43
  -4  -7   5    4.84    0.63
  -4  -7   5    4.54    0.53
   4  -7  -5    4.96    0.72
   4  -7  -5    4.89    0.51
  -4  -7   5    4.83    0.45
   4  -7  -5    4.69    0.38
   4   7  -5    5.31    0.45
   4   7  -5    5.27    0.55
  -4   7   5    5.11    0.45
  -4   7   5    4.89    0.54
   3  -7  -5    9.98    0.90
  -3  -7   5   10.23    0.60
   3  -7  -5   11.72    0.66
   3  -7  -5   11.31    0.60
  -3  -7   5    9.64    0.72
   3  -7  -5   10.61    0.49
  -3  -7   5   10.12    0.67
  -3  -7   5   10.96    0.52
   3   7  -5   11.19    0.64
   3   7  -5    9.89    0.51
  -3   7   5   10.02    0.61
  -3   7   5   10.59    0.66
  -2  -7   5   29.77    1.11
   2  -7  -5   28.44    1.11
  -2  -7   5   33.23    1.36
   2  -7  -5   28.11    0.87
  -2  -7   5   28.73    1.06
  -2  -7   5   27.99    1.18
   2  -7  -5   29.29    0.94
  -2  -7   5   27.78    1.06
  -2   7   5   30.75    1.07
  -2   7   5   28.93    1.04
   2   7  -5   28.97    0.85
   2   7  -5   29.33    0.97
  -1  -7   5  419.09    8.71
   1  -7  -5  415.50    8.44
  -1  -7   5  412.10    8.35
  -1  -7   5  419.19    8.68
   1  -7  -5  426.93    8.85
   1  -7  -5  419.85    8.44
  -1  -7   5  421.92    8.52
  -1   7   5  433.22    8.75
   1   7  -5  417.42    8.32
   1   7  -5  429.34    8.71
  -1   7   5  421.86    8.64
   1   7  -5  433.18    8.46
  -1   7   5  418.98    8.58
   0  -7  -5    4.93    0.31
   0  -7   5    4.98    0.37
   0  -7  -5    4.36    0.60
   0  -7  -5    5.80    0.36
   0  -7   5    4.43    0.32
   0  -7   5    5.07    0.49
   0  -7  -5    5.29    0.33
   0  -7   5    5.62    0.47
   0   7   5    5.78    0.35
   0   7   5    5.23    0.53
   0   7   5    4.78    0.44
   0   7  -5    4.71    0.41
   0   7   5    4.83    0.40
   1  -7   5    0.17    0.22
  -1  -7  -5    0.08    0.18
   1  -7   5   -0.08    0.16
   1  -7   5    0.28    0.21
  -1  -7  -5    0.21    0.35
   1  -7   5    0.01    0.17
   1   7   5    0.13    0.18
   1   7   5    0.33    0.17
   1   7   5    0.13    0.18
   1   7   5    0.23    0.18
  -1   7  -5   -0.08    0.18
   1   7   5    0.28    0.28
   2  -7   5   40.39    1.11
  -2  -7  -5   39.75    1.17
   2  -7   5   40.28    1.11
   2  -7   5   39.79    1.14
   2  -7   5   42.14    1.29
  -2  -7  -5   39.88    1.53
   2   7   5   37.60    1.28
  -2   7  -5   41.95    1.03
   2   7   5   39.61    1.21
   2   7   5   39.18    1.45
   2   7   5   42.16    1.21
   2   7   5   41.22    1.22
   3  -7   5    0.95    0.31
   3  -7   5    0.71    0.26
  -3  -7  -5   -0.01    0.36
   3   7   5    1.03    0.37
   3   7   5    0.67    0.22
   3   7   5    0.70    0.29
   3   7   5    0.95    0.19
   4  -7   5    2.57    0.43
  -4  -7  -5    2.05    0.55
   4  -7   5    2.53    0.48
   4   7   5    2.69    0.49
   4   7   5    3.11    0.57
  -5  -7  -5   35.51    1.64
   5   7   5   36.27    1.56
   5   7   5   36.76    1.52
  -7  -8   5    0.14    0.37
   7  -8  -5    0.29    0.39
  -7  -8   5   -0.15    0.57
   7   8  -5    0.53    0.44
   7   8  -5    0.33    0.40
  -6  -8   5   37.91    1.37
   6  -8  -5   38.21    1.37
  -6  -8   5   36.79    1.55
   6  -8  -5   36.62    1.13
  -6   8   5   35.46    1.17
   6   8  -5   37.43    1.40
   6   8  -5   36.27    1.34
  -6   8   5   37.79    1.44
  -5  -8   5   11.55    0.75
   5  -8  -5   12.66    0.67
  -5  -8   5   11.86    0.89
  -5  -8   5   12.24    0.61
   5  -8  -5   12.90    0.74
  -5   8   5   12.00    0.61
   5   8  -5   11.73    0.76
  -5   8   5   11.64    0.78
   5   8  -5   10.95    0.69
   4  -8  -5   30.18    1.09
  -4  -8   5   30.53    1.05
   4  -8  -5   28.21    0.97
  -4  -8   5   30.15    1.02
  -4  -8   5   30.50    1.28
  -4  -8   5   31.56    1.30
   4  -8  -5   30.72    1.09
  -4   8   5   31.05    1.20
   4   8  -5   30.26    1.03
  -4   8   5   28.69    1.03
   4   8  -5   29.59    1.14
   3  -8  -5  105.87    2.51
  -3  -8   5  107.34    2.68
  -3  -8   5  110.65    2.86
  -3  -8   5  110.18    2.73
  -3  -8   5  108.64    2.50
   3  -8  -5  109.45    2.62
   3  -8  -5  113.61    2.75
   3   8  -5  110.96    2.69
  -3   8   5  112.79    2.67
   3   8  -5  106.03    2.52
  -3   8   5  109.43    2.76
  -2  -8   5    3.01    0.43
  -2  -8   5    2.26    0.31
   2  -8  -5    2.10    0.36
   2  -8  -5    2.43    0.33
  -2  -8   5    3.08    0.43
   2  -8  -5    2.55    0.37
   2   8  -5    2.74    0.30
  -2   8   5    2.29    0.35
   2   8  -5    2.45    0.33
  -2   8   5    2.47    0.36
  -1  -8   5    3.42    0.32
  -1  -8   5    3.40    0.50
   1  -8  -5    3.79    0.56
   1  -8  -5    3.36    0.36
  -1  -8   5    4.13    0.48
   1  -8  -5    3.62    0.33
  -1  -8   5    3.21    0.41
  -1   8   5    3.16    0.44
  -1   8   5    4.03    0.48
   1   8  -5    3.52    0.44
  -1   8   5    3.41    0.59
   1   8  -5    3.94    0.31
   0  -8  -5   12.36    0.56
   0  -8  -5   12.01    0.83
   0  -8   5   12.63    0.70
   0  -8   5   12.90    0.56
   0  -8   5   12.54    0.68
   0  -8  -5   13.35    0.51
   0  -8  -5   12.52    0.49
   0  -8   5   11.95    0.56
   0   8   5   12.82    0.65
   0   8  -5   13.15    0.65
   0   8   5   13.30    0.67
   0   8   5   13.28    0.54
   0   8   5   12.28    0.75
   0   8   5   13.62    0.64
   1  -8   5   89.94    2.03
  -1  -8  -5   91.65    2.12
   1  -8   5   90.52    2.19
   1  -8   5   86.98    2.07
  -1  -8  -5   74.49    3.13
   1  -8   5   88.84    2.23
   1   8   5   86.79    2.12
   1   8   5   84.48    2.32
   1   8   5   87.20    2.20
  -1   8  -5   88.99    2.13
   1   8   5   89.75    2.09
   2  -8   5   14.92    0.63
   2  -8   5   15.83    0.66
   2  -8   5   15.46    0.63
  -2  -8  -5   15.44    0.97
  -2  -8  -5   14.58    0.67
   2  -8   5   15.19    0.75
  -2   8  -5   14.52    0.57
   2   8   5   15.50    0.70
   2   8   5   15.16    0.89
   2   8   5   15.34    0.66
   2   8   5   15.12    0.69
   3  -8   5   32.48    1.11
  -3  -8  -5   34.44    1.48
   3   8   5   33.13    1.00
   3   8   5   33.22    1.18
   3   8   5   30.93    1.03
  -4  -8  -5    4.51    0.71
   4  -8   5    4.27    0.56
   4   8   5    3.98    0.56
   4   8   5    4.54    0.42
   4   8   5    4.24    0.61
   4   8   5    4.14    0.37
   5  -8   5   15.25    1.10
  -5  -8  -5   14.92    1.22
   5   8   5   14.67    1.10
   5   8   5   16.02    1.18
  -7  -9   5    7.90    0.80
   7  -9  -5    6.71    0.79
   7   9  -5    6.57    0.90
   7   9  -5    7.54    0.84
  -6  -9   5    1.56    0.40
   6  -9  -5    0.79    0.37
   6  -9  -5    0.80    0.74
  -6  -9   5    0.94    0.45
  -6   9   5    1.25    0.37
   6   9  -5    0.65    0.39
  -6   9   5    1.35    0.29
   6   9  -5    1.17    0.38
  -5  -9   5    1.14    0.31
   5  -9  -5    0.95    0.31
   5  -9  -5    1.36    0.34
  -5  -9   5    1.90    0.40
  -5  -9   5    0.82    0.40
  -5   9   5    1.57    0.39
   5   9  -5    1.13    0.33
  -5   9   5    1.24    0.27
   5   9  -5    1.58    0.36
   4  -9  -5   39.48    1.32
  -4  -9   5   39.24    1.25
   4  -9  -5   38.68    1.34
  -4  -9   5   40.17    1.38
  -4  -9   5   40.26    1.51
  -4  -9   5   38.92    1.29
  -4   9   5   38.96    1.23
  -4   9   5   39.58    1.41
   4   9  -5   39.85    1.26
   3  -9  -5   35.18    1.25
  -3  -9   5   34.72    1.07
   3  -9  -5   34.81    1.17
   3  -9  -5   35.09    1.09
  -3  -9   5   35.99    1.37
  -3  -9   5   35.48    1.27
   3   9  -5   33.76    1.09
  -3   9   5   34.23    1.19
  -3   9   5   35.96    1.30
   3   9  -5   35.78    1.22
  -2  -9   5    2.58    0.34
   2  -9  -5    3.29    0.42
   2  -9  -5    3.38    0.51
   2  -9  -5    2.66    0.36
  -2  -9   5    2.90    0.45
  -2  -9   5    3.42    0.49
   2   9  -5    3.14    0.42
   2   9  -5    3.24    0.33
  -2   9   5    3.26    0.47
  -2   9   5    2.53    0.37
   2   9  -5    2.59    0.46
   1  -9  -5   23.13    0.81
  -1  -9   5   24.51    0.98
  -1  -9   5   23.39    1.02
   1  -9  -5   22.39    0.81
  -1  -9   5   22.77    0.77
   1  -9  -5   23.49    1.10
  -1   9   5   24.15    1.02
  -1   9   5   23.67    0.77
   1   9  -5   21.97    0.95
  -1   9   5   23.08    0.95
   1   9  -5   23.72    0.75
   0  -9  -5   11.96    0.52
   0  -9   5   11.87    1.00
   0  -9  -5   11.80    0.59
   0  -9   5   13.04    0.62
   0  -9  -5   11.93    0.86
   0  -9   5   12.02    0.54
   0  -9  -5   11.99    0.50
   0  -9   5   13.07    0.70
   0   9   5   11.40    0.67
   0   9   5   12.17    0.67
   0   9   5   12.95    0.58
  -1  -9  -5   17.44    0.99
  -1  -9  -5   16.44    0.70
   1  -9   5   15.13    0.68
   1  -9   5   16.79    0.66
   1  -9   5   14.92    0.76
   1  -9   5   16.02    0.76
   1   9   5   15.15    0.81
   1   9   5   16.31    0.75
   1   9   5   16.51    0.75
   1   9   5   17.19    0.71
  -2  -9  -5  118.14    2.83
   2  -9   5  117.10    2.83
  -2  -9  -5  121.71    3.24
   2  -9   5  117.16    2.72
   2  -9   5  119.65    2.73
   2  -9   5  118.67    2.73
  -2   9  -5  124.28    2.99
   2   9   5  116.40    2.76
   2   9   5  116.90    2.83
   2   9   5  112.37    2.84
   2   9   5  120.58    2.81
   3  -9   5   47.40    1.45
  -3  -9  -5   48.43    1.82
   3   9   5   48.75    1.49
   3   9   5   47.40    1.34
   3   9   5   47.39    1.54
  -4  -9  -5   -0.42    0.50
   4   9   5    1.34    0.46
   4   9   5    0.85    0.25
   7 -10  -5   59.21    1.97
  -7 -10   5   57.77    1.90
   7  10  -5   58.32    2.06
   7  10  -5   57.78    1.95
  -6 -10   5   24.11    1.37
   6 -10  -5   25.07    1.01
  -6 -10   5   26.60    1.17
   6 -10  -5   26.35    1.17
   6  10  -5   26.31    1.23
  -6  10   5   25.07    1.23
   6  10  -5   24.42    1.16
  -6  10   5   25.28    0.91
   5 -10  -5   16.68    0.91
  -5 -10   5   18.74    1.05
  -5 -10   5   18.49    0.95
   5 -10  -5   18.79    0.88
  -5 -10   5   18.82    1.12
  -5  10   5   19.53    1.04
   5  10  -5   17.86    0.92
   5  10  -5   18.30    0.97
  -5  10   5   17.33    0.76
   4 -10  -5    1.38    0.31
  -4 -10   5    1.10    0.39
  -4 -10   5    0.80    0.35
   4 -10  -5    0.88    0.35
   4  10  -5    0.64    0.30
  -4  10   5    1.23    0.30
   4  10  -5    0.62    0.28
  -4  10   5    1.41    0.34
   3 -10  -5   26.56    1.03
   3 -10  -5   28.40    1.42
   3 -10  -5   28.14    1.12
  -3 -10   5   28.03    1.12
  -3 -10   5   26.88    1.25
  -3 -10   5   25.89    0.95
  -3  10   5   27.51    1.05
  -3  10   5   28.99    1.18
   3  10  -5   27.86    1.08
   3  10  -5   28.10    1.20
   3  10  -5   27.22    0.96
   2 -10  -5    7.25    0.53
   2 -10  -5    6.78    0.68
  -2 -10   5    5.92    0.63
  -2 -10   5    6.80    0.68
  -2 -10   5    6.57    0.61
   2 -10  -5    7.34    0.51
  -2  10   5    7.64    0.66
  -2  10   5    7.17    0.60
   2  10  -5    7.23    0.76
   2  10  -5    6.40    0.53
   2  10  -5    6.18    0.44
  -1 -10   5  153.90    3.71
   1 -10  -5  151.11    3.75
   1 -10  -5  153.82    3.41
  -1 -10   5  155.59    3.38
   1 -10  -5  151.39    3.45
  -1 -10   5  155.43    3.60
   1  10  -5  154.19    3.68
   1  10  -5  154.56    3.34
  -1  10   5  153.28    3.35
  -1  10   5  153.55    3.62
  -1  10   5  156.77    3.67
  -1  10   5  150.96    3.65
   0 -10  -5   83.95    2.10
   0 -10   5   82.29    2.19
   0 -10  -5   85.87    1.95
   0 -10   5   85.95    2.28
   0 -10  -5   82.97    1.98
   0 -10  -5   80.91    2.48
   0 -10   5   82.96    2.01
   0  10   5   85.16    2.27
   0  10   5   80.43    2.22
   0  10   5   86.30    2.04
  -1 -10  -5    0.71    0.28
   1 -10   5    0.43    0.36
   1 -10   5    0.83    0.28
  -1 -10  -5    1.22    0.25
   1 -10   5    0.95    0.23
   1 -10   5    0.85    0.30
  -1 -10  -5    0.98    0.36
   1  10   5    0.74    0.25
   1  10   5    0.76    0.25
  -1  10  -5    1.62    0.28
   2 -10   5    0.46    0.23
  -2 -10  -5    0.31    0.35
   2 -10   5    0.47    0.28
   2 -10   5    0.48    0.31
   2 -10   5    0.78    0.31
   2  10   5    0.55    0.24
   2  10   5    0.17    0.27
   2  10   5    0.45    0.27
   3 -10   5   46.91    1.42
  -3 -10  -5   48.56    1.85
   3  10   5   48.08    1.58
   3  10   5   48.54    1.40
  -4 -10  -5    2.53    0.68
   4  10   5    1.27    0.28
   4  10   5    1.78    0.49
  -7 -11   5    2.40    0.56
   7 -11  -5    1.43    0.65
   7  11  -5    1.00    0.68
   7  11  -5    2.73    0.56
   6 -11  -5    0.01    0.36
  -6 -11   5   -0.24    0.56
   6 -11  -5   -0.21    0.38
   6  11  -5   -0.17    0.36
   6  11  -5    0.43    0.43
  -6  11   5    0.15    0.45
  -5 -11   5   27.90    1.20
  -5 -11   5   28.02    1.42
   5 -11  -5   28.69    1.16
   5 -11  -5   26.88    1.50
   5  11  -5   25.76    1.13
  -5  11   5   30.15    1.31
   5  11  -5   27.35    1.41
   5  11  -5   28.33    1.22
  -5  11   5   27.91    0.99
   4 -11  -5   10.51    0.72
   4 -11  -5   12.55    0.81
  -4 -11   5   14.01    1.02
  -4 -11   5   11.43    0.81
   4  11  -5   12.33    0.78
  -4  11   5   11.66    0.68
   4  11  -5   12.35    0.73
  -4  11   5   13.56    0.89
   4  11  -5   11.47    0.89
  -3 -11   5    0.84    0.39
  -3 -11   5    0.81    0.31
   3 -11  -5    1.12    0.39
  -3 -11   5    0.20    0.46
  -3  11   5    0.74    0.31
  -3  11   5    0.38    0.28
   3  11  -5    1.00    0.35
   3  11  -5    0.91    0.25
   3  11  -5    0.40    0.33
  -2 -11   5    6.96    0.63
  -2 -11   5    8.28    1.14
  -2 -11   5    7.62    0.55
   2 -11  -5    6.72    0.61
   2 -11  -5    7.86    0.74
   2 -11  -5    7.19    0.58
  -2  11   5    7.56    0.64
   2  11  -5    7.99    0.58
  -2  11   5    7.78    0.68
   2  11  -5    6.89    0.49
   2  11  -5    7.71    0.76
   1 -11  -5   16.03    1.05
   1 -11  -5   16.76    0.79
  -1 -11   5   17.70    0.75
  -1 -11   5   18.07    0.96
   1 -11  -5   18.20    0.75
  -1 -11   5   18.37    1.00
  -1  11   5   17.62    1.15
  -1  11   5   19.24    0.74
  -1  11   5   19.50    1.00
   1  11  -5   18.15    0.71
   1  11  -5   18.68    0.94
   0 -11   5    0.99    0.31
   0 -11  -5    1.01    0.22
   0 -11  -5    0.36    0.34
   0 -11  -5    0.74    0.21
   0 -11  -5    0.49    0.32
   0 -11   5    0.37    0.31
   0 -11   5    0.57    0.25
   0  11   5    0.35    0.30
   0  11   5    0.56    0.25
   0  11  -5    0.40    0.25
   0  11   5    0.49    0.23
  -1 -11  -5   29.30    0.82
   1 -11   5   29.03    1.12
  -1 -11  -5   29.45    1.36
   1 -11   5   28.94    1.09
   1 -11   5   28.39    0.99
   1  11   5   28.40    1.15
   1  11   5   28.29    1.18
   1  11   5   28.94    1.06
   2 -11   5   21.80    0.89
   2 -11   5   21.07    0.91
  -2 -11  -5   20.88    1.19
   2  11   5   20.84    0.95
   2  11   5   20.24    0.90
  -3 -11  -5   -0.44    0.48
   3 -11   5   -0.11    0.32
   3 -11   5    0.14    0.34
   3  11   5    0.31    0.40
   3  11   5    0.46    0.28
  -4 -11  -5    0.44    0.60
   4  11   5    0.08    0.45
   4  11   5    0.38    0.30
   6 -12  -5    3.20    0.82
  -6 -12   5    1.32    0.50
  -6 -12   5    2.47    1.11
   6 -12  -5    2.08    0.50
   6  12  -5    1.60    0.56
   6  12  -5    3.69    0.60
   6  12  -5    2.62    0.49
  -6  12   5    2.69    0.62
  -5 -12   5    0.77    0.43
  -5 -12   5    1.06    0.72
   5 -12  -5    0.90    0.41
   5 -12  -5    0.80    0.38
   5  12  -5    1.31    0.57
  -5  12   5    0.26    0.43
   5  12  -5    0.30    0.35
   5  12  -5    1.35    0.40
  -5  12   5    1.14    0.31
   4 -12  -5    2.68    0.49
   4 -12  -5    2.35    0.39
  -4 -12   5    2.07    0.48
   4  12  -5    2.95    0.52
   4  12  -5    1.69    0.38
  -4  12   5    1.59    0.36
   4  12  -5    2.58    0.47
  -4  12   5    2.92    0.53
  -3 -12   5    1.80    0.38
   3 -12  -5    2.13    0.35
   3 -12  -5    1.37    0.51
  -3 -12   5    1.03    0.45
   3  12  -5    1.58    0.45
  -3  12   5    1.60    0.40
  -3  12   5    1.43    0.37
   3  12  -5    2.40    0.42
   3  12  -5    2.09    0.33
   2 -12  -5    1.07    0.31
   2 -12  -5    0.22    0.35
  -2 -12   5    0.09    0.30
  -2 -12   5    0.94    0.38
  -2 -12   5    0.45    0.36
  -2  12   5    0.19    0.36
   2  12  -5    0.80    0.24
  -2  12   5    0.14    0.35
   2  12  -5    0.36    0.38
   1 -12  -5   18.23    0.79
   1 -12  -5   20.25    1.08
  -1 -12   5   19.26    0.93
  -1 -12   5   18.15    1.01
  -1 -12   5   18.40    0.81
   1  12  -5   18.79    0.77
   1  12  -5   18.54    1.01
  -1  12   5   19.18    0.93
  -1  12   5   18.72    0.79
  -1  12   5   18.49    1.02
   0 -12   5   17.04    0.94
   0 -12   5   17.86    0.78
   0 -12  -5   17.35    0.89
   0 -12  -5   16.51    1.04
   0 -12  -5   15.30    0.71
   0  12   5   16.95    0.87
   0  12   5   17.82    1.12
   0  12  -5   17.16    1.07
   0  12   5   17.14    0.79
   1 -12   5    2.41    0.41
  -1 -12  -5    1.68    0.50
   1 -12   5    2.18    0.41
  -1 -12  -5    2.24    0.34
   1  12   5    2.68    0.41
   1  12   5    2.46    0.39
   2 -12   5    8.66    0.67
   2 -12   5    8.94    0.64
  -2 -12  -5    7.38    0.89
   2  12   5    8.23    0.83
   2  12   5    9.33    0.67
  -3 -12  -5    1.73    0.64
   3 -12   5    1.41    0.41
   3  12   5    1.59    0.49
   3  12   5    2.21    0.39
  -4 -12  -5    2.06    0.80
   4  12   5    0.89    0.53
   4  12   5    0.97    0.40
  -6 -13   5    5.00    0.84
   6 -13  -5    3.95    0.61
  -6 -13   5    4.02    0.62
   6  13  -5    4.46    0.74
   6  13  -5    6.25    0.81
   6  13  -5    3.70    0.65
  -5 -13   5    0.08    0.42
  -5 -13   5   -0.34    0.55
   5 -13  -5    0.24    0.88
   5 -13  -5   -0.07    0.36
   5  13  -5    0.07    0.35
   5  13  -5    0.11    0.37
   5  13  -5    0.85    0.53
  -5  13   5   -0.06    0.33
  -5  13   5    1.05    0.47
   4 -13  -5   12.91    0.78
  -4 -13   5   11.12    1.09
   4 -13  -5   12.57    0.91
  -4 -13   5   12.05    0.89
  -4  13   5   12.04    0.77
   4  13  -5   11.88    0.77
   4  13  -5   10.72    1.01
   4  13  -5   13.21    0.88
  -3 -13   5    9.87    0.81
   3 -13  -5   12.47    0.90
  -3 -13   5   12.55    1.01
   3 -13  -5   12.49    0.77
   3  13  -5   11.17    0.72
  -3  13   5   10.89    0.96
   3  13  -5   11.93    0.96
  -3  13   5   11.43    0.87
   3  13  -5   12.87    0.82
  -2 -13   5    0.44    0.33
  -2 -13   5    0.52    0.40
   2 -13  -5    0.26    0.30
   2 -13  -5    0.64    0.44
   2  13  -5    0.01    0.36
  -2  13   5   -0.20    0.30
  -2  13   5    0.00    0.37
   2  13  -5    0.50    0.26
   1 -13  -5   12.26    0.94
  -1 -13   5   13.93    0.97
  -1 -13   5   12.42    0.90
   1 -13  -5   14.24    0.73
  -1  13   5   13.49    0.75
   1  13  -5   13.52    0.70
  -1  13   5   12.62    0.83
   0 -13  -5    9.30    0.92
   0 -13  -5   10.55    0.59
   0 -13   5   11.04    0.80
   0 -13   5    9.39    0.75
   0  13   5   10.46    0.74
   0  13   5   10.75    0.70
  -1 -13  -5    3.27    0.60
   1 -13   5    2.28    0.39
   1 -13   5    1.89    0.43
  -1 -13  -5    1.90    0.27
   1  13   5    1.84    0.36
   1  13   5    2.28    0.44
   2 -13   5   51.76    1.82
   2 -13   5   53.16    1.68
  -2 -13  -5   54.77    2.05
   2  13   5   52.24    1.68
   2  13   5   52.31    1.68
   3 -13   5   23.96    1.15
  -3 -13  -5   24.71    1.52
   3  13   5   23.32    1.48
   3  13   5   24.49    1.10
  -6 -14   5    4.22    0.72
   6 -14  -5    4.60    0.77
   6  14  -5    3.23    0.71
   6  14  -5    5.18    0.64
   6  14  -5    4.01    0.74
   5 -14  -5   10.08    0.86
  -5 -14   5    8.62    0.94
   5 -14  -5    9.87    0.93
  -5 -14   5    8.39    1.22
   5  14  -5   11.59    0.98
  -5  14   5   10.19    0.76
  -5  14   5   12.30    1.07
   5  14  -5    9.30    1.18
   5  14  -5    9.36    0.83
   4 -14  -5   14.87    0.89
  -4 -14   5   15.07    1.02
  -4 -14   5   13.48    1.18
   4 -14  -5   15.92    1.05
   4  14  -5   14.37    0.88
   4  14  -5   15.94    1.21
   4  14  -5   15.54    0.96
  -4  14   5   15.61    1.05
  -3 -14   5    0.25    0.47
   3 -14  -5    0.86    0.42
   3 -14  -5    0.45    0.34
  -3 -14   5    0.60    0.39
  -3  14   5    0.43    0.40
  -3  14   5    0.76    0.39
   3  14  -5    0.57    0.47
   3  14  -5    0.44    0.36
  -2 -14   5   14.75    1.03
   2 -14  -5   12.67    0.97
  -2 -14   5   13.99    0.91
   2 -14  -5   13.45    0.81
   2  14  -5   13.62    0.79
  -2  14   5   14.72    1.08
   2  14  -5   15.03    1.02
   1 -14  -5    3.00    0.41
   1 -14  -5    3.22    0.57
  -1 -14   5    2.93    0.52
  -1 -14   5    3.07    0.48
  -1  14   5    4.03    0.55
   1  14  -5    3.45    0.42
  -1  14   5    2.92    0.47
   0 -14   5   13.10    0.89
   0 -14  -5   13.28    1.04
   0 -14   5   11.75    0.89
   0 -14  -5   14.61    0.72
   0  14   5   14.75    0.88
   1 -14   5    2.22    0.44
  -1 -14  -5    1.55    0.38
   1 -14   5    1.89    0.40
  -1 -14  -5    1.30    0.55
   1  14   5    1.25    0.40
   1  14   5    1.99    0.42
   2 -14   5    6.38    0.73
   2 -14   5    5.22    0.76
  -2 -14  -5    4.10    0.71
   2  14   5    4.29    0.84
   2  14   5    4.05    0.51
  -3 -14  -5    5.85    0.99
   3 -14   5    6.92    0.89
   3  14   5    6.62    0.89
   3  14   5    6.58    0.86
  -5 -15   5    8.07    1.03
  -5 -15   5    5.10    0.86
   5 -15  -5    8.03    1.22
   5 -15  -5    7.39    0.88
   5  15  -5    5.23    0.75
   5  15  -5    7.08    0.80
   5  15  -5    6.08    0.84
  -5  15   5    9.13    1.08
  -4 -15   5   19.22    1.36
  -4 -15   5   18.68    1.17
   4 -15  -5   21.39    1.19
   4 -15  -5   21.50    1.11
   4  15  -5   18.75    1.39
   4  15  -5   20.70    1.03
  -4  15   5   19.42    0.98
   4  15  -5   19.83    1.09
  -4  15   5   19.56    1.23
  -3 -15   5    0.01    0.39
   3 -15  -5    0.39    0.46
   3 -15  -5    0.03    0.36
  -3 -15   5   -0.16    0.48
   3  15  -5    0.64    0.35
   3  15  -5    1.11    0.52
  -3  15   5    0.93    0.43
  -3  15   5    0.51    0.36
  -2 -15   5    8.10    0.83
   2 -15  -5    8.74    0.72
  -2 -15   5    7.60    0.93
   2 -15  -5    7.64    0.90
  -2  15   5    7.89    0.82
   2  15  -5    8.65    0.68
  -1 -15   5    8.48    0.82
   1 -15  -5    8.26    0.69
   1 -15  -5    7.72    0.89
  -1 -15   5    7.78    0.87
  -1  15   5    7.21    0.76
  -1  15   5    8.19    0.67
   0 -15  -5   -0.75    0.64
   0 -15   5    0.10    0.34
   0 -15   5    0.07    0.40
   0 -15  -5    0.11    0.30
   0  15   5    0.11    0.34
   0  15   5   -0.03    0.34
   1 -15   5    3.18    0.51
   1 -15   5    3.75    0.55
   1 -15   5    3.70    0.57
  -1 -15  -5    5.41    0.83
   1  15   5    3.43    0.61
   1  15   5    3.88    0.55
   2 -15   5    4.39    0.58
   2 -15   5    3.53    0.60
  -2 -15  -5    3.58    0.74
   2  15   5    5.41    0.80
   2  15   5    3.47    0.54
   5 -16  -5    2.39    0.72
  -5 -16   5    1.63    0.70
   5 -16  -5    1.06    0.65
  -5 -16   5    1.38    1.25
   5  16  -5    1.11    0.71
  -5  16   5    2.00    0.68
   5  16  -5    2.00    0.71
   5  16  -5    1.32    0.53
  -4 -16   5   -0.25    0.62
  -4 -16   5   -0.24    0.51
   4 -16  -5   -0.27    0.45
   4 -16  -5   -0.20    0.53
   4  16  -5    0.74    0.42
  -4  16   5   -0.53    0.47
   4  16  -5    0.07    0.66
  -4  16   5   -0.12    0.41
   4  16  -5    0.94    0.46
   3 -16  -5    3.53    0.66
  -3 -16   5    3.59    0.64
  -3 -16   5    2.47    0.66
   3 -16  -5    2.90    0.48
  -3  16   5    3.28    0.50
  -3  16   5    3.97    0.56
   3  16  -5    3.32    0.48
  -2 -16   5    0.77    0.48
   2 -16  -5    1.41    0.40
   2 -16  -5    1.88    0.56
  -2 -16   5    0.65    0.52
   2  16  -5    0.92    0.38
  -2  16   5    0.61    0.40
   1 -16  -5    5.82    0.68
   1 -16  -5    6.31    0.96
  -1 -16   5    5.87    0.89
  -1 -16   5    7.90    0.90
  -1  16   5    7.27    0.67
   1  16  -5    6.62    0.68
  -1  16   5    6.26    0.80
   0 -16  -5    1.00    0.61
   0 -16   5    0.26    0.43
   0 -16  -5    0.27    0.63
   0 -16   5    0.95    0.44
   0  16   5    0.31    0.37
   0  16   5    0.35    0.40
   1 -16   5   15.65    1.05
   1 -16   5   12.65    1.04
   1 -16   5   13.90    1.01
  -1 -16  -5   15.61    1.32
   1  16   5   13.71    0.99
   1  16   5   15.06    0.98
  -2 -16  -5    0.97    0.90
   2 -16   5    1.84    0.54
   2 -16   5    0.87    0.53
   2  16   5    1.05    0.61
   2  16   5    1.30    0.54
  -4 -17   5   -0.05    0.67
   4 -17  -5    0.07    0.61
  -4 -17   5    1.95    0.66
   4 -17  -5   -0.08    0.56
  -4  17   5    1.42    0.62
  -4  17   5   -1.00    0.44
   4  17  -5    0.04    0.44
   3 -17  -5    0.21    0.61
   3 -17  -5    0.40    0.45
  -3 -17   5   -0.55    0.49
  -3 -17   5    0.45    0.60
  -3  17   5   -0.12    0.49
  -3  17   5    0.33    0.43
   3  17  -5   -0.04    0.41
   2 -17  -5    0.94    0.44
   2 -17  -5   -0.07    0.53
  -2 -17   5    0.64    0.50
  -2 -17   5    0.82    0.56
   2  17  -5    0.86    0.40
  -2  17   5    0.55    0.49
  -1 -17   5    6.21    0.90
   1 -17  -5    7.07    1.04
   1 -17  -5    5.01    0.75
  -1 -17   5    4.03    0.67
  -1  17   5    6.45    0.72
   1  17  -5    5.82    0.69
  -1  17   5    6.17    0.93
   0 -17   5    1.19    0.51
   0 -17   5    0.32    0.53
   0 -17   5    0.64    0.53
   0 -17  -5    1.30    0.72
   0 -17  -5    0.41    0.40
   0  17   5    0.58    0.47
   0  17   5   -0.49    0.44
   1 -17   5   -0.18    0.55
   1 -17   5    0.59    0.50
   1 -17   5    0.57    0.53
  -1 -17  -5    0.65    0.81
   1  17   5    0.23    0.54
   1  17   5    0.60    0.48
   3 -18  -5   -0.47    0.70
   3 -18  -5    0.86    0.53
   3  18  -5    0.04    0.44
  -2 -18   5   -0.02    0.61
   2 -18  -5    0.45    0.62
  -2 -18   5    1.23    0.61
   2 -18  -5   -0.36    0.44
   2  18  -5    1.11    0.48
  -2  18   5   -0.12    0.52
   1 -18  -5   -0.20    0.68
  -1 -18   5    0.09    0.55
  -1 -18   5   -0.88    0.62
   1 -18  -5   -0.14    0.44
  -1 -18   5    0.22    0.53
   1  18  -5    0.03    0.42
  -1  18   5   -0.09    0.52
   0 -18  -5    1.07    0.47
   0 -18  -5    3.21    1.52
   0 -18   5   -0.15    0.65
   0 -18   5   -0.32    0.59
   0 -18   5    0.71    0.54
   0  18   5   -0.63    0.57
   0  18   5    0.70    0.50
   8   0  -6    1.82    0.52
   8   0  -6    2.36    0.55
  -7   0   6   10.46    0.97
   7   0  -6   11.60    0.78
  -7   0   6   11.54    0.79
   7   0  -6   10.47    0.81
   6   0  -6    9.53    0.64
  -6   0   6   10.52    0.97
   6   0  -6   10.69    0.70
  -6   0   6   11.22    0.85
   5   0  -6    0.65    0.22
  -5   0   6    0.05    0.27
  -5   0   6    0.58    0.22
   5   0  -6    0.05    0.25
  -5   0   6    0.41    0.28
   4   0  -6   57.78    1.41
  -4   0   6   55.18    1.54
  -4   0   6   55.41    1.71
  -4   0   6   57.52    1.67
   4   0  -6   58.01    1.58
   3   0  -6   19.25    0.74
   3   0  -6   18.61    0.52
   3   0  -6   18.81    0.50
  -3   0   6   17.96    0.82
   3   0  -6   18.99    0.82
  -3   0   6   19.26    0.86
  -3   0   6   19.29    0.85
  -2   0   6   26.38    0.94
  -2   0   6   25.83    1.09
   2   0  -6   27.60    1.10
  -2   0   6   29.39    1.04
   2   0  -6   27.15    0.88
  -2   0   6   30.38    1.10
   1   0  -6   54.77    1.68
   1   0  -6   55.03    1.38
  -1   0   6   54.57    1.61
  -1   0   6   53.53    1.41
  -1   0   6   55.63    1.50
   0   0   6   64.41    1.78
   0   0   6   59.19    1.49
   0   0  -6   60.12    1.86
   0   0   6   62.00    1.55
   1   0   6   92.15    2.06
   1   0   6   93.77    2.42
   1   0   6   93.01    2.08
   2   0   6   11.52    0.46
   2   0   6   11.66    0.76
   2   0   6   12.75    0.51
  -2   0  -6   13.22    0.88
   3   0   6   54.35    1.46
   3   0   6   54.02    1.72
  -3   0  -6   56.34    1.90
   4   0   6    6.38    0.78
   8  -1  -6   44.23    1.63
  -8  -1   6   45.18    1.50
   8  -1  -6   42.37    1.69
   8   1  -6   42.82    1.65
   8   1  -6   43.10    1.72
   7  -1  -6   24.76    1.07
  -7  -1   6   24.12    1.26
  -7  -1   6   24.54    1.18
   7  -1  -6   24.86    1.13
   7   1  -6   24.50    1.09
  -7   1   6   23.88    1.01
   7   1  -6   24.20    1.09
  -7   1   6   24.86    1.27
  -6  -1   6    3.95    0.57
   6  -1  -6    4.49    0.52
  -6  -1   6    4.87    0.60
   6  -1  -6    3.96    0.55
  -6   1   6    5.50    0.68
   6   1  -6    4.71    0.51
   6   1  -6    3.88    0.48
  -6   1   6    3.91    0.56
   5  -1  -6   23.02    0.96
  -5  -1   6   23.89    1.07
   5  -1  -6   22.97    0.84
  -5  -1   6   21.69    0.97
  -5  -1   6   23.13    0.80
  -5   1   6   24.43    1.08
  -5   1   6   22.83    0.78
  -5   1   6   23.85    0.97
   5   1  -6   23.10    0.98
   5   1  -6   22.69    0.83
  -4  -1   6   43.36    1.44
   4  -1  -6   41.76    1.28
   4  -1  -6   44.39    1.28
   4  -1  -6   43.20    1.13
  -4  -1   6   41.90    1.26
  -4  -1   6   41.78    1.38
  -4   1   6   43.44    1.43
  -4   1   6   41.78    1.37
  -4   1   6   41.45    1.25
   4   1  -6   44.58    1.32
   4   1  -6   42.20    1.13
  -3  -1   6   17.84    0.83
  -3  -1   6   17.15    0.82
   3  -1  -6   17.58    0.49
  -3  -1   6   16.38    0.81
   3  -1  -6   17.20    0.51
   3  -1  -6   17.63    0.80
   3  -1  -6   18.19    0.72
  -3   1   6   19.08    0.83
   3   1  -6   17.09    0.50
   3   1  -6   18.48    0.74
  -3   1   6   17.71    0.82
  -3   1   6   16.92    0.78
  -2  -1   6  413.80    8.47
   2  -1  -6  401.80    8.18
  -2  -1   6  408.54    8.54
  -2  -1   6  412.35    8.40
   2  -1  -6  416.32    8.51
  -2  -1   6  395.34    8.27
  -2   1   6  395.92    8.29
   2   1  -6  422.50    8.49
  -2   1   6  395.07    8.48
  -2   1   6  415.77    8.46
   2   1  -6  418.99    8.21
  -2   1   6  402.39    8.37
  -1  -1   6   91.54    2.22
   1  -1  -6   92.56    2.44
   1  -1  -6   91.64    2.00
  -1  -1   6   89.29    2.12
  -1  -1   6   90.98    2.34
  -1   1   6   88.73    2.33
   1   1  -6   93.48    2.41
  -1   1   6   87.80    2.13
   1   1  -6   93.08    2.17
  -1   1   6   92.04    2.21
   0  -1   6    0.63    0.19
   0  -1  -6    1.36    0.37
   0  -1   6    0.53    0.26
   0  -1   6    0.72    0.16
   0   1   6    0.56    0.17
   0   1   6    0.54    0.18
   0   1   6    0.46    0.25
   0   1  -6    0.07    0.28
   1  -1   6   48.15    1.50
   1  -1   6   47.30    1.18
   1  -1   6   47.48    1.20
   1   1   6   47.30    1.20
   1   1   6   46.13    1.50
   1   1   6   46.26    1.19
   2  -1   6   23.78    1.01
   2  -1   6   24.40    0.69
   2  -1   6   24.61    0.73
  -2  -1  -6   24.41    1.17
  -2   1  -6   23.50    1.14
   2   1   6   24.53    0.72
   2   1   6   24.71    0.91
   3  -1   6    0.23    0.26
  -3  -1  -6   -0.23    0.35
   3  -1   6   -0.08    0.33
   3   1   6    0.09    0.34
   3   1   6    0.05    0.25
   4  -1   6   76.32    2.20
  -4  -1  -6   79.44    2.44
   4   1   6   76.49    2.24
  -8  -2   6    0.42    0.44
   8  -2  -6    0.80    0.52
   8  -2  -6    0.37    0.47
   8   2  -6    0.30    0.56
   8   2  -6    0.48    0.50
   7  -2  -6    8.97    0.77
  -7  -2   6   10.36    0.77
   7  -2  -6    9.94    0.77
  -7  -2   6   10.75    0.98
   7   2  -6   10.40    0.78
  -7   2   6   10.62    0.72
   7   2  -6   10.22    0.77
  -7   2   6   10.17    0.95
   6  -2  -6   17.54    0.82
   6  -2  -6   17.29    0.85
  -6  -2   6   16.34    1.00
   6   2  -6   17.50    0.84
  -6   2   6   18.08    0.99
   6   2  -6   17.49    0.87
  -6   2   6   17.82    0.86
  -5  -2   6    4.62    0.62
  -5  -2   6    2.70    0.42
   5  -2  -6    3.00    0.39
   5  -2  -6    2.78    0.37
  -5  -2   6    3.37    0.35
   5   2  -6    2.66    0.39
  -5   2   6    2.56    0.37
   5   2  -6    3.13    0.40
  -5   2   6    3.85    0.51
   4  -2  -6    3.31    0.42
   4  -2  -6    3.37    0.33
  -4  -2   6    2.54    0.33
  -4  -2   6    3.43    0.46
   4  -2  -6    3.58    0.42
  -4  -2   6    2.82    0.40
  -4   2   6    3.39    0.43
  -4   2   6    2.61    0.38
   4   2  -6    3.57    0.46
  -4   2   6    3.18    0.38
   4   2  -6    2.61    0.33
  -3  -2   6   66.71    1.89
   3  -2  -6   67.44    1.48
  -3  -2   6   67.86    1.86
   3  -2  -6   68.16    1.72
   3  -2  -6   70.61    1.87
   3  -2  -6   66.27    1.50
  -3  -2   6   68.55    1.90
   3   2  -6   65.47    1.47
  -3   2   6   67.90    1.86
   3   2  -6   68.17    1.87
  -3   2   6   66.56    1.83
  -3   2   6   68.07    1.87
  -2  -2   6    0.16    0.34
   2  -2  -6    1.24    0.32
  -2  -2   6    1.34    0.32
  -2  -2   6    0.57    0.22
  -2  -2   6    0.91    0.29
   2  -2  -6    0.33    0.21
  -2   2   6    1.04    0.31
  -2   2   6    0.40    0.25
  -2   2   6   -0.38    0.40
  -2   2   6    1.20    0.34
   2   2  -6    0.84    0.24
   1  -2  -6   52.36    1.23
  -1  -2   6   50.90    1.45
  -1  -2   6   49.19    1.32
   1  -2  -6   51.91    1.64
  -1  -2   6   50.20    1.53
   1   2  -6   52.01    1.29
  -1   2   6   50.43    1.53
  -1   2   6   47.98    1.35
  -1   2   6   51.51    1.42
   0  -2   6   26.73    1.04
   0  -2   6   27.85    0.90
   0  -2   6   26.40    0.81
   0  -2  -6   26.31    1.17
   0   2   6   27.10    0.87
   0   2   6   26.77    0.83
   0   2   6   27.01    1.07
   1  -2   6    4.82    0.32
   1  -2   6    5.29    0.37
   1  -2   6    4.52    0.53
  -1  -2  -6    3.72    0.68
   1   2   6    4.66    0.35
   1   2   6    4.98    0.57
  -1   2  -6    4.63    0.32
   1   2   6    3.85    0.33
   2  -2   6    8.54    0.44
   2  -2   6    7.78    0.64
   2  -2   6    7.31    0.38
  -2  -2  -6    8.56    0.79
   2  -2   6    8.20    0.37
   2   2   6    8.94    0.54
   2   2   6    9.14    0.72
   2   2   6    9.15    0.43
   3  -2   6    2.69    0.36
  -3  -2  -6    2.73    0.53
   3   2   6    2.95    0.47
   3   2   6    2.12    0.34
   4  -2   6    9.91    0.81
  -4  -2  -6    9.08    0.92
   4   2   6    9.85    0.87
  -8  -3   6   12.19    0.90
   8  -3  -6   12.34    0.95
   8  -3  -6   11.19    1.10
   8   3  -6   11.02    1.15
   8   3  -6   10.77    1.00
   7  -3  -6    5.86    0.68
   7  -3  -6    5.44    0.67
  -7  -3   6    6.08    0.75
  -7  -3   6    7.10    0.71
  -7   3   6    5.84    0.71
   7   3  -6    5.30    0.67
   7   3  -6    5.30    0.71
  -7   3   6    5.08    0.63
   6  -3  -6    0.29    0.27
  -6  -3   6   -0.49    0.35
   6  -3  -6   -0.08    0.27
  -6  -3   6   -0.08    0.30
   6   3  -6    0.15    0.27
  -6   3   6    0.00    0.27
  -6   3   6   -0.54    0.27
   6   3  -6    0.02    0.27
   5  -3  -6    8.73    0.53
   5  -3  -6    8.52    0.60
  -5  -3   6    8.25    0.54
  -5  -3   6    8.76    0.68
  -5  -3   6    9.50    0.78
   5  -3  -6    9.41    0.53
  -5   3   6    8.81    0.62
   5   3  -6    8.91    0.53
  -5   3   6    9.30    0.69
   5   3  -6   10.27    0.66
  -4  -3   6    7.68    0.67
   4  -3  -6    7.98    0.39
  -4  -3   6    7.55    0.53
   4  -3  -6    8.63    0.57
   4  -3  -6    8.47    0.45
  -4  -3   6    8.56    0.65
   4  -3  -6    7.45    0.54
  -4   3   6    7.82    0.65
  -4   3   6    8.56    0.61
   4   3  -6    8.20    0.58
   4   3  -6    8.14    0.45
  -4   3   6    7.63    0.51
   3  -3  -6    1.06    0.20
   3  -3  -6    1.10    0.20
  -3  -3   6    1.38    0.29
   3  -3  -6    0.93    0.28
  -3  -3   6    1.44    0.30
   3  -3  -6    0.90    0.23
  -3  -3   6    0.99    0.30
   3   3  -6    1.45    0.30
  -3   3   6    0.46    0.24
  -3   3   6    1.44    0.27
   3   3  -6    0.82    0.17
  -2  -3   6  351.57    7.58
   2  -3  -6  360.90    7.38
   2  -3  -6  375.98    7.73
  -2  -3   6  367.46    7.64
  -2  -3   6  369.59    7.68
  -2   3   6  365.03    8.03
  -2   3   6  369.60    7.60
   2   3  -6  366.79    7.43
  -2   3   6  369.52    7.66
  -1  -3   6   36.39    1.24
  -1  -3   6   34.58    1.03
   1  -3  -6   36.58    0.95
   1  -3  -6   36.93    1.34
  -1  -3   6   36.67    1.17
   1   3  -6   36.52    0.96
  -1   3   6   35.64    1.25
  -1   3   6   34.93    1.08
  -1   3   6   35.82    1.13
   0  -3   6    2.57    0.29
   0  -3   6    3.67    0.48
   0  -3   6    3.38    0.37
   0  -3  -6    2.67    0.45
   0   3   6    2.63    0.31
   0   3   6    2.90    0.35
   0   3   6    2.93    0.42
  -1  -3  -6   -0.21    0.34
   1  -3   6   -0.10    0.15
   1  -3   6    0.39    0.28
   1  -3   6    0.04    0.16
  -1   3  -6   -0.06    0.15
   1   3   6    0.36    0.18
   1   3   6    0.23    0.16
   1   3   6    0.29    0.12
   1   3   6   -0.01    0.28
   2  -3   6   15.62    0.59
   2  -3   6   17.04    0.84
   2  -3   6   16.03    0.55
   2  -3   6   16.27    0.55
  -2  -3  -6   15.97    0.99
   2   3   6   15.93    0.89
   2   3   6   15.46    0.58
   2   3   6   16.03    0.61
   2   3   6   15.61    0.48
  -3  -3  -6   12.35    0.95
   3  -3   6   11.22    0.91
   3  -3   6   12.53    0.70
   3   3   6   12.18    0.85
   3   3   6   13.16    0.66
   4  -3   6   45.27    1.95
  -4  -3  -6   51.91    1.89
   4   3   6   50.28    1.73
  -8  -4   6    0.36    0.45
   8  -4  -6    0.58    0.57
   8  -4  -6    0.11    0.46
   8   4  -6    0.93    0.50
   8   4  -6    0.39    0.61
   7  -4  -6    2.52    0.45
   7  -4  -6    3.44    0.51
  -7  -4   6    3.13    0.62
  -7  -4   6    3.18    0.47
   7   4  -6    2.65    0.49
   7   4  -6    3.80    0.53
  -7   4   6    3.08    0.43
  -7   4   6    3.08    0.57
   6  -4  -6    8.20    0.64
  -6  -4   6    7.14    0.84
   6  -4  -6    7.82    0.63
  -6  -4   6    7.69    0.70
   6   4  -6    6.76    0.64
  -6   4   6    6.48    0.74
   6   4  -6    7.01    0.61
  -6   4   6    5.97    0.58
  -5  -4   6    0.07    0.36
  -5  -4   6   -0.20    0.24
   5  -4  -6    0.33    0.25
   5  -4  -6    0.37    0.26
  -5  -4   6    0.40    0.36
   5  -4  -6    0.35    0.25
   5   4  -6    0.25    0.27
  -5   4   6    0.46    0.27
  -5   4   6    0.12    0.25
   5   4  -6   -0.04    0.20
  -4  -4   6   25.27    1.04
   4  -4  -6   24.68    0.94
  -4  -4   6   24.42    0.93
   4  -4  -6   24.42    0.76
   4  -4  -6   24.81    0.94
  -4  -4   6   24.77    1.11
  -4   4   6   25.52    1.07
   4   4  -6   25.02    0.82
  -4   4   6   25.61    1.01
   4   4  -6   25.45    1.00
   3  -4  -6    6.22    0.47
   3  -4  -6    5.12    0.53
  -3  -4   6    5.87    0.58
   3  -4  -6    6.10    0.34
  -3  -4   6    5.94    0.58
  -3  -4   6    5.53    0.55
  -3   4   6    6.79    0.54
  -3   4   6    6.06    0.53
  -3   4   6    4.54    0.50
   3   4  -6    6.01    0.48
   2  -4  -6    1.75    0.20
   2  -4  -6    1.39    0.25
  -2  -4   6    1.40    0.32
  -2  -4   6    1.41    0.32
   2  -4  -6    2.13    0.40
  -2   4   6    1.53    0.35
  -2   4   6    0.75    0.25
   2   4  -6    1.14    0.25
  -1  -4   6   11.63    0.65
   1  -4  -6   11.56    0.46
  -1  -4   6   10.40    0.52
   1  -4  -6   10.77    0.76
  -1  -4   6   11.08    0.70
   1   4  -6   10.79    0.49
  -1   4   6   10.96    0.70
  -1   4   6   11.24    0.58
  -1   4   6   11.02    0.60
   0  -4  -6   18.29    0.98
   0  -4   6   17.50    0.85
   0  -4   6   17.88    0.74
   0  -4   6   17.15    0.63
   0   4   6   17.36    0.68
   0   4   6   17.89    0.70
   0   4   6   16.20    0.87
   1  -4   6   85.61    2.02
   1  -4   6   88.17    1.98
  -1  -4  -6   87.55    2.50
   1  -4   6   87.87    2.28
   1   4   6   89.15    2.07
   1   4   6   78.02    2.58
   1   4   6   83.78    2.11
   1   4   6   89.03    2.03
  -1   4  -6   88.09    1.97
   2  -4   6    2.61    0.33
   2  -4   6    2.74    0.35
  -2  -4  -6    2.24    0.49
   2  -4   6    2.91    0.43
   2   4   6    2.77    0.35
   2   4   6    2.35    0.30
   2   4   6    2.70    0.33
   2   4   6    2.06    0.46
   2   4   6    2.50    0.36
  -3  -4  -6   19.99    1.18
   3  -4   6   19.62    0.98
   3  -4   6   20.58    0.82
   3   4   6   19.78    0.82
   3   4   6   19.32    1.04
  -4  -4  -6   11.07    1.03
   4  -4   6   12.04    0.90
   4   4   6   11.36    0.94
  -8  -5   6   25.31    1.21
   8  -5  -6   25.51    1.28
   8  -5  -6   24.69    1.72
   8   5  -6   24.69    1.91
   8   5  -6   23.71    1.26
   7  -5  -6   16.61    0.95
  -7  -5   6   18.38    0.94
  -7  -5   6   17.44    1.25
   7  -5  -6   17.53    1.01
  -7   5   6   16.93    1.12
   7   5  -6   16.95    1.02
   7   5  -6   18.62    0.98
  -7   5   6   18.43    0.86
   6  -5  -6    0.69    0.33
  -6  -5   6    1.28    0.40
   6  -5  -6    0.76    0.27
  -6  -5   6    1.68    0.40
   6  -5  -6    0.13    0.31
  -6   5   6    1.01    0.37
  -6   5   6    1.33    0.34
   6   5  -6    0.87    0.31
   6   5  -6    1.73    0.41
  -5  -5   6   10.49    0.85
   5  -5  -6    8.58    0.53
   5  -5  -6    8.80    0.63
  -5  -5   6    9.73    0.70
   5  -5  -6    8.86    0.57
  -5  -5   6    9.24    0.58
   5   5  -6    8.64    0.55
   5   5  -6    8.62    0.66
  -5   5   6   10.33    0.65
  -5   5   6    9.00    0.71
   4  -5  -6   22.75    0.94
   4  -5  -6   24.37    0.93
   4  -5  -6   23.42    0.75
  -4  -5   6   21.63    0.92
  -4  -5   6   23.93    1.12
  -4   5   6   24.51    1.04
   4   5  -6   23.61    0.79
   4   5  -6   23.95    0.98
  -4   5   6   22.32    0.94
  -3  -5   6   12.16    0.87
   3  -5  -6   12.53    0.50
   3  -5  -6   13.56    0.76
  -3  -5   6   13.00    0.89
   3  -5  -6   13.30    0.64
  -3  -5   6   13.80    0.82
   3   5  -6   11.98    0.65
  -3   5   6   12.39    0.71
  -3   5   6   12.49    0.73
   3   5  -6   12.00    0.50
   2  -5  -6   68.12    1.66
   2  -5  -6   61.62    1.50
  -2  -5   6   67.42    1.91
  -2  -5   6   66.62    1.90
   2  -5  -6   69.31    1.97
  -2   5   6   68.18    1.89
  -2   5   6   64.87    1.82
   2   5  -6   67.42    1.70
   1  -5  -6   90.32    2.02
  -1  -5   6   90.04    2.37
   1  -5  -6   91.66    2.50
   1  -5  -6   90.25    1.92
  -1  -5   6   93.06    2.37
  -1  -5   6   88.60    2.15
  -1   5   6   92.20    2.26
  -1   5   6   93.39    2.47
  -1   5   6   87.43    2.24
   1   5  -6   94.77    2.11
   0  -5   6   12.04    0.72
   0  -5   6   10.24    0.50
   0  -5  -6   10.70    0.87
   0  -5   6   11.33    0.62
   0  -5  -6   10.81    0.38
   0   5   6   11.80    0.81
   0   5  -6   11.13    0.57
   0   5   6   11.69    0.60
   0   5   6   10.64    0.55
   1  -5   6    5.74    0.38
   1  -5   6    6.28    0.77
   1  -5   6    6.36    0.31
   1  -5   6    6.26    0.33
  -1  -5  -6    5.84    0.71
  -1   5  -6    6.42    0.40
   1   5   6    5.90    0.64
   1   5   6    5.97    0.54
   1   5   6    5.04    0.42
   1   5   6    6.37    0.42
   1   5   6    5.88    0.36
   2  -5   6   66.33    1.92
  -2  -5  -6   65.69    2.17
   2   5   6   66.29    1.57
   2   5   6   67.32    1.66
   2   5   6   73.59    2.09
   2   5   6   70.94    1.90
   2   5   6   66.02    1.63
   3  -5   6    6.25    0.54
  -3  -5  -6    6.05    0.88
   3  -5   6    6.18    0.68
   3   5   6    6.58    0.56
   3   5   6    5.52    0.76
  -4  -5  -6   15.72    1.18
   4   5   6   14.92    1.08
  -7  -6   6   10.39    0.80
  -7  -6   6    8.93    1.12
   7  -6  -6   10.34    0.84
   7  -6  -6   11.65    0.85
  -7   6   6   11.80    1.04
   7   6  -6   10.72    0.84
   7   6  -6   11.01    0.95
  -6  -6   6   59.64    1.84
  -6  -6   6   58.42    2.05
   6  -6  -6   58.83    1.79
   6  -6  -6   58.28    1.54
   6   6  -6   60.07    1.84
   6   6  -6   56.48    1.74
  -6   6   6   58.47    1.92
  -6   6   6   58.92    1.69
   5  -6  -6   30.45    1.13
  -5  -6   6   27.70    1.02
  -5  -6   6   29.45    1.18
  -5  -6   6   28.97    1.32
   5  -6  -6   28.62    1.04
   5   6  -6   30.66    1.18
  -5   6   6   28.09    1.08
   5   6  -6   27.87    1.02
  -5   6   6   30.93    1.26
  -4  -6   6    8.01    0.68
  -4  -6   6    9.47    0.80
   4  -6  -6    9.12    0.47
   4  -6  -6    8.25    0.59
  -4  -6   6    8.26    0.67
   4  -6  -6    8.77    0.63
   4   6  -6    9.16    0.67
   4   6  -6    9.08    0.50
  -4   6   6    8.92    0.69
  -4   6   6    8.84    0.63
   3  -6  -6  160.76    3.69
  -3  -6   6  157.85    3.80
   3  -6  -6  150.68    3.32
   3  -6  -6  159.56    3.49
   3   6  -6  153.17    3.29
   3   6  -6  155.55    3.54
  -3   6   6  150.77    3.64
  -3   6   6  156.29    3.62
   2  -6  -6    0.50    0.33
   2  -6  -6    0.03    0.17
  -2  -6   6    0.36    0.32
   2  -6  -6    0.60    0.20
  -2  -6   6    0.56    0.14
  -2  -6   6    0.05    0.27
   2   6  -6    0.28    0.21
   2   6  -6    0.72    0.14
  -2   6   6    0.35    0.27
  -2   6   6    0.18    0.22
  -1  -6   6   34.83    1.10
   1  -6  -6   36.26    1.39
   1  -6  -6   37.43    0.99
  -1  -6   6   36.74    1.29
  -1  -6   6   36.33    1.25
  -1   6   6   37.07    1.31
  -1   6   6   34.76    1.17
   0  -6  -6   63.93    2.23
   0  -6   6   63.61    1.36
   0  -6   6   62.52    1.82
   0  -6   6   54.83    2.03
   0  -6   6   61.58    1.58
   0  -6  -6   65.87    1.46
   0   6   6   61.81    1.82
   0   6   6   66.37    1.43
   0   6   6   62.45    1.64
   0   6  -6   61.74    1.68
   0   6   6   61.90    1.92
  -1  -6  -6    1.85    0.22
   1  -6   6    1.23    0.22
   1  -6   6    1.62    0.36
  -1  -6  -6    1.38    0.41
   1  -6   6    1.36    0.27
   1   6   6    1.50    0.39
   1   6   6    1.79    0.24
   1   6   6    1.69    0.26
  -1   6  -6    1.87    0.24
   1   6   6    1.24    0.35
   1   6   6    1.57    0.25
  -2  -6  -6   34.03    1.46
   2  -6   6   33.33    0.99
   2  -6   6   33.10    0.90
   2  -6   6   32.68    1.22
   2   6   6   32.65    0.94
   2   6   6   32.02    1.02
   2   6   6   33.90    1.36
   2   6   6   32.47    1.02
   3  -6   6   14.83    0.73
   3  -6   6   14.38    0.87
  -3  -6  -6   15.49    1.10
   3   6   6   14.19    1.00
  -4  -6  -6   13.14    1.16
   4   6   6   10.84    1.01
  -7  -7   6   -0.02    0.77
   7  -7  -6    1.09    0.41
   7  -7  -6    1.34    0.46
  -7  -7   6    0.30    0.39
  -7   7   6    0.78    0.67
   7   7  -6    0.29    0.46
   7   7  -6    1.29    0.43
  -6  -7   6    4.45    0.66
   6  -7  -6    3.16    0.45
  -6  -7   6    2.69    0.55
   6  -7  -6    3.52    0.54
  -6   7   6    3.54    0.45
  -6   7   6    3.88    0.54
   6   7  -6    2.98    0.62
   6   7  -6    4.29    0.62
  -5  -7   6   46.74    1.44
   5  -7  -6   47.80    1.46
   5  -7  -6   49.73    1.54
  -5  -7   6   48.24    1.78
  -5  -7   6   46.20    1.58
   5   7  -6   48.50    1.59
   5   7  -6   45.55    1.42
  -5   7   6   50.51    1.50
  -5   7   6   48.37    1.66
  -4  -7   6    7.64    0.48
   4  -7  -6    7.67    0.66
   4  -7  -6    7.78    0.81
  -4  -7   6    6.15    0.76
  -4  -7   6    6.24    0.64
   4  -7  -6    6.99    0.46
  -4   7   6    6.88    0.60
  -4   7   6    7.74    0.67
   4   7  -6    7.17    0.67
   4   7  -6    7.17    0.48
  -3  -7   6    5.69    0.68
   3  -7  -6    6.13    0.52
  -3  -7   6    5.45    0.61
   3  -7  -6    6.32    0.63
   3  -7  -6    6.56    0.41
  -3  -7   6    5.18    0.40
  -3   7   6    5.94    0.61
  -3   7   6    6.37    0.60
   3   7  -6    5.40    0.53
   3   7  -6    6.19    0.39
   2  -7  -6    9.77    0.48
  -2  -7   6   10.17    0.43
   2  -7  -6   10.96    0.56
   2  -7  -6    9.95    0.77
  -2  -7   6    9.90    0.75
  -2   7   6   10.16    0.66
   2   7  -6   10.89    0.58
   2   7  -6   10.47    0.44
  -2   7   6    9.39    0.68
  -1  -7   6    0.09    0.27
  -1  -7   6   -0.24    0.13
   1  -7  -6   -0.15    0.32
   1  -7  -6    0.03    0.16
   1  -7  -6   -0.13    0.17
  -1  -7   6    0.22    0.32
  -1   7   6   -0.28    0.34
   1   7  -6    0.06    0.41
   0  -7   6    0.98    0.30
   0  -7   6    0.54    0.26
   0  -7   6    0.65    0.26
   0  -7   6    0.21    0.16
   0  -7  -6    0.13    0.18
   0  -7  -6    0.11    0.14
   0  -7  -6    0.63    0.39
   0   7   6    0.69    0.22
   0   7   6    0.41    0.17
   0   7   6    0.63    0.35
   1  -7   6   18.65    0.91
   1  -7   6   19.14    0.63
   1  -7   6   19.06    0.72
  -1  -7  -6   18.01    0.66
  -1  -7  -6   19.01    1.21
   1  -7   6   18.97    0.78
   1   7   6   18.55    0.82
   1   7   6   18.20    0.77
   1   7   6   18.20    0.67
   1   7   6   19.22    1.01
  -1   7  -6   17.73    0.74
   1   7   6   17.48    0.76
  -2  -7  -6    2.87    0.55
   2  -7   6    2.89    0.42
   2  -7   6    2.93    0.34
   2  -7   6    2.51    0.45
   2   7   6    2.90    0.36
   2   7   6    3.02    0.44
   2   7   6    2.15    0.48
   2   7   6    2.42    0.33
   3  -7   6   10.30    0.98
   3  -7   6   10.15    0.95
  -3  -7  -6    9.90    0.99
   3   7   6    9.17    0.70
   3   7   6    9.88    0.51
   3   7   6    9.21    0.92
   3   7   6    9.61    0.44
  -4  -7  -6    2.27    0.66
   7  -8  -6    1.00    0.45
  -7  -8   6    1.37    0.66
  -7  -8   6    0.36    0.43
   7   8  -6    1.33    0.52
   7   8  -6    0.77    0.43
   6  -8  -6    0.92    0.37
  -6  -8   6    1.29    0.40
   6  -8  -6    1.33    0.38
  -6   8   6    1.28    0.44
  -6   8   6    1.09    0.35
   6   8  -6    0.33    0.32
   6   8  -6    0.56    0.37
   5  -8  -6    1.47    0.34
   5  -8  -6    1.58    0.37
  -5  -8   6    1.94    0.53
  -5  -8   6    1.31    0.38
   5   8  -6    0.53    0.37
  -5   8   6    1.09    0.36
  -5   8   6    0.84    0.37
   5   8  -6    1.35    0.30
   4  -8  -6    9.53    0.65
   4  -8  -6    9.76    0.73
  -4  -8   6    8.19    0.58
   4  -8  -6    7.81    0.53
  -4  -8   6    9.38    0.71
  -4   8   6    8.59    0.76
   4   8  -6    9.60    0.56
   4   8  -6    9.00    0.71
  -4   8   6   10.09    0.68
  -3  -8   6    0.28    0.20
  -3  -8   6    0.79    0.32
   3  -8  -6    0.74    0.35
   3  -8  -6    0.64    0.29
   3  -8  -6    0.72    0.22
  -3   8   6    0.15    0.30
   3   8  -6    0.69    0.29
   3   8  -6    0.34    0.19
  -3   8   6    0.77    0.30
  -2  -8   6   29.23    0.85
  -2  -8   6   28.88    1.17
   2  -8  -6   29.44    0.96
   2  -8  -6   28.15    0.90
   2  -8  -6   30.27    1.25
  -2  -8   6   28.62    1.19
   2   8  -6   28.92    0.84
  -2   8   6   27.83    1.55
   2   8  -6   29.45    1.00
  -1  -8   6    0.08    0.46
   1  -8  -6    0.15    0.38
   1  -8  -6   -0.03    0.17
  -1  -8   6    0.25    0.18
   1  -8  -6    0.08    0.21
  -1  -8   6    0.27    0.27
  -1   8   6    0.06    0.28
   1   8  -6    0.13    0.25
  -1   8   6    0.24    0.26
   0  -8  -6    1.32    0.23
   0  -8   6    2.17    0.31
   0  -8   6    0.97    0.30
   0  -8  -6    1.29    0.20
   0  -8  -6    1.46    0.47
   0   8  -6    1.98    0.29
   0   8   6    1.45    0.27
   0   8   6    2.29    0.44
   0   8   6    1.22    0.25
   0   8   6    1.68    0.23
   1  -8   6    7.07    0.56
   1  -8   6    6.15    0.52
  -1  -8  -6    8.88    0.77
   1  -8   6    6.55    0.83
  -1  -8  -6    7.43    0.82
   1   8   6    7.16    0.52
   1   8   6    8.38    0.59
   1   8   6    8.14    0.76
   1   8   6    7.61    0.74
  -2  -8  -6    6.15    0.77
   2  -8   6    6.71    0.45
   2   8   6    6.66    0.49
   2   8   6    8.68    0.71
   2   8   6    6.87    0.77
  -3  -8  -6    3.58    0.69
   3   8   6    3.57    0.48
   3   8   6    2.49    0.57
   3   8   6    3.00    0.39
  -4  -8  -6   -0.54    0.66
   4   8   6    0.48    0.60
  -7  -9   6    4.46    0.60
  -7  -9   6    6.36    1.24
   7  -9  -6    5.05    0.69
   7   9  -6    3.79    0.69
   7   9  -6    4.27    0.58
  -6  -9   6    1.00    0.39
  -6  -9   6    0.95    0.55
   6  -9  -6    2.65    0.45
  -6   9   6    1.64    0.39
   6   9  -6    1.47    0.43
   6   9  -6    1.20    0.45
  -5  -9   6    2.03    0.50
   5  -9  -6    3.53    0.53
   5  -9  -6    3.24    0.48
  -5  -9   6    2.51    0.43
  -5   9   6    2.40    0.41
   5   9  -6    2.20    0.44
   5   9  -6    2.38    0.37
  -4  -9   6    0.41    0.32
   4  -9  -6    0.78    0.30
  -4  -9   6    0.35    0.31
  -4  -9   6    0.35    0.36
   4  -9  -6    0.55    0.41
  -4   9   6   -0.35    0.29
   4   9  -6    0.27    0.23
   4   9  -6    0.52    0.34
   3  -9  -6   15.67    0.69
   3  -9  -6   17.37    0.80
  -3  -9   6   17.09    0.98
  -3  -9   6   17.00    0.92
   3  -9  -6   17.18    0.97
  -3  -9   6   15.51    0.92
   3   9  -6   16.42    0.86
  -3   9   6   16.80    1.13
   3   9  -6   15.06    0.66
  -3   9   6   15.01    0.89
  -2  -9   6    1.23    0.34
  -2  -9   6    1.48    0.38
  -2  -9   6    0.86    0.23
   2  -9  -6    0.70    0.25
   2  -9  -6    1.31    0.28
  -2   9   6    0.53    0.26
  -2   9   6    0.57    0.30
   2   9  -6    0.96    0.26
   2   9  -6    0.64    0.19
   2   9  -6    0.96    0.37
   1  -9  -6    4.67    0.45
  -1  -9   6    5.44    0.61
   1  -9  -6    4.36    0.61
   1  -9  -6    5.50    0.42
  -1  -9   6    6.17    0.62
  -1  -9   6    4.01    0.38
  -1   9   6    5.43    0.54
  -1   9   6    5.12    0.61
   0  -9   6    4.42    0.59
   0  -9  -6    4.16    0.41
   0  -9   6    4.72    0.39
   0  -9  -6    4.65    0.35
   0  -9  -6    3.74    0.59
   0  -9   6    4.01    0.52
   0  -9  -6    4.67    0.48
   0   9   6    4.32    0.59
   0   9   6    4.65    0.39
   0   9   6    4.58    0.51
  -1  -9  -6   16.63    1.08
   1  -9   6   15.37    0.90
   1  -9   6   15.81    0.79
   1   9   6   16.08    0.76
   1   9   6   15.53    0.95
   1   9   6   15.69    0.72
   2  -9   6   12.75    0.87
   2  -9   6   10.81    0.63
  -2  -9  -6   11.79    1.01
   2   9   6   13.45    0.95
   2   9   6   12.98    0.67
   2   9   6   12.70    0.71
  -3  -9  -6    2.84    0.70
   3  -9   6    3.13    0.62
   3   9   6    3.28    0.43
   3   9   6    2.56    0.63
   3   9   6    4.21    0.67
  -7 -10   6    0.23    0.50
   7 -10  -6    0.88    0.71
   7  10  -6    0.51    0.50
   7  10  -6    1.83    0.79
  -6 -10   6   13.63    1.19
  -6 -10   6   11.22    0.95
   6 -10  -6   11.78    0.89
  -6  10   6   13.33    1.00
   6  10  -6   12.40    0.88
   6  10  -6   11.60    0.98
  -6  10   6   10.16    0.79
  -5 -10   6   21.43    1.24
   5 -10  -6   20.48    0.99
   5 -10  -6   21.94    1.10
  -5 -10   6   22.61    1.11
   5  10  -6   21.31    0.99
  -5  10   6   20.72    0.96
   5  10  -6   22.35    1.09
  -5  10   6   22.32    1.19
   4 -10  -6    1.32    0.33
   4 -10  -6    0.81    0.41
  -4 -10   6    0.53    0.33
  -4 -10   6    0.88    0.39
   4  10  -6    0.82    0.26
   4  10  -6    0.31    0.33
  -4  10   6    0.12    0.32
  -3 -10   6    9.73    0.86
   3 -10  -6    9.76    0.67
  -3 -10   6   10.19    0.58
   3 -10  -6    8.88    0.79
  -3 -10   6    9.36    0.75
  -3  10   6    9.39    0.75
  -3  10   6   10.23    0.75
   3  10  -6   10.03    0.57
   3  10  -6   10.32    0.87
   3  10  -6   10.78    0.74
   2 -10  -6   12.24    0.65
  -2 -10   6   12.00    0.89
   2 -10  -6   14.29    0.98
  -2 -10   6   12.28    0.81
  -2 -10   6   12.78    0.60
   2 -10  -6   12.97    0.68
  -2  10   6   14.70    0.84
  -2  10   6   11.95    0.79
   2  10  -6   11.44    0.55
   2  10  -6   13.96    0.70
   1 -10  -6   10.19    0.83
   1 -10  -6    9.34    0.58
  -1 -10   6   11.00    0.81
  -1 -10   6   10.32    0.52
  -1 -10   6   10.69    0.76
   1 -10  -6    9.02    0.60
   1 -10  -6    8.65    0.74
  -1  10   6   10.62    0.78
  -1  10   6    9.93    0.69
   1  10  -6    7.96    0.71
   0 -10   6   11.89    0.81
   0 -10  -6   11.41    0.93
   0 -10   6   11.32    0.78
   0 -10  -6   11.23    0.69
   0 -10  -6   11.44    0.49
   0  10   6   12.28    0.59
   0  10   6   11.84    0.72
   0  10   6   12.37    0.85
   1 -10   6   17.41    0.92
  -1 -10  -6   17.71    1.14
   1 -10   6   16.63    0.86
   1  10   6   16.27    1.02
   1  10   6   17.39    0.75
   1  10   6   14.63    0.80
   2 -10   6    4.55    0.68
  -2 -10  -6    4.11    0.68
   2 -10   6    3.79    0.50
   2  10   6    4.41    0.52
   2  10   6    5.53    0.80
   2  10   6    3.76    0.59
   3 -10   6    2.65    0.81
  -3 -10  -6    2.75    0.71
   3  10   6    2.04    0.65
   3  10   6    1.66    0.34
   3  10   6    2.73    0.64
   6 -11  -6    1.11    0.49
  -6 -11   6   -0.18    0.44
  -6 -11   6    0.64    0.60
  -6  11   6    1.16    0.46
   6  11  -6    0.22    0.38
   6  11  -6    0.19    0.48
   5 -11  -6    7.23    0.82
  -5 -11   6    6.63    0.77
  -5 -11   6    5.16    0.69
   5 -11  -6    7.27    0.74
   5  11  -6    6.14    0.75
   5  11  -6    5.65    0.81
  -5  11   6    6.40    0.85
   4 -11  -6   23.98    1.04
   4 -11  -6   21.40    1.35
  -4 -11   6   22.77    1.28
  -4 -11   6   24.46    1.16
   4  11  -6   22.92    0.97
  -4  11   6   22.98    1.14
  -4  11   6   22.48    1.02
   4  11  -6   23.65    1.29
   4  11  -6   22.25    1.09
  -3 -11   6    0.36    0.36
   3 -11  -6   -0.19    0.29
   3 -11  -6    0.30    0.36
  -3 -11   6    0.28    0.39
  -3  11   6   -0.05    0.31
   3  11  -6    0.94    0.42
   3  11  -6   -0.11    0.37
   3  11  -6    0.34    0.24
  -3  11   6   -0.52    0.29
  -2 -11   6   11.69    0.71
   2 -11  -6   11.93    0.68
   2 -11  -6   11.55    1.01
  -2 -11   6   11.13    0.86
  -2 -11   6   11.27    0.79
   2 -11  -6   10.13    0.89
  -2  11   6   10.89    0.78
   2  11  -6    9.00    0.54
   2  11  -6   11.15    1.03
  -2  11   6   11.17    0.79
   1 -11  -6    2.96    0.55
  -1 -11   6    2.55    0.46
  -1 -11   6    2.09    0.43
   1 -11  -6    1.22    0.37
   1 -11  -6    2.46    0.32
  -1  11   6    2.33    0.45
  -1  11   6    2.49    0.40
   0 -11  -6    1.32    0.45
   0 -11   6    1.18    0.38
   0 -11  -6    1.35    0.22
   0 -11   6    1.64    0.40
   0  11   6    1.43    0.33
   0  11   6    1.77    0.43
   0  11   6    2.02    0.32
   1 -11   6    1.01    0.39
  -1 -11  -6    0.44    0.46
   1 -11   6    0.30    0.31
   1  11   6    1.22    0.33
   1  11   6    1.28    0.34
   1  11   6    1.11    0.49
   2 -11   6    6.30    0.96
  -2 -11  -6    4.57    0.72
   2 -11   6    5.68    0.59
   2  11   6    7.13    0.94
   2  11   6    6.12    0.62
   2  11   6    5.64    0.71
  -3 -11  -6    0.84    0.69
   3  11   6    1.13    0.34
   3  11   6    1.97    0.57
   3  11   6    1.08    0.67
  -6 -12   6   15.64    1.16
   6 -12  -6   15.10    1.11
  -6 -12   6   13.71    1.41
   6  12  -6   13.12    1.38
   6  12  -6   15.83    0.99
   6  12  -6   14.37    1.18
  -6  12   6   17.28    1.27
  -5 -12   6    1.07    0.46
   5 -12  -6   -0.87    0.45
  -5 -12   6    0.14    0.54
   5 -12  -6    0.36    0.44
   5  12  -6    0.65    0.37
  -5  12   6    0.04    0.35
  -5  12   6   -0.09    0.44
   5  12  -6    0.01    0.55
   5  12  -6    0.18    0.42
   4 -12  -6   29.12    1.32
  -4 -12   6   27.58    1.43
   4 -12  -6   27.36    1.15
  -4 -12   6   30.27    1.32
  -4  12   6   29.07    1.32
   4  12  -6   26.41    1.43
   4  12  -6   28.27    1.24
   4  12  -6   26.77    1.09
  -4  12   6   25.90    1.14
  -3 -12   6    8.29    0.90
  -3 -12   6    6.80    0.75
   3 -12  -6    7.50    0.86
   3 -12  -6    8.75    0.68
  -3  12   6    6.71    0.72
   3  12  -6    7.44    0.71
   3  12  -6    7.01    0.58
  -3  12   6    8.30    0.82
   3  12  -6    8.69    0.91
   2 -12  -6   17.05    1.09
   2 -12  -6   16.83    1.00
  -2 -12   6   17.90    1.08
  -2 -12   6   18.54    0.99
  -2  12   6   16.98    0.95
   2  12  -6   14.08    0.70
  -2  12   6   17.87    0.97
   1 -12  -6    0.49    0.27
   1 -12  -6    0.11    0.44
  -1 -12   6    0.48    0.39
  -1 -12   6    0.10    0.35
  -1  12   6    0.33    0.38
  -1  12   6    0.04    0.28
   0 -12  -6   15.54    1.14
   0 -12   6   16.59    1.00
   0 -12  -6   16.28    0.65
   0 -12   6   15.19    0.91
   0  12   6   15.71    1.09
   0  12   6   16.09    0.76
   0  12   6   16.01    0.89
  -1 -12  -6   -0.29    0.49
   1 -12   6    0.51    0.36
   1 -12   6    0.05    0.33
   1  12   6    1.18    0.50
   1  12   6    0.44    0.37
   1  12   6    0.36    0.31
  -2 -12  -6   16.21    1.28
   2 -12   6   16.14    1.06
   2  12   6   15.83    0.97
   2  12   6   15.87    0.87
  -5 -13   6   14.72    1.18
  -5 -13   6   15.05    1.35
   5 -13  -6   17.40    1.06
  -5  13   6   18.06    1.19
   5  13  -6   14.95    1.40
  -5  13   6   16.05    0.93
   5  13  -6   16.29    1.13
   5  13  -6   16.40    0.97
  -4 -13   6    3.73    0.65
   4 -13  -6    6.37    0.71
   4 -13  -6    5.72    0.90
  -4 -13   6    6.73    0.86
  -4  13   6    5.19    0.78
   4  13  -6    4.76    0.74
  -4  13   6    5.36    0.69
   4  13  -6    5.13    0.66
   4  13  -6    5.33    0.73
  -3 -13   6   -0.93    0.44
   3 -13  -6   -0.26    0.31
  -3 -13   6   -0.16    0.41
   3 -13  -6   -0.17    0.46
   3  13  -6    0.55    0.33
  -3  13   6   -0.19    0.40
   3  13  -6    0.24    0.32
  -3  13   6   -0.23    0.36
   2 -13  -6    2.88    0.59
   2 -13  -6    1.78    0.37
  -2 -13   6    2.39    0.48
  -2 -13   6    2.93    0.53
  -2  13   6    2.47    0.47
  -2  13   6    2.20    0.43
   2  13  -6    1.83    0.34
  -1 -13   6    2.06    0.48
   1 -13  -6    2.26    0.37
   1 -13  -6    3.02    0.63
  -1 -13   6    1.34    0.44
  -1  13   6    2.14    0.42
  -1  13   6    2.42    0.49
   0 -13   6    0.41    0.38
   0 -13   6    0.08    0.41
   0 -13  -6    1.31    0.52
   0  13   6    0.41    0.41
   0  13   6    0.13    0.33
   0  13   6    0.84    0.33
   1 -13   6   19.82    1.09
  -1 -13  -6   18.17    1.30
   1 -13   6   19.60    1.06
   1  13   6   18.98    1.03
  -2 -13  -6    3.82    0.82
   2 -13   6    6.92    0.79
   2  13   6    4.97    0.76
   2  13   6    5.23    0.81
  -5 -14   6    2.86    0.76
   5 -14  -6    3.31    0.71
  -5 -14   6    3.12    0.69
   5 -14  -6    2.99    0.84
   5  14  -6    2.47    0.50
   5  14  -6    1.55    1.29
  -5  14   6    1.65    0.53
   5  14  -6    2.19    0.60
  -5  14   6    2.22    0.53
   4 -14  -6    2.89    0.49
   4 -14  -6    2.15    0.60
  -4 -14   6    1.44    0.58
  -4 -14   6    2.08    0.55
  -4  14   6    2.40    0.52
   4  14  -6    2.07    0.49
  -4  14   6    1.48    0.43
   4  14  -6    2.29    0.45
  -3 -14   6    2.79    0.63
  -3 -14   6    4.42    0.64
   3 -14  -6    4.22    0.52
   3 -14  -6    3.82    0.67
   3  14  -6    3.31    0.78
  -3  14   6    2.76    0.48
  -3  14   6    3.61    0.58
   2 -14  -6    6.16    0.95
  -2 -14   6    4.72    0.67
   2 -14  -6    6.92    0.67
  -2  14   6    6.40    0.75
   2  14  -6    4.91    0.62
  -2  14   6    8.04    0.82
  -1 -14   6    7.98    0.87
   1 -14  -6    7.58    0.67
  -1 -14   6    7.78    0.94
   1 -14  -6    6.02    0.82
  -1  14   6    7.61    0.85
  -1  14   6    7.06    0.77
   0 -14  -6    0.18    0.53
   0 -14   6    0.09    0.47
   0 -14   6    0.36    0.42
   0  14   6    0.97    0.40
   0  14   6    0.37    0.42
   1 -14   6    2.06    0.51
  -1 -14  -6    1.57    0.70
   1 -14   6    0.21    0.42
   1  14   6    1.00    0.45
   1  14   6    1.09    0.46
   4 -15  -6    2.08    0.64
  -4 -15   6    0.00    0.58
   4 -15  -6    1.51    0.49
  -4 -15   6    1.22    0.61
  -4  15   6    0.58    0.55
   4  15  -6    1.38    0.44
  -4  15   6    0.58    0.46
   4  15  -6    1.02    0.47
   3 -15  -6    3.01    0.91
  -3 -15   6    2.63    0.60
   3 -15  -6    2.80    0.48
  -3 -15   6    2.22    0.66
  -3  15   6    3.25    0.58
  -3  15   6    3.90    0.56
   3  15  -6    3.19    0.50
   2 -15  -6    4.33    0.50
  -2 -15   6    6.42    0.91
   2 -15  -6    6.87    1.06
  -2 -15   6    4.07    0.69
   2  15  -6    3.82    0.53
  -2  15   6    5.81    0.86
  -2  15   6    5.72    0.80
  -1 -15   6    0.58    0.52
   1 -15  -6    0.81    0.37
   1 -15  -6    1.47    0.59
  -1 -15   6    0.58    0.49
  -1  15   6    0.13    0.42
  -1  15   6    0.45    0.50
   0 -15  -6   21.31    1.47
   0 -15   6   19.12    1.21
   0 -15   6   19.22    1.17
   0  15   6   20.08    1.17
   0  15   6   18.91    1.05
  -1 -15  -6    1.90    0.87
   1 -15   6    1.11    0.50
   1 -15   6    0.86    0.58
   1  15   6    1.06    0.49
   1  15   6    0.79    0.56
   3 -16  -6   12.52    1.77
  -3 -16   6   11.70    1.24
   3 -16  -6    9.42    0.89
  -3 -16   6    8.86    1.27
  -3  16   6    9.25    1.08
  -3  16   6    9.83    0.92
   3  16  -6    9.96    0.88
   2 -16  -6    7.51    0.81
  -2 -16   6    7.36    1.04
  -2 -16   6    8.03    1.20
   2 -16  -6    9.45    1.19
  -2  16   6    8.83    0.95
   2  16  -6    6.55    0.77
  -2  16   6    7.00    0.98
   1 -16  -6    3.88    0.86
   1 -16  -6    4.14    0.76
  -1 -16   6    3.40    0.63
  -1 -16   6    4.30    0.70
  -1  16   6    3.75    0.61
  -1  16   6    2.72    0.62
   0 -16   6    2.99    0.60
   0 -16   6    3.21    0.79
   0 -16  -6    1.87    0.88
   0  16   6    2.42    0.67
   0  16   6    3.49    0.59
   7   0  -7    0.34    0.42
   7   0  -7    0.15    0.38
  -7   0   7    0.16    0.39
  -7   0   7   -0.96    0.47
   6   0  -7   -0.35    0.34
  -6   0   7   -0.77    0.34
   6   0  -7    0.00    0.29
  -6   0   7   -0.26    0.35
   5   0  -7   -0.22    0.28
  -5   0   7   -0.16    0.31
  -5   0   7    0.37    0.35
  -5   0   7   -0.05    0.33
   5   0  -7    0.09    0.26
  -4   0   7   -0.20    0.29
  -4   0   7    0.24    0.28
   4   0  -7   -0.01    0.26
   4   0  -7    0.09    0.20
   3   0  -7   -0.41    0.19
   3   0  -7   -0.59    0.25
  -3   0   7    0.02    0.26
  -3   0   7    0.46    0.33
  -2   0   7    0.02    0.21
   2   0  -7   -0.20    0.18
  -2   0   7   -0.37    0.29
   2   0  -7   -0.45    0.29
  -1   0   7   -0.05    0.25
  -1   0   7    0.27    0.20
   0   0   7    0.18    0.31
   0   0   7   -0.02    0.19
   0   0   7   -0.26    0.23
   0   0  -7   -0.31    0.31
   1   0   7    0.71    0.33
  -1   0  -7   -0.26    0.36
   1   0   7    0.00    0.19
  -2   0  -7   -0.06    0.40
   2   0   7   -0.27    0.35
   3   0   7    0.47    0.45
  -7  -1   7   -0.10    0.49
  -7  -1   7   -0.20    0.37
   7  -1  -7    0.46    0.38
   7  -1  -7   -0.01    0.38
  -7   1   7   -0.36    0.41
  -7   1   7    0.00    0.51
   7   1  -7   -0.09    0.43
   7   1  -7    0.46    0.41
  -6  -1   7    1.41    0.39
   6  -1  -7    1.31    0.33
  -6  -1   7    1.25    0.43
   6  -1  -7    0.69    0.36
   6   1  -7    1.30    0.39
  -6   1   7    1.04    0.39
  -6   1   7    1.24    0.40
   6   1  -7    0.73    0.32
  -5  -1   7    0.07    0.33
   5  -1  -7   -0.28    0.20
  -5  -1   7    0.13    0.34
   5  -1  -7   -0.35    0.28
  -5  -1   7   -0.34    0.33
   5   1  -7   -0.02    0.25
   5   1  -7   -0.41    0.27
  -5   1   7    0.27    0.34
  -5   1   7   -0.02    0.34
  -5   1   7    0.34    0.34
   4  -1  -7   13.59    0.77
   4  -1  -7   12.35    0.47
  -4  -1   7   13.08    0.83
  -4  -1   7   13.55    0.81
   4  -1  -7   13.54    0.75
   4  -1  -7   12.65    0.52
  -4   1   7   12.57    0.79
   4   1  -7   12.09    0.72
  -4   1   7   12.58    0.81
   4   1  -7   12.28    0.52
   3  -1  -7   19.97    0.79
  -3  -1   7   21.93    0.99
   3  -1  -7   20.16    0.96
  -3  -1   7   19.23    0.94
  -3   1   7   20.44    0.94
  -3   1   7   19.93    0.96
   3   1  -7   20.40    0.81
   2  -1  -7   10.21    0.77
  -2  -1   7   10.13    0.73
   2  -1  -7   10.09    0.52
  -2  -1   7    9.94    0.65
  -2   1   7    9.63    0.71
  -2   1   7   10.09    0.63
   2   1  -7    9.66    0.51
   1  -1  -7    4.11    0.61
  -1  -1   7    2.88    0.41
  -1  -1   7    2.42    0.41
  -1   1   7    2.69    0.35
  -1   1   7    2.41    0.40
   1   1  -7    2.87    0.50
   0  -1  -7    5.84    0.73
   0  -1   7    5.19    0.52
   0  -1   7    5.32    0.46
   0  -1   7    5.86    0.64
   0   1   7    5.71    0.44
   0   1  -7    6.02    0.72
   0   1   7    6.48    0.64
   0   1   7    4.84    0.46
  -1  -1  -7   70.07    2.23
   1  -1   7   67.61    1.66
   1  -1   7   71.20    2.08
   1   1   7   70.40    2.08
  -1   1  -7   68.29    2.20
   1   1   7   68.52    1.67
  -2  -1  -7   -0.21    0.40
   2  -1   7   -0.06    0.36
   2   1   7    0.06    0.39
   3  -1   7    8.16    0.86
  -3  -1  -7    8.84    1.02
   3   1   7    8.71    0.91
   7  -2  -7   15.51    1.00
  -7  -2   7   15.27    1.23
  -7  -2   7   17.56    1.00
   7  -2  -7   15.72    0.94
  -7   2   7   16.14    1.20
   7   2  -7   16.61    1.04
   7   2  -7   15.35    0.93
  -7   2   7   16.75    0.97
  -6  -2   7   62.66    2.09
   6  -2  -7   61.67    1.71
   6  -2  -7   62.36    1.86
  -6  -2   7   59.76    1.88
  -6   2   7   60.74    2.03
  -6   2   7   62.47    1.87
   6   2  -7   60.23    1.73
   6   2  -7   61.70    1.88
  -5  -2   7    4.26    0.64
   5  -2  -7    4.04    0.40
  -5  -2   7    4.66    0.64
   5  -2  -7    3.27    0.45
  -5  -2   7    3.29    0.51
  -5   2   7    4.05    0.54
  -5   2   7    4.03    0.61
   5   2  -7    3.59    0.41
   5   2  -7    4.10    0.50
   4  -2  -7   84.80    2.17
  -4  -2   7   84.85    2.40
   4  -2  -7   84.46    1.91
  -4  -2   7   86.90    2.35
   4  -2  -7   82.82    1.90
   4  -2  -7   87.85    2.27
   4   2  -7   87.03    2.22
  -4   2   7   82.47    2.34
   4   2  -7   82.83    1.89
  -4   2   7   85.66    2.32
   3  -2  -7    3.89    0.42
  -3  -2   7    2.51    0.40
  -3  -2   7    3.26    0.47
   3  -2  -7    3.22    0.48
   3   2  -7    3.50    0.44
  -3   2   7    2.26    0.35
  -3   2   7    3.59    0.55
   2  -2  -7   72.36    2.14
   2  -2  -7   72.91    1.76
  -2  -2   7   73.05    2.02
  -2  -2   7   72.32    2.09
  -2   2   7   72.38    2.08
   2   2  -7   73.48    1.78
  -2   2   7   74.41    1.99
   1  -2  -7   40.36    1.18
   1  -2  -7   42.70    1.56
  -1  -2   7   42.38    1.33
  -1  -2   7   41.07    1.44
  -1   2   7   42.91    1.45
  -1   2   7   42.76    1.29
   0  -2   7    1.98    0.30
   0  -2  -7    2.22    0.51
   0  -2   7    2.68    0.44
   0  -2   7    2.46    0.32
   0   2   7    2.36    0.43
   0   2   7    2.52    0.36
   0   2   7    2.36    0.31
   1  -2   7    0.57    0.35
  -1  -2  -7    0.22    0.43
   1  -2   7    0.20    0.22
   1   2   7    0.41    0.20
   1   2   7    0.08    0.34
  -2  -2  -7   64.58    2.18
   2  -2   7   63.60    1.98
   2   2   7   64.19    2.02
   3  -2   7    0.28    0.43
  -3  -2  -7    0.02    0.50
   3   2   7   -0.59    0.43
   7  -3  -7    3.01    0.49
   7  -3  -7    3.45    0.57
  -7  -3   7    3.43    0.51
  -7  -3   7    3.63    0.66
   7   3  -7    3.03    0.53
   7   3  -7    3.34    0.57
  -7   3   7    3.73    0.64
  -7   3   7    3.95    0.54
  -6  -3   7    8.76    0.95
  -6  -3   7    7.99    0.77
   6  -3  -7    8.73    0.72
   6  -3  -7    8.89    0.64
  -6   3   7    8.86    0.88
   6   3  -7    6.67    0.80
   6   3  -7   10.09    0.75
  -6   3   7    9.73    0.74
  -5  -3   7   38.27    1.51
   5  -3  -7   35.49    1.20
  -5  -3   7   35.77    1.35
   5  -3  -7   34.30    1.49
   5  -3  -7   34.45    1.08
   5   3  -7   35.12    1.28
  -5   3   7   36.10    1.39
  -5   3   7   37.75    1.34
   5   3  -7   34.23    1.07
  -4  -3   7    5.72    0.64
   4  -3  -7    5.24    0.54
   4  -3  -7    5.03    0.38
   4  -3  -7    5.18    0.61
  -4  -3   7    6.70    0.71
  -4   3   7    5.30    0.63
  -4   3   7    4.47    0.63
   4   3  -7    5.08    0.57
   4   3  -7    4.42    0.40
   3  -3  -7   15.44    0.69
  -3  -3   7   14.50    0.85
   3  -3  -7   15.86    0.87
  -3  -3   7   14.96    0.86
  -3   3   7   14.63    0.84
   3   3  -7   15.33    0.73
  -3   3   7   14.71    0.80
  -2  -3   7   37.96    1.37
   2  -3  -7   38.97    1.09
   2  -3  -7   39.26    1.47
  -2  -3   7   37.95    1.32
   2   3  -7   38.76    1.12
  -2   3   7   37.66    1.27
  -2   3   7   37.55    1.37
  -1  -3   7    9.55    0.71
   1  -3  -7    8.88    0.79
  -1  -3   7    9.66    0.62
   1  -3  -7    8.77    0.37
  -1   3   7    9.33    0.58
  -1   3   7    9.90    0.73
   0  -3   7   22.74    0.81
   0  -3  -7   24.78    1.22
   0  -3   7   23.97    1.07
   0  -3   7   23.68    0.89
   0   3   7   22.72    1.07
   0   3   7   22.97    0.87
   0   3   7   24.38    0.93
   1  -3   7   65.64    1.97
   1  -3   7   65.30    1.63
  -1  -3  -7   66.17    2.18
   1   3   7   65.32    2.02
   1   3   7   63.37    1.72
   2  -3   7    2.42    0.48
  -2  -3  -7    2.50    0.50
   2   3   7    2.80    0.56
   3  -3   7    3.93    0.58
  -3  -3  -7    4.14    0.74
   3   3   7    5.03    0.68
   7  -4  -7   10.09    0.83
  -7  -4   7   10.23    0.90
   7  -4  -7   10.13    0.92
  -7  -4   7   10.59    1.20
  -7   4   7    9.78    1.06
   7   4  -7    8.26    0.81
   7   4  -7    9.65    0.96
  -7   4   7    8.47    0.83
  -6  -4   7    0.47    0.38
  -6  -4   7    0.29    0.47
   6  -4  -7    0.19    0.33
   6  -4  -7    0.79    0.33
   6   4  -7    0.58    0.38
  -6   4   7   -0.15    0.34
  -6   4   7    0.36    0.37
   6   4  -7    0.47    0.32
  -5  -4   7    5.89    0.80
  -5  -4   7    7.53    0.69
   5  -4  -7    6.59    0.63
   5  -4  -7    6.59    0.61
   5  -4  -7    5.42    0.65
   5   4  -7    6.30    0.63
  -5   4   7    6.62    0.71
   5   4  -7    6.12    0.49
  -5   4   7    6.70    0.68
  -4  -4   7    6.20    0.68
  -4  -4   7    7.94    0.76
   4  -4  -7    7.75    0.67
   4  -4  -7    7.46    0.43
  -4   4   7    7.54    0.68
   4   4  -7    7.26    0.44
  -4   4   7    6.90    0.69
   4   4  -7    8.00    0.63
   3  -4  -7   27.28    0.73
   3  -4  -7   28.95    1.21
  -3  -4   7   29.21    1.19
   3  -4  -7   28.51    0.72
   3  -4  -7   28.65    0.98
  -3  -4   7   29.09    1.21
  -3   4   7   29.89    1.16
   3   4  -7   28.24    1.02
  -3   4   7   29.49    1.13
  -2  -4   7    1.07    0.32
  -2  -4   7    0.54    0.29
   2  -4  -7    1.20    0.23
   2   4  -7    0.57    0.22
  -2   4   7    0.40    0.24
  -2   4   7    0.66    0.32
  -1  -4   7   11.15    0.76
  -1  -4   7   11.31    0.69
   1  -4  -7   10.99    0.84
  -1   4   7   10.67    0.77
  -1   4   7   10.46    0.62
   0  -4  -7   63.94    2.09
   0  -4   7   59.33    1.58
   0  -4   7   61.74    1.89
   0  -4   7   61.95    1.68
   0   4   7   61.28    1.64
   0   4   7   62.74    1.93
  -1  -4  -7   -0.17    0.41
   1  -4   7    0.21    0.38
   1  -4   7    0.42    0.22
   1   4   7    0.49    0.38
   1   4   7   -0.17    0.23
   1   4   7    0.04    0.19
   2  -4   7    0.48    0.40
  -2  -4  -7    0.10    0.45
   2   4   7    0.16    0.42
   3  -4   7    3.84    0.58
  -3  -4  -7    4.41    0.73
   3   4   7    4.93    0.70
   7  -5  -7    1.11    0.49
  -7  -5   7    1.04    0.46
  -7  -5   7   -1.09    0.54
   7  -5  -7    0.26    0.43
   7   5  -7    0.47    0.43
  -7   5   7    0.57    0.49
   7   5  -7   -0.06    0.46
  -7   5   7    0.17    0.43
  -6  -5   7   10.23    1.15
   6  -5  -7   12.49    0.78
  -6  -5   7   11.32    1.05
   6  -5  -7   11.95    0.79
  -6   5   7   12.29    0.84
   6   5  -7   11.67    0.73
  -6   5   7   12.14    0.95
   6   5  -7   11.21    0.83
   5  -5  -7   24.13    1.02
  -5  -5   7   26.05    1.28
   5  -5  -7   24.74    0.90
  -5  -5   7   25.43    1.17
   5  -5  -7   26.31    1.04
   5   5  -7   24.93    1.08
   5   5  -7   24.20    0.88
  -5   5   7   23.86    1.17
  -5   5   7   22.87    1.04
   4  -5  -7    7.69    0.71
   4  -5  -7    7.77    0.46
  -4  -5   7    7.18    0.77
  -4  -5   7    7.53    0.70
   4  -5  -7    8.74    0.64
  -4   5   7    8.43    0.72
   4   5  -7    8.61    0.46
   4   5  -7    5.96    0.91
  -4   5   7    8.39    0.71
   3  -5  -7   62.85    1.94
   3  -5  -7   64.49    1.70
  -3  -5   7   64.03    1.97
  -3  -5   7   63.36    1.95
   3   5  -7   64.33    1.76
  -3   5   7   63.96    1.89
  -3   5   7   63.22    1.90
  -2  -5   7   46.85    1.56
  -2  -5   7   48.97    1.62
   2  -5  -7   46.13    1.70
   2  -5  -7   47.25    1.28
  -2   5   7   47.69    1.49
  -2   5   7   48.04    1.58
   2   5  -7   48.34    1.33
   1  -5  -7    1.67    0.43
  -1  -5   7    1.24    0.35
  -1  -5   7    1.28    0.30
   1  -5  -7    1.16    0.23
  -1   5   7    0.84    0.27
  -1   5   7    1.22    0.35
   0  -5   7    0.94    0.30
   0  -5   7    1.56    0.40
   0  -5  -7    1.95    0.51
   0   5   7    0.91    0.24
  -1  -5  -7    0.75    0.49
   1  -5   7    0.24    0.32
   1  -5   7    0.21    0.23
   1   5   7    0.33    0.21
   1   5   7    0.02    0.36
   1   5   7    0.24    0.27
   2  -5   7    0.86    0.40
  -2  -5  -7    1.39    0.54
   2   5   7    0.86    0.25
   2   5   7    0.78    0.20
   2   5   7    1.45    0.50
  -3  -5  -7   27.95    1.57
   3  -5   7   26.90    1.39
   3   5   7   25.84    1.39
  -7  -6   7   -0.85    0.58
   7  -6  -7   -0.31    0.41
  -7  -6   7    0.29    0.49
   7  -6  -7    0.24    0.46
  -7   6   7    0.71    0.62
   7   6  -7    0.74    0.45
   7   6  -7    0.21    0.51
  -6  -6   7    5.45    0.77
  -6  -6   7    5.31    0.70
   6  -6  -7    5.84    0.67
   6  -6  -7    6.50    0.68
  -6   6   7    5.32    0.72
  -6   6   7    5.52    0.81
   6   6  -7    5.89    0.79
   6   6  -7    6.13    0.65
   5  -6  -7    6.34    0.72
   5  -6  -7    6.16    0.52
  -5  -6   7    6.94    0.73
   5  -6  -7    6.96    0.63
  -5  -6   7    5.37    0.83
   5   6  -7    5.40    0.51
  -5   6   7    5.92    0.72
   5   6  -7    5.92    0.66
  -5   6   7    6.41    0.69
  -4  -6   7    0.18    0.34
   4  -6  -7    0.08    0.37
   4  -6  -7   -0.15    0.26
  -4  -6   7    0.13    0.37
   4   6  -7    0.27    0.30
   4   6  -7    0.09    0.20
  -4   6   7   -0.03    0.29
  -4   6   7    0.68    0.32
  -3  -6   7   37.73    1.40
   3  -6  -7   37.01    1.16
  -3  -6   7   36.42    1.40
   3  -6  -7   34.18    1.58
   3   6  -7   37.61    1.22
   3   6  -7   33.33    0.86
  -3   6   7   35.69    1.32
  -3   6   7   34.62    1.31
  -2  -6   7    4.30    0.64
  -2  -6   7    3.42    0.49
   2  -6  -7    5.40    0.52
   2  -6  -7    5.23    0.74
  -2   6   7    5.30    0.54
   2   6  -7    4.00    0.47
  -2   6   7    4.91    0.63
   1  -6  -7   25.18    1.23
   1  -6  -7   23.91    0.73
  -1  -6   7   24.20    1.04
  -1  -6   7   24.04    1.09
  -1   6   7   25.45    1.13
  -1   6   7   23.99    0.97
   0  -6   7   13.32    0.76
   0  -6   7   14.00    0.88
   0  -6  -7   13.45    1.03
   0   6   7   13.54    0.69
   0   6   7   14.51    0.93
  -1  -6  -7    4.79    0.71
   1  -6   7    4.12    0.50
   1  -6   7    4.41    0.74
   1   6   7    3.60    0.56
   1   6   7    3.47    0.42
  -2  -6  -7    6.29    0.99
   2  -6   7    6.34    0.75
   2   6   7    6.77    0.45
   2   6   7    7.95    0.88
  -3  -6  -7   24.55    1.61
   3  -6   7   25.01    1.24
   3   6   7   25.72    1.42
   7  -7  -7    7.26    0.83
  -7  -7   7    4.79    0.79
  -7  -7   7    6.46    0.91
   7  -7  -7    5.31    0.74
   7   7  -7    5.75    0.81
  -7   7   7    7.27    1.05
   7   7  -7    6.01    0.82
  -6  -7   7    1.56    0.48
   6  -7  -7    0.77    0.38
  -6  -7   7   -0.09    0.51
  -6   7   7    0.86    0.46
  -6   7   7    0.73    0.41
   6   7  -7    0.72    0.43
   6   7  -7    1.05    0.40
  -5  -7   7   16.43    0.96
  -5  -7   7   15.77    1.11
   5  -7  -7   16.28    0.86
   5  -7  -7   16.44    0.94
   5   7  -7   14.93    0.74
  -5   7   7   16.92    1.01
  -5   7   7   15.54    0.93
   5   7  -7   15.72    0.94
   4  -7  -7    7.72    0.80
  -4  -7   7    8.08    0.95
   4  -7  -7    7.69    0.62
  -4  -7   7    7.04    0.75
   4   7  -7    7.37    0.47
  -4   7   7    7.84    0.69
  -4   7   7    7.22    0.69
   4   7  -7    7.83    0.69
   3  -7  -7    7.66    0.56
  -3  -7   7    8.14    0.77
   3  -7  -7    8.67    0.83
  -3  -7   7    8.13    0.77
  -3   7   7    8.09    0.67
   3   7  -7    7.30    0.43
   3   7  -7    9.08    0.65
  -3   7   7    7.82    0.68
   2  -7  -7   78.45    1.90
  -2  -7   7   77.89    2.25
   2  -7  -7   77.64    2.36
  -2  -7   7   74.59    2.23
   2   7  -7   78.13    1.94
  -2   7   7   78.68    2.24
  -2   7   7   77.96    2.15
   1  -7  -7    5.87    0.39
   1  -7  -7    5.23    0.79
  -1  -7   7    6.56    0.70
  -1  -7   7    5.18    0.63
  -1   7   7    6.25    0.69
  -1   7   7    5.72    0.55
   0  -7  -7   10.60    0.97
   0  -7   7   10.59    0.71
   0  -7   7   10.06    0.80
   0   7   7    9.95    0.63
   0   7   7    9.91    0.85
  -1  -7  -7   -0.28    0.53
   1  -7   7   -0.23    0.27
   1  -7   7   -0.06    0.39
   1   7   7   -0.04    0.42
   1   7   7    0.03    0.24
   2  -7   7   10.75    1.05
  -2  -7  -7   10.21    1.14
   2   7   7    9.61    0.53
   2   7   7   10.54    1.02
   3  -7   7    0.35    0.51
  -3  -7  -7    0.44    0.81
   3   7   7    0.70    0.59
   6  -8  -7   17.91    1.03
  -6  -8   7   17.76    1.28
  -6  -8   7   18.24    1.11
   6   8  -7   18.38    1.11
  -6   8   7   17.94    1.01
  -6   8   7   17.89    1.13
   5  -8  -7    1.38    0.36
  -5  -8   7    1.38    0.47
   5  -8  -7    1.43    0.48
  -5  -8   7    1.05    0.44
   5   8  -7    1.05    0.40
  -5   8   7    1.94    0.43
   5   8  -7    2.08    0.35
  -5   8   7    1.19    0.39
  -4  -8   7   18.60    1.12
  -4  -8   7   21.32    1.08
   4  -8  -7   19.93    0.91
  -4   8   7   18.82    1.01
  -4   8   7   20.29    1.00
   4   8  -7   18.85    0.74
   4   8  -7   19.54    0.97
   3  -8  -7   27.21    1.27
  -3  -8   7   25.81    1.21
  -3  -8   7   26.85    1.23
   3  -8  -7   25.66    0.98
  -3   8   7   25.51    1.13
   3   8  -7   21.59    0.75
   3   8  -7   25.35    1.05
  -3   8   7   25.18    1.11
  -2  -8   7    1.79    0.44
   2  -8  -7    1.97    0.30
  -2  -8   7    2.19    0.46
   2  -8  -7    2.77    0.66
   2   8  -7    2.07    0.35
  -2   8   7    2.08    0.38
  -2   8   7    2.50    0.45
   1  -8  -7    5.17    0.83
   1  -8  -7    5.55    0.40
  -1  -8   7    5.76    0.68
  -1  -8   7    5.62    0.67
  -1   8   7    5.40    0.69
  -1   8   7    5.19    0.57
   0  -8  -7  100.94    2.97
   0  -8   7  101.55    2.63
   0  -8   7  100.29    2.72
   0   8   7  104.73    2.86
   0   8   7  101.99    2.56
   1  -8   7    3.57    0.58
   1  -8   7    3.30    0.42
  -1  -8  -7    4.13    0.69
   1   8   7    4.21    0.51
   1   8   7    3.84    0.61
  -2  -8  -7   12.83    1.24
   2  -8   7   11.82    0.93
   2   8   7   10.27    0.60
   2   8   7   13.46    1.14
  -6  -9   7   25.84    1.33
   6  -9  -7   24.45    1.23
  -6  -9   7   25.79    1.52
   6   9  -7   25.07    1.26
   6   9  -7   23.97    1.22
  -6   9   7   24.25    1.30
  -6   9   7   24.37    1.15
  -5  -9   7   14.65    1.12
   5  -9  -7   16.59    0.90
   5  -9  -7   16.68    1.23
  -5  -9   7   16.75    1.09
   5   9  -7   17.36    1.01
  -5   9   7   15.59    0.98
   5   9  -7   14.99    0.80
  -5   9   7   16.69    0.93
  -4  -9   7    1.43    0.41
  -4  -9   7    1.45    0.43
   4  -9  -7    1.81    0.35
   4  -9  -7    1.92    0.54
  -4   9   7    1.88    0.41
   4   9  -7    1.94    0.41
   4   9  -7    2.14    0.34
  -4   9   7    1.82    0.40
  -3  -9   7    7.54    0.77
  -3  -9   7    7.21    0.81
   3  -9  -7    7.25    0.88
   3  -9  -7    6.84    0.75
  -3   9   7    8.20    0.77
   3   9  -7    9.24    0.49
   3   9  -7    6.96    0.68
  -3   9   7    8.99    0.75
  -2  -9   7   29.57    1.32
   2  -9  -7   30.85    1.43
  -2  -9   7   31.35    1.33
   2  -9  -7   31.65    1.03
  -2   9   7   31.02    1.29
  -2   9   7   31.68    1.24
   1  -9  -7    2.73    0.38
   1  -9  -7    2.10    0.54
  -1  -9   7    2.46    0.44
  -1  -9   7    2.39    0.49
  -1   9   7    3.14    0.52
  -1   9   7    2.46    0.38
   0  -9   7   11.65    0.82
   0  -9   7   12.17    0.90
   0  -9  -7   12.46    1.09
   0   9   7   11.34    0.75
   0   9   7   12.48    0.94
  -1  -9  -7    3.69    0.67
   1  -9   7    3.81    0.55
   1  -9   7    4.46    0.63
   1   9   7    4.13    0.69
   1   9   7    3.59    0.54
   2  -9   7    0.35    0.46
  -2  -9  -7    1.33    0.70
   2   9   7    1.26    0.58
   2   9   7    1.56    0.33
  -6 -10   7    1.70    0.88
  -6 -10   7    1.73    0.60
   6 -10  -7    1.34    0.67
   6  10  -7    2.04    0.61
   6  10  -7    1.46    0.59
  -6  10   7    1.56    0.52
  -6  10   7    0.89    0.50
   5 -10  -7    2.02    0.43
  -5 -10   7    1.34    0.52
  -5 -10   7    2.24    0.54
   5 -10  -7    1.82    0.58
   5  10  -7    2.05    0.43
  -5  10   7    1.51    0.42
   5  10  -7    0.62    0.42
  -5  10   7    1.87    0.44
   4 -10  -7   23.23    1.25
   4 -10  -7   23.85    1.03
  -4 -10   7   25.78    1.57
  -4 -10   7   22.37    1.19
  -4  10   7   23.69    1.08
   4  10  -7   22.89    1.10
   4  10  -7   22.93    0.93
  -4  10   7   24.31    1.24
   3 -10  -7   38.11    1.60
   3 -10  -7   37.35    1.28
  -3 -10   7   36.02    1.56
  -3 -10   7   36.94    1.49
  -3  10   7   38.55    1.44
  -3  10   7   39.82    1.48
  -2 -10   7    1.47    0.43
   2 -10  -7    2.23    0.57
  -2 -10   7    0.93    0.41
   2 -10  -7    1.52    0.32
  -2  10   7    2.13    0.51
  -2  10   7    1.21    0.37
  -1 -10   7   31.03    1.35
   1 -10  -7   31.42    1.51
   1 -10  -7   29.93    1.00
  -1 -10   7   29.29    1.32
  -1  10   7   29.94    1.21
  -1  10   7   30.99    1.35
   0 -10   7    1.66    0.44
   0 -10  -7    2.24    0.58
   0 -10   7    0.69    0.44
   0  10   7    2.27    0.51
   0  10   7    1.93    0.38
  -1 -10  -7    0.33    0.59
   1 -10   7   -0.13    0.43
   1 -10   7    0.00    0.37
   1  10   7    0.42    0.31
   1  10   7   -0.26    0.49
  -2 -10  -7    9.10    1.35
   2 -10   7    9.25    0.95
   2  10   7    9.46    1.29
   2  10   7    8.13    0.67
  -5 -11   7    1.22    0.53
   5 -11  -7    0.31    0.54
   5 -11  -7   -0.05    0.42
  -5 -11   7    1.85    0.56
  -5  11   7    0.40    0.41
  -5  11   7    0.72    0.42
   4 -11  -7    1.91    0.67
  -4 -11   7    0.61    0.48
   4 -11  -7    0.85    0.39
  -4 -11   7    1.53    0.50
  -4  11   7    1.24    0.43
   4  11  -7    0.93    0.42
  -4  11   7    1.10    0.44
  -3 -11   7    6.97    0.86
   3 -11  -7    7.21    0.98
   3 -11  -7    6.96    0.64
  -3 -11   7    6.32    0.93
  -3  11   7    8.12    0.81
  -3  11   7    6.75    0.74
   3  11  -7    5.88    0.72
  -2 -11   7   -0.03    0.35
   2 -11  -7    0.18    0.32
   2 -11  -7    0.08    0.56
  -2 -11   7   -0.17    0.40
  -2  11   7    0.47    0.43
  -2  11   7    0.30    0.34
  -1 -11   7    1.75    0.47
  -1 -11   7    1.66    0.44
   1 -11  -7    1.13    0.54
  -1  11   7    1.15    0.34
  -1  11   7    1.82    0.48
   0 -11  -7    1.63    0.61
   0 -11   7    1.92    0.48
   0 -11   7    1.65    0.48
   0  11   7    1.32    0.48
   0  11   7    2.09    0.40
   1 -11   7    3.01    0.55
  -1 -11  -7    2.33    0.69
   1 -11   7    2.27    0.46
   1  11   7    2.90    0.46
   1  11   7    2.91    0.67
  -5 -12   7    6.29    0.89
   5 -12  -7    7.15    0.87
   5 -12  -7    8.24    1.09
  -5 -12   7    6.02    0.90
  -5  12   7    6.51    0.80
  -5  12   7    4.66    0.73
   5  12  -7    5.90    0.74
  -4 -12   7    0.46    0.51
   4 -12  -7    0.80    0.60
   4 -12  -7    0.95    0.41
  -4 -12   7    0.78    0.56
  -4  12   7    1.65    0.46
  -4  12   7    1.36    0.51
   4  12  -7    0.96    0.46
  -3 -12   7   14.58    1.20
   3 -12  -7   14.59    1.44
  -3 -12   7   13.87    1.04
   3 -12  -7   15.48    0.87
  -3  12   7   12.81    0.96
  -3  12   7   13.14    0.98
   3  12  -7   14.96    0.92
   2 -12  -7    5.00    0.79
  -2 -12   7    5.35    0.74
  -2 -12   7    5.59    0.83
  -2  12   7    5.16    0.73
  -2  12   7    5.11    0.68
  -1 -12   7    2.66    0.48
  -1 -12   7    3.50    0.61
   1 -12  -7    3.27    0.71
  -1  12   7    2.95    0.51
  -1  12   7    3.84    0.64
   0 -12  -7   11.67    1.23
   0 -12   7   12.92    1.02
   0 -12   7   11.56    0.93
   0  12   7   13.31    1.10
   0  12   7   12.20    0.88
   1 -12   7    9.05    0.89
   1 -12   7    6.44    0.90
  -1 -12  -7    6.54    1.08
   1  12   7    8.09    1.02
   1  12   7    8.52    0.89
   4 -13  -7    1.94    0.49
  -4 -13   7    1.58    0.65
   4 -13  -7    2.47    0.70
  -4 -13   7    0.70    0.66
  -4  13   7    2.18    0.52
  -4  13   7    1.51    0.50
   4  13  -7    1.49    0.52
   3 -13  -7    0.77    0.38
  -3 -13   7   -0.07    0.54
  -3 -13   7    0.50    0.53
   3 -13  -7    1.11    0.63
  -3  13   7    0.72    0.45
  -3  13   7    0.59    0.42
  -2 -13   7    1.54    0.55
  -2 -13   7   -0.08    0.54
   2 -13  -7    0.74    0.40
   2 -13  -7    0.60    0.62
  -2  13   7    0.78    0.44
  -2  13   7    0.91    0.48
   1 -13  -7    0.96    0.62
  -1 -13   7    1.63    0.51
  -1 -13   7    0.75    0.53
  -1  13   7    1.94    0.56
  -1  13   7    1.32    0.49
   0 -13  -7    1.53    0.74
   0 -13   7    1.39    0.60
   0 -13   7    0.67    0.53
   0  13   7    1.20    0.63
   0  13   7    0.84    0.50
  -3 -14   7   23.46    1.56
   3 -14  -7   19.07    1.40
  -3 -14   7   20.39    1.44
   3 -14  -7   20.61    1.05
  -3  14   7   19.60    1.26
  -3  14   7   19.08    1.21
  -2 -14   7   12.67    1.32
  -2 -14   7   12.20    1.16
   2 -14  -7   12.58    1.31
   2 -14  -7   12.01    1.07
  -2  14   7   12.81    1.21
  -2  14   7   13.24    1.11
  -1 -14   7    4.67    0.81
  -1 -14   7    3.38    0.60
   1 -14  -7    4.18    0.93
  -1  14   7    3.96    0.68
  -1  14   7    5.59    0.84
   6   0  -8    4.31    0.57
  -6   0   8    3.04    0.54
   5   0  -8    9.87    0.75
  -5   0   8    9.67    0.86
  -5   0   8    9.52    0.82
   4   0  -8   24.53    1.35
  -4   0   8   28.94    1.26
  -4   0   8   29.45    1.25
  -3   0   8   28.99    1.26
  -3   0   8   30.44    1.21
   3   0  -8   29.97    1.03
  -2   0   8    3.73    0.56
  -2   0   8    4.40    0.60
   2   0  -8    2.83    0.41
   2   0  -8    2.50    0.51
  -1   0   8   71.56    2.20
   1   0  -8   76.00    2.32
  -1   0   8   70.27    1.97
   0   0   8    0.19    0.43
   0   0   8   -0.03    0.26
   0   0  -8   -0.67    0.47
   1   0   8   -0.08    0.28
  -1   0  -8    0.07    0.53
   1   0   8    0.06    0.46
   2   0   8   12.36    1.06
  -6  -1   8   30.57    1.32
  -6  -1   8   27.90    1.41
   6  -1  -8   28.98    1.26
   6   1  -8   28.31    1.23
  -6   1   8   29.74    1.31
  -6   1   8   29.42    1.42
  -5  -1   8    7.50    0.82
  -5  -1   8    8.28    0.83
   5  -1  -8    8.15    0.68
  -5   1   8    6.89    0.78
   5   1  -8    8.12    0.71
  -5   1   8    7.51    0.81
  -4  -1   8    0.43    0.34
   4  -1  -8   -0.45    0.34
  -4  -1   8   -0.18    0.32
  -4   1   8   -0.13    0.37
  -4   1   8    0.12    0.32
  -3  -1   8    7.33    0.74
   3  -1  -8    7.58    0.56
   3  -1  -8    7.44    0.78
  -3  -1   8    5.44    0.64
  -3   1   8    8.62    0.68
   3   1  -8    7.09    0.57
  -3   1   8    6.96    0.71
   2  -1  -8   14.94    1.00
  -2  -1   8   16.37    0.88
   2  -1  -8   16.14    0.65
  -2  -1   8   15.75    0.96
   2   1  -8   15.74    0.68
  -2   1   8   16.69    1.00
  -2   1   8   15.75    0.84
  -1  -1   8    1.09    0.32
   1  -1  -8    1.08    0.45
  -1  -1   8    1.47    0.43
  -1   1   8    0.63    0.28
  -1   1   8    0.51    0.35
   0  -1  -8   23.06    1.28
   0  -1   8   21.92    0.90
   0  -1   8   22.48    1.18
   0   1   8   20.61    0.87
   0   1   8   23.00    1.19
  -1  -1  -8    3.08    0.64
   1  -1   8    3.80    0.60
   1  -1   8    6.05    0.84
   1   1   8    4.13    0.46
   1   1   8    4.65    0.65
   2  -1   8    0.97    0.57
  -2  -1  -8    0.57    0.69
   2   1   8    1.30    0.57
  -6  -2   8    1.02    0.45
   6  -2  -8    0.16    0.44
  -6  -2   8    1.27    0.56
  -6   2   8    0.72    0.44
  -6   2   8    0.64    0.42
   6   2  -8    0.45    0.43
  -5  -2   8    2.79    0.48
   5  -2  -8    3.61    0.46
  -5  -2   8    2.92    0.52
   5   2  -8    3.12    0.48
  -5   2   8    3.73    0.54
  -5   2   8    3.47    0.52
  -4  -2   8   16.99    0.98
   4  -2  -8   15.71    0.82
   4  -2  -8   15.64    0.99
  -4  -2   8   15.26    1.00
   4   2  -8   13.09    0.98
  -4   2   8   16.10    0.93
  -4   2   8   15.34    0.94
  -3  -2   8    0.43    0.37
  -3  -2   8    0.29    0.29
   3  -2  -8    0.65    0.40
   3   2  -8   -0.03    0.27
  -3   2   8    0.10    0.36
  -3   2   8   -0.12    0.26
   2  -2  -8   15.91    1.01
   2  -2  -8   16.99    0.66
  -2  -2   8   15.64    0.88
  -2  -2   8   15.09    0.97
  -2   2   8   15.67    0.95
  -2   2   8   16.76    0.85
   2   2  -8   17.18    0.80
  -1  -2   8    1.11    0.36
  -1  -2   8    1.80    0.47
   1  -2  -8    1.91    0.51
  -1   2   8    1.37    0.32
  -1   2   8    1.68    0.45
   0  -2  -8   -0.40    0.50
   0  -2   8    0.39    0.41
   0  -2   8    0.64    0.29
   0   2   8    1.46    0.48
   0   2   8   -0.02    0.26
   1  -2   8    8.38    0.86
   1  -2   8    5.73    0.53
  -1  -2  -8    7.57    0.96
   1   2   8    6.66    0.51
   1   2   8    6.83    0.90
   2  -2   8    4.41    0.69
  -2  -2  -8    4.26    0.93
   2   2   8    4.65    0.69
  -6  -3   8    1.90    0.52
  -6  -3   8    2.43    0.61
   6  -3  -8    1.45    0.46
  -6   3   8    2.43    0.56
  -6   3   8    2.15    0.51
   6   3  -8    2.21    0.50
   5  -3  -8    0.63    0.37
   5  -3  -8    0.87    0.46
  -5  -3   8    1.16    0.46
  -5  -3   8    1.41    0.46
  -5   3   8    1.51    0.45
  -5   3   8    0.98    0.41
   5   3  -8    0.79    0.39
  -4  -3   8    6.60    0.79
   4  -3  -8    4.74    0.76
   4  -3  -8    6.40    0.62
  -4  -3   8    4.73    0.62
  -4   3   8    5.07    0.67
   4   3  -8    4.94    0.55
  -4   3   8    5.50    0.70
  -3  -3   8    1.50    0.37
   3  -3  -8    0.77    0.44
   3  -3  -8    0.77    0.28
  -3  -3   8    0.96    0.39
  -3   3   8    1.56    0.43
   3   3  -8    0.54    0.31
  -3   3   8    0.80    0.28
  -2  -3   8    4.82    0.64
   2  -3  -8    5.60    0.77
  -2  -3   8    5.06    0.68
   2  -3  -8    5.14    0.44
  -2   3   8    4.89    0.59
  -2   3   8    5.32    0.68
  -1  -3   8    7.54    0.78
  -1  -3   8    6.76    0.65
   1  -3  -8    6.95    0.89
  -1   3   8    6.33    0.80
  -1   3   8    7.17    0.61
   0  -3   8    0.53    0.43
   0  -3   8    0.24    0.29
   0  -3  -8    0.42    0.46
   0   3   8    0.65    0.47
   0   3   8    0.18    0.26
  -1  -3  -8    4.52    0.68
   1  -3   8    4.61    0.61
   1  -3   8    4.58    0.52
   1   3   8    6.08    0.88
   1   3   8    4.42    0.47
  -2  -3  -8    9.65    1.36
   2  -3   8   13.68    1.05
   2   3   8   12.97    1.12
  -6  -4   8   14.74    1.09
   6  -4  -8   16.57    0.98
  -6  -4   8   14.28    1.21
  -6   4   8   16.54    1.14
   6   4  -8   13.67    1.03
  -6   4   8   15.01    1.03
  -5  -4   8    3.57    0.60
   5  -4  -8    3.57    0.47
  -5  -4   8    4.83    0.61
   5  -4  -8    4.15    0.60
   5   4  -8    3.74    0.49
  -5   4   8    4.32    0.68
  -5   4   8    4.27    0.59
  -4  -4   8   26.85    1.25
  -4  -4   8   28.10    1.33
   4  -4  -8   27.39    1.07
   4  -4  -8   25.69    1.24
  -4   4   8   25.93    1.21
   4   4  -8   26.71    1.10
  -4   4   8   25.81    1.17
  -3  -4   8   11.10    0.87
   3  -4  -8   12.04    0.66
  -3  -4   8   11.98    0.88
   3  -4  -8   10.37    0.93
  -3   4   8   12.06    0.84
   3   4  -8   10.93    0.71
  -3   4   8   10.80    0.76
   2  -4  -8    0.28    0.41
   2  -4  -8    0.12    0.25
  -2  -4   8   -0.13    0.36
  -2  -4   8    0.48    0.34
  -2   4   8    0.14    0.26
  -2   4   8   -0.25    0.51
   1  -4  -8   22.35    1.29
  -1  -4   8   21.77    1.12
  -1  -4   8   21.74    1.02
  -1   4   8   21.53    0.94
  -1   4   8   22.17    1.16
   0  -4  -8    6.30    0.99
   0  -4   8    5.94    0.63
   0  -4   8    5.76    0.79
   0   4   8    6.23    0.56
   0   4   8    6.02    0.74
  -1  -4  -8    1.11    0.54
   1  -4   8    1.74    0.50
   1  -4   8    1.44    0.31
   1   4   8    0.99    0.27
   1   4   8    1.58    0.56
   2  -4   8   19.36    1.20
  -2  -4  -8   21.31    1.90
   2   4   8   17.95    1.30
  -6  -5   8   15.55    1.26
  -6  -5   8   17.48    1.15
   6  -5  -8   17.78    1.04
  -6   5   8   16.22    1.10
  -6   5   8   15.95    1.04
   6   5  -8   18.23    1.12
  -5  -5   8    3.73    0.64
   5  -5  -8    4.79    0.65
  -5  -5   8    4.64    0.63
  -5   5   8    3.25    0.54
   5   5  -8    3.33    0.49
  -5   5   8    3.12    0.54
   4  -5  -8   12.66    0.75
  -4  -5   8   13.90    1.00
  -4  -5   8   13.46    0.93
   4  -5  -8   13.44    0.99
  -4   5   8   14.07    0.89
  -4   5   8   12.69    0.91
   4   5  -8   12.80    0.83
  -3  -5   8    5.54    0.75
   3  -5  -8    5.63    0.86
  -3  -5   8    5.29    0.78
   3  -5  -8    6.40    0.59
   3   5  -8    5.39    0.60
  -3   5   8    6.33    0.72
  -3   5   8    7.01    0.67
   2  -5  -8   21.57    0.90
  -2  -5   8   19.57    1.10
  -2  -5   8   18.97    1.01
   2  -5  -8   20.72    1.22
  -2   5   8   20.05    1.10
  -2   5   8   20.33    0.97
  -1  -5   8   10.23    0.88
  -1  -5   8    8.73    0.75
   1  -5  -8    8.19    0.99
  -1   5   8    9.83    0.86
  -1   5   8    9.05    0.67
   0  -5  -8   30.46    1.56
   0  -5   8   30.35    1.36
   0  -5   8   30.07    1.17
   0   5   8   30.32    1.44
   0   5   8   29.62    1.08
  -1  -5  -8    1.10    0.62
   1  -5   8    0.95    0.31
   1  -5   8    1.09    0.58
   1   5   8    0.20    0.50
   1   5   8    1.00    0.27
  -6  -6   8    3.30    0.60
   6  -6  -8    3.13    0.53
  -6  -6   8    4.28    0.72
   6   6  -8    3.69    0.58
  -6   6   8    3.78    0.60
  -6   6   8    2.24    0.51
  -5  -6   8    8.23    0.94
   5  -6  -8    8.82    0.73
   5  -6  -8    8.49    0.92
  -5  -6   8   10.37    1.00
  -5   6   8    9.07    0.85
   5   6  -8    8.89    0.80
  -5   6   8    7.83    0.85
  -4  -6   8   36.53    1.53
  -4  -6   8   35.81    1.50
   4  -6  -8   35.33    1.47
   4  -6  -8   33.76    1.23
  -4   6   8   33.65    1.39
   4   6  -8   35.20    1.33
  -4   6   8   35.33    1.41
   3  -6  -8    0.32    0.31
  -3  -6   8    0.14    0.39
  -3  -6   8   -0.25    0.37
   3  -6  -8    0.08    0.44
  -3   6   8   -0.52    0.36
   3   6  -8   -0.39    0.34
  -3   6   8    0.37    0.32
  -2  -6   8   16.72    0.99
   2  -6  -8   19.18    1.19
  -2  -6   8   18.50    1.09
  -2   6   8   19.24    0.95
  -2   6   8   17.89    1.03
  -1  -6   8    0.78    0.39
  -1  -6   8    0.99    0.43
   1  -6  -8   -0.82    0.49
  -1   6   8   -0.37    0.42
  -1   6   8    0.28    0.28
   0  -6   8    2.41    0.45
   0  -6  -8    3.56    0.69
   0  -6   8    3.22    0.57
   0   6   8    3.08    0.41
   0   6   8    3.17    0.59
   1  -6   8   13.33    0.74
  -1  -6  -8   13.54    1.34
   1  -6   8   15.42    1.08
   1   6   8   16.84    1.23
   1   6   8   14.50    0.72
  -6  -7   8    6.54    0.87
   6  -7  -8    5.35    0.67
  -6  -7   8    6.76    0.90
  -6   7   8    8.44    0.88
   6   7  -8    6.71    0.92
  -6   7   8    7.88    0.98
   5  -7  -8    5.52    0.68
  -5  -7   8    4.82    0.71
  -5  -7   8    5.28    0.71
   5  -7  -8    5.12    0.69
  -5   7   8    5.22    0.66
   5   7  -8    6.01    0.79
  -5   7   8    4.27    0.59
  -4  -7   8   15.06    1.11
  -4  -7   8   15.26    1.09
   4  -7  -8   15.52    1.13
   4  -7  -8   15.02    0.84
  -4   7   8   14.95    0.97
  -4   7   8   17.46    1.01
   4   7  -8   14.90    0.94
   3  -7  -8   52.11    1.89
  -3  -7   8   48.13    1.77
  -3  -7   8   46.68    1.77
   3  -7  -8   48.81    1.45
  -3   7   8   45.62    1.63
  -3   7   8   49.14    1.72
   3   7  -8   48.57    1.52
   2  -7  -8    5.36    0.79
  -2  -7   8    6.65    0.86
  -2  -7   8    6.20    0.77
  -2   7   8    7.21    0.68
  -2   7   8    6.95    0.80
   1  -7  -8    6.80    1.00
  -1  -7   8    5.39    0.75
  -1  -7   8    7.08    0.89
  -1   7   8    6.71    0.65
  -1   7   8    6.31    0.76
   0  -7   8   21.05    1.05
   0  -7   8   20.53    1.21
   0  -7  -8   19.64    1.38
   0   7   8   20.75    0.93
   0   7   8   22.54    1.28
  -1  -7  -8    9.83    1.43
   1  -7   8    9.09    0.72
   1   7   8    9.77    0.66
   1   7   8   10.25    1.17
  -5  -8   8    1.24    0.57
  -5  -8   8    1.93    0.62
   5  -8  -8    2.11    0.55
   5   8  -8    1.70    0.49
  -5   8   8    1.69    0.47
  -5   8   8    0.88    0.48
   4  -8  -8    5.51    0.64
  -4  -8   8    6.45    0.96
   4  -8  -8    5.44    0.74
  -4  -8   8    4.69    0.68
  -4   8   8    5.26    0.77
  -4   8   8    6.26    0.81
   4   8  -8    5.24    0.76
   3  -8  -8    2.97    0.65
  -3  -8   8    2.90    0.58
  -3  -8   8    2.59    0.53
  -3   8   8    2.20    0.42
   3   8  -8    2.46    0.47
  -3   8   8    4.93    0.75
  -2  -8   8    2.99    0.56
   2  -8  -8    3.84    0.65
  -2  -8   8    2.87    0.56
  -2   8   8    3.09    0.48
  -2   8   8    2.73    0.56
   1  -8  -8    1.41    0.62
  -1  -8   8    0.47    0.43
  -1  -8   8    1.68    0.53
  -1   8   8    1.35    0.35
  -1   8   8    0.80    0.46
   0  -8   8    2.40    0.50
   0  -8   8    2.17    0.54
   0  -8  -8    2.76    0.72
   0   8   8    2.34    0.42
   0   8   8    2.75    0.66
   1  -8   8    0.65    0.53
   1  -8   8    1.36    0.39
  -1  -8  -8    0.67    1.03
   1   8   8    1.16    0.37
   1   8   8    1.52    0.77
   5  -9  -8    0.25    0.58
  -5  -9   8    0.27    0.68
   5  -9  -8    1.10    0.42
  -5  -9   8    0.27    0.56
  -5   9   8    1.21    0.53
   5   9  -8    0.93    0.51
  -5   9   8    0.47    0.46
   4  -9  -8   16.64    1.23
   4  -9  -8   18.10    0.92
  -4  -9   8   15.93    1.21
  -4  -9   8   17.84    1.20
  -4   9   8   16.34    1.08
   4   9  -8   17.95    1.06
  -4   9   8   18.85    1.05
   3  -9  -8   16.23    1.28
  -3  -9   8   19.77    1.20
   3  -9  -8   17.42    0.86
  -3  -9   8   17.99    1.16
   3   9  -8   16.59    1.21
  -3   9   8   18.85    1.12
  -3   9   8   17.46    1.06
  -2  -9   8    3.91    0.59
  -2  -9   8    4.85    0.69
   2  -9  -8    3.37    0.69
  -2   9   8    4.86    0.67
  -2   9   8    4.73    0.68
  -1  -9   8    9.20    0.90
  -1  -9   8    6.48    0.93
   1  -9  -8    8.48    1.17
  -1   9   8    8.13    0.95
  -1   9   8    7.86    0.73
   0  -9   8    8.22    0.95
   0  -9  -8    9.70    1.34
   0  -9   8   10.44    1.04
   0   9   8    8.68    1.10
   0   9   8    8.70    0.78
  -4 -10   8   -0.05    0.53
  -4 -10   8    0.02    0.55
   4 -10  -8    0.26    0.59
  -4  10   8   -0.51    0.45
  -4  10   8    0.62    0.47
   4  10  -8    0.20    0.49
  -3 -10   8    0.53    0.57
  -3 -10   8    1.85    0.63
   3 -10  -8   -0.09    0.35
   3 -10  -8    0.80    0.58
  -3  10   8    1.09    0.42
  -3  10   8    0.59    0.49
  -2 -10   8    0.08    0.52
   2 -10  -8   -0.01    0.60
  -2 -10   8    0.79    0.56
  -2  10   8    0.39    0.42
  -2  10   8    0.58    0.51
   1 -10  -8    2.15    0.77
  -1 -10   8    0.54    0.53
  -1 -10   8    1.45    0.55
  -1  10   8    2.11    0.60
  -1  10   8    0.96    0.43
   0 -10  -8    3.10    1.09
   0 -10   8    2.13    0.62
   0 -10   8    2.33    0.64
   0  10   8    1.86    1.14
   0  10   8    2.07    0.60
   4 -11  -8    5.83    0.87
   4 -11  -8    6.08    0.75
  -4  11   8    5.17    0.66
   4  11  -8    6.23    0.87
  -4  11   8    3.63    0.59
  -3 -11   8   66.23    2.48
   3 -11  -8   69.81    2.45
   3 -11  -8   68.17    1.93
  -3 -11   8   66.56    2.33
  -3  11   8   70.93    2.28
  -3  11   8   66.65    2.40
  -2 -11   8   11.07    1.14
  -2 -11   8    9.88    1.21
   2 -11  -8   10.01    1.32
  -2  11   8   10.42    1.06
  -2  11   8   10.71    1.10
  -1 -11   8    0.07    0.53
   1 -11  -8    0.51    0.81
  -1 -11   8    0.24    0.72
  -1  11   8   -0.22    0.59
  -1  11   8    0.61    0.56
  -5   0   9    0.10    0.52
  -5   0   9   -0.21    0.56
   5   0  -9   -0.17    0.46
  -4   0   9    0.09    0.43
  -4   0   9   -0.60    0.47
   4   0  -9   -0.30    0.39
  -3   0   9    0.61    0.38
  -3   0   9    0.59    0.49
  -2   0   9   -0.44    0.48
  -2   0   9   -0.17    0.37
  -1   0   9    0.12    0.55
  -1   0   9   -0.08    0.36
   0   0   9   -1.04    0.97
   0   0   9   -0.42    0.36
   5  -1  -9   -0.45    0.51
  -5  -1   9   -0.03    0.53
  -5  -1   9   -1.12    0.52
   5   1  -9    0.01    0.43
  -5   1   9    0.16    0.52
  -5   1   9    0.29    0.47
  -4  -1   9   -0.02    0.43
   4  -1  -9    0.31    0.40
  -4  -1   9    0.68    0.54
  -4   1   9    0.67    0.52
  -4   1   9    0.34    0.44
   4   1  -9    0.40    0.42
  -3  -1   9    2.73    0.47
  -3  -1   9    2.82    0.60
  -3   1   9    1.72    0.47
  -3   1   9    2.63    0.61
  -2  -1   9    3.80    0.69
   2  -1  -9    4.75    0.75
  -2  -1   9    3.15    0.55
  -2   1   9    5.48    0.73
  -2   1   9    2.86    0.47
  -1  -1   9   10.91    0.86
   1  -1  -9   10.09    1.19
  -1  -1   9    9.28    1.08
  -1   1   9   10.30    1.09
  -1   1   9   11.00    0.83
   0  -1  -9    6.67    1.02
   0  -1   9    7.75    0.93
   0  -1   9    6.72    0.73
   0   1   9    6.48    0.73
   0   1   9    6.86    0.90
   5  -2  -9   34.56    1.48
  -5  -2   9   34.63    1.68
  -5  -2   9   28.84    1.69
  -5   2   9   34.62    1.58
   5   2  -9   34.40    1.34
  -5   2   9   36.23    1.59
   4  -2  -9   48.91    1.54
  -4  -2   9   46.18    1.83
  -4  -2   9   43.74    1.80
   4   2  -9   48.29    1.71
  -4   2   9   44.03    1.75
  -4   2   9   46.25    1.75
   3  -2  -9   -0.52    0.48
  -3  -2   9    0.32    0.41
  -3  -2   9   -0.19    0.42
  -3   2   9    0.25    0.40
  -3   2   9    0.06    0.46
  -2  -2   9    5.61    0.76
  -2  -2   9    6.14    0.82
   2  -2  -9    7.98    1.02
  -2   2   9    6.70    0.83
  -2   2   9    9.00    0.81
  -1  -2   9   -0.07    0.38
   1  -2  -9   -0.51    0.60
  -1  -2   9    0.80    0.55
  -1   2   9   -0.02    0.53
  -1   2   9   -0.19    0.35
   0  -2   9    1.05    0.66
   0  -2  -9    1.11    0.86
   0  -2   9    0.44    0.40
   0   2   9    0.21    0.70
   0   2   9    0.33    0.38
  -5  -3   9    0.07    0.63
  -5  -3   9    0.68    0.60
   5  -3  -9    0.19    0.44
  -5   3   9    1.03    0.50
   5   3  -9    0.32    0.45
  -5   3   9    0.46    0.58
  -4  -3   9   12.67    1.12
  -4  -3   9   10.72    1.14
   4  -3  -9   11.53    1.08
   4  -3  -9   13.52    0.86
  -4   3   9   12.93    1.11
   4   3  -9   10.30    0.93
  -4   3   9   12.44    1.01
  -3  -3   9   21.70    1.23
  -3  -3   9   20.03    1.27
   3  -3  -9   22.04    1.30
  -3   3   9   19.96    1.13
  -3   3   9   21.90    1.27
  -2  -3   9    2.80    0.54
  -2  -3   9    2.86    0.58
   2  -3  -9    3.33    0.66
  -2   3   9    2.48    0.57
  -2   3   9    2.69    0.50
  -1  -3   9    7.73    1.05
   1  -3  -9    8.96    1.06
  -1  -3   9    7.96    0.85
  -1   3   9    9.19    1.13
  -1   3   9    7.21    0.75
   4  -4  -9    3.03    0.49
   4  -4  -9    3.22    0.66
  -4  -4   9    2.90    0.69
  -4  -4   9    2.17    0.67
  -4   4   9    1.64    0.52
   4   4  -9    3.02    0.80
  -4   4   9    3.39    0.65
  -3  -4   9    3.82    0.68
  -3  -4   9    1.80    0.56
   3  -4  -9    3.97    0.66
  -3   4   9    2.57    0.65
  -3   4   9    2.82    0.52
   2  -4  -9    9.04    1.06
  -2  -4   9    8.89    0.92
  -2  -4   9   10.62    1.07
  -2   4   9   10.23    0.87
  -2   4   9    9.72    1.02
  -1  -4   9    0.99    0.58
  -1  -4   9    0.30    0.45
   1  -4  -9    1.16    0.70
  -1   4   9    0.73    0.40
  -1   4   9    1.12    0.65
  -4  -5   9    3.06    0.77
   4  -5  -9    4.88    0.74
   4  -5  -9    4.34    0.53
  -4  -5   9    2.97    0.68
  -4   5   9    3.66    0.69
  -4   5   9    2.90    0.61
  -3  -5   9   -0.07    0.60
  -3  -5   9    0.41    0.51
   3  -5  -9    0.49    0.56
  -3   5   9   -0.09    0.39
  -3   5   9    0.01    0.53
   2  -5  -9    6.32    0.86
  -2  -5   9    6.62    0.96
  -2  -5   9    5.94    0.79
  -2   5   9    5.90    0.85
  -2   5   9    6.06    0.86
  -1  -5   9    2.76    0.81
   1  -5  -9    3.20    1.31
  -1  -5   9    3.20    0.62
  -1   5   9    2.46    0.52
  -1   5   9    4.51    0.85
   4  -6  -9   12.34    1.19
   4  -6  -9   12.51    1.08
  -4  -6   9   12.53    1.66
  -4  -6   9   13.05    1.36
  -4   6   9   12.31    1.20
  -4   6   9   11.84    1.11
   3  -6  -9    1.46    0.70
  -3  -6   9    1.34    0.63
  -3  -6   9    1.68    0.67
  -3   6   9    1.14    0.51
  -3   6   9    1.46    0.62
   2  -6  -9    3.49    0.80
  -2  -6   9    2.61    0.64
  -2  -6   9    2.35    0.70
  -2   6   9    3.35    0.78
  -2   6   9    2.85    0.54
  -3  -7   9   13.49    1.75
   3  -7  -9   11.97    1.26
  -3  -7   9   14.75    1.46
  -3   7   9   14.11    1.17
  -3   7   9   14.71    1.26
  -2  -7   9   14.69    1.50
   2  -7  -9   15.71    1.45
  -2   7   9   15.44    1.65
   0   0   0    0.00    0.00
;
_shelx_hkl_checksum              90482
loop_
_space_group_symop_operation_xyz
'x, y, z'
'-x, y+1/2, -z+1/2'
'-x, -y, -z'
'x, -y-1/2, z-1/2'
loop_
_atom_site_label
_atom_site_type_symbol
_atom_site_fract_x
_atom_site_fract_y
_atom_site_fract_z
_atom_site_U_iso_or_equiv
_atom_site_adp_type
_atom_site_occupancy
_atom_site_site_symmetry_order
_atom_site_calc_flag
_atom_site_refinement_flags_posn
_atom_site_refinement_flags_adp
Cl1 Cl 0.16355(8) 0.66522(4) 0.83634(7) 0.0550(3) Uani 1 1 d . .
C1 C 0.0253(3) 0.62678(10) 0.9819(2) 0.0304(4) Uani 1 1 d . .
C2 C 0.1352(3) 0.60827(11) 1.1741(3) 0.0346(4) Uani 1 1 d . .
C3 C 0.0293(3) 0.57612(11) 1.2928(3) 0.0401(5) Uani 1 1 d . .
H3A H 0.1001 0.5650 1.4221 0.048 Uiso 1 1 calc R U
C4 C -0.1800(3) 0.56047(12) 1.2207(3) 0.0400(5) Uani 1 1 d . .
H4A H -0.2494 0.5387 1.3015 0.048 Uiso 1 1 calc R U
C5 C -0.2874(3) 0.57681(11) 1.0292(3) 0.0348(4) Uani 1 1 d . .
H5A H -0.4281 0.5649 0.9808 0.042 Uiso 1 1 calc R U
C6 C -0.1863(3) 0.61094(10) 0.9086(2) 0.0283(4) Uani 1 1 d . .
C7 C -0.3174(3) 0.63070(11) 0.7058(2) 0.0329(4) Uani 1 1 d . .
C8 C -0.3083(4) 0.71263(14) 0.6221(3) 0.0588(7) Uani 1 1 d . .
H8A H -0.2026 0.7444 0.7119 0.088 Uiso 1 1 calc R U
H8B H -0.2766 0.7072 0.5026 0.088 Uiso 1 1 calc R U
H8C H -0.4399 0.7392 0.5979 0.088 Uiso 1 1 calc R U
O1 O 0.3413(2) 0.62282(12) 1.2354(2) 0.0548(5) Uani 1 1 d . .
O2 O -0.4412(3) 0.58043(9) 0.6159(2) 0.0554(5) Uani 1 1 d . .
H1A H 0.387(5) 0.6060(18) 1.344(5) 0.077(9) Uiso 1 1 d . .
loop_
_atom_site_aniso_label
_atom_site_aniso_U_11
_atom_site_aniso_U_22
_atom_site_aniso_U_33
_atom_site_aniso_U_23
_atom_site_aniso_U_13
_atom_site_aniso_U_12
Cl1 0.0359(4) 0.0859(5) 0.0437(4) 0.0188(2) 0.0131(3) -0.0056(2)
C1 0.0295(9) 0.0351(9) 0.0249(8) 0.0014(6) 0.0058(7) -0.0005(7)
C2 0.0279(9) 0.0417(10) 0.0281(9) -0.0010(7) -0.0003(7) 0.0022(7)
C3 0.0435(11) 0.0478(10) 0.0240(8) 0.0070(7) 0.0035(8) 0.0074(8)
C4 0.0426(11) 0.0448(10) 0.0349(10) 0.0102(8) 0.0153(8) 0.0034(8)
C5 0.0294(9) 0.0360(9) 0.0368(10) 0.0042(7) 0.0069(8) -0.0022(7)
C6 0.0279(9) 0.0274(8) 0.0255(8) -0.0012(6) 0.0024(7) 0.0008(6)
C7 0.0281(9) 0.0404(9) 0.0256(9) -0.0003(7) 0.0016(7) 0.0019(7)
C8 0.0693(15) 0.0501(12) 0.0397(12) 0.0128(9) -0.0084(11) -0.0029(11)
O1 0.0289(8) 0.0859(12) 0.0375(9) 0.0099(8) -0.0071(6) -0.0048(7)
O2 0.0519(9) 0.0592(9) 0.0372(8) 0.0019(7) -0.0122(7) -0.0168(7)
loop_
_atom_type_symbol
_atom_type_description
_atom_type_scat_dispersion_real
_atom_type_scat_dispersion_imag
_atom_type_scat_source
C C 0.0033 0.0016 'International Tables Vol C Tables 4.2.6.8 and 6.1.1.4'
H H 0.0000 0.0000 'International Tables Vol C Tables 4.2.6.8 and 6.1.1.4'
O O 0.0106 0.0060 'International Tables Vol C Tables 4.2.6.8 and 6.1.1.4'
Cl Cl 0.1484 0.1585 'International Tables Vol C Tables 4.2.6.8 and 6.1.1.4'
loop_
_geom_angle_atom_site_label_1
_geom_angle_atom_site_label_2
_geom_angle_atom_site_label_3
_geom_angle
C6 C1 C2 120.59(16)
C6 C1 Cl1 121.59(13)
C2 C1 Cl1 117.74(14)
O1 C2 C3 123.10(17)
O1 C2 C1 117.92(17)
C3 C2 C1 118.98(17)
C4 C3 C2 120.51(17)
C3 C4 C5 120.44(17)
C4 C5 C6 120.22(17)
C5 C6 C1 119.22(16)
C5 C6 C7 116.56(16)
C1 C6 C7 124.19(16)
O2 C7 C8 120.48(17)
O2 C7 C6 118.72(16)
C8 C7 C6 120.62(16)
loop_
_geom_bond_atom_site_label_1
_geom_bond_atom_site_label_2
_geom_bond_distance
Cl1 C1 1.7345(17)
C1 C6 1.392(2)
C1 C2 1.396(2)
C2 O1 1.351(2)
C2 C3 1.386(3)
C3 C4 1.376(3)
C4 C5 1.380(3)
C5 C6 1.387(3)
C6 C7 1.500(2)
C7 O2 1.214(2)
C7 C8 1.487(3)
