#------------------------------------------------------------------------------
#$Date: 2019-11-10 19:28:36 +0200 (Sun, 10 Nov 2019) $
#$Revision: 226040 $
#$URL: file:///home/coder/svn-repositories/cod/cif/4/51/59/4515998.cif $
#------------------------------------------------------------------------------
#
# This file is available in the Crystallography Open Database (COD),
# http://www.crystallography.net/
#
# All data on this site have been placed in the public domain by the
# contributors.
#
data_4515998
loop_
_publ_author_name
'Siddaraju, Yogesh'
'Prabhu, Kandikere Ramaiah'
_publ_section_title
;
 Iodine-Catalyzed Chemoselective Hydroamination Reaction Using
 5-Mercaptotetrazoles Derivatives.
;
_journal_issue                   5
_journal_name_full               'ACS omega'
_journal_page_first              4908
_journal_page_last               4917
_journal_paper_doi               10.1021/acsomega.8b00499
_journal_volume                  3
_journal_year                    2018
_chemical_formula_moiety         'C13 H18 N4 S'
_chemical_formula_sum            'C13 H18 N4 S'
_chemical_formula_weight         262.38
_space_group_crystal_system      triclinic
_space_group_IT_number           2
_space_group_name_Hall           '-P 1'
_space_group_name_H-M_alt        'P -1'
_atom_sites_solution_hydrogens   geom
_atom_sites_solution_primary     dual
_audit_creation_date             2017-05-24
_audit_creation_method
;
Olex2 1.2
(compiled 2017.03.02 svn.r3394 for OlexSys, GUI svn.r5324)
;
_cell_angle_alpha                82.547(13)
_cell_angle_beta                 79.592(13)
_cell_angle_gamma                67.366(12)
_cell_formula_units_Z            2
_cell_length_a                   7.720(4)
_cell_length_b                   8.727(5)
_cell_length_c                   11.731(6)
_cell_measurement_reflns_used    6365
_cell_measurement_temperature    296.15
_cell_measurement_theta_max      27.884
_cell_measurement_theta_min      1.769
_cell_volume                     715.9(7)
_computing_cell_refinement       'SAINT v8.27A (Bruker, 2012)'
_computing_data_reduction        'SAINT v8.27A (Bruker, 2012)'
_computing_molecular_graphics    'Olex2 (Dolomanov et al., 2009)'
_computing_publication_material  'Olex2 (Dolomanov et al., 2009)'
_computing_structure_refinement  'ShelXL (Sheldrick, 2015)'
_computing_structure_solution    'ShelXT (Sheldrick, 2015)'
_diffrn_ambient_temperature      296.15
_diffrn_detector                 'Bruker APEX2 area detector'
_diffrn_detector_area_resol_mean 7.9
_diffrn_detector_type            'CCD area detector'
_diffrn_measured_fraction_theta_full 1.000
_diffrn_measured_fraction_theta_max 1.000
_diffrn_measurement_device       'three-circle diffractometer'
_diffrn_radiation_probe          x-ray
_diffrn_radiation_type           MoK\a
_diffrn_radiation_wavelength     0.71073
_diffrn_reflns_av_R_equivalents  0.0718
_diffrn_reflns_av_unetI/netI     0.1927
_diffrn_reflns_Laue_measured_fraction_full 1.000
_diffrn_reflns_Laue_measured_fraction_max 1.000
_diffrn_reflns_limit_h_max       9
_diffrn_reflns_limit_h_min       -9
_diffrn_reflns_limit_k_max       10
_diffrn_reflns_limit_k_min       -10
_diffrn_reflns_limit_l_max       13
_diffrn_reflns_limit_l_min       -13
_diffrn_reflns_number            16712
_diffrn_reflns_point_group_measured_fraction_full 1.000
_diffrn_reflns_point_group_measured_fraction_max 1.000
_diffrn_reflns_theta_full        24.999
_diffrn_reflns_theta_max         24.999
_diffrn_reflns_theta_min         1.769
_diffrn_source                   'microfocus sealed X-ray tube'
_diffrn_source_type              'Incoatec I\ms'
_diffrn_standards_number         0
_exptl_absorpt_coefficient_mu    0.215
_exptl_absorpt_correction_T_max  0.7456
_exptl_absorpt_correction_T_min  0.6589
_exptl_absorpt_correction_type   multi-scan
_exptl_absorpt_process_details
;
CrysAlisPro 1.171.38.43 (Rigaku Oxford Diffraction, 2015)
Empirical absorption correction using spherical harmonics,
 implemented in SCALE3 ABSPACK scaling algorithm.
;
_exptl_crystal_colour            'clear whiteish colourless'
_exptl_crystal_colour_lustre     clear
_exptl_crystal_colour_modifier   whiteish
_exptl_crystal_colour_primary    colourless
_exptl_crystal_density_diffrn    1.217
_exptl_crystal_description       plate
_exptl_crystal_F_000             280
_exptl_crystal_size_max          0.23
_exptl_crystal_size_mid          0.22
_exptl_crystal_size_min          0.21
_refine_diff_density_max         0.322
_refine_diff_density_min         -0.172
_refine_diff_density_rms         0.042
_refine_ls_extinction_method     none
_refine_ls_goodness_of_fit_ref   1.128
_refine_ls_hydrogen_treatment    constr
_refine_ls_matrix_type           full
_refine_ls_number_parameters     167
_refine_ls_number_reflns         2518
_refine_ls_number_restraints     0
_refine_ls_restrained_S_all      1.128
_refine_ls_R_factor_all          0.1661
_refine_ls_R_factor_gt           0.0424
_refine_ls_shift/su_max          0.000
_refine_ls_shift/su_mean         0.000
_refine_ls_structure_factor_coef Fsqd
_refine_ls_weighting_details
'w=1/[\s^2^(Fo^2^)+(0.0695P)^2^+0.0228P] where P=(Fo^2^+2Fc^2^)/3'
_refine_ls_weighting_scheme      calc
_refine_ls_wR_factor_gt          0.1198
_refine_ls_wR_factor_ref         0.1286
_reflns_Friedel_coverage         0.000
_reflns_number_gt                1671
_reflns_number_total             2518
_reflns_threshold_expression     'I > 2\s(I)'
_iucr_refine_instructions_details
;

    red.res created by SHELXL-2014/7

TITL shelxt_a.res in P1
CELL 0.71073 7.7196 8.7268 11.7306 82.547 79.592 67.366
ZERR 2 0.0042 0.0047 0.0064 0.013 0.013 0.012
LATT 1
SFAC  C 2.310 20.844 1.02 10.208 1.589 0.569 0.865 51.651 0.216 0.003 0.002 =
 11.5 0.77 12.011
SFAC  H 0.493 10.511 0.323 26.126 0.14 3.142 0.041 57.8 0.003 0 0 0.62 0.32 =
 1.008
SFAC  N 12.213 0.006 3.132 9.893 2.013 28.998 1.166 0.583 -11.529 0.006 =
 0.003 19.6 0.7 14.007
SFAC  S 6.905 1.468 5.203 22.215 1.438 0.254 1.586 56.172 0.867 0.125 0.123 =
 532 1.04 32.066
UNIT 26 36 8 2
 
L.S. 30
PLAN  20
fmap 2 53 53
ACTA
MERG 2
OMIT 0 50
REM <olex2.extras>
REM <HklSrc "%.\\RED.hkl">
REM </olex2.extras>
 
WGHT    0.069500    0.022800
FVAR       0.99044
S     4    0.172099    0.622622    0.544420    11.00000    0.05610    0.05201 =
         0.04663   -0.01145   -0.00312   -0.00628
N4    3    0.335481    0.300588    0.483306    11.00000    0.03955    0.04155 =
         0.04445    0.00336   -0.00669   -0.01378
N2    3    0.374658    0.472727    0.346307    11.00000    0.04086    0.03462 =
         0.03786   -0.00322   -0.00381   -0.01325
C004  1    0.290383    0.466884    0.458090    11.00000    0.03031    0.03787 =
         0.03776    0.00228   -0.01105   -0.00943
C005  1    0.103879    0.663777    0.163960    11.00000    0.04279    0.04499 =
         0.03638   -0.00348   -0.00330   -0.01955
C006  1    0.117087    0.901455    0.243985    11.00000    0.04719    0.03821 =
         0.04537   -0.00206   -0.00401   -0.02000
C007  1    0.194211    0.729861    0.228668    11.00000    0.03861    0.04005 =
         0.03409    0.00210   -0.00230   -0.01796
N3    3    0.445069    0.212011    0.391450    11.00000    0.05491    0.03779 =
         0.05715   -0.00323   -0.00630   -0.01161
C009  1    0.379622    0.623289    0.275106    11.00000    0.04268    0.04342 =
         0.04273   -0.00104   -0.00674   -0.02070
AFIX  13
H009  2    0.400532    0.692365    0.326689    11.00000   -1.20000
AFIX   0
N1    3    0.470452    0.316049    0.309394    11.00000    0.06013    0.03891 =
         0.05023   -0.00810   -0.00130   -0.00999
C011  1   -0.055490    0.772217    0.116404    11.00000    0.04457    0.06010 =
         0.04070   -0.00640   -0.00456   -0.02345
AFIX  43
H011  2   -0.112811    0.728480    0.072843    11.00000   -1.20000
AFIX   0
C012  1   -0.044006    1.003102    0.195972    11.00000    0.04937    0.03973 =
         0.05238    0.00063   -0.00315   -0.01350
AFIX  43
H012  2   -0.093924    1.116099    0.208029    11.00000   -1.20000
AFIX   0
C013  1    0.551895    0.579143    0.179354    11.00000    0.04645    0.07127 =
         0.06011    0.01146   -0.00145   -0.02515
AFIX 137
H01A  2    0.664231    0.512710    0.213031    11.00000   -1.50000
H01B  2    0.564986    0.679472    0.141969    11.00000   -1.50000
H01C  2    0.534194    0.517641    0.123185    11.00000   -1.50000
AFIX   0
C014  1   -0.133619    0.941856    0.130334    11.00000    0.03828    0.05974 =
         0.03884    0.00215   -0.00045   -0.01507
C015  1   -0.305668    1.054117    0.077162    11.00000    0.04953    0.07761 =
         0.05766    0.00296   -0.00771   -0.01061
AFIX 137
H01D  2   -0.268733    1.119100    0.011923    11.00000   -1.50000
H01E  2   -0.393794    1.126888    0.133831    11.00000   -1.50000
H01F  2   -0.364538    0.988175    0.051720    11.00000   -1.50000
AFIX   0
C016  1    0.207254    0.983294    0.311766    11.00000    0.07505    0.04581 =
         0.09118   -0.01003   -0.02530   -0.02758
AFIX 137
H01G  2    0.214159    0.931779    0.389123    11.00000   -1.50000
H01H  2    0.131352    1.099748    0.315253    11.00000   -1.50000
H01I  2    0.332638    0.969533    0.273310    11.00000   -1.50000
AFIX   0
C017  1    0.168320    0.479718    0.145179    11.00000    0.06669    0.05721 =
         0.06834   -0.01456   -0.02047   -0.02378
AFIX 137
H01J  2    0.303461    0.434580    0.123648    11.00000   -1.50000
H01K  2    0.108242    0.466176    0.084363    11.00000   -1.50000
H01L  2    0.133933    0.422220    0.215671    11.00000   -1.50000
AFIX   0
C32   1    0.276493    0.217629    0.589904    11.00000    0.05474    0.05735 =
         0.06181    0.01726   -0.00978   -0.02210
AFIX  33
H32A  2    0.329945    0.099484    0.583112    11.00000   -1.50000
H32B  2    0.319868    0.244071    0.653770    11.00000   -1.50000
H32C  2    0.140663    0.254481    0.603308    11.00000   -1.50000
AFIX   0
HKLF 4
 
REM  shelxt_a.res in P1
REM R1 =  0.0424 for    1671 Fo > 4sig(Fo)  and  0.1661 for all    2518 data
REM    167 parameters refined using      0 restraints
 
END  
     
WGHT      0.0695      0.0228 

REM Highest difference peak  0.322,  deepest hole -0.172,  1-sigma level  0.042
Q1    1  -0.2966  1.0403 -0.0014  11.00000  0.05    0.32
Q2    1   0.1509  0.6183  0.6387  11.00000  0.05    0.24
Q3    1   0.1841  0.6462  0.4553  11.00000  0.05    0.22
Q4    1  -0.4274  1.0407  0.1227  11.00000  0.05    0.21
Q5    1   0.2844  0.5152  0.5142  11.00000  0.05    0.21
Q6    1  -0.3029  1.1648  0.0768  11.00000  0.05    0.20
Q7    1  -0.0815  0.8786  0.0986  11.00000  0.05    0.19
Q8    1   0.3763  0.2738  0.4260  11.00000  0.05    0.19
Q9    1   0.2064  0.1645  0.5712  11.00000  0.05    0.18
Q10   1   0.1527  0.9641  0.2933  11.00000  0.05    0.18
Q11   1   0.3370  0.4925  0.4045  11.00000  0.05    0.18
Q12   1   0.3234  0.3976  0.4832  11.00000  0.05    0.18
Q13   1   0.2206  0.6801  0.2797  11.00000  0.05    0.17
Q14   1   0.1367  0.6933  0.2163  11.00000  0.05    0.17
Q15   1   0.2401  0.5586  0.4765  11.00000  0.05    0.17
Q16   1   0.2053  0.3082  0.6496  11.00000  0.05    0.16
Q17   1   0.4007  0.1235  0.6220  11.00000  0.05    0.16
Q18   1   0.1790  0.8273  0.2056  11.00000  0.05    0.16
Q19   1   0.5325  0.3185  0.2361  11.00000  0.05    0.16
Q20   1  -0.0679  0.9764  0.1354  11.00000  0.05    0.16

  REM The information below was added by Olex2.
  REM
  REM R1 = 0.0424 for 1671 Fo > 4sig(Fo) and 0.1661 for all 20180 data
  REM n/a parameters refined using n/a restraints
  REM Highest difference peak 0.32, deepest hole -0.17
  REM Mean Shift 0, Max Shift 0.000.

  REM +++ Tabular Listing of Refinement Information +++
  REM R1_all = 0.1661
  REM R1_gt = 0.0424
  REM wR_ref = 0.1286
  REM GOOF = 1.128
  REM Shift_max = 0.000
  REM Shift_mean = 0
  REM Reflections_all = 20180
  REM Reflections_gt = 1671
  REM Parameters = n/a
  REM Hole = -0.17
  REM Peak = 0.32
  REM Flack = n/a

  
;
_cod_data_source_file            ao8b00499_si_002.cif
_cod_data_source_block           red
_cod_original_cell_volume        715.8(7)
_cod_database_code               4515998
_shelx_shelxl_version_number     2014/7
_shelx_space_group_comment
;
The symmetry employed for this shelxl refinement is uniquely defined
by the following loop, which should always be used as a source of
symmetry information in preference to the above space-group names.
They are only intended as comments.
;
_olex2_refinement_description
;
1. Fixed Uiso
 At 1.2 times of:
  All C(H) groups
 At 1.5 times of:
  All C(H,H,H) groups
2.a Ternary CH refined with riding coordinates:
 C009(H009)
2.b Me refined with riding coordinates:
 C32(H32A,H32B,H32C)
2.c Aromatic/amide H refined with riding coordinates:
 C011(H011), C012(H012)
2.d Idealised Me refined as rotating group:
 C013(H01A,H01B,H01C), C015(H01D,H01E,H01F), C016(H01G,H01H,H01I), C017(H01J,
 H01K,H01L)
;
_olex2_submission_special_instructions 'No special instructions were received'
loop_
_space_group_symop_operation_xyz
'x, y, z'
'-x, -y, -z'
loop_
_atom_site_label
_atom_site_type_symbol
_atom_site_fract_x
_atom_site_fract_y
_atom_site_fract_z
_atom_site_U_iso_or_equiv
_atom_site_adp_type
_atom_site_occupancy
_atom_site_site_symmetry_order
_atom_site_calc_flag
_atom_site_refinement_flags_posn
S S 0.17210(8) 0.62262(8) 0.54442(5) 0.0556(2) Uani 1 1 d .
N4 N 0.3355(2) 0.3006(2) 0.48331(14) 0.0427(5) Uani 1 1 d .
N2 N 0.3747(2) 0.4727(2) 0.34631(14) 0.0382(5) Uani 1 1 d .
C004 C 0.2904(3) 0.4669(3) 0.45809(16) 0.0359(5) Uani 1 1 d .
C005 C 0.1039(3) 0.6638(3) 0.16396(17) 0.0406(6) Uani 1 1 d .
C006 C 0.1171(3) 0.9015(3) 0.24398(18) 0.0427(6) Uani 1 1 d .
C007 C 0.1942(3) 0.7299(3) 0.22867(16) 0.0374(5) Uani 1 1 d .
N3 N 0.4451(3) 0.2120(2) 0.39145(17) 0.0519(5) Uani 1 1 d .
C009 C 0.3796(3) 0.6233(3) 0.27511(17) 0.0416(6) Uani 1 1 d .
H009 H 0.4005 0.6924 0.3267 0.050 Uiso 1 1 calc R
N1 N 0.4705(3) 0.3160(2) 0.30939(16) 0.0527(6) Uani 1 1 d .
C011 C -0.0555(3) 0.7722(3) 0.11640(17) 0.0471(6) Uani 1 1 d .
H011 H -0.1128 0.7285 0.0728 0.057 Uiso 1 1 calc R
C012 C -0.0440(3) 1.0031(3) 0.19597(18) 0.0490(6) Uani 1 1 d .
H012 H -0.0939 1.1161 0.2080 0.059 Uiso 1 1 calc R
C013 C 0.5519(3) 0.5791(3) 0.1794(2) 0.0606(7) Uani 1 1 d .
H01A H 0.6642 0.5127 0.2130 0.091 Uiso 1 1 calc GR
H01B H 0.5650 0.6795 0.1420 0.091 Uiso 1 1 calc GR
H01C H 0.5342 0.5176 0.1232 0.091 Uiso 1 1 calc GR
C014 C -0.1336(3) 0.9419(3) 0.13033(17) 0.0478(6) Uani 1 1 d .
C015 C -0.3057(3) 1.0541(3) 0.0772(2) 0.0663(8) Uani 1 1 d .
H01D H -0.2687 1.1191 0.0119 0.099 Uiso 1 1 calc GR
H01E H -0.3938 1.1269 0.1338 0.099 Uiso 1 1 calc GR
H01F H -0.3645 0.9882 0.0517 0.099 Uiso 1 1 calc GR
C016 C 0.2073(4) 0.9833(3) 0.3118(2) 0.0668(8) Uani 1 1 d .
H01G H 0.2142 0.9318 0.3891 0.100 Uiso 1 1 calc GR
H01H H 0.1314 1.0997 0.3153 0.100 Uiso 1 1 calc GR
H01I H 0.3326 0.9695 0.2733 0.100 Uiso 1 1 calc GR
C017 C 0.1683(4) 0.4797(3) 0.1452(2) 0.0614(7) Uani 1 1 d .
H01J H 0.3035 0.4346 0.1236 0.092 Uiso 1 1 calc GR
H01K H 0.1082 0.4662 0.0844 0.092 Uiso 1 1 calc GR
H01L H 0.1339 0.4222 0.2157 0.092 Uiso 1 1 calc GR
C32 C 0.2765(4) 0.2176(3) 0.5899(2) 0.0594(7) Uani 1 1 d .
H32A H 0.3299 0.0995 0.5831 0.089 Uiso 1 1 calc R
H32B H 0.3199 0.2441 0.6538 0.089 Uiso 1 1 calc R
H32C H 0.1407 0.2545 0.6033 0.089 Uiso 1 1 calc R
loop_
_atom_site_aniso_label
_atom_site_aniso_U_11
_atom_site_aniso_U_22
_atom_site_aniso_U_33
_atom_site_aniso_U_23
_atom_site_aniso_U_13
_atom_site_aniso_U_12
S 0.0561(4) 0.0520(5) 0.0466(4) -0.0114(3) -0.0031(3) -0.0063(3)
N4 0.0396(10) 0.0415(13) 0.0445(10) 0.0034(9) -0.0067(8) -0.0138(9)
N2 0.0409(10) 0.0346(11) 0.0379(9) -0.0032(8) -0.0038(7) -0.0133(9)
C004 0.0303(11) 0.0379(14) 0.0378(11) 0.0023(9) -0.0111(8) -0.0094(10)
C005 0.0428(13) 0.0450(15) 0.0364(11) -0.0035(10) -0.0033(9) -0.0195(12)
C006 0.0472(13) 0.0382(15) 0.0454(12) -0.0021(10) -0.0040(10) -0.0200(12)
C007 0.0386(12) 0.0401(14) 0.0341(10) 0.0021(9) -0.0023(9) -0.0180(11)
N3 0.0549(13) 0.0378(13) 0.0572(12) -0.0032(10) -0.0063(9) -0.0116(11)
C009 0.0427(12) 0.0434(14) 0.0427(11) -0.0010(10) -0.0067(9) -0.0207(12)
N1 0.0601(13) 0.0389(13) 0.0502(11) -0.0081(10) -0.0013(9) -0.0100(11)
C011 0.0446(14) 0.0601(17) 0.0407(12) -0.0064(11) -0.0046(10) -0.0234(14)
C012 0.0494(14) 0.0397(15) 0.0524(13) 0.0006(11) -0.0031(11) -0.0135(13)
C013 0.0464(14) 0.071(2) 0.0601(15) 0.0115(13) -0.0014(11) -0.0251(15)
C014 0.0383(13) 0.0597(17) 0.0388(12) 0.0021(11) -0.0004(10) -0.0151(12)
C015 0.0495(16) 0.078(2) 0.0577(15) 0.0030(14) -0.0077(12) -0.0106(15)
C016 0.0750(19) 0.0458(17) 0.091(2) -0.0100(15) -0.0253(15) -0.0276(16)
C017 0.0667(17) 0.0572(19) 0.0683(16) -0.0146(14) -0.0205(13) -0.0238(15)
C32 0.0547(15) 0.0573(18) 0.0618(15) 0.0173(12) -0.0098(12) -0.0221(14)
loop_
_atom_type_symbol
_atom_type_description
_atom_type_scat_dispersion_real
_atom_type_scat_dispersion_imag
_atom_type_scat_source
C C 0.0030 0.0020 'International Tables Vol C Tables 4.2.6.8 and 6.1.1.4'
H H 0.0000 0.0000 'International Tables Vol C Tables 4.2.6.8 and 6.1.1.4'
N N 0.0060 0.0030 'International Tables Vol C Tables 4.2.6.8 and 6.1.1.4'
S S 0.1250 0.1230 'International Tables Vol C Tables 4.2.6.8 and 6.1.1.4'
loop_
_geom_angle_atom_site_label_1
_geom_angle_atom_site_label_2
_geom_angle_atom_site_label_3
_geom_angle
C004 N4 N3 111.25(18)
C004 N4 C32 127.78(17)
N3 N4 C32 120.95(19)
C004 N2 C009 126.18(17)
C004 N2 N1 110.68(17)
N1 N2 C009 122.94(15)
N4 C004 S 128.86(16)
N2 C004 S 128.86(18)
N2 C004 N4 102.21(17)
C007 C005 C017 123.9(2)
C011 C005 C007 118.5(2)
C011 C005 C017 117.58(18)
C007 C006 C016 122.0(2)
C012 C006 C007 120.15(18)
C012 C006 C016 117.8(2)
C005 C007 C009 122.29(19)
C006 C007 C005 118.7(2)
C006 C007 C009 118.88(16)
N1 N3 N4 107.48(18)
N2 C009 C007 114.43(15)
N2 C009 C013 110.50(19)
C007 C009 C013 112.83(19)
N3 N1 N2 108.34(16)
C014 C011 C005 123.65(18)
C006 C012 C014 122.3(2)
C011 C014 C012 116.6(2)
C011 C014 C015 121.8(2)
C012 C014 C015 121.6(2)
loop_
_geom_bond_atom_site_label_1
_geom_bond_atom_site_label_2
_geom_bond_distance
S C004 1.666(2)
N4 C004 1.361(3)
N4 N3 1.363(2)
N4 C32 1.452(3)
N2 C004 1.358(2)
N2 C009 1.472(3)
N2 N1 1.365(2)
C005 C007 1.418(2)
C005 C011 1.391(3)
C005 C017 1.521(3)
C006 C007 1.405(3)
C006 C012 1.387(3)
C006 C016 1.535(3)
C007 C009 1.528(3)
N3 N1 1.277(3)
C009 C013 1.535(3)
C011 C014 1.386(3)
C012 C014 1.393(3)
C014 C015 1.501(3)
loop_
_refln_index_h
_refln_index_k
_refln_index_l
_refln_F_squared_meas
_refln_F_squared_sigma
-1 0 0 1 0.3
-1 0 0 0.9 0.4
-1 0 0 0.9 0.3
-1 0 0 1.6 0.4
-1 0 0 1.6 0.5
-1 0 0 0.8 0.4
1 0 0 0.8 0.3
1 0 0 1.9 0.4
1 0 0 0.8 0.3
1 0 0 0.8 0.4
1 0 0 0.9 0.4
1 0 0 1.5 0.4
1 0 0 1.3 0.4
-2 0 0 402.06 15.9
-2 0 0 405.96 18.4
-2 0 0 456.65 18.5
-2 0 0 372.86 16.3
-2 0 0 390.46 16.3
-2 0 0 412.86 16.1
2 0 0 433.06 16.3
2 0 0 421.56 18.5
2 0 0 430.16 17
2 0 0 419.76 15.9
2 0 0 398.36 18.5
2 0 0 397.36 16.2
2 0 0 415.76 16.1
-3 0 0 410.76 16.4
-3 0 0 396.06 16.1
-3 0 0 444.06 18.4
-3 0 0 385.46 16.3
3 0 0 428.56 18.6
3 0 0 398.46 18.6
3 0 0 396.36 16.3
3 0 0 405.56 16.2
-4 0 0 286.77 12.5
-4 0 0 280.17 12.3
-4 0 0 311.27 12.5
-4 0 0 442.36 128.99
4 0 0 294.87 14
4 0 0 302.07 12.6
4 0 0 313.27 14.1
-5 0 0 3.4 1.4
-5 0 0 1 1
-5 0 0 -203.38 122.39
-5 0 0 0.5 1.5
5 0 0 1.3 1.2
5 0 0 2.1 1.7
5 0 0 1.9 1.1
-6 0 0 219.98 213.08
-6 0 0 69.49 5.1
6 0 0 67.79 5.1
6 0 0 63.19 4.6
6 0 0 61.89 4.6
-7 0 0 9.8 2.8
-7 0 0 8.7 2.7
7 0 0 4.7 2.1
7 0 0 7.4 2.8
7 0 0 10.3 2.3
-8 0 0 26.1 4.1
-8 0 0 20.7 3.8
8 0 0 16.9 3.3
8 0 0 22.3 4.2
8 0 0 14.5 3.6
-9 0 0 6.4 3.7
9 0 0 3.8 2.8
9 0 0 1.3 4.2
9 0 0 13.6 4.3
8 -1 0 0.8 3.1
8 -1 0 4.1 3.1
-8 1 0 -0.1 2.9
-7 1 0 278.87 220.18
6 -1 0 131.79 7.6
-6 1 0 475.25 225.68
-6 1 0 130.29 7.5
-5 1 0 -23 137.29
4 -1 0 303.07 12.7
-4 1 0 290.67 12.6
-4 1 0 335.27 128.39
3 -1 0 258.67 10.7
-3 1 0 256.77 11.4
-3 1 0 245.78 10.6
2 -1 0 844.92 33.9
2 -1 0 841.02 31.7
-2 1 0 829.42 31.7
-2 1 0 839.82 33.9
1 -1 0 780.52 28.8
1 -1 0 797.22 30.7
-1 1 0 745.03 28.8
-1 1 0 750.72 30.7
0 -1 0 926.81 35
0 -1 0 946.51 37.4
0 -1 0 1004 42.5
0 -1 0 944.51 36.3
0 -1 0 1003.4 37.1
0 -1 0 935.81 37.4
0 -1 0 921.01 42.5
0 1 0 976.8 42.5
0 1 0 950.7 37.5
0 1 0 983.3 38.1
0 1 0 957.6 37.5
0 1 0 1043 37.1
0 1 0 997.6 35
0 1 0 918.11 42.5
0 1 0 977.2 36.3
-1 -1 0 1833.52 75.69
-1 -1 0 1719.63 66.69
-1 -1 0 1609.64 75.59
-1 -1 0 1693.83 65.99
-1 -1 0 1724.03 62.19
-1 -1 0 1697.73 66.59
-1 -1 0 1538.05 64.19
-1 -1 0 1732.33 64.89
1 1 0 1721.93 64.19
1 1 0 1783.42 75.59
1 1 0 1709.03 66.59
1 1 0 1677.03 62.19
1 1 0 1643.24 64.89
1 1 0 1780.92 66.09
1 1 0 1727.33 75.59
1 1 0 1844.62 66.69
-2 -1 0 2079.39 77.79
-2 -1 0 2001.8 74.49
-2 -1 0 2002.2 79.79
-2 -1 0 2172.08 90.59
-2 -1 0 1999.4 79.89
2 1 0 2091.49 90.59
2 1 0 2128.69 74.49
2 1 0 2131.09 90.59
2 1 0 1897.31 77.79
2 1 0 1996.8 79.79
2 1 0 2134.69 79.79
2 1 0 2025.1 79.19
-3 -1 0 0 0.8
3 1 0 1.7 1
-4 -1 0 1.6 1.5
-4 -1 0 3.7 1.3
-4 -1 0 4.9 1.3
-4 -1 0 0.9 1.1
-4 -1 0 -0.2 1.1
4 1 0 5.3 1.3
4 1 0 3.4 1.4
4 1 0 6.5 1.4
-5 -1 0 549.54 22
-5 -1 0 503.45 21.4
-5 -1 0 497.95 21.7
-5 -1 0 559.54 24.6
5 1 0 556.94 24.8
5 1 0 533.55 21.8
5 1 0 528.25 24.8
5 1 0 538.25 21.6
-6 -1 0 -0.8 1.3
-6 -1 0 0.9 1.7
-6 -1 0 -2.4 1.4
6 1 0 -1.1 1.5
6 1 0 0.5 1.4
6 1 0 -0.1 1.3
6 1 0 1.2 1.8
-7 -1 0 9.8 2.7
-7 -1 0 7.5 2.5
7 1 0 5.6 2.4
7 1 0 2.1 2.1
-8 -1 0 4.3 3.4
-8 -1 0 4.9 3
8 1 0 1.6 3.1
8 1 0 5.8 2.6
-9 -1 0 -1.9 3.9
-9 -1 0 -2 3
9 1 0 3.2 3.6
9 1 0 6 3.4
9 1 0 -0.2 2.7
8 -2 0 17 4.4
-8 2 0 11.9 3.7
-8 2 0 -31.7 290.07
7 -2 0 11 3.3
7 -2 0 9.4 3
-7 2 0 -145.99 225.58
-7 2 0 6.6 2.9
6 -2 0 41.5 4.3
6 -2 0 37.9 3.8
-6 2 0 207.88 227.78
-6 2 0 34.2 4.2
-5 2 0 -86.59 149.99
4 -2 0 293.57 12
4 -2 0 292.87 12.5
-4 2 0 289.57 13.5
-4 2 0 161.38 143.39
-4 2 0 279.77 12.5
3 -2 0 35 2.8
-3 2 0 35.2 2.8
-3 2 0 59.69 102.99
-3 2 0 33.3 3.1
2 -2 0 171.18 7.3
-2 2 0 170.98 7.3
-2 2 0 170.28 8
1 -2 0 482.65 19.1
1 -2 0 493.75 19.5
1 -2 0 519.55 20.2
1 -2 0 505.85 18.9
-1 2 0 502.45 18.9
-1 2 0 461.85 20.2
0 -2 0 234.48 9.5
0 -2 0 217.58 10.9
0 -2 0 230.88 9
0 -2 0 257.27 9.6
0 -2 0 220.98 9.6
0 -2 0 260.27 9.4
0 -2 0 250.27 11
0 -2 0 236.78 9.6
0 2 0 249.38 9.9
0 2 0 228.08 9.7
0 2 0 227.58 9.7
0 2 0 233.18 9
0 2 0 246.08 9.5
0 2 0 260.67 9.6
0 2 0 238.48 10.9
0 2 0 224.48 10.9
-1 -2 0 0.7 0.8
-1 -2 0 2.6 0.7
-1 -2 0 2.1 0.8
-1 -2 0 2.4 0.9
-1 -2 0 2.6 1
-1 -2 0 2.5 0.7
-1 -2 0 1.9 0.7
-1 -2 0 1.6 0.7
1 2 0 1.7 0.9
1 2 0 6 0.8
1 2 0 3.1 0.8
1 2 0 2.7 0.6
1 2 0 2 0.8
1 2 0 2.2 0.8
1 2 0 2 0.8
1 2 0 1.8 0.7
-2 -2 0 2473.55 106.29
-2 -2 0 2416.86 93.79
-2 -2 0 2238.38 93.69
-2 -2 0 2540.35 106.39
-2 -2 0 2322.87 87.49
-2 -2 0 2408.66 91.19
-2 -2 0 2334.57 92.89
-2 -2 0 2278.27 90.29
2 2 0 2451.05 87.49
2 2 0 2384.06 93.69
2 2 0 2405.56 90.19
2 2 0 2309.57 91.29
2 2 0 2657.83 106.39
2 2 0 2433.86 106.39
2 2 0 2475.65 93.79
2 2 0 2437.26 92.89
-3 -2 0 1.7 1.1
-3 -2 0 4.6 0.9
-3 -2 0 2.3 1.1
-3 -2 0 2.6 1.2
-3 -2 0 1.6 1
-3 -2 0 2.5 1.3
3 2 0 2.6 1
3 2 0 2.8 1.2
3 2 0 1.9 1
3 2 0 4.1 0.8
3 2 0 5.3 1.2
3 2 0 4.4 1.2
-4 -2 0 19.9 2.6
-4 -2 0 16.3 2.2
-4 -2 0 21.8 2.4
-4 -2 0 23.6 2.4
-4 -2 0 21.2 2.8
4 2 0 20.3 3
4 2 0 22.8 2.9
4 2 0 23.7 2.7
4 2 0 25.1 2.6
-5 -2 0 122.59 6.4
-5 -2 0 133.19 7
-5 -2 0 115.19 6.2
-5 -2 0 123.69 6.6
-5 -2 0 128.99 5.9
5 2 0 132.49 7.3
5 2 0 125.69 6.2
5 2 0 121.19 6.5
5 2 0 115.89 7.1
-6 -2 0 12.5 2.3
-6 -2 0 14 2.2
-6 -2 0 21.6 2.9
-6 -2 0 20.7 3.1
6 2 0 15.5 2.6
6 2 0 19.5 2.9
6 2 0 22.1 2.6
6 2 0 15.6 2.7
-7 -2 0 21.6 3.3
-7 -2 0 16.3 3.3
7 2 0 20.5 3.3
7 2 0 16.1 3.1
-8 -2 0 4.2 2.8
-8 -2 0 1.1 2.4
8 2 0 3.4 2.7
8 2 0 -0.6 2.8
-9 -2 0 1.8 3.1
-9 -2 0 -3.1 3.8
9 2 0 2.9 3.4
9 2 0 -1.7 3.6
9 2 0 -0.3 2.7
-7 3 0 331.07 287.67
-6 3 0 -42.6 211.28
5 -3 0 8.7 2.7
-5 3 0 -119.49 161.08
-5 3 0 6.4 3
4 -3 0 9.7 2.1
-4 3 0 11.4 2.6
-4 3 0 -85.09 142.59
3 -3 0 178.88 7.9
3 -3 0 165.18 7.7
-3 3 0 167.48 7.8
-3 3 0 165.28 8.6
-3 3 0 60.19 113.49
2 -3 0 20.4 2
2 -3 0 18.6 1.8
-2 3 0 10.7 88.69
-2 3 0 18.2 2
-2 3 0 12.9 2
1 -3 0 85.09 4.4
1 -3 0 82.89 4.3
1 -3 0 89.49 4.1
1 -3 0 80.09 4.3
-1 3 0 89.99 4.5
0 -3 0 819.52 30.3
0 -3 0 794.72 31.1
0 -3 0 757.82 30.8
0 -3 0 795.02 29
0 -3 0 827.02 35.4
0 -3 0 793.42 30.3
0 -3 0 747.13 31
0 -3 0 786.42 35.3
0 3 0 770.12 31.1
0 3 0 799.72 30.8
0 3 0 806.62 31.7
0 3 0 768.62 29
0 3 0 775.92 31.1
0 3 0 813.92 35.2
-1 -3 0 1193.38 42.8
-1 -3 0 1166.98 45.8
-1 -3 0 1187.68 45.3
-1 -3 0 1147.09 44.2
-1 -3 0 1232.88 52.09
-1 -3 0 1093.19 51.89
-1 -3 0 1145.99 45.8
-1 -3 0 1209.58 44.6
1 3 0 1167.68 44.2
1 3 0 1169.48 44.5
1 3 0 1086.39 51.79
1 3 0 1185.08 45.3
1 3 0 1184.98 45.9
1 3 0 1153.18 45.8
1 3 0 1168.18 42.7
-2 -3 0 8.7 1.3
-2 -3 0 5.7 1.6
-2 -3 0 6.1 1.3
-2 -3 0 2.8 1.5
-2 -3 0 6.4 1.2
-2 -3 0 6.8 1.4
-2 -3 0 3.7 1.4
-2 -3 0 8.3 1.1
2 3 0 5.9 1.5
2 3 0 4.3 1.5
2 3 0 8.8 1.4
2 3 0 10.2 1.3
2 3 0 10.5 1.2
2 3 0 5.2 1.4
2 3 0 7.2 1.3
2 3 0 5.4 1.4
-3 -3 0 71.09 3.8
-3 -3 0 55.69 3.7
-3 -3 0 66.79 3.3
-3 -3 0 52.79 4
-3 -3 0 58.19 4.4
-3 -3 0 65.29 4.4
3 3 0 65.89 4.3
3 3 0 62.89 4.2
3 3 0 70.69 3.2
3 3 0 63.39 3.8
3 3 0 53.19 3.8
-4 -3 0 -2.9 1.5
-4 -3 0 -0.2 1.6
-4 -3 0 5.1 1.1
-4 -3 0 1.1 1.4
-4 -3 0 1.6 1.3
4 3 0 -0.9 1.6
4 3 0 3.8 1.5
4 3 0 -2.6 1.6
-5 -3 0 5.3 1.5
-5 -3 0 7.5 2
-5 -3 0 5.4 1.2
5 3 0 8.2 1.3
5 3 0 5.2 1.8
5 3 0 4.3 1.8
5 3 0 7 2
5 3 0 5.2 1.6
-6 -3 0 57.79 4.7
-6 -3 0 61.09 4.5
-6 -3 0 54.19 4.8
-6 -3 0 51.59 4.1
6 3 0 50.09 4.3
6 3 0 61.19 5
6 3 0 65.39 5
6 3 0 48.3 4.9
-7 -3 0 -1 1.8
-7 -3 0 5 2.1
-7 -3 0 -3.4 2.5
7 3 0 -0.6 1.9
7 3 0 -2.2 2.2
7 3 0 4 2.3
-8 -3 0 3 2.4
-8 -3 0 0.7 2.8
8 3 0 1.2 2.7
8 3 0 3.8 3.1
-9 -3 0 2.8 2.7
-9 -3 0 -8.1 3.4
9 3 0 1.9 3.5
9 3 0 -0.3 2.8
9 3 0 1.6 3.4
-7 4 0 166.48 279.37
-6 4 0 80.39 239.28
5 -4 0 31.4 3.5
5 -4 0 32.5 3.6
5 -4 0 24.5 3.5
5 -4 0 33.6 4
-5 4 0 29.7 3.7
-5 4 0 32.4 4.5
-5 4 0 79.19 198.18
4 -4 0 58.29 4.5
4 -4 0 48.3 4.2
4 -4 0 49.8 4.2
4 -4 0 51.19 4.4
-4 4 0 9.7 177.88
-4 4 0 50.39 4.4
-4 4 0 39.9 4.6
3 -4 0 140.59 6.9
3 -4 0 134.59 6.8
3 -4 0 126.59 6.7
-3 4 0 126.69 144.19
-3 4 0 151.38 7.9
-2 4 0 20.8 111.49
1 -4 0 370.66 14.6
1 -4 0 352.76 16.5
1 -4 0 347.07 16.4
1 -4 0 365.86 14.5
-1 4 0 182.78 108.89
-1 4 0 366.56 15.3
-1 4 0 328.97 14.4
0 -4 0 133.29 5.6
0 -4 0 124.79 5.7
0 -4 0 110.89 6.4
0 -4 0 122.29 5.6
0 -4 0 108.49 5.6
0 -4 0 119.19 6.5
0 -4 0 119.69 5.3
0 4 0 116.99 5.7
0 4 0 122.69 6.3
0 4 0 133.79 5.9
0 4 0 43.2 83.69
0 4 0 113.49 5.7
-1 -4 0 310.97 13.7
-1 -4 0 312.77 15.4
-1 -4 0 322.37 15.6
-1 -4 0 343.37 13.3
-1 -4 0 331.47 12.8
-1 -4 0 338.67 13.4
-1 -4 0 327.97 13.2
1 4 0 311.27 13.7
1 4 0 324.17 13.7
1 4 0 328.57 13.1
1 4 0 115.89 85.99
-2 -4 0 2.4 1.6
-2 -4 0 3.4 1.3
-2 -4 0 4.3 1.2
-2 -4 0 4.1 1.6
-2 -4 0 2 1.2
-2 -4 0 3.5 1.1
2 4 0 7.2 1.4
2 4 0 2.4 1.5
2 4 0 3.6 1.3
-3 -4 0 415.46 16.6
-3 -4 0 427.56 19.2
-3 -4 0 385.96 16.9
-3 -4 0 392.46 15.7
-3 -4 0 382.56 15.8
-3 -4 0 382.96 19
3 4 0 422.26 16.8
3 4 0 394.66 16.4
3 4 0 353.66 18.7
3 4 0 408.96 19.1
-4 -4 0 191.38 10.4
-4 -4 0 201.38 9.4
-4 -4 0 191.18 8.5
-4 -4 0 190.58 9.1
-4 -4 0 193.78 8.3
4 4 0 179.88 10.3
4 4 0 214.88 9.3
4 4 0 191.88 9.2
-5 -4 0 48.6 4.7
-5 -4 0 55.99 4.3
-5 -4 0 58.49 4
-5 -4 0 62.69 4.7
-5 -4 0 57.39 3.5
5 4 0 57.29 4.4
5 4 0 59.89 4.6
5 4 0 52.19 4.8
-6 -4 0 20.1 3.2
-6 -4 0 22.5 3.3
-6 -4 0 16.5 2.6
-6 -4 0 17.8 2
6 4 0 18 3.2
6 4 0 20.2 3
6 4 0 17.7 2.7
6 4 0 12.7 3.5
-7 -4 0 15.1 3.5
-7 -4 0 10 2.6
-7 -4 0 11.8 2.7
7 4 0 12.9 3.1
7 4 0 9.7 3.2
7 4 0 12.5 2.8
-8 -4 0 2.1 3.4
-8 -4 0 9.1 2.6
8 4 0 6.2 3.3
8 4 0 1.2 3
-9 -4 0 15.1 3.7
-9 -4 0 17.2 4.7
9 4 0 20.2 3.8
9 4 0 24.1 4.8
9 4 0 11.4 4
6 -5 0 -0.7 3.6
6 -5 0 5.7 3
6 -5 0 8.5 3.1
6 -5 0 0.6 3.2
-6 5 0 -44 253.27
5 -5 0 2.7 2.4
5 -5 0 5.1 2.7
5 -5 0 0 2.8
5 -5 0 -1.1 2.8
-5 5 0 6.2 3.3
-5 5 0 37.5 241.98
4 -5 0 -0.2 1.9
4 -5 0 -0.3 2.1
4 -5 0 -2 2.1
4 -5 0 0.6 2.2
-4 5 0 -2.3 2.4
-4 5 0 -55.19 189.88
-3 5 0 81.29 173.38
-3 5 0 19 3.1
2 -5 0 25.4 2.9
2 -5 0 32.5 2.9
2 -5 0 26.2 2.6
-2 5 0 232.18 145.79
-2 5 0 36.4 3.7
1 -5 0 335.87 16.7
1 -5 0 370.76 14.9
1 -5 0 368.26 14.8
1 -5 0 362.36 16.8
-1 5 0 346.67 14.7
-1 5 0 111.59 120.69
-1 5 0 337.67 14.7
-1 5 0 361.86 15.6
0 -5 0 2.3 1.3
0 -5 0 3.5 1.3
0 -5 0 4.3 1.2
0 -5 0 3.2 1.4
0 -5 0 3.1 1.5
0 -5 0 6.5 1.7
0 5 0 3.9 1.3
0 5 0 5.7 1.4
0 5 0 3.6 1.4
0 5 0 4.3 1.3
0 5 0 64.79 107.59
-1 -5 0 169.28 9.3
-1 -5 0 176.78 7.9
-1 -5 0 167.88 9.2
-1 -5 0 172.68 7.7
-1 -5 0 153.88 8
-1 -5 0 169.98 7.5
1 5 0 133.29 100.99
1 5 0 175.38 9.1
1 5 0 166.48 8
1 5 0 184.38 7.9
1 5 0 165.48 8.1
-2 -5 0 8.4 1.5
-2 -5 0 8.4 1.7
-2 -5 0 7.4 2.1
-2 -5 0 5.7 1.4
-2 -5 0 7.2 2
-2 -5 0 9 1.7
2 5 0 7.4 1.5
2 5 0 8.2 2
2 5 0 66.89 107.19
2 5 0 9.1 1.8
-3 -5 0 269.67 14.7
-3 -5 0 269.37 12.2
-3 -5 0 293.77 12.8
-3 -5 0 323.37 15.2
-3 -5 0 301.17 12.2
-3 -5 0 301.77 13.3
3 5 0 290.57 12.7
3 5 0 290.27 14.8
3 5 0 316.67 13.2
-4 -5 0 82.59 4.8
-4 -5 0 81.29 5.9
-4 -5 0 70.59 4.4
-4 -5 0 83.19 5
-4 -5 0 80.99 5.4
4 5 0 86.69 5.3
4 5 0 77.69 5.8
4 5 0 83.49 5.2
-5 -5 0 214.28 10.7
-5 -5 0 222.78 9.7
-5 -5 0 234.68 12.5
-5 -5 0 208.28 10
-5 -5 0 227.18 11.1
5 5 0 225.78 10.9
5 5 0 224.38 12.4
5 5 0 230.38 10.9
-6 -5 0 -1 1.8
-6 -5 0 3.8 2.1
-6 -5 0 1.8 2
-6 -5 0 1.4 1.5
6 5 0 -2 2.1
6 5 0 -1.8 2
6 5 0 0.3 1.7
-7 -5 0 8.9 2.8
-7 -5 0 16.1 3
-7 -5 0 12 3.4
-7 -5 0 7.8 2.1
7 5 0 20.4 3.9
7 5 0 5.5 3
7 5 0 13.4 3.3
-8 -5 0 63.59 5.8
-8 -5 0 66.39 6.9
-8 -5 0 50.69 5.1
8 5 0 62.39 6.6
8 5 0 66.29 6.9
8 5 0 54.99 5.8
-9 -5 0 28.9 5.3
-9 -5 0 27.6 4.4
9 5 0 13.2 4.2
9 5 0 34.2 5.6
9 5 0 24.3 4.1
5 -6 0 18.7 4
-5 6 0 -93.99 251.77
4 -6 0 6.8 2.8
4 -6 0 4 2.3
4 -6 0 3.5 2.5
-4 6 0 -0.9 3.1
-4 6 0 -304.47 182.48
3 -6 0 13 2.4
3 -6 0 12.9 2.7
3 -6 0 9.4 2.4
-3 6 0 15.1 3.3
-3 6 0 69.99 195.68
2 -6 0 10.2 2.7
2 -6 0 12.6 2.4
-2 6 0 30.3 163.78
-2 6 0 8.9 2.8
1 -6 0 205.98 11.1
1 -6 0 212.98 11.2
1 -6 0 227.78 10.3
1 -6 0 221.08 9.9
-1 6 0 213.28 9.8
-1 6 0 216.48 10.6
-1 6 0 104.09 153.48
0 -6 0 7.7 2.2
0 -6 0 8.2 2.1
0 6 0 9.9 2.1
0 6 0 -102.49 110.79
-1 -6 0 192.38 8.5
-1 -6 0 176.38 10.3
-1 -6 0 192.18 8.5
-1 -6 0 202.78 8.7
-1 -6 0 176.38 9
-1 -6 0 182.88 10.5
-1 -6 0 191.48 8.8
1 6 0 174.88 9.1
1 6 0 179.78 10
1 6 0 182.28 129.59
1 6 0 205.48 8.9
1 6 0 176.48 9
-2 -6 0 13.1 2.4
-2 -6 0 14.6 2.1
-2 -6 0 14.5 2.6
-2 -6 0 14.9 2.2
-2 -6 0 16.1 2.7
-2 -6 0 14.7 2.2
2 6 0 5.1 1.9
2 6 0 -77.29 99.69
2 6 0 15.4 2.4
2 6 0 11.6 1.8
-3 -6 0 -1.9 1.6
-3 -6 0 -4.8 2.1
-3 -6 0 5 1.6
-3 -6 0 -3.6 2.2
-3 -6 0 3.5 1.5
-3 -6 0 -3.7 1.7
3 6 0 -2.4 1.8
3 6 0 4.5 1.6
3 6 0 -2.1 1.8
-4 -6 0 1.4 1.8
-4 -6 0 2.1 1.5
-4 -6 0 3.9 2.1
-4 -6 0 2.1 2.1
-4 -6 0 4.6 1.9
4 6 0 3.2 1.9
4 6 0 3.1 1.7
4 6 0 1.3 1.8
-5 -6 0 105.39 8
-5 -6 0 120.69 7.4
-5 -6 0 120.49 7.1
-5 -6 0 113.79 6.6
-5 -6 0 114.09 6.2
5 6 0 117.69 7.4
5 6 0 120.29 8.2
5 6 0 123.29 7.4
-6 -6 0 35.9 4.7
-6 -6 0 34.5 3.8
-6 -6 0 36.4 4.2
-6 -6 0 30 3.1
-6 -6 0 35.5 4.6
6 6 0 35 4.5
6 6 0 35.6 4.2
6 6 0 28.2 4.3
-7 -6 0 -3.7 1.9
-7 -6 0 -1.3 2.4
-7 -6 0 -1.5 2.7
7 6 0 -1.1 2.7
7 6 0 0.8 3.1
7 6 0 -2.8 2.5
-8 -6 0 8.5 3.7
-8 -6 0 4.6 3
-8 -6 0 -1.1 2.5
8 6 0 5.1 2.6
8 6 0 3 3.7
8 6 0 5.5 3.8
8 6 0 7.3 3.2
-9 -6 0 -3 2.7
-9 -6 0 -3.6 3.9
9 6 0 0.1 4.4
9 6 0 -0.8 3.9
9 6 0 1.1 3
4 -7 0 2.9 3.1
4 -7 0 -4 2.9
-4 7 0 27.5 231.48
-4 7 0 -9.4 3.6
-3 7 0 149.99 213.38
-2 7 0 235.18 184.78
1 -7 0 86.99 5.4
1 -7 0 78.89 6.1
1 -7 0 87.29 5.9
1 -7 0 89.49 6.2
-1 7 0 64.99 167.38
-1 7 0 94.59 5.4
-1 7 0 89.99 6.3
0 -7 0 79.29 4.6
0 -7 0 69.39 5.7
0 -7 0 65.69 5.2
0 -7 0 70.29 5.7
0 -7 0 69.29 4.8
0 -7 0 67.99 4.9
0 7 0 80.79 5.2
0 7 0 63.39 157.08
0 7 0 79.79 5.4
-1 -7 0 172.18 8.5
-1 -7 0 176.28 8.9
-1 -7 0 160.98 10.2
-1 -7 0 174.28 8.9
-1 -7 0 194.08 8.8
-1 -7 0 176.68 10.5
1 7 0 183.88 9
1 7 0 178.98 9
1 7 0 45.8 155.28
-2 -7 0 3.3 2
-2 -7 0 7.2 2
-2 -7 0 0.6 2.4
-2 -7 0 -3 2.4
-2 -7 0 1.8 2.1
-2 -7 0 5.8 1.8
2 7 0 3.7 2.3
2 7 0 1.9 2.1
2 7 0 76.39 145.19
-3 -7 0 4.2 1.8
-3 -7 0 -7.7 2
-3 -7 0 -4.3 2.6
-3 -7 0 0.5 1.6
3 7 0 -4.7 2.2
3 7 0 2.1 1.7
3 7 0 -117.29 139.09
3 7 0 -6.7 2.2
-4 -7 0 142.89 10.3
-4 -7 0 164.88 8.1
-4 -7 0 161.38 9.3
-4 -7 0 167.08 8.5
-4 -7 0 170.48 8.8
4 7 0 157.98 10.2
4 7 0 169.18 8.7
4 7 0 159.68 9.2
-5 -7 0 123.29 7.2
-5 -7 0 130.69 7.9
-5 -7 0 130.69 7.3
-5 -7 0 90.79 8.4
-5 -7 0 112.89 6.4
5 7 0 124.49 7.9
5 7 0 124.19 7.6
5 7 0 101.09 8.3
-6 -7 0 -1.6 2.3
-6 -7 0 5.5 2.9
-6 -7 0 -1.3 2.3
-6 -7 0 2.5 2.8
-6 -7 0 1.9 2.1
6 7 0 3.3 3
6 7 0 3.6 1.8
6 7 0 2.6 3
6 7 0 9.4 2.9
-7 -7 0 29 4.2
-7 -7 0 29.1 5
-7 -7 0 32.4 3.5
7 7 0 34.5 4.8
7 7 0 48.3 5.8
7 7 0 22.1 4.8
7 7 0 31.5 3.6
-8 -7 0 13.4 4.7
-8 -7 0 19.9 4.1
8 7 0 16.3 3.3
8 7 0 19.1 4.6
8 7 0 16 4.8
8 7 0 21.8 4.7
-9 -7 0 -1.6 4.5
-9 -7 0 5.1 3.3
9 7 0 4.1 3.1
9 7 0 1.3 4.4
9 7 0 1.7 4.6
-3 8 0 287.07 264.07
2 -8 0 -2.2 2.2
2 -8 0 1.2 2.8
2 -8 0 0 2.3
-2 8 0 1.2 3.7
-2 8 0 -119.99 174.58
1 -8 0 -1.8 2.7
1 -8 0 -1.1 2.4
1 -8 0 0 2.1
-1 8 0 0.5 2.5
-1 8 0 -101.19 158.08
-1 8 0 0.5 3
0 -8 0 19 3.5
0 -8 0 26.9 3.2
0 -8 0 26.2 3.6
0 8 0 47.1 167.48
0 8 0 27.6 3.7
0 8 0 28.2 3.4
-1 -8 0 212.88 9.4
-1 -8 0 189.68 9.7
-1 -8 0 172.38 10
-1 -8 0 191.28 11.5
1 8 0 195.68 10.3
1 8 0 202.28 10.2
1 8 0 162.58 194.78
2 8 0 -203.98 158.78
-3 -8 0 38.2 4.7
-3 -8 0 49.8 4.6
-3 -8 0 55.79 4.7
-3 -8 0 56.49 5.1
-3 -8 0 45.2 5.5
3 8 0 85.49 196.08
3 8 0 36.1 3.9
3 8 0 57.99 5.4
-4 -8 0 32.2 3.6
-4 -8 0 37.3 4.2
-4 -8 0 27.5 4.9
-4 -8 0 27.2 4.1
-4 -8 0 27.7 3.8
4 8 0 30.6 3.8
4 8 0 -54.59 178.88
4 8 0 42.4 4.8
-5 -8 0 128.79 8.1
-5 -8 0 133.19 9
-5 -8 0 130.39 8.1
-5 -8 0 144.49 10.4
-5 -8 0 124.59 7.5
5 8 0 132.29 8.4
5 8 0 137.29 8.6
-6 -8 0 36.8 4.2
-6 -8 0 24.8 4.7
-6 -8 0 44.9 5.9
-6 -8 0 40 5.2
-6 -8 0 33.9 4.4
6 8 0 37 5
6 8 0 43.6 5
-7 -8 0 -0.5 2.4
-7 -8 0 0.9 3.1
-7 -8 0 8 3.6
-7 -8 0 -3.6 3.5
7 8 0 0 3.2
7 8 0 3.4 3.6
-8 -8 0 -5.7 4.1
-8 -8 0 6.8 4.1
8 8 0 7 4.4
8 8 0 2.7 4.8
8 8 0 -2.2 4.2
-9 -8 0 21.1 5.2
-9 -8 0 20.6 5.9
-9 -8 0 16.9 4.3
9 8 0 32.2 6.3
2 -9 0 11.9 4
-2 9 0 7.2 5.2
-2 9 0 -253.57 259.27
-1 9 0 79.19 236.38
0 -9 0 -0.2 2.5
0 -9 0 2.9 2.9
0 -9 0 4.2 3
0 -9 0 -5.8 2.3
0 9 0 -43.4 192.68
0 9 0 -3.5 3.2
0 9 0 -6.6 2.6
-1 -9 0 7.1 3.2
-1 -9 0 -0.7 2.5
-1 -9 0 4.3 2.9
-1 -9 0 6.8 3.2
1 9 0 -0.9 2.7
1 9 0 -40.4 179.58
1 9 0 7.2 2.9
-2 -9 0 30.4 4.1
-2 -9 0 28.7 4.4
-2 -9 0 35.8 4.2
-2 -9 0 32.9 4.2
2 9 0 35.6 4.6
2 9 0 94.99 194.38
2 9 0 29 3.9
3 9 0 146.09 215.28
-4 -9 0 0.1 2.3
-4 -9 0 0.3 3
-4 -9 0 -2.9 2.6
-4 -9 0 4.3 3.8
-4 -9 0 2.3 2.8
4 9 0 42.7 189.88
4 9 0 1.5 2.4
4 9 0 0.5 2.8
-5 -9 0 19.9 4
-5 -9 0 22.7 3.6
-5 -9 0 26.4 5.3
-5 -9 0 12.9 4.5
-5 -9 0 21.6 3.9
5 9 0 74.49 226.38
5 9 0 23.2 4.5
5 9 0 22.6 4.1
-6 -9 0 20.2 4.3
-6 -9 0 22.3 4
-6 -9 0 23.3 4.9
-6 -9 0 27.8 6.2
-6 -9 0 20.7 4.2
6 9 0 25.1 4.7
6 9 0 31.9 5.2
-7 -9 0 20.5 4.5
-7 -9 0 13.9 3.5
-7 -9 0 11.4 3.8
-7 -9 0 5.8 4.5
7 9 0 12.4 4.5
7 9 0 11.7 5
-8 -9 0 1.8 5.4
-8 -9 0 -1.3 4.4
8 9 0 7.2 4.8
8 9 0 10.1 4.8
1 -10 0 -4.1 4.4
1 -10 0 5.2 3.5
-1 10 0 5.9 3.4
-1 10 0 -218.88 239.88
0 -10 0 6.8 4.3
0 -10 0 15.7 4.4
0 10 0 -36.9 242.58
0 10 0 16.6 3.8
-1 -10 0 5.4 3
-1 -10 0 16.2 4
-1 -10 0 7.9 3.5
-1 -10 0 9.8 4
1 10 0 8.1 3.6
1 10 0 93.09 205.48
-2 -10 0 1.2 3.4
-2 -10 0 0.9 3.5
-2 -10 0 -4.3 3.1
-2 -10 0 -6 3
2 10 0 4.1 3.4
2 10 0 -127.09 191.58
3 10 0 243.28 224.88
4 10 0 284.87 249.18
5 10 0 253.27 262.57
-6 -10 0 6.2 4.5
-6 -10 0 0.4 3.6
-6 -10 0 -1.6 3.2
-6 -10 0 -2.2 3.5
6 10 0 -117.39 232.98
6 10 0 -7.3 3.7
6 10 0 -1.6 4.4
-7 -10 0 11.3 4.4
-7 -10 0 5.9 3.9
-7 -10 0 6 5.7
-7 -10 0 9.6 4.5
7 10 0 4.6 4.9
7 10 0 3.5 5
2 11 0 347.57 280.57
-3 -11 0 10.7 4.5
-3 -11 0 -2.6 3.9
-3 -11 0 -0.6 3.9
-3 -11 0 1.2 3.7
3 11 0 100.29 238.28
3 11 0 -0.6 4.1
-4 -11 0 12.3 4.4
-4 -11 0 4.3 4.5
-4 -11 0 12.3 4.5
-4 -11 0 13.2 5.8
4 11 0 122.49 291.87
4 11 0 14.8 5
5 11 0 259.77 302.57
5 11 -1 -1.7 5
5 11 -1 -79.19 295.57
-5 -11 1 -0.3 4.1
-5 -11 1 -2.2 5.9
4 11 -1 133.49 277.57
3 11 -1 1.5 4.4
3 11 -1 15.7 260.77
-3 -11 1 7 3.7
-3 -11 1 0.1 4.1
-3 -11 1 1.1 4.9
-3 -11 1 3 3.9
2 11 -1 0.5 4.1
2 11 -1 35.1 255.77
-2 -11 1 3.2 4.5
-2 -11 1 -1.9 4.3
7 10 -1 -323.87 225.78
7 10 -1 -1.7 4.3
7 10 -1 -3.4 4.6
-7 -10 1 -3.8 4.5
-7 -10 1 2.7 5.3
-7 -10 1 4.1 4.3
6 10 -1 -163.18 204.68
6 10 -1 8.4 4
6 10 -1 15.7 4.8
-6 -10 1 16.2 4.4
-6 -10 1 3.5 3.9
-6 -10 1 10.2 5.1
-6 -10 1 17.6 3.8
5 10 -1 14.8 4.3
5 10 -1 -1.1 3.2
5 10 -1 -21.7 234.08
-5 -10 1 -5.4 3.7
-5 -10 1 -1.4 3
-5 -10 1 -0.7 4
-5 -10 1 -6.6 3.4
-5 -10 1 1 5
4 10 -1 -55.69 237.28
4 10 -1 15.3 4.1
4 10 -1 8.5 2.9
-4 -10 1 6.5 3.8
-4 -10 1 7.1 3.4
-4 -10 1 6.7 3.3
-4 -10 1 2.9 5.1
3 10 -1 10.2 3.8
3 10 -1 -331.17 192.38
-3 -10 1 -4 4.2
-3 -10 1 1.3 3.2
-3 -10 1 4.5 3.3
-3 -10 1 1.8 3.4
2 10 -1 46.9 5.6
2 10 -1 209.28 224.78
-2 -10 1 34.3 4.7
-2 -10 1 33.4 4.6
-2 -10 1 23 4.5
-2 -10 1 22.5 4.8
1 10 -1 2.4 3.5
1 10 -1 -46.4 194.68
-1 -10 1 2.7 3.8
-1 -10 1 1.5 3.9
-1 -10 1 0.6 3.1
-1 -10 1 -1.8 3.3
0 10 -1 174.48 268.37
8 9 -1 7.6 5
8 9 -1 -6.2 4.7
-8 -9 1 -7.9 5
-8 -9 1 -5.6 4.3
7 9 -1 13 4.8
7 9 -1 24.8 4.9
-7 -9 1 12.5 4.2
-7 -9 1 19.7 3.9
-7 -9 1 16.1 5.3
-7 -9 1 26 5.2
6 9 -1 24.8 4.9
6 9 -1 51.79 6.3
-6 -9 1 14.5 5
-6 -9 1 23.3 4.4
-6 -9 1 26.1 4.5
-6 -9 1 23.4 4
5 9 -1 167.98 242.48
4 9 -1 9.9 2.9
4 9 -1 14.8 4
4 9 -1 173.48 221.48
-4 -9 1 8.1 3
-4 -9 1 12 4.8
-4 -9 1 10.9 3.5
-4 -9 1 16.6 4.3
-4 -9 1 9.8 3.4
3 9 -1 2.9 3.2
3 9 -1 -38.2 190.78
-3 -9 1 0.4 2.6
-3 -9 1 -9.4 3.4
-3 -9 1 2.4 2.4
-3 -9 1 -2.4 2.5
-3 -9 1 -2.7 2.9
2 9 -1 -0.9 2.7
2 9 -1 9.1 3.1
2 9 -1 50.19 192.08
-2 -9 1 -3.4 3.2
-2 -9 1 0.9 2.8
-2 -9 1 6.5 2.6
-2 -9 1 1.9 3.1
1 9 -1 216.28 218.68
0 9 -1 1.4 2.8
0 9 -1 -3.3 3.3
0 9 -1 -86.99 166.88
0 -9 1 3 2.6
0 -9 1 2.4 3.2
0 -9 1 4 3.3
0 -9 1 0.1 2.7
-1 9 -1 33.9 5
-1 9 -1 -20.1 198.18
-1 9 -1 30 4
1 -9 1 24.1 3.9
1 -9 1 28.2 4.1
1 -9 1 30 4.6
-2 9 -1 0.8 4.8
-2 9 -1 -214.28 232.18
2 -9 1 -2.1 3.6
2 -9 1 1.1 3
-9 -8 1 -2.5 5.4
8 8 -1 9.2 4.5
8 8 -1 -3.8 3.8
-8 -8 1 1.6 3.8
-8 -8 1 0.3 4.3
7 8 -1 3.2 3.9
7 8 -1 7.1 3.6
-7 -8 1 2.5 3.2
-7 -8 1 0.9 2.6
-7 -8 1 1 3.3
-7 -8 1 -0.4 3.3
6 8 -1 3.3 3.1
6 8 -1 5.6 3.5
-6 -8 1 0.5 2.5
-6 -8 1 0.4 3.1
-6 -8 1 -0.8 2.9
-6 -8 1 1.7 3.4
-6 -8 1 -2.7 4
5 8 -1 186.68 10.5
5 8 -1 197.38 11
-5 -8 1 185.48 12.7
-5 -8 1 186.88 9.7
-5 -8 1 183.48 10.3
-5 -8 1 194.88 10.1
4 8 -1 0.6 2.1
4 8 -1 -159.28 176.98
4 8 -1 -2.2 2.6
-4 -8 1 -1 2.5
-4 -8 1 -2.3 2.6
-4 -8 1 1.2 2
-4 -8 1 -1 2.4
-4 -8 1 -3.5 3.4
3 8 -1 48.2 4.9
3 8 -1 43.1 4.2
3 8 -1 297.97 193.98
-3 -8 1 31.9 4.4
-3 -8 1 46.1 5.7
-3 -8 1 49.9 4.8
-3 -8 1 50.59 5
-3 -8 1 46.5 4.8
2 8 -1 33.9 4
2 8 -1 90.39 185.38
2 8 -1 30.8 3.4
-2 -8 1 29.8 3.6
-2 -8 1 32.8 3.6
-2 -8 1 20.3 3.4
-2 -8 1 31.3 4.6
-2 -8 1 18.8 3.5
1 8 -1 194.78 209.18
0 8 -1 42.7 4.5
0 8 -1 47.3 4.3
0 8 -1 -33.5 163.28
0 -8 1 39.5 4.6
0 -8 1 34.3 4.6
0 -8 1 39.9 4.1
0 -8 1 40.3 3.8
-1 8 -1 3.9 2.7
-1 8 -1 5.7 3.3
-1 8 -1 -200.28 170.98
1 -8 1 5.1 2.7
1 -8 1 2.4 2.5
1 -8 1 10.1 3.3
-2 8 -1 12.5 4.3
-2 8 -1 -77.59 206.88
2 -8 1 14.5 3.9
2 -8 1 11.6 3.2
-3 8 -1 -43.4 229.68
9 7 -1 21.1 4.2
9 7 -1 12.7 5
9 7 -1 19.2 5.7
-9 -7 1 15.8 4.2
-9 -7 1 23 5.2
8 7 -1 0.1 3.9
8 7 -1 -1 3.3
8 7 -1 -1 3.8
-8 -7 1 3.8 3.5
-8 -7 1 -2.8 4
7 7 -1 21.3 4.6
7 7 -1 25.2 4.6
7 7 -1 41.2 5
-7 -7 1 32.2 5.6
-7 -7 1 34.6 4.7
-7 -7 1 36.6 4.9
-7 -7 1 34.1 3.4
6 7 -1 0.6 2.5
6 7 -1 1.5 2.6
6 7 -1 0 3
-6 -7 1 1.5 3.1
-6 -7 1 1.7 2.7
-6 -7 1 -1.1 3
-6 -7 1 6 2.5
-6 -7 1 -2.9 1.9
5 7 -1 -2.6 2.7
5 7 -1 0.6 2.5
5 7 -1 5 2.6
-5 -7 1 1.4 2.7
-5 -7 1 3.4 2.1
-5 -7 1 -0.8 2.8
-5 -7 1 0.7 2.2
-5 -7 1 3.3 2
4 7 -1 -0.2 2
4 7 -1 -1.4 2.5
4 7 -1 -0.5 2.2
-4 -7 1 -5.2 2.3
-4 -7 1 -0.5 2.3
-4 -7 1 3.4 1.8
-4 -7 1 -1.6 2.6
-4 -7 1 0.6 2.1
3 7 -1 88.29 5.4
3 7 -1 76.99 5.9
3 7 -1 269.67 177.68
3 7 -1 82.69 6.8
-3 -7 1 90.09 6.9
-3 -7 1 83.09 5.6
-3 -7 1 92.79 5.5
-3 -7 1 79.19 7.2
-3 -7 1 76.69 6.1
-3 -7 1 82.19 5.7
2 7 -1 25.6 2.8
2 7 -1 23.7 3.2
2 7 -1 22.5 2.6
2 7 -1 -59.69 137.89
2 7 -1 21.7 3.3
-2 -7 1 21.5 2.9
-2 -7 1 19.9 3.1
-2 -7 1 26.5 3.8
-2 -7 1 24.6 3.1
-2 -7 1 18.8 3.5
-2 -7 1 19.4 2.8
1 7 -1 221.18 166.68
0 7 -1 111.69 6.5
0 7 -1 112.29 6.3
0 7 -1 134.09 183.98
0 -7 1 105.59 6.2
0 -7 1 85.59 7.1
0 -7 1 119.29 6
0 -7 1 100.39 6.7
0 -7 1 111.39 7.2
-1 7 -1 88.19 180.28
-1 7 -1 176.38 9.9
-1 7 -1 196.18 9
1 -7 1 174.98 10.2
1 -7 1 199.18 9.8
1 -7 1 182.78 9.3
1 -7 1 176.58 10.2
-2 7 -1 170.18 186.18
-3 7 -1 5.7 3.6
-3 7 -1 -91.39 192.18
3 -7 1 7.2 2.8
3 -7 1 4.8 2.7
-4 7 -1 -21.1 241.48
-4 7 -1 0.8 4.2
4 -7 1 0.3 3
4 -7 1 -4 2.9
9 6 -1 10.1 5
9 6 -1 4.1 4.3
-9 -6 1 10.9 3.7
-9 -6 1 11.6 4.4
8 6 -1 24.5 4.3
8 6 -1 27.2 5
8 6 -1 19.3 4.9
-8 -6 1 21.8 4
-8 -6 1 26.8 5.4
-8 -6 1 25.6 4.3
7 6 -1 5.7 3.1
7 6 -1 3.5 3.3
7 6 -1 1.6 2.7
-7 -6 1 -2 1.9
-7 -6 1 2.2 2.6
-7 -6 1 -2.5 3
6 6 -1 45.6 4.9
6 6 -1 38.4 4.4
6 6 -1 33.8 4.6
-6 -6 1 49.2 5
-6 -6 1 38 5
-6 -6 1 41.8 4.1
-6 -6 1 41.3 3.9
-6 -6 1 47.1 5.4
5 6 -1 85.29 7.1
5 6 -1 106.19 6.6
5 6 -1 101.79 6.5
-5 -6 1 95.49 6.7
-5 -6 1 83.59 7
-5 -6 1 96.29 6.1
-5 -6 1 91.69 5.4
-5 -6 1 90.39 6
4 6 -1 1 1.8
4 6 -1 0.9 2
4 6 -1 2.8 1.8
-4 -6 1 1.1 2
-4 -6 1 0.7 1.7
-4 -6 1 -2.2 1.6
-4 -6 1 1.3 2
-4 -6 1 1.6 1.3
3 6 -1 36.2 3.4
3 6 -1 153.38 156.88
3 6 -1 38.2 3.8
3 6 -1 31.7 3.9
-3 -6 1 35 3.3
-3 -6 1 34.7 4.2
-3 -6 1 30.2 4.1
-3 -6 1 40.1 3.9
-3 -6 1 35.5 3.2
-3 -6 1 33.5 3.4
2 6 -1 67.59 4.6
2 6 -1 57.69 3.8
2 6 -1 141.29 129.19
2 6 -1 48.6 4.5
-2 -6 1 63.09 4.1
-2 -6 1 65.69 4.2
-2 -6 1 62.29 4.3
-2 -6 1 64.19 4.9
-2 -6 1 61.89 5.2
-2 -6 1 63.29 4.5
1 6 -1 428.16 158.88
0 6 -1 69.09 4.1
0 6 -1 55.99 4.4
0 6 -1 59.29 4.3
0 6 -1 15 124.09
0 6 -1 64.79 4.3
0 -6 1 65.49 4.3
0 -6 1 62.19 4.4
0 -6 1 59.29 4
0 -6 1 72.29 4.8
0 -6 1 62.49 4.9
0 -6 1 70.09 4
0 -6 1 65.99 4.3
-1 6 -1 -16.4 151.88
-1 6 -1 141.19 7.5
-1 6 -1 162.08 7.6
-1 6 -1 167.48 8.4
1 -6 1 155.18 7.9
1 -6 1 161.78 8.1
1 -6 1 148.89 8.5
1 -6 1 152.18 8.7
-2 6 -1 57.89 5.1
-2 6 -1 -2.3 182.38
2 -6 1 45.8 4.3
2 -6 1 35 3.8
-3 6 -1 38.3 4.5
-3 6 -1 16.7 177.28
3 -6 1 31.8 3.3
3 -6 1 36.3 3.9
3 -6 1 38.5 4
-4 6 -1 -25.4 204.08
-4 6 -1 -3 3.1
4 -6 1 3.3 2.4
4 -6 1 1.1 2.4
4 -6 1 -2.9 2.5
4 -6 1 -1.6 2.3
-5 6 -1 103.29 280.47
5 -6 1 9.5 3.4
5 -6 1 13.6 3.2
5 -6 1 6.2 3.5
5 -6 1 14.9 3.8
9 5 -1 -1 3.9
9 5 -1 -5.8 4
-9 -5 1 3.4 4
-9 -5 1 1.9 3
8 5 -1 36.9 5.5
8 5 -1 26.1 4.8
-8 -5 1 40.3 4.9
-8 -5 1 39 4.5
-8 -5 1 54.29 6.4
7 5 -1 22 3.9
7 5 -1 23.7 3.7
7 5 -1 15.9 3.8
-7 -5 1 25.4 3.5
-7 -5 1 22.7 4
6 5 -1 5.9 2.6
6 5 -1 1.3 2
6 5 -1 4.7 2.6
-6 -5 1 4.5 2.5
-6 -5 1 3.2 2.5
-6 -5 1 2.6 2.2
-6 -5 1 2.9 1.6
-6 -5 1 6.8 2.2
5 5 -1 103.59 6.5
5 5 -1 94.59 7
5 5 -1 113.19 6.3
-5 -5 1 98.39 6.6
-5 -5 1 104.99 6
-5 -5 1 100.59 5.2
-5 -5 1 104.49 6.3
-5 -5 1 87.59 6.9
4 5 -1 90.99 5.4
4 5 -1 75.99 5.2
4 5 -1 81.79 5.8
-4 -5 1 77.59 5.7
-4 -5 1 78.89 5.4
-4 -5 1 73.79 4.3
-4 -5 1 79.69 4.8
-4 -5 1 77.69 5
3 5 -1 195.38 9.4
3 5 -1 219.08 9.8
3 5 -1 204.58 11
-3 -5 1 203.08 9.5
-3 -5 1 212.08 11.2
-3 -5 1 211.18 11
-3 -5 1 206.68 9.9
-3 -5 1 201.88 9.1
-3 -5 1 191.98 8.9
2 5 -1 79.29 4.4
2 5 -1 84.49 5.4
2 5 -1 -29.3 103.49
2 5 -1 87.59 4.9
-2 -5 1 84.19 5.7
-2 -5 1 83.89 5
-2 -5 1 77.99 4.5
-2 -5 1 77.79 4.6
-2 -5 1 79.89 4.5
-2 -5 1 81.99 5.4
1 5 -1 164.08 118.19
1 5 -1 138.59 7.2
1 5 -1 142.09 7.2
1 5 -1 158.98 6.9
1 5 -1 153.78 8.2
-1 -5 1 148.39 7
-1 -5 1 141.89 7.2
-1 -5 1 153.58 6.9
-1 -5 1 141.59 8.1
-1 -5 1 146.49 7
-1 -5 1 156.68 8.4
-1 -5 1 146.29 6.8
0 5 -1 -77.69 94.99
0 5 -1 63.29 3.9
0 5 -1 73.99 4
0 5 -1 66.89 3.9
0 5 -1 63.59 4.2
0 -5 1 68.79 3.9
0 -5 1 63.49 3.8
0 -5 1 69.49 3.9
0 -5 1 64.29 4
0 -5 1 65.29 3.7
0 -5 1 67.29 4.6
0 -5 1 58.99 4.3
-1 5 -1 85.39 5
-1 5 -1 90.79 5
-1 5 -1 102.89 5.6
-1 5 -1 130.09 123.39
1 -5 1 107.79 5.6
1 -5 1 91.79 5.8
1 -5 1 109.29 5.3
1 -5 1 91.89 5.6
-2 5 -1 306.57 142.59
-2 5 -1 228.08 10.6
2 -5 1 210.88 10
2 -5 1 215.88 9.2
2 -5 1 200.98 9.8
-3 5 -1 648.74 28.2
-3 5 -1 757.02 223.28
3 -5 1 642.94 25.7
3 -5 1 649.54 26.9
3 -5 1 683.43 26.7
-4 5 -1 -8 185.08
-4 5 -1 3.9 2.7
4 -5 1 2.8 2.2
4 -5 1 -1.6 2.1
4 -5 1 -3.4 2
4 -5 1 -1.3 2
-5 5 -1 31.8 220.28
5 -5 1 1.9 2.7
5 -5 1 1.3 2.8
5 -5 1 2.9 2.7
5 -5 1 2.4 3
-6 5 -1 -65.39 264.87
6 -5 1 10.6 3.6
6 -5 1 6 3.6
6 -5 1 4.7 2.8
6 -5 1 7.8 3.2
9 4 -1 44 5.7
9 4 -1 22.8 5
-9 -4 1 37.3 5.2
-9 -4 1 40.2 5.4
8 4 -1 91.29 7.6
8 4 -1 88.49 7.5
-8 -4 1 78.89 6.6
7 4 -1 60.39 5.1
7 4 -1 57.59 5.9
7 4 -1 57.09 5.6
-7 -4 1 69.59 6.4
-7 -4 1 56.79 5.4
-7 -4 1 68.89 5.1
6 4 -1 110.69 6.9
6 4 -1 113.99 7.5
6 4 -1 115.09 6.6
6 4 -1 103.99 7.3
-6 -4 1 104.19 6.3
-6 -4 1 119.19 7.7
-6 -4 1 110.89 7
5 4 -1 0.2 1.7
5 4 -1 2.3 1.6
5 4 -1 2.2 1.6
5 4 -1 -3.2 2.3
-5 -4 1 3.3 1.7
-5 -4 1 2.1 1.4
-5 -4 1 3.6 1.8
-5 -4 1 0.9 1.6
4 4 -1 17.1 2.4
4 4 -1 16.1 2.4
4 4 -1 18.5 2.7
4 4 -1 7.7 2.5
-4 -4 1 19.1 2.4
-4 -4 1 18.4 2.6
-4 -4 1 15.9 2.2
-4 -4 1 14.3 2.1
-4 -4 1 17.4 1.7
3 4 -1 321.77 13.3
3 4 -1 258.27 14.7
3 4 -1 312.37 12.9
3 4 -1 294.77 15.1
-3 -4 1 299.67 13.2
-3 -4 1 296.97 12.3
-3 -4 1 305.57 15
-3 -4 1 299.67 12.9
-3 -4 1 327.57 15
-3 -4 1 295.87 12.2
2 4 -1 48.9 3.7
2 4 -1 57.69 3.5
2 4 -1 56.89 3.5
-2 -4 1 55.39 3.5
-2 -4 1 47.1 3.1
-2 -4 1 56.89 3.4
-2 -4 1 54.59 4
-2 -4 1 52.49 3.9
-2 -4 1 52.29 3.4
-2 -4 1 44.9 3.1
1 4 -1 205.18 107.39
1 4 -1 181.28 7.6
1 4 -1 173.28 8.1
1 4 -1 171.58 8.1
-1 -4 1 179.88 9.1
-1 -4 1 174.98 7.7
-1 -4 1 173.68 8.1
-1 -4 1 183.78 7.9
-1 -4 1 172.88 7.7
-1 -4 1 165.88 7.5
-1 -4 1 190.98 9.3
-1 -4 1 186.08 7.6
0 4 -1 97.59 88.69
0 4 -1 8.7 1.5
0 4 -1 4.4 1.2
0 4 -1 8.4 1.5
0 4 -1 9.7 1.4
0 -4 1 8.1 1.6
0 -4 1 10.3 1.4
0 -4 1 8 1.3
0 -4 1 8.6 1.5
0 -4 1 9.6 1.5
0 -4 1 7.7 1.4
0 -4 1 9 1.4
0 -4 1 5.3 1.3
-1 4 -1 -3.6 87.29
-1 4 -1 6.5 1.3
1 -4 1 6.1 1.4
1 -4 1 0 1.2
1 -4 1 -0.2 1.3
1 -4 1 5.7 1.2
-2 4 -1 13.6 2.1
-2 4 -1 18.3 100.69
2 -4 1 14.1 1.9
2 -4 1 15.8 2.2
2 -4 1 15.3 1.9
-3 4 -1 21.2 2.8
-3 4 -1 39.7 133.39
3 -4 1 9.1 2.1
3 -4 1 17.8 2.2
3 -4 1 11.7 2.3
-4 4 -1 188.88 152.58
-4 4 -1 129.49 7.8
4 -4 1 120.79 6.8
4 -4 1 112.79 6.6
4 -4 1 110.09 6.7
4 -4 1 118.29 6.5
-5 4 -1 61.79 192.98
-5 4 -1 64.09 5.5
5 -4 1 65.09 5.2
5 -4 1 59.89 5
5 -4 1 63.29 5.5
5 -4 1 70.59 5.6
-6 4 -1 261.97 234.08
-7 4 -1 219.78 291.87
9 3 -1 19 4.4
9 3 -1 36.3 5.2
-9 -3 1 34.6 5
-9 -3 1 29 4.8
8 3 -1 30.8 4.8
-8 -3 1 28.1 4.1
7 3 -1 20.7 3.4
7 3 -1 26.6 3.3
7 3 -1 21.8 3.8
-7 -3 1 29.7 4.2
-7 -3 1 24.6 3
-7 -3 1 27.4 3.8
6 3 -1 14.2 2.6
6 3 -1 12.4 2.5
6 3 -1 9.4 2.1
6 3 -1 13.4 2.9
-6 -3 1 15.9 2.8
-6 -3 1 12.3 2.2
-6 -3 1 11.8 2.6
-6 -3 1 9 2.4
5 3 -1 31.4 3.3
5 3 -1 34.7 3.3
5 3 -1 33.3 3.5
5 3 -1 30 2.9
-5 -3 1 32.1 3
-5 -3 1 27.8 3.3
-5 -3 1 35.2 3.4
4 3 -1 600.04 24.8
4 3 -1 628.04 28.7
4 3 -1 638.14 25.4
4 3 -1 616.44 28.9
-4 -3 1 611.24 23.7
-4 -3 1 625.64 25.4
-4 -3 1 626.54 28.7
-4 -3 1 613.74 25.6
3 3 -1 281.37 10.9
3 3 -1 280.27 13.3
3 3 -1 267.67 11.6
3 3 -1 282.97 13.5
3 3 -1 272.47 11.9
-3 -3 1 265.57 10.9
-3 -3 1 267.17 11.7
-3 -3 1 272.57 11.1
-3 -3 1 264.27 11.9
-3 -3 1 256.47 13.3
-3 -3 1 297.47 13.6
2 3 -1 622.14 24.7
2 3 -1 637.94 26
2 3 -1 665.53 25.9
2 3 -1 639.04 25.2
2 3 -1 672.03 29.2
2 3 -1 640.14 29.4
-2 -3 1 590.64 24.1
-2 -3 1 651.93 29.3
-2 -3 1 650.43 25
-2 -3 1 633.74 26
-2 -3 1 710.43 29.5
-2 -3 1 632.64 24.2
-2 -3 1 608.74 24.7
-2 -3 1 657.83 25.6
1 3 -1 102.29 4.5
1 3 -1 108.89 4.7
1 3 -1 92.59 4.8
1 3 -1 108.09 4.6
1 3 -1 90.99 4.8
1 3 -1 91.49 5.3
-1 -3 1 98.49 5.5
-1 -3 1 99.69 4.5
-1 -3 1 87.29 5.3
-1 -3 1 102.09 4.6
-1 -3 1 91.39 4.5
-1 -3 1 107.09 4.5
-1 -3 1 94.39 4.8
-1 -3 1 101.19 4.5
0 3 -1 16.5 1.9
0 3 -1 17.9 1.9
0 3 -1 23.5 1.7
0 3 -1 24.1 1.7
0 3 -1 17 1.7
0 -3 1 20.5 2
0 -3 1 22.5 1.7
0 -3 1 19.2 1.7
0 -3 1 23.7 1.8
0 -3 1 21.9 1.8
0 -3 1 18.8 1.9
0 -3 1 18.1 1.7
0 -3 1 21.6 1.5
0 -3 1 20.5 2
-1 3 -1 429.56 17.6
-1 3 -1 423.66 109.49
-1 3 -1 436.66 18.3
1 -3 1 458.75 18.3
1 -3 1 455.75 20
1 -3 1 431.46 17.5
1 -3 1 449.36 16.8
1 -3 1 415.86 19.9
1 -3 1 454.45 17.8
-2 3 -1 -146.99 75.49
2 -3 1 7 1.6
-3 3 -1 312.37 124.19
-3 3 -1 283.87 12.3
-3 3 -1 295.27 13.3
3 -3 1 292.07 12.4
3 -3 1 298.97 12.1
3 -3 1 286.27 12.1
3 -3 1 291.47 12.6
-4 3 -1 26.4 3.5
-4 3 -1 29.4 3.2
-4 3 -1 4.1 146.09
4 -3 1 22.3 2.8
4 -3 1 33 3.1
4 -3 1 21.8 3
4 -3 1 29.4 3.1
-5 3 -1 -163.38 167.48
-6 3 -1 -127.09 203.28
-7 3 -1 298.47 264.77
9 2 -1 0.2 3.2
9 2 -1 4.9 3.8
-9 -2 1 5.2 3.4
-9 -2 1 9 3.9
8 2 -1 3.6 2.8
8 2 -1 14.3 3.7
-8 -2 1 10.9 3.4
-8 -2 1 5.9 3.1
7 2 -1 5.4 2.3
7 2 -1 6.3 2.9
-7 -2 1 6 2.5
-7 -2 1 7 2.8
6 2 -1 10.2 2.4
6 2 -1 12.9 2.2
6 2 -1 11.5 2.4
6 2 -1 13.9 2.7
-6 -2 1 14.1 2.6
-6 -2 1 13.4 2.4
-6 -2 1 8.9 1.9
-6 -2 1 11.1 2.2
5 2 -1 80.19 4.6
5 2 -1 79.09 5.2
5 2 -1 81.69 5.5
5 2 -1 84.49 5
-5 -2 1 87.69 5.4
-5 -2 1 79.19 4.5
-5 -2 1 79.49 5
-5 -2 1 85.29 5.1
4 2 -1 105.19 5.3
4 2 -1 106.19 6.1
4 2 -1 112.49 5.5
4 2 -1 110.79 6
-4 -2 1 97.39 5.4
-4 -2 1 104.99 5
-4 -2 1 103.19 5.5
-4 -2 1 93.69 5.8
3 2 -1 40.3 2.7
3 2 -1 43.4 3.2
3 2 -1 39 2.9
3 2 -1 41.2 2.8
-3 -2 1 31.8 2.5
-3 -2 1 34.8 2.7
-3 -2 1 40.4 3
-3 -2 1 37.6 2.9
-3 -2 1 36.8 2.5
2 2 -1 332.97 12.7
2 2 -1 339.27 15.3
2 2 -1 342.77 13.6
2 2 -1 341.47 13.4
2 2 -1 348.27 13.7
2 2 -1 299.87 15.4
2 2 -1 319.87 13.1
-2 -2 1 335.77 13.5
-2 -2 1 307.77 12.7
-2 -2 1 339.17 13.1
-2 -2 1 342.07 12.7
-2 -2 1 304.87 15.3
-2 -2 1 362.56 15.5
-2 -2 1 329.47 13.6
-2 -2 1 306.47 12.6
-2 -2 1 311.57 13.5
1 2 -1 8.2 1
1 2 -1 10.9 1.1
1 2 -1 10.3 1.3
1 2 -1 7.6 1.1
1 2 -1 9.8 1.2
1 2 -1 12.6 1.5
1 2 -1 8.9 1.1
1 2 -1 9.6 1.1
-1 -2 1 12.1 1.2
-1 -2 1 10.2 1
-1 -2 1 10.4 1.4
-1 -2 1 8.7 1.1
-1 -2 1 10.7 1
-1 -2 1 9.5 1.3
-1 -2 1 10.3 1.2
-1 -2 1 9.8 1.2
0 2 -1 242.98 9.9
0 2 -1 246.48 11.2
0 2 -1 235.28 9.9
0 2 -1 236.58 11
0 2 -1 246.28 9.8
0 2 -1 239.98 9.9
0 -2 1 256.57 11.3
0 -2 1 240.28 9.8
0 -2 1 238.88 9.9
0 -2 1 233.58 9.9
0 -2 1 241.48 9.7
0 -2 1 241.98 9.2
0 -2 1 251.57 9.2
0 -2 1 243.08 11.1
-1 2 -1 2270.37 95.89
1 -2 1 2543.65 89.99
1 -2 1 2404.46 88.89
1 -2 1 2484.85 95.89
1 -2 1 2431.96 93.39
-2 2 -1 9.4 1.4
-2 2 -1 9.5 1.5
-2 2 -1 27.6 79.69
2 -2 1 7.8 1.2
2 -2 1 9.7 1.4
-3 2 -1 287.87 110.49
-3 2 -1 274.67 11.3
-3 2 -1 271.87 12.2
3 -2 1 264.17 11.2
3 -2 1 264.87 11.2
-4 2 -1 87.99 5.1
-4 2 -1 8.1 119.69
4 -2 1 87.49 5
4 -2 1 89.79 5.1
-5 2 -1 -273.57 132.29
-6 2 -1 15.6 3
-6 2 -1 29.5 178.78
6 -2 1 18.3 3.1
6 -2 1 23.7 3.5
-7 2 -1 135.99 232.48
-8 2 -1 -31.6 270.07
8 -2 1 22 4.8
9 1 -1 15.7 4.7
9 1 -1 9 3.2
-9 -1 1 18.8 4.6
-9 -1 1 12.9 4.3
8 1 -1 52.09 5.5
8 1 -1 48 5.3
-8 -1 1 45 5.2
-8 -1 1 58.19 5.4
7 1 -1 11.8 2.8
7 1 -1 8.3 2.5
-7 -1 1 12.7 2.9
-7 -1 1 17.4 3.1
6 1 -1 0 1.7
6 1 -1 0.4 1.3
6 1 -1 1.7 1.7
6 1 -1 0.1 1.5
-6 -1 1 0.5 1.7
-6 -1 1 3.1 1.8
5 1 -1 34.2 2.8
5 1 -1 34.6 3.5
5 1 -1 40.2 3.4
5 1 -1 52.39 3.8
-5 -1 1 28.1 2.7
-5 -1 1 28.8 2.9
-5 -1 1 34.8 3.3
-5 -1 1 37 3.3
-5 -1 1 32.4 3.2
4 1 -1 0.2 1.1
4 1 -1 0.6 0.9
4 1 -1 0.5 1
4 1 -1 -0.6 0.9
-4 -1 1 -0.2 0.9
-4 -1 1 0.7 1.1
-4 -1 1 2 1.1
-4 -1 1 -0.9 1
-4 -1 1 0.3 0.9
3 1 -1 90.49 4.8
3 1 -1 87.89 4.3
3 1 -1 91.79 5
3 1 -1 84.29 4.4
-3 -1 1 92.99 4.9
-3 -1 1 84.49 4.3
-3 -1 1 91.59 4.1
-3 -1 1 86.89 4.5
2 1 -1 1189.08 50.89
2 1 -1 1237.88 45.7
2 1 -1 1176.38 45
2 1 -1 1174.88 44.6
2 1 -1 1088.19 41.9
2 1 -1 1152.48 43.8
2 1 -1 1120.09 44.9
2 1 -1 1166.18 50.99
-2 -1 1 1025.7 41.9
-2 -1 1 1148.49 44.9
-2 -1 1 1177.88 50.89
-2 -1 1 1099.99 44.9
-2 -1 1 1141.79 44.6
-2 -1 1 1179.88 43.7
-2 -1 1 1126.59 41.9
1 1 -1 953.9 36.7
1 1 -1 1047.9 37.8
1 1 -1 972.5 42.8
1 1 -1 928.51 35.3
1 1 -1 1006.3 37.8
1 1 -1 983.2 42.9
1 1 -1 972.6 37.4
-1 -1 1 931.91 37.8
-1 -1 1 974.2 42.8
-1 -1 1 924.81 36.6
-1 -1 1 973 37.8
-1 -1 1 982.6 35.3
-1 -1 1 907.51 36.2
-1 -1 1 1003 42.8
-1 -1 1 920.01 37.4
0 1 -1 207.98 8.7
0 1 -1 214.58 8.8
0 1 -1 211.28 8.2
0 1 -1 219.28 9.8
0 1 -1 220.28 8.7
0 1 -1 225.98 8.2
0 -1 1 222.48 9.9
0 -1 1 213.38 8.8
0 -1 1 225.48 8.2
0 -1 1 211.48 9.9
0 -1 1 209.38 8.2
0 -1 1 225.18 8.7
0 -1 1 223.38 8.7
-1 1 -1 236.78 8.8
-1 1 -1 216.98 9.5
-1 1 -1 226.88 9
1 -1 1 237.18 9.6
1 -1 1 226.78 9.3
1 -1 1 221.48 8.9
1 -1 1 239.08 9
-2 1 -1 282.87 12.2
-2 1 -1 296.37 11.5
2 -1 1 277.97 11.4
2 -1 1 299.77 12.2
2 -1 1 277.27 11.4
2 -1 1 286.87 11.3
-3 1 -1 305.67 12
-3 1 -1 247.68 110.59
3 -1 1 276.87 11.9
-4 1 -1 13.2 117.29
-5 1 -1 6.2 126.59
-5 1 -1 57.49 4.4
5 -1 1 67.29 4.5
-6 1 -1 280.17 13.4
-6 1 -1 253.37 194.08
6 -1 1 300.47 13.5
6 -1 1 308.27 13.7
-7 1 -1 13.9 3.1
-7 1 -1 -91.89 156.88
7 -1 1 11.7 3.1
7 -1 1 13.5 3.1
-8 1 -1 66.09 271.57
9 0 -1 6.5 4.4
9 0 -1 0 3
-9 0 1 8.2 3.5
8 0 -1 2.8 2.5
8 0 -1 9.2 3.5
-8 0 1 7.8 3.3
-8 0 1 4.5 3.1
7 0 -1 27.8 3.3
7 0 -1 26.7 4.2
-7 0 1 27.3 3.9
-7 0 1 42.7 4.1
6 0 -1 30.1 3.6
6 0 -1 28.5 3.3
6 0 -1 25.9 3.2
-6 0 1 34.1 3.2
-6 0 1 30.6 3.8
5 0 -1 179.38 7.9
5 0 -1 182.18 8.8
5 0 -1 188.48 9.3
5 0 -1 180.38 9.4
-5 0 1 249.78 173.88
-5 0 1 194.48 8.5
-5 0 1 181.38 8.8
-5 0 1 174.88 8.1
4 0 -1 133.59 6.1
4 0 -1 142.59 7.3
4 0 -1 143.49 7.2
4 0 -1 129.59 6.7
-4 0 1 136.89 6.7
-4 0 1 131.89 6.3
-4 0 1 140.69 6.5
-4 0 1 155.38 7.1
-4 0 1 390.16 133.39
3 0 -1 120.49 5.4
3 0 -1 116.59 5.2
3 0 -1 118.49 5.6
3 0 -1 118.39 6
-3 0 1 117.69 5.5
-3 0 1 117.39 5.3
-3 0 1 133.29 6
-3 0 1 115.89 6
-3 0 1 108.39 5.5
2 0 -1 500.95 22
2 0 -1 463.25 19.3
2 0 -1 485.05 21.9
2 0 -1 538.85 19.4
2 0 -1 497.15 19.4
2 0 -1 458.95 19.1
2 0 -1 475.15 18.1
2 0 -1 510.85 20.1
-2 0 1 491.05 20.1
-2 0 1 551.74 22
-2 0 1 478.85 18.8
-2 0 1 480.95 21.9
-2 0 1 472.45 19.4
-2 0 1 463.15 18.1
-2 0 1 480.45 19.4
1 0 -1 3766.22 145.19
1 0 -1 3609.74 136.79
1 0 -1 3744.23 146.49
1 0 -1 3863.61 166.18
1 0 -1 3856.91 166.18
1 0 -1 4066.19 146.49
1 0 -1 3913.01 149.09
-1 0 1 3898.61 166.18
-1 0 1 3784.92 136.79
-1 0 1 3634.24 146.49
-1 0 1 3845.52 166.18
-1 0 1 3842.02 149.09
-1 0 1 3755.12 146.49
-1 0 1 3498.75 145.19
0 0 -1 1445.06 50.49
0 0 -1 1372.26 53.49
0 0 -1 1434.56 49.99
0 0 -1 1472.25 53.49
0 0 -1 1328.67 52.89
0 0 -1 1378.16 60.69
0 0 1 1315.67 52.89
0 0 1 1413.86 53.49
0 0 1 1306.27 60.69
0 0 1 1377.66 50.49
0 0 1 1402.16 49.99
0 0 1 1307.27 53.49
0 0 1 1405.26 51.59
-1 0 -1 7.7 1
1 0 1 4.3 1
1 0 1 8.2 1
-2 0 -1 1048.4 43.4
-2 0 -1 1108.59 49.2
-2 0 -1 1226.88 49.2
-2 0 -1 1114.19 43.5
-2 0 -1 1152.38 42.5
-2 0 -1 1102.49 41.8
2 0 1 1166.98 49.3
2 0 1 1094.29 41.7
2 0 1 1096.99 42.5
2 0 1 1053.59 43.4
2 0 1 1057.29 49.3
2 0 1 1172.38 43.4
-3 0 -1 8.5 1.2
-3 0 -1 8.9 1.7
3 0 1 9.4 1.4
3 0 1 9.6 1.4
3 0 1 7.6 1.3
-4 0 -1 211.78 8.7
-4 0 -1 191.98 8.8
-4 0 -1 185.48 8.5
-4 0 -1 120.59 112.99
4 0 1 216.28 9.7
4 0 1 195.88 9.7
4 0 1 196.88 8.9
-5 0 -1 0.5 1.3
-5 0 -1 -47.4 123.09
-5 0 -1 0.2 1.3
-5 0 -1 0.5 1
5 0 1 -0.4 1
5 0 1 -0.3 1.2
5 0 1 0.1 1.4
-6 0 -1 97.89 6.1
-6 0 -1 106.49 5.7
-6 0 -1 115.29 165.38
6 0 1 98.99 6
6 0 1 101.39 6.2
6 0 1 90.29 5.9
-7 0 -1 169.58 214.88
-8 0 -1 26.5 4.3
8 0 1 24.4 4
8 0 1 34.9 4.8
8 0 1 24.2 3.5
-9 0 -1 1.1 3.4
9 0 1 5.3 2.7
9 0 1 9 3.7
9 0 1 10.6 4.1
8 -1 -1 -2.3 3.2
-8 1 1 -2.2 3
-7 1 1 173.18 242.98
6 -1 -1 24.3 3.4
6 -1 -1 14.2 2.4
6 -1 -1 21.6 2.5
-6 1 1 25.6 187.18
-6 1 1 24.7 3.4
5 -1 -1 1 1.2
5 -1 -1 2.8 1.8
5 -1 -1 4.6 1.3
-5 1 1 1.8 1.7
-5 1 1 -3.2 149.59
4 -1 -1 902.71 34.9
4 -1 -1 919.81 39.6
-4 1 1 866.51 36.7
-4 1 1 854.51 34.2
3 -1 -1 1 1.2
3 -1 -1 1.8 0.8
3 -1 -1 2.1 0.8
-3 1 1 -0.3 1
-3 1 1 -0.2 1
2 -1 -1 167.78 7.4
2 -1 -1 166.28 7.4
2 -1 -1 156.08 6.7
2 -1 -1 159.18 6.4
-2 1 1 150.98 7.3
-2 1 1 146.19 6.7
1 -1 -1 3 0.7
1 -1 -1 4.1 0.7
1 -1 -1 4.4 0.9
1 -1 -1 4.9 0.7
-1 1 1 4 0.7
-1 1 1 4.1 0.8
-1 1 1 2.6 0.8
0 -1 -1 4297.67 185.08
0 -1 -1 4410.96 163.08
0 -1 -1 4213.88 157.58
0 -1 -1 4463.25 153.88
0 -1 -1 3966.3 152.28
0 -1 -1 4199.58 185.08
0 -1 -1 4104.89 163.08
0 1 1 4335.87 157.58
0 1 1 4166.78 163.08
0 1 1 4280.77 163.08
0 1 1 4179.08 185.08
0 1 1 4096.39 152.28
0 1 1 4157.48 153.88
-1 -1 -1 3236.18 124.49
-1 -1 -1 3264.17 146.29
-1 -1 -1 3478.95 128.99
-1 -1 -1 3542.25 121.69
-1 -1 -1 3286.37 120.39
-1 -1 -1 3284.57 125.59
-1 -1 -1 3395.76 146.29
-1 -1 -1 3546.15 128.99
1 1 1 3182.68 125.69
1 1 1 3406.66 128.99
1 1 1 3392.46 124.59
1 1 1 3221.18 120.39
1 1 1 3086.89 146.29
1 1 1 3136.89 127.79
1 1 1 3361.36 121.69
1 1 1 3502.55 146.29
-2 -1 -1 5198.48 202.28
-2 -1 -1 5334.37 199.78
-2 -1 -1 5259.47 209.48
-2 -1 -1 5767.42 237.78
-2 -1 -1 4904.01 195.58
-2 -1 -1 5728.63 204.18
-2 -1 -1 5663.03 209.58
2 1 1 5463.45 209.48
2 1 1 5127.79 195.58
2 1 1 5260.97 237.68
2 1 1 5324.07 204.18
2 1 1 5463.75 202.28
2 1 1 5660.13 209.58
2 1 1 5705.53 237.78
-3 -1 -1 478.65 19
-3 -1 -1 482.35 21.4
-3 -1 -1 458.65 17.6
-3 -1 -1 447.46 18.2
-3 -1 -1 450.45 18.8
3 1 1 480.25 18.2
3 1 1 448.16 18.8
3 1 1 490.05 17.7
3 1 1 517.35 21.5
3 1 1 470.35 21.5
3 1 1 485.35 19
3 1 1 436.46 18.6
-4 -1 -1 91.39 4.3
-4 -1 -1 63.99 3.8
-4 -1 -1 100.49 114.29
-4 -1 -1 66.99 4
-4 -1 -1 70.09 4.5
-4 -1 -1 72.49 4.6
4 1 1 73.99 4.7
4 1 1 73.99 3.8
4 1 1 69.89 4
4 1 1 76.39 3.7
4 1 1 70.29 4.6
4 1 1 88.19 4.4
-5 -1 -1 1.8 1.3
-5 -1 -1 -0.1 0.9
-5 -1 -1 0.3 1
-5 -1 -1 0.5 1.4
-5 -1 -1 1.1 1.3
-5 -1 -1 -24.3 126.89
5 1 1 0.3 1
5 1 1 0.4 1.2
5 1 1 2 1.4
5 1 1 1 1.2
5 1 1 -0.4 1
-6 -1 -1 3.5 1.7
-6 -1 -1 -2.5 1.3
-6 -1 -1 -2.6 1.6
6 1 1 -0.5 1.3
6 1 1 -0.2 1.7
6 1 1 -0.1 1.1
6 1 1 -1.3 1.5
-7 -1 -1 7.7 2.6
-7 -1 -1 9 2.5
7 1 1 5.7 2.2
7 1 1 7.9 2.8
7 1 1 8.1 2.5
-8 -1 -1 -5.2 2.8
-8 -1 -1 1.3 2.3
8 1 1 1.4 3
8 1 1 4.6 2.6
8 1 1 0.9 2.3
-9 -1 -1 -4 3.8
-9 -1 -1 5 2.9
9 1 1 2.7 2.9
9 1 1 1.3 2.7
9 1 1 1 3.7
8 -2 -1 3.7 3.9
8 -2 -1 4.2 3.4
-8 2 1 0 3.4
-7 2 1 274.37 260.47
6 -2 -1 55.79 5.4
-6 2 1 58.29 5.3
-6 2 1 161.38 206.88
5 -2 -1 30.6 2.9
5 -2 -1 30.5 3.6
-5 2 1 170.38 172.98
-5 2 1 20.7 3.6
-5 2 1 24.4 3.3
4 -2 -1 263.67 11.7
4 -2 -1 269.77 11
-4 2 1 259.77 12.6
-4 2 1 266.37 11.6
-4 2 1 314.37 167.78
3 -2 -1 187.48 7.9
-3 2 1 184.78 8.2
-3 2 1 182.18 9
-3 2 1 276.87 113.39
2 -2 -1 213.98 8.6
-2 2 1 201.18 9.5
-2 2 1 208.98 8.7
1 -2 -1 135.59 5.5
1 -2 -1 125.99 5.5
1 -2 -1 135.29 6.1
1 -2 -1 135.19 5.4
1 -2 -1 130.29 5.9
1 -2 -1 126.19 6.1
-1 2 1 127.19 5.4
-1 2 1 122.19 5.5
-1 2 1 124.99 6
0 -2 -1 857.31 37.5
0 -2 -1 825.92 37.5
0 -2 -1 833.72 30.8
0 -2 -1 880.71 33.1
0 -2 -1 911.41 31.5
0 -2 -1 858.01 32.6
0 -2 -1 830.62 32.1
0 -2 -1 841.32 33.1
0 2 1 847.22 33.1
0 2 1 840.32 37.5
0 2 1 822.72 30.8
0 2 1 832.92 33.1
0 2 1 852.91 32.6
0 2 1 835.12 32
0 2 1 812.42 37.5
-1 -2 -1 131.99 5.5
-1 -2 -1 133.69 5.8
-1 -2 -1 123.59 6.5
-1 -2 -1 133.09 5.6
-1 -2 -1 134.89 6.6
-1 -2 -1 134.89 5.7
-1 -2 -1 133.99 5.9
1 2 1 136.99 5.5
1 2 1 130.99 5.6
1 2 1 132.79 5.7
1 2 1 129.99 5.3
1 2 1 134.09 5.8
1 2 1 135.39 6.6
1 2 1 133.79 5.8
1 2 1 134.09 6.6
-2 -2 -1 1.5 1
-2 -2 -1 5.1 0.9
-2 -2 -1 2.2 0.9
-2 -2 -1 2.1 1.1
-2 -2 -1 0.8 1
-2 -2 -1 4.5 0.9
-2 -2 -1 2.7 0.8
-2 -2 -1 1.1 0.8
2 2 1 3.6 0.7
2 2 1 2.2 0.9
2 2 1 3 0.7
2 2 1 2.7 0.8
2 2 1 2.6 0.9
2 2 1 3.2 1
2 2 1 2 1
2 2 1 3.4 0.7
2 2 1 4.5 1
-3 -2 -1 38.7 2.8
-3 -2 -1 36.4 3.1
-3 -2 -1 47.6 3.5
-3 -2 -1 43.6 3.2
-3 -2 -1 48.9 2.6
-3 -2 -1 43 2.9
3 2 1 46.5 2.7
3 2 1 47.8 3.4
3 2 1 52.89 2.5
3 2 1 43.2 2.9
3 2 1 47.7 3.1
-4 -2 -1 488.35 21
-4 -2 -1 483.05 19.9
-4 -2 -1 569.94 23.9
-4 -2 -1 517.65 21.3
-4 -2 -1 513.75 20.2
-4 -2 -1 520.55 19.7
4 2 1 494.05 23.9
4 2 1 519.95 19.9
4 2 1 511.35 19.6
4 2 1 513.55 21
-5 -2 -1 10.8 1.8
-5 -2 -1 12.3 1.8
-5 -2 -1 15.2 2.2
-5 -2 -1 14.1 2
-5 -2 -1 11.9 2
5 2 1 19.1 2.4
5 2 1 12.5 1.7
5 2 1 14.8 2.1
5 2 1 11.1 2.1
5 2 1 12.2 2.2
-6 -2 -1 19.8 3
-6 -2 -1 22.4 2.8
-6 -2 -1 21.5 2.9
-6 -2 -1 20.9 2.4
-6 -2 -1 14.4 2.4
6 2 1 21.6 2.5
6 2 1 25.5 3.2
6 2 1 26.4 3.1
6 2 1 23.9 2.7
6 2 1 19.3 2.9
-7 -2 -1 199.38 10
-7 -2 -1 215.58 10.2
7 2 1 171.08 10.8
7 2 1 189.08 10.2
-8 -2 -1 4.8 2.4
-8 -2 -1 2 2.9
8 2 1 1 2.7
8 2 1 4.2 2.5
8 2 1 4.5 2.3
-9 -2 -1 -9 3.4
-9 -2 -1 -4.9 2.6
9 2 1 -5.1 3.4
9 2 1 -1.3 2.9
9 2 1 5.6 2.9
-7 3 1 -246.98 231.38
6 -3 -1 82.49 6.8
6 -3 -1 80.79 5.2
-6 3 1 74.89 6.3
-6 3 1 332.37 264.37
5 -3 -1 90.19 6.6
5 -3 -1 100.19 5.5
-5 3 1 108.49 7.3
-5 3 1 97.69 6.4
-5 3 1 264.77 204.28
4 -3 -1 164.28 7.5
4 -3 -1 159.18 8.1
-4 3 1 311.07 177.68
-4 3 1 156.08 8
-4 3 1 164.48 8.9
-3 3 1 -280.27 100.69
2 -3 -1 478.65 18.9
2 -3 -1 480.25 18.6
-2 3 1 468.45 18.5
-2 3 1 47.6 111.39
-2 3 1 465.85 20.1
1 -3 -1 1.7 0.8
1 -3 -1 2.3 0.7
1 -3 -1 4.4 1
1 -3 -1 2.1 0.9
1 -3 -1 2.9 0.8
-1 3 1 3.7 1.1
0 -3 -1 32.3 2.5
0 -3 -1 31.7 2.3
0 -3 -1 37.3 2.2
0 -3 -1 36.4 2
0 -3 -1 34.8 1.9
0 -3 -1 32.1 2
0 -3 -1 30.9 2.4
0 3 1 31 2.3
0 3 1 29.8 1.8
0 3 1 33.1 2.1
0 3 1 30.5 2.1
0 3 1 31.5 1.9
0 3 1 28.5 2.2
-1 -3 -1 1950.01 74.19
-1 -3 -1 2003 76.79
-1 -3 -1 1954.6 76.79
-1 -3 -1 2065.39 87.19
-1 -3 -1 1927.21 75.89
-1 -3 -1 1991.2 71.69
-1 -3 -1 1901.71 87.09
-1 -3 -1 2000.9 74.89
1 3 1 1926.91 71.69
1 3 1 2008.5 75.89
1 3 1 2012.1 76.79
1 3 1 1929.71 86.99
1 3 1 2004.2 74.79
1 3 1 2020.2 76.79
1 3 1 1871.51 74.19
-2 -3 -1 343.67 13.4
-2 -3 -1 323.77 13.7
-2 -3 -1 303.47 15.4
-2 -3 -1 329.97 13.3
-2 -3 -1 320.67 12.7
-2 -3 -1 312.87 13.5
-2 -3 -1 345.57 15.5
-2 -3 -1 325.47 13
2 3 1 329.67 12.9
2 3 1 323.47 13.4
2 3 1 333.37 13.3
2 3 1 334.57 12.7
2 3 1 330.17 15.5
2 3 1 322.67 12.4
2 3 1 313.87 13.6
2 3 1 318.17 13.6
2 3 1 329.37 15.3
-3 -3 -1 136.49 7.3
-3 -3 -1 139.29 6.3
-3 -3 -1 119.19 6
-3 -3 -1 122.49 7.1
-3 -3 -1 121.49 6.5
-3 -3 -1 136.29 5.8
3 3 1 129.69 6.3
3 3 1 123.79 7.1
3 3 1 135.39 5.7
3 3 1 127.19 6.3
-4 -3 -1 358.76 14.3
-4 -3 -1 342.77 15.4
-4 -3 -1 361.66 17.2
-4 -3 -1 337.07 14.2
4 3 1 347.17 17.3
4 3 1 374.66 15.3
4 3 1 370.06 15.1
-5 -3 -1 92.49 4.7
-5 -3 -1 90.29 5
-5 -3 -1 101.09 5.7
-5 -3 -1 100.19 5.3
5 3 1 94.69 5.6
5 3 1 95.19 5.4
5 3 1 89.19 6.1
-6 -3 -1 89.59 6.5
-6 -3 -1 102.79 5.5
-6 -3 -1 105.69 5.9
-6 -3 -1 110.59 6.3
6 3 1 102.19 6.9
6 3 1 99.29 6.2
6 3 1 95.59 5.8
6 3 1 84.39 6.3
-7 -3 -1 24.2 3.6
-7 -3 -1 21.5 2.9
-7 -3 -1 29.9 3.6
7 3 1 31.2 3.8
7 3 1 18.3 3.7
7 3 1 22.2 3.2
-8 -3 -1 121.49 8
-8 -3 -1 110.99 7.6
8 3 1 106.69 7.2
8 3 1 113.19 7.9
8 3 1 105.09 8.1
-9 -3 -1 14.5 3.5
-9 -3 -1 10.9 4.1
9 3 1 10.6 3.8
9 3 1 14.7 4.1
9 3 1 14.7 3.5
7 -4 -1 4.8 3.4
7 -4 -1 4 3.9
-7 4 1 4.5 3.5
-7 4 1 -52.49 288.17
6 -4 -1 15.3 3.8
6 -4 -1 14.4 3
6 -4 -1 13.2 3.5
-6 4 1 14.9 3.6
-6 4 1 -85.59 239.38
5 -4 -1 37 4.1
5 -4 -1 30.1 3.3
5 -4 -1 29 3.3
-5 4 1 37.4 4.1
-5 4 1 23.3 4.1
-5 4 1 35.5 201.78
4 -4 -1 477.45 19
4 -4 -1 472.15 19.4
-4 4 1 145.79 216.38
-4 4 1 447.66 19.2
-4 4 1 451.65 20.9
3 -4 -1 471.15 19.1
3 -4 -1 476.45 18.9
-3 4 1 221.98 164.48
-3 4 1 453.35 18.8
-3 4 1 455.45 20.5
-2 4 1 -52.99 101.79
1 -4 -1 962.6 42
1 -4 -1 920.91 41.9
1 -4 -1 961.4 36.3
1 -4 -1 956.5 36.7
-1 4 1 903.61 38.3
-1 4 1 928.21 36.9
0 -4 -1 383.86 14.8
0 -4 -1 404.56 15.7
0 -4 -1 395.96 15.2
0 -4 -1 392.76 15.7
0 -4 -1 376.66 15.9
0 -4 -1 384.36 18
0 -4 -1 385.86 18.2
0 4 1 384.96 16.4
0 4 1 384.46 15.6
0 4 1 396.56 17.9
0 4 1 386.36 16
0 4 1 -4.8 89.59
0 4 1 398.26 16
-1 -4 -1 719.93 26.9
-1 -4 -1 711.23 27.9
-1 -4 -1 764.22 32.8
-1 -4 -1 757.12 32.8
-1 -4 -1 719.63 28.8
-1 -4 -1 710.83 28.3
1 4 1 726.23 28.3
1 4 1 706.33 28.8
1 4 1 692.73 28
1 4 1 688.43 28.8
-2 -4 -1 88.59 4.6
-2 -4 -1 85.79 4.5
-2 -4 -1 89.49 5.6
-2 -4 -1 97.29 5.5
-2 -4 -1 87.09 4.5
-2 -4 -1 89.19 4.9
2 4 1 97.19 5.6
2 4 1 95.09 4.9
2 4 1 87.39 4.8
-3 -4 -1 50.19 3.6
-3 -4 -1 41.4 3.7
-3 -4 -1 57.19 4.2
-3 -4 -1 47.5 4
-3 -4 -1 51.69 3.2
-3 -4 -1 59.59 3.5
3 4 1 50.49 3.7
3 4 1 51.49 4.1
3 4 1 50.09 4
3 4 1 54.09 3.7
3 4 1 50.79 2.7
-4 -4 -1 42.4 3.3
-4 -4 -1 42.6 3.2
-4 -4 -1 37.4 2.8
-4 -4 -1 43.5 3.6
-4 -4 -1 42.1 3.8
4 4 1 43.5 3.4
4 4 1 34.1 3.5
4 4 1 38.6 3.7
-5 -4 -1 157.68 7.4
-5 -4 -1 156.18 9.2
-5 -4 -1 167.48 8.5
-5 -4 -1 166.28 7.7
5 4 1 175.48 9.5
5 4 1 165.28 8.4
5 4 1 165.88 8.6
-6 -4 -1 54.69 4.6
-6 -4 -1 41 3.5
-6 -4 -1 44 4.4
-6 -4 -1 40.7 4.2
-6 -4 -1 44.5 4
6 4 1 48.5 4.7
6 4 1 48.4 4.3
6 4 1 46.4 4.8
6 4 1 43.8 4.4
-7 -4 -1 5.6 2.1
-7 -4 -1 7.3 2.9
-7 -4 -1 1.3 2.2
7 4 1 4.9 2.6
7 4 1 4.7 2.2
7 4 1 3.9 2.7
7 4 1 3.5 2
-8 -4 -1 9.4 3.4
-8 -4 -1 12.8 3.1
8 4 1 15.3 3.3
8 4 1 13.3 3.7
8 4 1 5 3.1
-9 -4 -1 0.3 2.7
-9 -4 -1 -6.6 3.7
9 4 1 0.7 2.2
9 4 1 -3.3 3.8
9 4 1 3.5 3.1
-10 -4 -1 -4.8 4.5
-10 -4 -1 2.5 3.5
10 4 1 5.3 3.5
10 4 1 5 3.9
10 4 1 7 5.2
6 -5 -1 0.2 3.6
6 -5 -1 1.1 3.1
-6 5 1 -127.39 254.87
-5 5 1 163.88 237.18
4 -5 -1 30 3.4
4 -5 -1 25.6 3.2
4 -5 -1 23.8 3.2
-4 5 1 30.9 4.5
-4 5 1 142.79 202.38
-3 5 1 -157.68 172.28
2 -5 -1 0.2 1.6
2 -5 -1 -0.2 1.3
-2 5 1 3.9 1.9
-2 5 1 -157.48 138.99
1 -5 -1 411.86 15.7
1 -5 -1 390.86 15.9
1 -5 -1 361.46 17.8
1 -5 -1 406.26 18
-1 5 1 53.19 124.89
-1 5 1 367.36 15.7
-1 5 1 366.66 16.7
-1 5 1 363.36 15.6
0 -5 -1 10 1.8
0 -5 -1 12.4 1.6
0 -5 -1 11 1.6
0 -5 -1 11.9 1.9
0 -5 -1 13.2 1.6
0 -5 -1 11.5 2
0 5 1 11.5 1.6
0 5 1 11.1 1.7
0 5 1 9.6 1.8
0 5 1 10.3 1.7
0 5 1 41.3 96.59
-1 -5 -1 290.27 15.4
-1 -5 -1 323.17 15.6
-1 -5 -1 315.17 13.3
-1 -5 -1 329.77 13.7
-1 -5 -1 327.57 12.8
-1 -5 -1 314.67 13.2
1 5 1 318.27 13.7
1 5 1 323.27 13.7
1 5 1 328.07 15.4
1 5 1 15.5 104.99
-2 -5 -1 60.39 4.6
-2 -5 -1 62.39 3.7
-2 -5 -1 61.99 3.6
-2 -5 -1 64.39 4.6
-2 -5 -1 59.39 3.8
-2 -5 -1 51.39 4
2 5 1 63.99 4
2 5 1 58.69 3.7
2 5 1 57.69 4.3
-3 -5 -1 74.99 4.8
-3 -5 -1 65.09 4.1
-3 -5 -1 68.69 4.3
-3 -5 -1 78.59 5.3
-3 -5 -1 73.29 4.3
-3 -5 -1 73.89 5.3
3 5 1 67.59 4.4
3 5 1 79.09 4.6
3 5 1 69.69 5.1
-4 -5 -1 78.29 4.9
-4 -5 -1 76.89 4.4
-4 -5 -1 81.29 5.2
-4 -5 -1 81.19 5.7
-4 -5 -1 73.59 4.7
4 5 1 73.69 3.9
4 5 1 84.49 5.1
4 5 1 66.29 5
4 5 1 74.59 5.7
-5 -5 -1 39.9 3.7
-5 -5 -1 36.3 4.2
-5 -5 -1 33.3 3.1
-5 -5 -1 40 4.1
-5 -5 -1 36.4 3.7
5 5 1 39.1 4
5 5 1 38.9 4
5 5 1 37.3 3
5 5 1 30 4
-6 -5 -1 0.8 1.8
-6 -5 -1 6.8 2.1
-6 -5 -1 2.8 2.2
-6 -5 -1 0.8 1.7
6 5 1 -0.8 1.8
6 5 1 2.1 2
6 5 1 -0.7 3
6 5 1 1.5 2.2
6 5 1 1.4 1.3
-7 -5 -1 6.2 2.3
-7 -5 -1 1.5 2.7
-7 -5 -1 2.3 2.3
-7 -5 -1 1.7 2
7 5 1 3.8 2
7 5 1 2 2.5
7 5 1 8.8 2.8
7 5 1 0.4 2.5
-8 -5 -1 0.9 3.5
-8 -5 -1 -0.1 2.4
-8 -5 -1 0.7 2.3
8 5 1 0.4 2.1
8 5 1 2.7 3.6
8 5 1 1 3
8 5 1 2.8 2.6
-9 -5 -1 -1.8 2.5
-9 -5 -1 -1.3 4
9 5 1 -2.7 3
9 5 1 -0.7 4.1
9 5 1 2.6 2.7
-10 -5 -1 15.8 4.3
-10 -5 -1 7.1 4.9
10 5 1 7.4 3.6
10 5 1 11.6 4.5
-5 6 1 490.35 280.27
-4 6 1 197.58 224.78
3 -6 -1 6.5 2.5
3 -6 -1 5.8 2.2
3 -6 -1 5.3 2.2
-3 6 1 -87.59 167.48
-3 6 1 11.2 3.1
2 -6 -1 12.1 2.8
-2 6 1 -32.8 174.68
1 -6 -1 200.88 10.9
1 -6 -1 219.78 9.6
1 -6 -1 216.18 11
1 -6 -1 217.68 10.1
-1 6 1 219.68 10.7
-1 6 1 59.59 147.89
-1 6 1 214.18 9.6
-1 6 1 209.38 9.6
0 -6 -1 6.4 2
0 -6 -1 6.2 1.5
0 -6 -1 6.1 1.6
0 -6 -1 6.2 1.5
0 -6 -1 8.5 2
0 -6 -1 4.8 1.8
0 6 1 5.6 1.6
0 6 1 6.2 1.8
0 6 1 -227.28 109.29
0 6 1 4.7 1.7
0 6 1 7.8 1.9
-1 -6 -1 287.27 11.9
-1 -6 -1 265.67 12.3
-1 -6 -1 277.67 11.5
-1 -6 -1 264.57 14
-1 -6 -1 271.47 12
-1 -6 -1 277.27 14
1 6 1 262.97 13.7
1 6 1 283.47 12.5
1 6 1 286.67 12.4
1 6 1 200.58 156.28
1 6 1 271.47 12.4
-2 -6 -1 8 1.9
-2 -6 -1 3.7 1.7
-2 -6 -1 6.7 1.6
-2 -6 -1 5.2 2
-2 -6 -1 6.8 1.7
-2 -6 -1 7.1 2.2
2 6 1 65.89 129.09
2 6 1 6.4 1.6
2 6 1 4.9 1.8
2 6 1 3 1.5
-3 -6 -1 -1.2 1.7
-3 -6 -1 -3.6 2.1
-3 -6 -1 3 2.3
-3 -6 -1 -4.2 2.3
3 6 1 8.6 1.9
3 6 1 -0.9 1.9
3 6 1 4.2 2.1
-4 -6 -1 2.4 1.4
-4 -6 -1 0.5 1.6
-4 -6 -1 3.4 2
-4 -6 -1 -1.1 1.9
-4 -6 -1 1.8 1.5
4 6 1 2.6 1.8
4 6 1 1 1.8
4 6 1 0.8 1.6
-5 -6 -1 89.09 5.7
-5 -6 -1 70.19 6
-5 -6 -1 75.39 4.8
-5 -6 -1 87.59 5.5
5 6 1 73.79 6
5 6 1 74.59 5.8
5 6 1 72.99 4.3
5 6 1 72.69 6.3
-6 -6 -1 5.8 2.3
-6 -6 -1 6.4 2
-6 -6 -1 5.7 2.8
-6 -6 -1 5.4 2.8
6 6 1 5.8 2.9
6 6 1 11.6 2.7
6 6 1 4.4 2.6
6 6 1 6 1.9
-7 -6 -1 19.8 3.3
-7 -6 -1 20.7 3
-7 -6 -1 22 3.9
7 6 1 19.9 4.2
7 6 1 22.4 3.2
7 6 1 27.8 4.4
7 6 1 34 4.3
-8 -6 -1 22.1 3.7
-8 -6 -1 16.3 3.6
-8 -6 -1 20.8 4.2
8 6 1 25.6 3.5
8 6 1 19.9 4.6
8 6 1 20.7 3.9
8 6 1 17.1 4.3
-9 -6 -1 12.5 3.1
-9 -6 -1 9.8 4.9
9 6 1 13.1 3.6
9 6 1 9.6 4.6
9 6 1 12.1 4.7
4 -7 -1 -1.2 2.9
-4 7 1 2.4 4.1
-4 7 1 -3.4 234.88
3 -7 -1 81.49 6.4
3 -7 -1 88.19 6
-3 7 1 171.88 233.18
-3 7 1 99.19 7.7
2 -7 -1 -1.6 1.9
2 -7 -1 1.3 2.1
-2 7 1 -8 173.08
-2 7 1 0.4 2.7
1 -7 -1 9.6 2.2
1 -7 -1 5.4 2.7
1 -7 -1 8.8 2.3
1 -7 -1 11.4 2.5
-1 7 1 85.29 177.28
-1 7 1 12.7 2.2
-1 7 1 9.9 2.7
0 -7 -1 10.7 2.6
0 -7 -1 6.3 2.3
0 -7 -1 7.4 2.3
0 -7 -1 9.3 1.9
0 -7 -1 8.3 1.9
0 7 1 -54.39 140.89
0 7 1 9.8 2.3
0 7 1 7 2.5
-1 -7 -1 128.29 7
-1 -7 -1 126.39 8.1
-1 -7 -1 125.59 6.6
-1 -7 -1 121.39 7
-1 -7 -1 118.79 7.8
-1 -7 -1 131.79 6.6
1 7 1 99.79 7.6
1 7 1 126.39 7.1
1 7 1 131.19 7
1 7 1 117.09 163.58
-2 -7 -1 65.79 4.8
-2 -7 -1 67.69 4.8
-2 -7 -1 68.39 4.6
-2 -7 -1 66.59 5.9
-2 -7 -1 69.69 5.6
-2 -7 -1 67.69 5.2
2 7 1 -56.39 136.99
2 7 1 65.79 5.2
2 7 1 65.29 5.4
-3 -7 -1 3.3 3.4
-3 -7 -1 8.3 3.6
-3 -7 -1 8.2 2.7
-3 -7 -1 7 3
-3 -7 -1 19.7 2.6
-3 -7 -1 21.7 2.6
3 7 1 10.3 2.9
3 7 1 11.2 3
3 7 1 14.7 2.5
3 7 1 46.2 143.09
-4 -7 -1 48.7 5.5
-4 -7 -1 39 4.5
-4 -7 -1 60.19 4.4
-4 -7 -1 41.3 4.1
-4 -7 -1 46.3 4.1
4 7 1 43.2 4.8
4 7 1 48.3 4.6
4 7 1 27 4.2
-5 -7 -1 6.1 2.5
-5 -7 -1 6.2 2.7
-5 -7 -1 6 2.1
-5 -7 -1 4.8 2.5
-5 -7 -1 6 3.2
5 7 1 2.9 2.9
5 7 1 6.6 2.7
5 7 1 5.3 2.4
-6 -7 -1 10.3 2.5
-6 -7 -1 5.9 3.2
-6 -7 -1 14.4 3.6
-6 -7 -1 6.4 2.7
-6 -7 -1 12 3.2
6 7 1 15.4 3.3
6 7 1 6.3 3.1
6 7 1 13.6 2.3
-7 -7 -1 10.9 4
-7 -7 -1 11.9 2.9
-7 -7 -1 12.4 3.3
7 7 1 15.4 3.9
7 7 1 14.1 2.7
7 7 1 12.8 3.7
7 7 1 11.5 3.7
-8 -7 -1 -2.7 3.1
-8 -7 -1 1.6 2.6
-8 -7 -1 2.3 4.1
8 7 1 -3.1 2.3
8 7 1 1.3 3.7
8 7 1 8.6 3.8
8 7 1 -0.5 3.7
-9 -7 -1 0.4 4.3
-9 -7 -1 0.9 3
9 7 1 0.3 4.7
9 7 1 4.1 4.3
9 7 1 -3.3 3
3 -8 -1 9.1 3.7
-3 8 1 6.9 4.8
-3 8 1 -156.38 245.68
2 -8 -1 -2.3 2.3
2 -8 -1 1.2 2.7
-2 8 1 -2.6 3.7
-2 8 1 -177.28 211.28
-1 8 1 97.59 209.68
0 -8 -1 -1.5 2.5
0 -8 -1 0.4 2.3
0 -8 -1 1.6 2.1
0 -8 -1 0.3 1.8
0 8 1 -0.1 2.1
0 8 1 4.5 2.7
0 8 1 -12.7 174.18
1 8 1 -321.47 152.08
2 8 1 -311.67 160.98
3 8 1 -208.78 160.88
-4 -8 -1 81.09 6.1
-4 -8 -1 85.69 5.8
-4 -8 -1 73.99 7.3
-4 -8 -1 72.59 5.8
-4 -8 -1 71.89 6.4
4 8 1 64.09 5.9
4 8 1 76.79 6.5
-5 -8 -1 49.3 4.8
-5 -8 -1 39.4 5.1
-5 -8 -1 67.89 5.7
-5 -8 -1 53.69 6.2
-5 -8 -1 50.79 5.1
5 8 1 51.39 5.2
5 8 1 44.7 5.5
-6 -8 -1 12 3.3
-6 -8 -1 13.5 4.1
-6 -8 -1 11.1 3.6
-6 -8 -1 2.6 2.8
-6 -8 -1 3.5 3.5
6 8 1 11.5 3.4
6 8 1 9.3 3.5
6 8 1 7.6 3.7
-7 -8 -1 -0.4 3.1
-7 -8 -1 0.1 3.8
-7 -8 -1 2.1 2.5
7 8 1 0.5 3.3
7 8 1 3.5 3.6
7 8 1 1.8 3.5
-8 -8 -1 3 4.5
-8 -8 -1 4.2 3.7
8 8 1 5.1 4.1
8 8 1 8.2 4.6
8 8 1 7.7 4.7
-9 -8 -1 -0.8 3.1
-9 -8 -1 -0.9 5.2
-9 -8 -1 -1.2 4
9 8 1 -2.6 5
9 8 1 5.2 4.6
2 -9 -1 5.3 3.1
2 -9 -1 5.7 3.9
-2 9 1 -116.19 264.97
-2 9 1 21.4 5.4
1 -9 -1 20.8 4.2
1 -9 -1 14.6 3.5
-1 9 1 -93.39 233.28
0 -9 -1 3.5 3.3
0 -9 -1 2.1 2.4
0 -9 -1 -1 2.9
0 9 1 4.3 3.5
0 9 1 0.4 2.7
0 9 1 46.3 192.78
-1 -9 -1 5.1 2.4
-1 -9 -1 -1.2 2.4
-1 -9 -1 1.4 3
-1 -9 -1 6.2 2.8
1 9 1 -0.5 2.8
1 9 1 -110.99 166.58
1 9 1 -2.1 3.2
-2 -9 -1 18.2 3.7
-2 -9 -1 14.2 3.4
-2 -9 -1 21.5 3.1
-2 -9 -1 13.6 3.3
2 9 1 -20.5 183.68
2 9 1 17.6 3.6
2 9 1 13.6 3.7
-3 -9 -1 10.4 3.8
-3 -9 -1 14.9 3.3
-3 -9 -1 11.3 3
-3 -9 -1 9.7 3.3
3 9 1 -72.49 168.78
3 9 1 16.4 3.6
-4 -9 -1 23 4.8
-4 -9 -1 18 3.6
-4 -9 -1 19.4 3.9
-4 -9 -1 24 3.7
-4 -9 -1 24.8 3.8
4 9 1 82.49 214.98
4 9 1 26.8 4.5
4 9 1 19.8 3.6
-5 -9 -1 36.9 6
-5 -9 -1 39.3 4.4
-5 -9 -1 30.3 5.1
-5 -9 -1 39.1 4.7
-5 -9 -1 35.3 4.7
5 9 1 43.5 5.6
5 9 1 33.7 5
-6 -9 -1 28.5 4.3
-6 -9 -1 35.5 5
-6 -9 -1 34.1 5.7
-6 -9 -1 29.5 4.6
-6 -9 -1 27.4 5.1
6 9 1 33.5 5.2
6 9 1 43.6 5.9
-7 -9 -1 20.7 5.2
-7 -9 -1 21.7 3.9
-7 -9 -1 19.6 4.8
-7 -9 -1 21.4 4.2
7 9 1 29 5.5
7 9 1 27.3 5.6
-8 -9 -1 3 4.4
-8 -9 -1 1.6 4.6
8 9 1 4.5 4.8
8 9 1 -2.6 4.6
1 -10 -1 0.3 4.2
1 -10 -1 5.9 3.5
-1 10 1 -3.8 5.1
-1 10 1 -396.36 247.08
0 -10 -1 8.3 3.9
0 -10 -1 -1 3.7
0 10 1 2.9 3.2
0 10 1 11.4 254.07
0 10 1 -2.8 4.1
-1 -10 -1 8.5 3.4
-1 -10 -1 9.9 3.3
-1 -10 -1 12.5 4
-1 -10 -1 13.5 3.9
1 10 1 16 3.7
1 10 1 -42.1 226.18
1 10 1 22.9 4.5
-2 -10 -1 4.4 3.4
-2 -10 -1 -3.5 2.8
-2 -10 -1 -1.3 3.4
-2 -10 -1 2.6 2.9
2 10 1 -47 192.38
2 10 1 5 3.4
2 10 1 1.1 3.3
-3 -10 -1 0.2 2.9
-3 -10 -1 3.8 2.9
-3 -10 -1 -1.9 3.1
-3 -10 -1 3.4 3.7
3 10 1 -3.3 3.3
3 10 1 -3.1 3.1
3 10 1 -8.8 220.28
-4 -10 -1 -0.6 3
-4 -10 -1 7.9 4.2
-4 -10 -1 0.3 3.2
-4 -10 -1 -5 3
4 10 1 82.49 225.18
4 10 1 -1 3.6
-5 -10 -1 1.1 3.5
-5 -10 -1 6.4 3.2
-5 -10 -1 -0.5 3.9
-5 -10 -1 9.8 4.4
-5 -10 -1 0.7 2.8
5 10 1 1.7 3.1
5 10 1 111.09 226.78
5 10 1 0.3 3.8
-6 -10 -1 3.9 3.7
-6 -10 -1 2.1 4.5
-6 -10 -1 -1.1 3.6
-6 -10 -1 -1.8 3.5
6 10 1 -3 4.1
6 10 1 -7 3.7
6 10 1 75.29 263.57
-7 -10 -1 4.3 4.1
-7 -10 -1 3.6 3.5
-7 -10 -1 5.4 4.4
-7 -10 -1 5.5 4.7
7 10 1 -8.6 4.6
7 10 1 -2.2 4.8
-2 -11 -1 12.5 3.8
-2 -11 -1 13.8 4.6
-2 -11 -1 18.8 5.4
2 11 1 18.4 4.8
2 11 1 -129.49 252.37
-3 -11 -1 -0.9 3.8
-3 -11 -1 4.7 3.6
-3 -11 -1 4.4 4.2
-3 -11 -1 8.4 4.8
3 11 1 37.8 255.07
3 11 1 2.3 4.4
-4 -11 -1 21.7 4.9
-4 -11 -1 15.2 4.5
-4 -11 -1 18.2 4.7
-4 -11 -1 18.9 6
4 11 1 -241.88 246.38
4 11 1 24.1 5.5
-5 -11 -1 7.6 4.2
-5 -11 -1 0.3 4.1
-5 -11 -1 11.1 5.5
-5 -11 -1 18.2 4.5
5 11 1 14.6 5.2
5 11 1 185.18 283.57
5 11 1 11.4 4.3
-6 -11 -1 9 4.4
6 11 1 5.5 5.6
6 11 1 -188.08 264.37
6 11 1 7.4 4.5
4 11 -2 57.39 299.47
3 11 -2 6 271.67
-3 -11 2 2 4.1
-7 -10 2 -2.9 5.5
6 10 -2 10.3 5
6 10 -2 8.9 226.98
-6 -10 2 7.7 4.1
-6 -10 2 -1.4 5.1
-6 -10 2 -2.8 3.3
-6 -10 2 8.2 4.2
5 10 -2 1.1 4.4
5 10 -2 -277.27 204.58
-5 -10 2 2.6 3.9
-5 -10 2 -9 5.6
-5 -10 2 1.9 3.3
-5 -10 2 -4.2 3.7
-5 -10 2 -1.1 4.5
4 10 -2 24.6 229.78
4 10 -2 3 4.3
-4 -10 2 -3.6 3
-4 -10 2 -8.6 5
-4 -10 2 -3.2 3.4
-4 -10 2 3.4 3.8
3 10 -2 -103.49 212.78
3 10 -2 5.4 4.1
-3 -10 2 -1.2 3.4
-3 -10 2 -5.3 4.5
-3 -10 2 -4.8 3.1
-3 -10 2 6 3.4
2 10 -2 63.69 6.5
2 10 -2 136.79 243.58
-2 -10 2 55.49 6.2
-2 -10 2 72.79 6.8
-2 -10 2 69.89 6.8
1 10 -2 9.8 223.38
1 10 -2 2.1 3.4
-1 -10 2 -2.4 3.3
-1 -10 2 -7.3 4
-1 -10 2 6.1 3.6
-1 -10 2 1.1 3.7
0 10 -2 -174.08 244.38
0 10 -2 -1.3 3.8
0 -10 2 -1.8 4.1
0 -10 2 0.5 3.9
0 -10 2 -1.8 3.7
-8 -9 2 2.1 5
7 9 -2 15.8 5
7 9 -2 17.5 5.1
-7 -9 2 16.2 5.4
-7 -9 2 17.6 4.7
-7 -9 2 11.5 4.8
6 9 -2 12.6 4.7
6 9 -2 12.3 4.4
6 9 -2 70.99 244.78
-6 -9 2 16.1 3.6
-6 -9 2 8.3 4.3
-6 -9 2 13.1 3.9
-6 -9 2 18.1 4.1
5 9 -2 13.8 3.7
5 9 -2 17.8 4.4
5 9 -2 -110.29 200.08
-5 -9 2 11.3 3.6
-5 -9 2 24.4 5.8
-5 -9 2 20.3 4.5
-5 -9 2 20.6 4.5
4 9 -2 40.6 5.3
4 9 -2 192.58 243.48
4 9 -2 32.4 3.9
-4 -9 2 32.7 4.7
-4 -9 2 49.1 5.2
-4 -9 2 45.6 6.5
-4 -9 2 41.2 4.8
-4 -9 2 33.7 4.3
3 9 -2 260.07 224.48
2 9 -2 69.19 202.28
1 9 -2 29.3 191.78
1 9 -2 16.8 3.6
-1 -9 2 19 3.8
-1 -9 2 6.4 3.8
-1 -9 2 12.9 3.3
-1 -9 2 15.8 3.2
0 9 -2 -130.09 171.98
0 9 -2 17.5 3.7
0 -9 2 16.2 4.1
0 -9 2 9.9 3.1
0 -9 2 17.6 3.4
0 -9 2 5.7 3.9
-1 9 -2 16.1 4
-1 9 -2 -283.47 202.48
1 -9 2 13.4 3.5
1 -9 2 7.7 4.1
1 -9 2 12.1 3.7
-2 9 -2 -5.6 235.28
2 -9 2 0.9 3.5
2 -9 2 -0.4 2.8
2 -9 2 -3.1 3.7
8 8 -2 9.2 4.5
8 8 -2 7.9 4.9
-8 -8 2 -3.9 4.9
-8 -8 2 7.5 4.3
7 8 -2 1.3 3.3
7 8 -2 -1.7 4
-7 -8 2 -1.6 3.5
-7 -8 2 -2.4 4
-7 -8 2 3.7 3.3
6 8 -2 118.49 9
6 8 -2 128.99 8.9
-6 -8 2 112.89 7.2
-6 -8 2 122.49 9.6
-6 -8 2 114.09 8.2
-6 -8 2 140.99 8.5
5 8 -2 501.75 261.97
4 8 -2 -104.89 172.48
4 8 -2 6.3 2.5
4 8 -2 7.3 2.9
-4 -8 2 8.6 3.9
-4 -8 2 4.3 2.9
-4 -8 2 8 2.8
-4 -8 2 8.3 2.4
-4 -8 2 9.7 3.4
3 8 -2 11.9 2.4
3 8 -2 8.5 2.2
3 8 -2 68.99 207.08
3 8 -2 17.3 3.4
-3 -8 2 6.4 2.8
-3 -8 2 19.4 4.1
-3 -8 2 13 3.3
-3 -8 2 12.1 3
-3 -8 2 13.8 2.8
2 8 -2 -107.49 175.48
1 8 -2 456.05 221.28
0 8 -2 82.59 179.58
0 8 -2 7.2 3
0 8 -2 12.1 2.8
0 -8 2 11.2 3.4
0 -8 2 10.4 3.2
0 -8 2 15.2 2.8
0 -8 2 9.6 2.7
-1 8 -2 14.3 3
-1 8 -2 8.5 3.5
-1 8 -2 -92.49 186.38
1 -8 2 14.4 3.6
1 -8 2 14.2 3.1
1 -8 2 13.2 3.1
-2 8 -2 -8.5 3.2
-2 8 -2 -93.49 195.18
2 -8 2 -0.3 2.5
2 -8 2 -3.6 2.8
2 -8 2 1.2 3.2
-3 8 -2 12.9 4.5
-3 8 -2 -128.89 209.68
3 -8 2 12.7 3.9
3 -8 2 13.9 3.9
9 7 -2 0.6 4.8
9 7 -2 2.5 5.3
-9 -7 2 -0.1 5.1
-9 -7 2 3.5 3.5
8 7 -2 -7.6 3.9
8 7 -2 2.8 3.5
8 7 -2 0.6 3.6
-8 -7 2 2.9 3.4
-8 -7 2 0.1 4.1
7 7 -2 17.7 4.6
7 7 -2 23.7 4.8
7 7 -2 30.2 4.8
-7 -7 2 31.2 4.3
-7 -7 2 24.2 4.5
-7 -7 2 16.7 4.5
6 7 -2 9.5 3.8
6 7 -2 9 3.2
6 7 -2 9.2 3.1
-6 -7 2 8.1 3.2
-6 -7 2 8.6 2.9
-6 -7 2 5.8 3.4
-6 -7 2 5.2 2.3
5 7 -2 -0.7 2.6
5 7 -2 3.2 2.6
5 7 -2 -1.8 2.4
-5 -7 2 1.6 2.4
-5 -7 2 1.6 2
-5 -7 2 2.6 2.9
-5 -7 2 0 2.6
-5 -7 2 2.4 2.5
4 7 -2 8.4 2.9
4 7 -2 11.4 2.6
4 7 -2 3.7 2.6
4 7 -2 -228.58 136.79
-4 -7 2 9.8 2.5
-4 -7 2 15 3.6
-4 -7 2 8.7 2.1
-4 -7 2 8.1 2.7
-4 -7 2 8.3 3.2
3 7 -2 86.99 5.4
3 7 -2 74.39 6.6
3 7 -2 -15 159.78
3 7 -2 91.69 6.3
-3 -7 2 92.49 5.9
-3 -7 2 93.19 7
-3 -7 2 82.79 5.4
-3 -7 2 76.59 6.2
-3 -7 2 94.29 6
2 7 -2 53.49 3.9
2 7 -2 8 174.58
2 7 -2 52.79 3.7
2 7 -2 53.99 4.9
-2 -7 2 56.69 4.4
-2 -7 2 59.39 5
-2 -7 2 57.59 4.6
-2 -7 2 53.89 5.2
-2 -7 2 60.29 4.6
1 7 -2 11 2.5
1 7 -2 -55.39 152.78
-1 -7 2 13.8 2.9
-1 -7 2 11 2.5
-1 -7 2 12.5 2.6
0 7 -2 35.1 3.6
0 7 -2 234.88 178.18
0 7 -2 41.1 4.1
0 -7 2 25.3 3.9
0 -7 2 39.8 3.6
0 -7 2 35.6 3.8
0 -7 2 27.7 3.6
0 -7 2 38.4 4.5
-1 7 -2 40.9 4.3
-1 7 -2 47 4.1
-1 7 -2 45.5 196.88
1 -7 2 39.7 4.6
1 -7 2 42.3 4.4
1 -7 2 42.2 4.4
1 -7 2 47.3 4.4
-2 7 -2 21 3.8
-2 7 -2 55.59 187.88
2 -7 2 21.2 3
2 -7 2 18.7 3.4
2 -7 2 20.6 3
2 -7 2 25.5 3.8
-3 7 -2 -35.4 206.58
-3 7 -2 12.3 3.9
3 -7 2 16.4 3.3
3 -7 2 10.4 3
-4 7 -2 -150.68 214.48
4 -7 2 -0.6 3.2
4 -7 2 0 3.1
9 6 -2 4.2 4.2
9 6 -2 -3.2 4.6
-9 -6 2 3 3.5
-9 -6 2 4.6 5.1
8 6 -2 6.4 3.3
8 6 -2 0.5 3.8
8 6 -2 6.6 3.9
-8 -6 2 5.7 3.3
-8 -6 2 5.2 4
7 6 -2 12.2 3.6
7 6 -2 16 4.1
7 6 -2 9.1 3.9
-7 -6 2 22.1 4.8
-7 -6 2 17.2 3.7
-7 -6 2 15.1 3.8
6 6 -2 61.29 5.4
6 6 -2 48.6 5.2
6 6 -2 49.4 6
-6 -6 2 46.5 4
-6 -6 2 56.99 6
-6 -6 2 47.6 5.2
-6 -6 2 42.1 5.5
-6 -6 2 55.19 5.2
5 6 -2 53.79 6
5 6 -2 77.29 6.1
5 6 -2 86.69 6.3
-5 -6 2 74.99 5.6
-5 -6 2 76.89 6.3
-5 -6 2 76.99 4.8
-5 -6 2 83.29 6.6
-5 -6 2 82.19 5.8
4 6 -2 -2.3 1.7
4 6 -2 -1 1.7
4 6 -2 1.5 2
-4 -6 2 -2.3 1.6
-4 -6 2 0.2 1.9
-4 -6 2 -1.4 1.3
-4 -6 2 2.7 2.2
-4 -6 2 0.9 1.8
3 6 -2 238.68 149.39
3 6 -2 81.39 4.9
3 6 -2 80.29 5.4
3 6 -2 62.99 5.6
-3 -6 2 77.39 5
-3 -6 2 77.19 5.9
-3 -6 2 77.09 4.7
-3 -6 2 74.89 6.1
-3 -6 2 80.09 5.1
-3 -6 2 85.19 5.6
2 6 -2 36 3.9
2 6 -2 41 2.8
2 6 -2 72.29 126.39
2 6 -2 46.5 4
2 6 -2 38.4 3
-2 -6 2 41.4 4
-2 -6 2 42.2 4.4
-2 -6 2 39.8 4.1
-2 -6 2 43.8 3.5
-2 -6 2 42 3.6
-2 -6 2 36.2 3.5
1 6 -2 1.5 1.7
1 6 -2 23.1 130.49
1 6 -2 0 1.1
1 6 -2 0.1 1.6
-1 -6 2 1.2 1.8
-1 -6 2 -0.3 1.6
-1 -6 2 -2.8 1.4
-1 -6 2 1 1.5
-1 -6 2 -0.2 1.4
-1 -6 2 0.8 1.6
0 6 -2 -0.2 136.39
0 6 -2 1.8 1.8
0 6 -2 1.2 1.8
0 6 -2 6.8 1.9
0 6 -2 7.6 1.7
0 -6 2 4.3 1.8
0 -6 2 6.4 2.2
0 -6 2 4 1.7
0 -6 2 4.5 1.7
0 -6 2 4.2 1.7
0 -6 2 7.8 2
0 -6 2 7.3 1.9
-1 6 -2 208.68 10.1
-1 6 -2 97.79 170.08
-1 6 -2 216.58 9.5
1 -6 2 201.98 10
1 -6 2 208.08 10.8
1 -6 2 203.08 10.7
1 -6 2 196.88 10
-2 6 -2 134.49 180.18
-2 6 -2 176.78 9.6
2 -6 2 188.68 9.3
2 -6 2 185.98 9.4
2 -6 2 181.68 9.3
2 -6 2 169.78 8
2 -6 2 170.78 9.4
-3 6 -2 -90.09 164.68
-4 6 -2 7.6 188.78
4 -6 2 -1.5 2.5
4 -6 2 -2.8 2.4
4 -6 2 -1.3 2.9
4 -6 2 1.2 2.5
-5 6 -2 -211.68 224.38
5 -6 2 6 3
5 -6 2 1.4 3
9 5 -2 5.7 4.2
9 5 -2 1.4 4.1
-9 -5 2 7.1 3.4
-9 -5 2 6.2 4.8
8 5 -2 -1 3.4
8 5 -2 1 3
-8 -5 2 0.6 3.6
-8 -5 2 -3.6 2.4
7 5 -2 11.7 2.9
7 5 -2 20.3 3.9
7 5 -2 9.3 3.6
-7 -5 2 13.3 3.1
-7 -5 2 11.3 3.5
6 5 -2 3.1 2.1
6 5 -2 -0.6 2.2
6 5 -2 1.8 2.7
-6 -5 2 -0.5 2.1
-6 -5 2 3.7 2.3
-6 -5 2 6.6 2.6
-6 -5 2 3.4 2.5
5 5 -2 65.59 5.3
5 5 -2 63.09 5.1
5 5 -2 68.49 6
-5 -5 2 66.59 5.6
-5 -5 2 63.99 3.9
-5 -5 2 62.79 4.9
-5 -5 2 72.29 5.7
-5 -5 2 69.19 5.1
4 5 -2 62.09 5.1
4 5 -2 57.69 4.4
4 5 -2 60.09 4.7
-4 -5 2 60.79 5
-4 -5 2 60.09 4.4
-4 -5 2 52.89 3.4
-4 -5 2 60.19 4.9
-4 -5 2 45.5 4
3 5 -2 505.35 23.8
3 5 -2 491.25 18.9
3 5 -2 499.75 20.9
3 5 -2 480.55 20.2
-3 -5 2 487.25 21
-3 -5 2 510.65 19.5
-3 -5 2 511.35 23.9
-3 -5 2 488.25 20.6
-3 -5 2 464.65 19.6
-3 -5 2 500.45 23.6
2 5 -2 131.29 132.89
2 5 -2 462.45 22.2
2 5 -2 455.85 18.7
2 5 -2 467.85 19.6
-2 -5 2 447.86 19.6
-2 -5 2 494.25 22.4
-2 -5 2 455.65 18.7
-2 -5 2 494.85 22.2
-2 -5 2 473.35 18.3
-2 -5 2 444.66 19.3
1 5 -2 43.5 3.7
1 5 -2 42.4 2.7
1 5 -2 44.4 3.5
1 5 -2 96.89 116.19
1 5 -2 39.4 3.5
-1 -5 2 43.5 3.8
-1 -5 2 42.2 3.8
-1 -5 2 45.2 3.3
-1 -5 2 44.4 3.4
-1 -5 2 43.8 3.2
-1 -5 2 43.3 3.4
-1 -5 2 36 3
-1 -5 2 41.1 3.2
0 5 -2 31.9 3.1
0 5 -2 219.88 113.19
0 5 -2 29.2 3
0 5 -2 42.1 3
0 5 -2 37.5 2.7
0 -5 2 36.5 3.1
0 -5 2 35.3 3.4
0 -5 2 38.2 2.8
0 -5 2 36.8 2.9
0 -5 2 37 3.1
0 -5 2 37 2.9
0 -5 2 39.2 3.3
-1 5 -2 145.19 7
-1 5 -2 153.08 7.1
-1 5 -2 153.88 7.6
-1 5 -2 132.09 135.49
1 -5 2 158.38 8.1
1 -5 2 145.19 7.9
1 -5 2 158.58 7.7
1 -5 2 149.69 7.5
-2 5 -2 7.9 2.2
-2 5 -2 -77.49 138.29
2 -5 2 5.6 1.7
2 -5 2 3.7 2.1
2 -5 2 6.2 2
-3 5 -2 527.15 210.88
-3 5 -2 225.28 11.6
3 -5 2 239.48 10.2
3 -5 2 234.98 11.1
3 -5 2 236.48 10.9
3 -5 2 203.58 10.5
-4 5 -2 249.48 203.78
-5 5 -2 -268.37 181.68
5 -5 2 11.9 3.3
5 -5 2 11.9 3.1
5 -5 2 10.5 3.2
5 -5 2 11.7 3.1
-6 5 -2 -205.08 253.27
6 -5 2 9.8 3.6
6 -5 2 7.8 3.5
6 -5 2 8.8 3.4
6 -5 2 9 3.7
9 4 -2 1 3.6
9 4 -2 4 3.8
-9 -4 2 5.8 3.2
8 4 -2 11.3 3.8
8 4 -2 6.8 3.5
-8 -4 2 11.4 3.2
-8 -4 2 13.3 4.2
7 4 -2 0.8 2
7 4 -2 2 2.6
7 4 -2 0.6 2.7
-7 -4 2 -2.1 2
-7 -4 2 2.4 2.6
-7 -4 2 -1.6 2
6 4 -2 226.88 11.4
6 4 -2 242.18 11.4
6 4 -2 229.28 13
-6 -4 2 246.68 13.3
-6 -4 2 221.18 11.6
-6 -4 2 235.68 10.8
5 4 -2 0.8 1.7
5 4 -2 1.1 1.6
5 4 -2 0.7 1.7
5 4 -2 -0.2 1.8
-5 -4 2 0.6 1.5
-5 -4 2 -0.7 1.5
-5 -4 2 1.2 1.8
-5 -4 2 -1.9 1.7
4 4 -2 -0.9 1.5
4 4 -2 0 1.3
4 4 -2 -1.3 1.2
4 4 -2 -0.5 1.5
-4 -4 2 -0.5 1.4
-4 -4 2 0.4 1.3
-4 -4 2 0.8 1.3
-4 -4 2 -0.3 0.9
-4 -4 2 -1.6 1.4
3 4 -2 51.29 4.3
3 4 -2 50.09 3.8
3 4 -2 51.29 3.7
-3 -4 2 58.69 4.6
-3 -4 2 53.29 3.6
-3 -4 2 55.99 4.1
-3 -4 2 47.5 4
-3 -4 2 48.7 3.6
-3 -4 2 51.99 3
2 4 -2 5.8 1.4
2 4 -2 -99.59 91.89
-2 -4 2 7.5 1.5
-2 -4 2 4.6 1.5
-2 -4 2 5.6 1.4
1 4 -2 1836.12 71.79
1 4 -2 1823.82 71.69
1 4 -2 1822.82 69.39
-1 -4 2 1799.82 69.29
-1 -4 2 1782.22 71.79
-1 -4 2 1914.61 81.49
-1 -4 2 1854.21 81.39
-1 -4 2 1739.03 66.89
-1 -4 2 1916.81 67.09
-1 -4 2 1811.32 71.09
0 4 -2 21.7 1.8
0 4 -2 18.3 2
0 4 -2 29.7 91.29
0 4 -2 22 2.2
0 4 -2 23.4 2.3
0 -4 2 21.8 2.4
0 -4 2 21 2.4
0 -4 2 20.1 2.1
0 -4 2 21.7 2
0 -4 2 23.2 2.1
0 -4 2 20.7 2.3
0 -4 2 24 2.1
-1 4 -2 15.8 1.9
-1 4 -2 14.1 1.6
-1 4 -2 14 1.6
-1 4 -2 38.4 92.39
1 -4 2 13.3 1.7
1 -4 2 14.4 1.8
1 -4 2 15 1.8
1 -4 2 15.3 1.5
1 -4 2 13.2 1.9
-2 4 -2 192.08 9.4
-2 4 -2 122.19 110.59
2 -4 2 201.98 9.1
2 -4 2 209.68 8.5
2 -4 2 184.98 9.1
-3 4 -2 317.97 153.18
-3 4 -2 615.54 25.7
3 -4 2 608.44 23.6
3 -4 2 615.34 24.3
3 -4 2 583.04 24.6
3 -4 2 579.24 23.7
-4 4 -2 16.2 166.58
4 -4 2 -5 1.8
4 -4 2 -5.7 1.9
4 -4 2 -1.3 1.7
4 -4 2 1.2 2.1
-5 4 -2 13.8 192.38
5 -4 2 97.29 6.3
5 -4 2 98.99 6.3
5 -4 2 91.59 6.3
5 -4 2 85.09 6.5
-6 4 -2 66.09 215.78
-7 4 -2 203.68 292.77
9 3 -2 7.8 4.2
9 3 -2 2.9 3.4
-9 -3 2 5.2 3.2
8 3 -2 9.7 3.4
8 3 -2 20 4.2
-8 -3 2 14.4 4
-8 -3 2 20.1 3.5
7 3 -2 5 2.2
7 3 -2 4.7 2.6
7 3 -2 4 2.8
-7 -3 2 12.6 3.2
-7 -3 2 4.8 2.6
-7 -3 2 3.9 2.1
6 3 -2 53.09 5
6 3 -2 58.29 4.4
6 3 -2 53.29 4.9
-6 -3 2 53.69 5.1
-6 -3 2 55.99 4.4
5 3 -2 4.1 1.8
5 3 -2 6 1.9
5 3 -2 7.6 1.9
5 3 -2 5.4 2.1
-5 -3 2 5.2 1.6
-5 -3 2 7.8 1.9
-5 -3 2 5.6 2
-5 -3 2 3.1 1.8
4 3 -2 220.78 11.6
4 3 -2 230.28 11.5
4 3 -2 228.08 10.2
4 3 -2 221.98 9.9
-4 -3 2 217.48 10.4
-4 -3 2 215.08 9.5
-4 -3 2 215.08 11.4
-4 -3 2 226.98 10.2
3 3 -2 56.79 3.6
3 3 -2 53.69 2.8
3 3 -2 54.99 3.8
3 3 -2 37.2 3.7
3 3 -2 50.89 3.4
-3 -3 2 49.5 2.7
-3 -3 2 51.89 3.5
-3 -3 2 51.49 3.6
-3 -3 2 51.89 3.8
-3 -3 2 55.09 3.3
2 3 -2 1.5 0.7
2 3 -2 1.3 1.3
2 3 -2 -0.5 1.1
2 3 -2 -0.6 1
2 3 -2 0.5 1.1
2 3 -2 0.2 1
-2 -3 2 1.3 0.7
-2 -3 2 -0.6 0.9
-2 -3 2 2.7 1
-2 -3 2 0.1 1
-2 -3 2 0.8 1.2
-2 -3 2 0.2 1.1
-2 -3 2 -0.2 1
1 3 -2 239.28 12.5
1 3 -2 258.17 10.3
1 3 -2 255.77 11
1 3 -2 271.37 10
1 3 -2 257.27 11.1
-1 -3 2 259.57 10.3
-1 -3 2 253.87 11.1
-1 -3 2 271.27 10.3
-1 -3 2 281.77 12.6
-1 -3 2 256.67 10.6
-1 -3 2 257.87 10
-1 -3 2 249.68 10.9
-1 -3 2 262.87 12.4
0 3 -2 61.29 3.2
0 3 -2 60.69 3.4
0 3 -2 69.29 3.9
0 3 -2 63.79 3.5
0 3 -2 18.1 71.09
0 3 -2 64.29 3.2
0 3 -2 67.69 3
0 -3 2 62.19 3.8
0 -3 2 64.29 3.4
0 -3 2 64.29 3.8
0 -3 2 66.29 3.5
0 -3 2 65.39 3.2
0 -3 2 65.99 2.9
0 -3 2 60.39 3.6
-1 3 -2 160.88 6.6
-1 3 -2 151.88 6.8
-1 3 -2 158.28 7.2
-1 3 -2 151.68 6.9
-1 3 -2 182.58 96.49
1 -3 2 158.38 7.7
1 -3 2 162.88 7.2
1 -3 2 161.48 7.7
1 -3 2 158.88 6.6
1 -3 2 163.68 7.2
-2 3 -2 10.7 97.39
-2 3 -2 9.2 1.6
2 -3 2 11.7 1.6
2 -3 2 15.2 1.8
-3 3 -2 38.3 125.19
-4 3 -2 -57.29 132.19
-5 3 -2 34.6 3.9
-5 3 -2 38.7 182.08
5 -3 2 42.7 4.1
5 -3 2 38.1 4
5 -3 2 47.4 4.5
-6 3 -2 190.48 203.98
-7 3 -2 88.99 242.88
-7 3 -2 29 4.4
7 -3 2 38.9 4.5
7 -3 2 38.9 4.8
7 -3 2 39 5.1
7 -3 2 27.7 4.4
9 2 -2 1.7 3.2
9 2 -2 10.1 4.3
-9 -2 2 4.9 3.5
-9 -2 2 1.2 4
8 2 -2 22.2 4
8 2 -2 30 4.8
-8 -2 2 42.4 5
-8 -2 2 32.9 4.5
7 2 -2 2.5 2.4
-7 -2 2 3.1 2.1
-7 -2 2 -0.9 2.4
6 2 -2 43.4 4.5
6 2 -2 47.2 4.2
6 2 -2 53.09 4.6
6 2 -2 41.4 3.6
-6 -2 2 45.3 4.4
-6 -2 2 44.6 3.8
-6 -2 2 49.9 4.4
5 2 -2 2.6 1.3
5 2 -2 2.6 1.6
5 2 -2 2.7 1.5
5 2 -2 3.6 1.5
-5 -2 2 0.7 1.3
-5 -2 2 1.6 1.3
-5 -2 2 3.8 1.7
4 2 -2 306.37 14.9
4 2 -2 314.97 12.9
4 2 -2 306.07 13
4 2 -2 295.87 14.6
-4 -2 2 308.67 13.2
-4 -2 2 305.87 12.1
-4 -2 2 275.47 13.1
3 2 -2 75.89 4.9
3 2 -2 75.59 4
3 2 -2 75.19 4.1
3 2 -2 76.49 4.1
3 2 -2 66.09 3.9
3 2 -2 80.89 4.6
-3 -2 2 82.49 4.7
-3 -2 2 73.09 4.3
-3 -2 2 66.59 4.1
-3 -2 2 78.49 4.2
-3 -2 2 76.79 4
2 2 -2 1119.79 43.2
2 2 -2 1030.9 41.8
2 2 -2 1147.99 43.5
2 2 -2 1076.99 40.3
2 2 -2 1111.59 49.1
2 2 -2 1067.49 40.6
2 2 -2 1119.39 48.9
2 2 -2 1070.89 42.8
2 2 -2 1153.38 43.4
-2 -2 2 1035.7 43.1
-2 -2 2 1013.5 41.2
-2 -2 2 1128.89 41.8
-2 -2 2 1049.79 42.7
-2 -2 2 1112.69 40.5
-2 -2 2 1108.09 48.9
-2 -2 2 1175.28 49
-2 -2 2 1091.09 43.3
1 2 -2 1837.02 65.69
1 2 -2 1902.11 79.09
1 2 -2 1799.42 67.69
1 2 -2 1796.92 69.89
1 2 -2 1818.62 69.09
1 2 -2 1796.72 69.89
1 2 -2 1748.53 79.19
1 2 -2 1744.33 65.19
-1 -2 2 1781.32 65.19
-1 -2 2 1809.72 69.09
-1 -2 2 1787.82 67.59
-1 -2 2 1792.52 69.89
-1 -2 2 1706.83 79.09
-1 -2 2 1701.63 67.19
-1 -2 2 1741.63 65.69
-1 -2 2 1920.01 79.29
-1 -2 2 1751.22 69.79
0 2 -2 235.58 9.7
0 2 -2 232.28 9.6
0 2 -2 239.18 9
0 2 -2 235.78 9.7
0 2 -2 232.58 11
0 2 -2 232.48 10.8
0 2 -2 234.58 9
0 -2 2 240.68 9.1
0 -2 2 224.38 9.6
0 -2 2 228.08 10.8
0 -2 2 243.68 9
0 -2 2 232.68 9.7
0 -2 2 220.48 10.9
0 -2 2 228.58 9.7
-1 2 -2 339.97 13.3
-1 2 -2 324.17 14.3
-1 2 -2 341.77 13.9
-1 2 -2 372.56 15.7
-1 2 -2 332.87 15.6
-1 2 -2 347.87 14.2
-1 2 -2 347.17 13.9
1 -2 2 337.77 13.3
1 -2 2 366.86 14.3
1 -2 2 335.97 14.1
1 -2 2 350.26 15.8
1 -2 2 331.57 15.7
1 -2 2 376.26 13.8
-2 2 -2 -25.7 85.69
-3 2 -2 227.08 112.19
-3 2 -2 179.38 8.2
3 -2 2 179.28 8.2
3 -2 2 193.18 8
-4 2 -2 11.1 2
-4 2 -2 3.3 113.29
4 -2 2 11.1 1.8
4 -2 2 9.3 2
-5 2 -2 33.6 3.7
-5 2 -2 163.18 150.68
5 -2 2 37.5 3.8
5 -2 2 37.9 3.8
-6 2 -2 -59.99 174.88
-6 2 -2 3.6 2.3
6 -2 2 -3.4 2
6 -2 2 1.1 2.5
-7 2 -2 29.9 223.08
-7 2 -2 10 3
7 -2 2 12.2 3.2
7 -2 2 11 3.1
-8 2 -2 2.2 3
-8 2 -2 -146.39 234.58
8 -2 2 0.6 3.6
8 -2 2 -0.6 3.6
9 1 -2 3.1 3.2
9 1 -2 -0.1 3.8
-9 -1 2 5.6 4.2
-9 -1 2 4 3.4
8 1 -2 14.6 3.3
8 1 -2 25.1 4.3
-8 -1 2 20.6 4.1
-8 -1 2 30.4 4.5
7 1 -2 -0.1 2.1
7 1 -2 -0.9 2.4
-7 -1 2 3.1 2.2
-7 -1 2 -2.6 1.9
6 1 -2 33.9 4
6 1 -2 35.6 3.1
6 1 -2 38.9 4.1
6 1 -2 30.8 3.7
-6 -1 2 36.6 3.3
-6 -1 2 30 3.7
-6 -1 2 44.5 4
5 1 -2 39.5 3.7
5 1 -2 40.7 3.2
5 1 -2 49.8 4
5 1 -2 46.5 3.9
-5 -1 2 44.2 3.8
-5 -1 2 44.7 3.6
-5 -1 2 55.79 3.8
-5 -1 2 44.4 3.2
-5 -1 2 35.8 3.3
4 1 -2 18.3 2.4
4 1 -2 19.6 2.3
4 1 -2 19.3 2
4 1 -2 21.1 2.4
4 1 -2 21.8 2.1
-4 -1 2 19.9 2.4
-4 -1 2 19.2 2.3
-4 -1 2 17.6 2
-4 -1 2 24.2 2.4
-4 -1 2 19.3 1.9
3 1 -2 673.43 27.3
3 1 -2 688.83 26.8
3 1 -2 649.43 25.5
3 1 -2 679.13 31
3 1 -2 716.73 31.1
-3 -1 2 620.24 27.2
-3 -1 2 695.73 27.3
-3 -1 2 743.13 31
-3 -1 2 685.73 27.5
2 1 -2 2156.38 82.89
2 1 -2 2151.68 94.09
2 1 -2 2160.78 82.99
2 1 -2 2258.07 94.09
2 1 -2 2119.29 77.39
2 1 -2 2067.79 80.69
2 1 -2 2258.07 84.29
2 1 -2 2094.59 82.09
-2 -1 2 1985.3 77.39
-2 -1 2 2093.69 82.99
-2 -1 2 2140.29 93.99
-2 -1 2 2154.58 82.19
-2 -1 2 2127.69 84.29
-2 -1 2 2055.29 93.99
-2 -1 2 2130.69 82.89
1 1 -2 6346.77 224.28
1 1 -2 5964.7 269.67
1 1 -2 5769.12 231.18
1 1 -2 6378.66 237.68
1 1 -2 6210.58 269.57
1 1 -2 6477.85 237.68
1 1 -2 6368.96 241.38
1 1 -2 6094.29 221.98
1 1 -2 6109.09 235.48
-1 -1 2 6079.09 237.68
-1 -1 2 6211.18 221.98
-1 -1 2 5965.6 224.18
-1 -1 2 6544.45 269.67
-1 -1 2 5765.62 237.58
-1 -1 2 6118.29 269.57
-1 -1 2 6050.79 241.38
-1 -1 2 6065.69 235.48
0 1 -2 3257.47 139.99
0 1 -2 3220.38 123.39
0 1 -2 3303.07 123.39
0 1 -2 3246.78 115.29
0 1 -2 3194.08 122.29
0 1 -2 3307.97 116.39
0 -1 2 3114.39 123.39
0 -1 2 3115.19 139.99
0 -1 2 3099.89 122.29
0 -1 2 3209.78 123.39
0 -1 2 3091.99 116.39
0 -1 2 3184.68 139.99
0 -1 2 3091.09 115.19
-1 1 -2 21 1.3
-1 1 -2 19.7 1.5
-1 1 -2 20.9 1.4
-1 1 -2 21.5 1.4
-1 1 -2 20.1 1.5
1 -1 2 21.3 1.3
1 -1 2 20.3 1.5
1 -1 2 20.8 1.5
1 -1 2 18.6 1.5
1 -1 2 22 1.5
1 -1 2 20.3 1.4
1 -1 2 19.6 1.4
1 -1 2 19.9 1.5
1 -1 2 21.7 1.3
-2 1 -2 491.65 19.2
2 -1 2 478.15 19.2
2 -1 2 521.25 22.2
2 -1 2 497.45 19
2 -1 2 491.75 22.1
2 -1 2 495.75 20.4
-3 1 -2 639.64 26
-3 1 -2 446.76 135.09
3 -1 2 685.73 25.9
3 -1 2 647.04 26.2
3 -1 2 721.83 30
-4 1 -2 125.79 6.4
-4 1 -2 22.7 109.19
4 -1 2 123.09 6.4
4 -1 2 128.99 6.2
4 -1 2 133.79 6.5
-5 1 -2 -142.99 117.49
-6 1 -2 112.69 183.48
-6 1 -2 27.8 3.7
6 -1 2 15.1 3.3
6 -1 2 27.1 3.2
-7 1 -2 187.98 218.38
-8 1 -2 15.9 3.6
-8 1 -2 -55.79 217.48
8 -1 2 6.8 3.7
8 -1 2 13.7 3.8
8 0 -2 9.5 3.8
8 0 -2 6.2 2.6
-8 0 2 11.5 3.6
-8 0 2 0.9 3.1
7 0 -2 9.4 2.7
7 0 -2 8 2.9
-7 0 2 6 2.7
-7 0 2 15.6 2.8
6 0 -2 68.39 5.2
6 0 -2 63.39 4.8
6 0 -2 59.79 4.6
-6 0 2 59.99 5.2
-6 0 2 66.89 4.7
5 0 -2 162.38 8.1
5 0 -2 164.38 8.3
5 0 -2 152.88 8.5
5 0 -2 149.49 7.1
-5 0 2 159.98 8
-5 0 2 174.78 7.8
-5 0 2 149.99 7.4
4 0 -2 1 1
4 0 -2 1.4 0.9
4 0 -2 2.2 1
4 0 -2 0.5 1.1
4 0 -2 0.8 1.3
-4 0 2 1 1
-4 0 2 1 1
-4 0 2 1.2 0.9
-4 0 2 0.6 1.3
-4 0 2 2.8 1.3
-4 0 2 0.2 1.2
3 0 -2 215.98 10.4
3 0 -2 208.78 8.6
3 0 -2 219.08 10.3
3 0 -2 208.38 9.1
3 0 -2 207.58 9.2
-3 0 2 239.38 10.3
-3 0 2 209.18 9.3
-3 0 2 216.78 9.8
-3 0 2 208.58 9.2
-3 0 2 216.58 9.1
2 0 -2 22.6 1.7
2 0 -2 22.2 1.7
2 0 -2 21.2 1.9
2 0 -2 24 1.8
2 0 -2 21.2 1.6
2 0 -2 23.9 1.6
2 0 -2 22 1.8
-2 0 2 21.7 1.8
-2 0 2 20.9 1.6
-2 0 2 23.7 2
-2 0 2 21.6 1.6
-2 0 2 21.7 1.7
-2 0 2 21.1 1.9
1 0 -2 223.18 9
1 0 -2 230.88 9.4
1 0 -2 233.38 10.5
1 0 -2 229.78 9.2
1 0 -2 228.08 9.3
1 0 -2 213.68 10.5
1 0 -2 227.18 8.8
-1 0 2 228.68 8.6
-1 0 2 222.08 9.4
-1 0 2 234.68 9.3
-1 0 2 206.78 9
-1 0 2 213.08 9.3
-1 0 2 237.18 10.4
0 0 -2 267.07 10.8
0 0 -2 288.67 10.3
0 0 -2 277.87 11
0 0 -2 285.47 11
0 0 -2 293.77 12.5
0 0 -2 260.57 12.5
0 0 -2 278.97 10.4
0 0 2 266.07 12.5
0 0 2 275.17 11
0 0 2 258.37 10.8
0 0 2 276.47 12.5
0 0 2 273.07 10.4
0 0 2 270.67 10.6
0 0 2 267.57 11
0 0 2 278.67 10.3
-1 0 -2 171.98 7
-1 0 -2 173.08 7.3
-1 0 -2 185.28 8.2
-1 0 -2 182.18 7.3
-1 0 -2 173.78 7
-1 0 -2 182.98 7
-1 0 -2 177.08 6.8
1 0 2 183.78 7
1 0 2 167.98 8.2
1 0 2 176.78 8.2
1 0 2 167.98 7
1 0 2 165.88 7.2
1 0 2 173.28 6.8
1 0 2 175.38 7.1
-2 0 -2 5340.57 196.78
-2 0 -2 4728.23 201.88
-2 0 -2 4766.72 229.08
-2 0 -2 5200.28 201.98
-2 0 -2 5135.79 192.88
-2 0 -2 5274.27 190.98
-2 0 -2 5738.83 229.18
-2 0 -2 5190.48 188.58
2 0 2 5110.09 196.78
2 0 2 4875.71 229.18
2 0 2 5602.74 229.18
2 0 2 5629.24 201.98
2 0 2 5118.19 190.98
2 0 2 5549.75 188.68
2 0 2 5237.48 201.88
2 0 2 5119.59 192.88
-3 0 -2 1510.35 56.89
-3 0 -2 1553.34 59.19
-3 0 -2 1458.55 59.09
-3 0 -2 1610.04 66.89
3 0 2 1420.56 67.09
3 0 2 1608.64 59.19
3 0 2 1484.05 57.89
3 0 2 1454.85 56.39
3 0 2 1476.05 59.09
3 0 2 1601.54 67.09
-4 0 -2 71.39 3.7
-4 0 -2 81.39 4
-4 0 -2 70.69 4.2
-4 0 -2 3 111.49
4 0 2 73.89 4.3
4 0 2 73.59 4.3
4 0 2 85.09 4.4
4 0 2 78.19 4.4
-5 0 -2 34.5 3.1
-5 0 -2 38.2 2.9
-5 0 -2 30.3 2.4
-5 0 -2 -84.09 115.09
5 0 2 36.2 3.2
5 0 2 35.7 3.3
5 0 2 29.7 2.7
5 0 2 39.5 3
-6 0 -2 -101.59 155.68
-7 0 -2 35.2 4.3
-7 0 -2 73.69 212.28
7 0 2 45 4.3
7 0 2 45.1 4
7 0 2 52.79 4.8
7 0 2 48.5 4.9
-8 0 -2 331.77 270.37
-9 0 -2 -3.5 3
9 0 2 -1.4 3.4
9 0 2 -1.6 3.7
9 0 2 0.7 2.4
8 -1 -2 5.3 4
8 -1 -2 8 2.7
-8 1 2 7.7 3.5
7 -1 -2 59.99 6.2
7 -1 -2 60.39 5
-7 1 2 58.09 5.9
6 -1 -2 -1.4 1.5
6 -1 -2 -2.8 2.2
6 -1 -2 0.9 1.6
-6 1 2 0.7 2
-6 1 2 -3.2 1.9
5 -1 -2 9.5 1.8
5 -1 -2 8 2.2
5 -1 -2 9.4 1.7
-5 1 2 86.19 154.08
-5 1 2 8.6 1.4
-5 1 2 10.2 2.5
-5 1 2 15.7 2
-5 1 2 10.9 2.4
4 -1 -2 83.59 4.8
4 -1 -2 80.79 4.7
4 -1 -2 89.79 5
-4 1 2 183.58 133.69
-4 1 2 79.29 4.1
-4 1 2 84.19 5.3
-4 1 2 75.59 4.8
-4 1 2 83.19 4.5
3 -1 -2 9.5 1.3
3 -1 -2 11.1 1.4
3 -1 -2 6.1 1.1
-3 1 2 9.5 1.8
-3 1 2 13 1.5
-3 1 2 10.8 1.6
-3 1 2 10.5 1.2
2 -1 -2 147.59 7.2
2 -1 -2 156.98 7.3
2 -1 -2 154.28 6.4
2 -1 -2 152.58 6.3
-2 1 2 145.19 6.4
-2 1 2 150.38 6.5
-2 1 2 160.38 7.2
-2 1 2 146.89 7.1
-2 1 2 142.39 6.4
1 -1 -2 1558.14 56.29
1 -1 -2 1480.35 63.79
1 -1 -2 1376.06 55.49
1 -1 -2 1526.45 63.79
1 -1 -2 1411.96 54.19
1 -1 -2 1426.86 53.19
1 -1 -2 1442.76 57.39
1 -1 -2 1466.45 52.49
1 -1 -2 1451.75 56.19
-1 1 2 1411.76 63.69
-1 1 2 1415.86 52.49
-1 1 2 1486.85 54.19
-1 1 2 1384.06 57.39
-1 1 2 1417.26 53.59
-1 1 2 1418.86 63.69
-1 1 2 1429.76 56.19
-1 1 2 1448.16 56.19
0 -1 -2 539.35 20.3
0 -1 -2 548.85 21.5
0 -1 -2 584.74 24.4
0 -1 -2 580.44 21.5
0 -1 -2 545.95 20.7
0 -1 -2 551.44 24.4
0 1 2 546.45 20.7
0 1 2 535.05 21.5
0 1 2 536.15 21.5
0 1 2 528.75 20.3
0 1 2 549.85 20.1
0 1 2 491.45 24.3
-1 -1 -2 496.65 19.5
-1 -1 -2 516.65 19.6
-1 -1 -2 483.65 18.8
-1 -1 -2 496.55 18.4
-1 -1 -2 481.75 19
-1 -1 -2 487.25 22.1
-1 -1 -2 521.85 22.1
-1 -1 -2 507.85 18.2
-1 -1 -2 495.45 18.3
1 1 2 502.95 19.5
1 1 2 469.85 19
1 1 2 494.35 18.8
1 1 2 503.15 19.5
1 1 2 417.06 22
1 1 2 472.95 18.4
1 1 2 514.95 18.2
1 1 2 478.25 18.3
1 1 2 461.05 22.1
-2 -1 -2 9931.11 363.36
-2 -1 -2 8894.81 348.37
-2 -1 -2 9475.65 360.36
-2 -1 -2 9983.8 423.26
-2 -1 -2 9815.72 352.16
-2 -1 -2 9999 373.06
-2 -1 -2 9535.95 355.56
-2 -1 -2 9806.22 372.96
2 1 2 9950 355.56
2 1 2 9432.86 423.26
2 1 2 9745.12 348.37
2 1 2 9923.11 352.16
2 1 2 9790.22 363.46
2 1 2 9887.51 360.36
2 1 2 8842.62 423.16
2 1 2 9383.26 372.96
2 1 2 9787.72 372.96
-3 -1 -2 232.58 10.2
-3 -1 -2 245.98 9.6
-3 -1 -2 237.48 10.4
-3 -1 -2 253.57 11.6
-3 -1 -2 248.98 10
3 1 2 242.48 9.6
3 1 2 232.98 10
3 1 2 243.48 10.3
3 1 2 245.58 10
3 1 2 242.08 11.6
3 1 2 243.38 10.2
3 1 2 247.98 11.7
-4 -1 -2 -24.5 102.89
-4 -1 -2 474.15 20.4
-4 -1 -2 431.16 18
-4 -1 -2 458.85 18.3
-4 -1 -2 419.86 16.8
-4 -1 -2 451.55 17.7
4 1 2 433.76 17.6
4 1 2 413.86 20.6
4 1 2 429.26 18
4 1 2 461.95 20.6
4 1 2 444.66 18
4 1 2 465.25 16.9
-5 -1 -2 9.4 1.7
-5 -1 -2 8.3 1.6
-5 -1 -2 11.5 2
-5 -1 -2 9.5 1.8
-5 -1 -2 -14.2 106.79
-5 -1 -2 10.1 1.5
5 1 2 9.7 1.9
5 1 2 8.9 2.1
5 1 2 10.1 1.9
5 1 2 5 1.5
5 1 2 9 1.5
5 1 2 9.2 1.5
-6 -1 -2 36.4 3.6
-6 -1 -2 28.7 2.9
-6 -1 -2 32 3.4
-6 -1 -2 75.19 154.78
6 1 2 30.9 3.3
6 1 2 33.1 3.5
6 1 2 28.7 3.3
6 1 2 33.3 2.8
6 1 2 23.8 3
-7 -1 -2 251.47 235.78
-8 -1 -2 12.9 3.2
8 1 2 20.5 3.6
8 1 2 13.4 2.8
8 1 2 10.9 3.4
-9 -1 -2 0.5 3
-9 -1 -2 -2.5 3.8
9 1 2 -0.7 2.4
9 1 2 -0.6 3
9 1 2 4.3 3.7
8 -2 -2 2.6 3.8
-8 2 2 0.8 3.4
7 -2 -2 40.1 5.2
-7 2 2 39 5
-7 2 2 33.6 271.97
-6 2 2 338.87 229.58
5 -2 -2 -2.1 2
-5 2 2 10.6 171.88
-5 2 2 0.8 2.2
-5 2 2 -0.4 1.5
4 -2 -2 213.58 8.6
4 -2 -2 198.88 9.8
4 -2 -2 204.58 9.5
-4 2 2 198.78 10.2
-4 2 2 202.18 9.4
-4 2 2 362.16 148.79
3 -2 -2 58.99 3.3
3 -2 -2 58.09 3.1
3 -2 -2 51.79 3.2
-3 2 2 52.09 4
-3 2 2 52.59 3.5
2 -2 -2 635.94 29.2
2 -2 -2 660.43 29.3
2 -2 -2 686.93 25.2
-2 2 2 649.24 27.1
-2 2 2 643.24 25.1
1 -2 -2 93.09 3.8
1 -2 -2 80.69 4.4
1 -2 -2 84.09 3.7
1 -2 -2 86.09 3.8
1 -2 -2 86.89 3.6
1 -2 -2 86.19 3.8
-1 2 2 79.49 3.8
-1 2 2 83.39 4.2
-1 2 2 85.29 3.8
-1 2 2 87.09 3.9
-1 2 2 81.99 3.8
-1 2 2 81.29 4.4
0 -2 -2 1821.32 67.89
0 -2 -2 1811.22 63.99
0 -2 -2 1661.93 76.99
0 -2 -2 1752.02 65.59
0 -2 -2 1751.92 67.89
0 -2 -2 1801.92 77.09
0 -2 -2 1675.53 63.39
0 2 2 1748.63 76.99
0 2 2 1747.93 63.39
0 2 2 1725.83 67.99
0 2 2 1721.33 76.99
0 2 2 1682.43 63.99
0 2 2 1775.82 67.99
0 2 2 1767.12 65.69
-1 -2 -2 244.08 8.9
-1 -2 -2 233.98 9.7
-1 -2 -2 223.18 11
-1 -2 -2 245.48 9.7
-1 -2 -2 250.17 11.1
-1 -2 -2 227.28 9.4
-1 -2 -2 221.38 9.5
1 2 2 233.98 9.3
1 2 2 228.28 11
1 2 2 230.18 9.7
1 2 2 236.38 8.9
1 2 2 226.88 9.7
1 2 2 229.18 9.3
1 2 2 236.98 9.5
1 2 2 228.78 11
1 2 2 228.68 9
-2 -2 -2 1138.59 40.3
-2 -2 -2 1120.29 42.9
-2 -2 -2 1048.7 41.3
-2 -2 -2 1094.39 40.5
-2 -2 -2 1060.39 39.9
-2 -2 -2 1046.3 41.8
-2 -2 -2 1095.39 42.8
-2 -2 -2 1012.5 48.5
-2 -2 -2 1123.59 48.6
2 2 2 1068.79 48.6
2 2 2 1106.29 48.5
2 2 2 1140.09 40
2 2 2 1051.79 41.9
2 2 2 1104.09 41.3
2 2 2 1079.59 42.3
2 2 2 1098.49 42.8
2 2 2 1106.29 42.8
2 2 2 1097.79 40.3
-3 -2 -2 335.27 14.5
-3 -2 -2 338.07 13.8
-3 -2 -2 354.66 14.7
-3 -2 -2 348.07 14
-3 -2 -2 360.16 16.5
-3 -2 -2 355.66 13.6
3 2 2 355.16 16.6
3 2 2 348.97 16.5
3 2 2 345.07 13.9
3 2 2 360.56 13.9
3 2 2 356.46 14.6
3 2 2 353.06 14.6
3 2 2 361.76 13.6
-4 -2 -2 900.61 39
-4 -2 -2 968.8 36.5
-4 -2 -2 977.1 37.7
-4 -2 -2 1012.1 39.3
-4 -2 -2 988.3 37.5
-4 -2 -2 994.9 44.4
4 2 2 984 39.1
4 2 2 1037.1 36.6
4 2 2 980.7 37.2
4 2 2 953 38.4
4 2 2 1038.2 44.6
-5 -2 -2 24.1 2.8
-5 -2 -2 23.4 2.7
-5 -2 -2 21.1 2.1
-5 -2 -2 24.2 2.6
-5 -2 -2 18.9 2.2
5 2 2 17.3 2.2
5 2 2 23.4 2.3
5 2 2 17.6 2.5
5 2 2 17.9 2.2
5 2 2 17.9 2.6
5 2 2 19.2 2.5
-6 -2 -2 -1.1 1.4
-6 -2 -2 -2.3 1.4
-6 -2 -2 -2.5 1.3
-6 -2 -2 -3.9 1.7
-6 -2 -2 -4.8 1.8
6 2 2 -0.3 1.6
6 2 2 -2.9 1.3
6 2 2 2.4 1.8
6 2 2 -1.9 1.4
6 2 2 -2.5 1.3
6 2 2 -3.8 2.2
-7 -2 -2 43.6 4.6
-7 -2 -2 55.09 5.1
7 2 2 49 4.6
7 2 2 39 4.5
7 2 2 50.99 5.2
-8 -2 -2 -2.2 2.2
-8 -2 -2 -0.1 2.7
8 2 2 4.4 3.1
8 2 2 0.4 2.3
8 2 2 1.1 2
-9 -2 -2 -2 3.7
-9 -2 -2 4 3
9 2 2 3.6 3.1
9 2 2 3.4 3.6
9 2 2 -1.5 3.1
7 -3 -2 11.1 3.8
-7 3 2 8.7 3.5
6 -3 -2 23.2 4.1
-6 3 2 36.6 239.68
-6 3 2 24.7 4.5
-6 3 2 30.2 4.1
-5 3 2 223.08 191.78
4 -3 -2 20.3 2.3
-4 3 2 19.2 161.28
-4 3 2 21.2 3.4
-4 3 2 24.1 3
3 -3 -2 -1.4 1.1
3 -3 -2 1.4 0.8
-3 3 2 -23 134.49
-3 3 2 0.3 1.2
-3 3 2 0 1.4
2 -3 -2 429.06 16.6
2 -3 -2 426.36 16.7
2 -3 -2 430.36 19
-2 3 2 377.96 17.9
-2 3 2 416.16 16.5
1 -3 -2 73.49 3.4
1 -3 -2 82.59 3.9
1 -3 -2 81.79 4.2
1 -3 -2 73.89 3.6
1 -3 -2 71.69 4.1
-1 3 2 71.89 3.6
-1 3 2 74.39 3.7
-1 3 2 70.09 4.3
-1 3 2 75.99 3.6
-1 3 2 75.99 3.9
0 -3 -2 40.2 2.8
0 -3 -2 36.9 2.4
0 -3 -2 42.2 2.8
0 -3 -2 40.7 2
0 -3 -2 40.5 2.4
0 -3 -2 39.6 2.4
0 -3 -2 40.2 2
0 -3 -2 43.6 2.5
0 3 2 40.8 2.6
0 3 2 39.7 2.5
0 3 2 39.6 2.5
0 3 2 41.6 2
0 3 2 40.4 2.7
-1 -3 -2 659.83 26.9
-1 -3 -2 697.43 30.5
-1 -3 -2 684.43 26.3
-1 -3 -2 667.63 26
-1 -3 -2 629.34 30.4
-1 -3 -2 677.63 25
-1 -3 -2 677.83 26.9
-1 -3 -2 682.33 26.3
1 3 2 671.83 30.4
1 3 2 691.83 26.3
1 3 2 650.33 25.2
1 3 2 670.23 26.2
1 3 2 704.03 26.9
1 3 2 651.33 30.4
1 3 2 684.63 26.9
-2 -3 -2 164.38 7.4
-2 -3 -2 152.68 7
-2 -3 -2 152.18 8.3
-2 -3 -2 177.18 8.4
-2 -3 -2 168.18 6.5
-2 -3 -2 161.58 6.8
-2 -3 -2 151.48 6.9
2 3 2 160.48 6.5
2 3 2 163.08 7.3
2 3 2 155.18 7.3
2 3 2 158.28 7
2 3 2 167.68 7.4
2 3 2 158.48 8.3
2 3 2 167.78 8.3
-3 -3 -2 619.34 24.6
-3 -3 -2 640.94 25.8
-3 -3 -2 618.24 29.1
-3 -3 -2 629.24 24
3 3 2 666.13 29.3
3 3 2 648.34 25.7
3 3 2 644.44 24.1
3 3 2 612.44 25.3
-4 -3 -2 862.81 31.9
-4 -3 -2 853.41 34.4
-4 -3 -2 849.81 32.9
-4 -3 -2 832.52 32.5
-4 -3 -2 850.91 38.9
4 3 2 878.91 34.3
4 3 2 804.92 33.7
4 3 2 883.51 39
4 3 2 853.41 32.3
-5 -3 -2 -0.3 1
-5 -3 -2 1 1.2
-5 -3 -2 0.9 1.1
-5 -3 -2 0.6 1.5
-5 -3 -2 -0.7 1.1
5 3 2 -0.8 1.9
5 3 2 0.8 1.1
5 3 2 -0.9 1.3
5 3 2 0.1 1.3
5 3 2 0.8 1.4
-6 -3 -2 130.99 7.1
-6 -3 -2 123.99 6.5
-6 -3 -2 113.59 6
-6 -3 -2 129.79 7.5
6 3 2 107.89 7.4
6 3 2 108.89 6.5
6 3 2 121.89 7.1
6 3 2 108.89 6.4
-7 -3 -2 224.28 10.6
-7 -3 -2 255.27 11.7
-7 -3 -2 252.07 12.2
7 3 2 244.68 11.6
7 3 2 250.27 13.5
7 3 2 237.88 11.5
7 3 2 251.07 12.2
-8 -3 -2 11.5 3.6
-8 -3 -2 10.3 3.1
8 3 2 12 2.8
8 3 2 8.9 3
8 3 2 16.5 3.7
-9 -3 -2 -0.9 2.5
-9 -3 -2 -4.2 3.3
9 3 2 -3.5 3
9 3 2 -0.1 3.2
9 3 2 -5.9 2.6
-10 -3 -2 2.6 4.8
10 3 2 3.4 3.7
10 3 2 2.6 3.2
7 -4 -2 -2.1 3.7
-7 4 2 1.7 3.9
6 -4 -2 6.6 3.7
-6 4 2 13.4 4.2
-6 4 2 -121.59 253.47
-6 4 2 6.5 3.4
5 -4 -2 140.59 8.2
5 -4 -2 127.89 7.2
5 -4 -2 146.79 7.4
-5 4 2 -46.9 209.78
-5 4 2 132.49 8
-5 4 2 133.79 9
-4 4 2 262.67 200.48
-3 4 2 -97.59 139.89
2 -4 -2 23.9 2
2 -4 -2 22.8 2.1
2 -4 -2 22.1 2.3
2 -4 -2 22.8 2.3
-2 4 2 19.1 2.6
-2 4 2 21.9 2.3
-2 4 2 102.49 124.99
1 -4 -2 61.49 3.6
1 -4 -2 50.79 2.9
1 -4 -2 56.09 3.5
1 -4 -2 59.99 3.7
1 -4 -2 58.69 3
-1 4 2 48 3
-1 4 2 49.9 3.8
-1 4 2 52.99 3.1
0 -4 -2 73.69 4.3
0 -4 -2 79.99 4.3
0 -4 -2 68.19 3.5
0 -4 -2 58.89 3.6
0 -4 -2 72.89 3.9
0 -4 -2 68.99 3.3
0 -4 -2 72.79 3.3
0 4 2 61.79 3.7
0 4 2 66.29 4.1
0 4 2 63.79 3.2
0 4 2 67.79 4
0 4 2 64.79 3.8
-1 -4 -2 13.8 2
-1 -4 -2 17.1 1.6
-1 -4 -2 23.3 2.1
-1 -4 -2 12.9 1.5
-1 -4 -2 13.4 1.8
-1 -4 -2 13.6 2
1 4 2 15 1.5
1 4 2 11.8 1.7
1 4 2 11.4 1.7
-2 -4 -2 36.2 3
-2 -4 -2 40.4 3.4
-2 -4 -2 38.3 2.5
-2 -4 -2 39.3 2.8
-2 -4 -2 40 3.3
-2 -4 -2 35.8 2.7
2 4 2 42.6 3.1
2 4 2 36.9 3.2
2 4 2 41.2 3.1
-3 -4 -2 87.89 4.6
-3 -4 -2 87.99 5.6
-3 -4 -2 78.19 5.1
-3 -4 -2 79.29 4.6
-3 -4 -2 78.19 5.4
-3 -4 -2 90.39 4.5
3 4 2 77.49 5.4
3 4 2 81.99 4
3 4 2 85.59 5
3 4 2 82.19 4.8
-4 -4 -2 31.6 2.8
-4 -4 -2 29.1 3.2
-4 -4 -2 28.6 2.5
-4 -4 -2 29.8 3.2
4 4 2 33.8 3.1
4 4 2 30 2.4
4 4 2 30.8 3.1
4 4 2 26.5 3.2
4 4 2 29.5 3.4
-5 -4 -2 135.29 6.9
-5 -4 -2 140.29 6.9
-5 -4 -2 137.09 8.4
-5 -4 -2 154.98 7
-5 -4 -2 146.89 7.7
5 4 2 139.19 7.7
5 4 2 143.29 7.5
5 4 2 145.69 6.9
5 4 2 149.79 8.6
-6 -4 -2 41.2 3.5
-6 -4 -2 38.5 3.7
-6 -4 -2 37.2 3.7
-6 -4 -2 38.9 4.3
-6 -4 -2 41.7 4.3
6 4 2 41.3 4.4
6 4 2 41.3 3.5
6 4 2 37.8 4.5
6 4 2 36.3 4.1
6 4 2 36.9 3.9
-7 -4 -2 33.9 3.5
-7 -4 -2 42 4.7
-7 -4 -2 42.4 4.3
7 4 2 43.2 4.1
7 4 2 41.2 4.8
7 4 2 40.7 4.2
7 4 2 32.6 4.3
-8 -4 -2 151.18 9
-8 -4 -2 172.68 9.9
8 4 2 165.08 9
8 4 2 157.78 10.5
8 4 2 153.88 10
-9 -4 -2 9 3.1
-9 -4 -2 0.7 3.8
9 4 2 -0.9 3
9 4 2 2 3.5
9 4 2 -0.3 2.5
-10 -4 -2 1.9 3.5
-10 -4 -2 -2.7 4.7
10 4 2 -4.5 3.1
10 4 2 7.1 4.7
10 4 2 1.3 3.8
6 -5 -2 -4.2 3.7
6 -5 -2 -1.1 3.2
-6 5 2 7 4.2
-6 5 2 1.2 3.2
5 -5 -2 1.9 3
5 -5 -2 6.1 2.4
-5 5 2 6.3 3
-5 5 2 -164.08 225.48
-5 5 2 1.8 3.6
-4 5 2 -218.68 202.88
3 -5 -2 232.68 10.8
3 -5 -2 232.38 10.4
-3 5 2 242.08 12.3
-3 5 2 -60.19 192.68
-2 5 2 -161.48 143.09
1 -5 -2 129.79 6.4
1 -5 -2 118.29 6.6
1 -5 -2 124.99 6.8
1 -5 -2 126.19 5.7
-1 5 2 116.09 5.8
-1 5 2 35.2 140.99
-1 5 2 121.59 5.9
-1 5 2 117.49 6.7
0 -5 -2 36.3 3.2
0 -5 -2 36.3 2.3
0 -5 -2 34 3.1
0 -5 -2 34.8 2.7
0 -5 -2 33.6 2.7
0 -5 -2 32.2 3
0 5 2 34.3 3.1
0 5 2 35.2 2.8
0 5 2 33.7 2.3
0 5 2 37.5 2.8
0 5 2 28.7 2.7
0 5 2 43 98.99
-1 -5 -2 102.49 6.3
-1 -5 -2 111.59 5.5
-1 -5 -2 107.59 5.2
-1 -5 -2 105.99 6.4
-1 -5 -2 113.09 5.1
-1 -5 -2 103.59 5.6
1 5 2 101.29 5.7
1 5 2 103.69 6.2
1 5 2 97.09 5.6
1 5 2 39.3 103.49
-2 -5 -2 15.5 2.3
-2 -5 -2 14 2.1
-2 -5 -2 11.5 1.8
-2 -5 -2 12.9 2.3
-2 -5 -2 13 1.7
-2 -5 -2 12.9 1.9
2 5 2 12.1 2.1
2 5 2 13.8 1.9
2 5 2 9.4 1.9
-3 -5 -2 7.3 1.9
-3 -5 -2 6.3 1.7
-3 -5 -2 7.2 2
-3 -5 -2 8.2 1.5
-3 -5 -2 8 1.7
-3 -5 -2 7.2 1.5
3 5 2 7.1 1.8
3 5 2 8.4 2
3 5 2 5 1.5
-4 -5 -2 5.3 1.9
-4 -5 -2 3.1 1.5
-4 -5 -2 5.4 1.6
-4 -5 -2 5.2 1.9
-4 -5 -2 3.2 1.5
4 5 2 3.6 1.6
4 5 2 2.8 1.7
4 5 2 2.9 1.5
4 5 2 1.8 1.2
-5 -5 -2 92.59 6
-5 -5 -2 89.79 5
-5 -5 -2 97.29 6.4
-5 -5 -2 82.39 5.3
5 5 2 88.79 4.8
5 5 2 83.69 5.8
5 5 2 75.49 6.2
5 5 2 91.19 5.7
-6 -5 -2 -1 1.8
-6 -5 -2 3 2
-6 -5 -2 0 2.2
-6 -5 -2 0.1 1.7
-6 -5 -2 1.8 1.7
6 5 2 -0.1 1.9
6 5 2 2.1 1.9
6 5 2 2.8 2.9
6 5 2 -2.9 1.7
6 5 2 1.4 1.5
-7 -5 -2 4.3 2.7
-7 -5 -2 1.1 1.9
-7 -5 -2 1.3 2.1
-7 -5 -2 2.4 1.9
7 5 2 6 2.9
7 5 2 0 2.2
7 5 2 -0.1 1.7
7 5 2 5.2 2.7
-8 -5 -2 4.8 3.4
-8 -5 -2 5.3 2.5
-8 -5 -2 3.5 2.5
8 5 2 -0.4 2.2
8 5 2 10 3.5
8 5 2 5.2 3.2
8 5 2 8.4 2.8
-9 -5 -2 -0.8 2.8
-9 -5 -2 -6.5 3.6
9 5 2 0.3 3
9 5 2 -2.6 3.6
9 5 2 -1.8 2.4
-10 -5 -2 -5.8 4.4
-10 -5 -2 4.9 3.3
10 5 2 4.1 3.3
10 5 2 4.9 5
10 5 2 0 3.9
5 -6 -2 18.9 3.8
5 -6 -2 20.3 4.4
5 -6 -2 23.8 3.9
-5 6 2 21.8 5.3
4 -6 -2 4.6 2.5
4 -6 -2 2 2.5
-4 6 2 -106.99 229.68
-4 6 2 1 3.5
3 -6 -2 6.3 2.1
3 -6 -2 6.7 2.4
-3 6 2 5.7 3.3
-3 6 2 -149.39 175.08
2 -6 -2 8.3 2
2 -6 -2 10.1 2.5
-2 6 2 -423.96 136.79
-2 6 2 14.2 2.9
1 -6 -2 10.6 2.4
-1 6 2 12.1 2.5
-1 6 2 -62.79 155.58
-1 6 2 7.8 1.9
0 -6 -2 -1.7 1.5
0 -6 -2 -0.2 1.3
0 -6 -2 -1.1 1
0 -6 -2 -1.9 1.5
0 -6 -2 3.3 1.8
0 -6 -2 -0.7 1.7
0 6 2 0.9 1.5
0 6 2 -0.7 1.2
0 6 2 0.9 1.5
0 6 2 1 1.3
0 6 2 11.9 119.79
-1 -6 -2 331.87 14.3
-1 -6 -2 343.37 14.2
-1 -6 -2 338.07 16.8
-1 -6 -2 362.36 13.7
-1 -6 -2 327.37 14.7
-1 -6 -2 349.47 16.9
1 6 2 341.97 16.5
1 6 2 3 129.39
1 6 2 333.67 15
1 6 2 332.77 14.8
1 6 2 331.87 14.8
2 6 2 -186.38 109.79
-3 -6 -2 516.35 20.4
-3 -6 -2 507.05 21.4
-3 -6 -2 507.55 20.7
-3 -6 -2 504.95 19.8
-3 -6 -2 504.55 24.3
-3 -6 -2 438.46 23.9
3 6 2 520.95 21.4
3 6 2 499.15 24.1
3 6 2 510.65 20.8
-4 -6 -2 49.9 4
-4 -6 -2 47.1 4.6
-4 -6 -2 46.2 4.7
-4 -6 -2 48.6 3.8
-4 -6 -2 47.7 4
4 6 2 47.2 4.3
4 6 2 52.29 4.6
4 6 2 52.99 4.8
-5 -6 -2 24.7 2.9
-5 -6 -2 19.2 3.1
-5 -6 -2 15.5 2.6
-5 -6 -2 22.2 3.4
-5 -6 -2 22.2 3.1
5 6 2 17.4 3
5 6 2 21.7 3.3
5 6 2 28.5 3.6
5 6 2 22.9 2.5
-6 -6 -2 9.1 2.5
-6 -6 -2 9 2.4
-6 -6 -2 10.7 3.2
-6 -6 -2 8 2.8
6 6 2 13.5 3.2
6 6 2 7 2.9
6 6 2 8.5 2.1
6 6 2 8.8 2.7
-7 -6 -2 88.49 6.4
-7 -6 -2 109.99 6.9
-7 -6 -2 91.69 6.4
-7 -6 -2 110.09 7.8
7 6 2 95.89 8.2
7 6 2 112.69 7.4
7 6 2 102.09 7.8
7 6 2 95.19 6.2
-8 -6 -2 -0.6 2.3
-8 -6 -2 8.3 3.6
-8 -6 -2 1.7 2.8
-8 -6 -2 3.6 2.3
8 6 2 7.5 3.3
8 6 2 5.1 2.8
8 6 2 6.6 2.5
8 6 2 -6.2 3.2
-9 -6 -2 0 4.5
-9 -6 -2 -2.7 2.6
9 6 2 4.4 2.9
9 6 2 2.5 3.9
9 6 2 -3.4 4.3
-4 7 2 67.09 265.77
3 -7 -2 35.8 4.5
-3 7 2 135.19 234.98
-3 7 2 39.1 5.5
2 -7 -2 9.7 2.2
2 -7 -2 6.2 2.2
2 -7 -2 9.6 2.9
2 -7 -2 10 2.3
-2 7 2 7.6 3.2
-2 7 2 -168.58 187.78
-1 7 2 -138.99 157.68
0 -7 -2 34.5 3.9
0 -7 -2 32.5 3.6
0 -7 -2 32.9 3.2
0 -7 -2 31.3 3.1
0 -7 -2 39.5 4.1
0 7 2 36.9 4
0 7 2 64.29 163.58
0 7 2 40.2 3.8
-1 -7 -2 112.19 7.6
-1 -7 -2 118.49 6
-1 -7 -2 116.19 6.3
-1 -7 -2 112.09 6.5
-1 -7 -2 112.29 7.5
-1 -7 -2 113.89 6.5
1 7 2 117.29 6.8
1 7 2 113.89 6.7
1 7 2 31.2 158.68
-2 -7 -2 69.19 5.4
-2 -7 -2 55.99 4.5
-2 -7 -2 56.69 4.9
-2 -7 -2 59.19 5.4
-2 -7 -2 57.19 4
-2 -7 -2 53.79 4.3
2 7 2 54.69 4.9
2 7 2 54.69 146.29
2 7 2 56.19 4.8
-3 -7 -2 182.08 11.9
-3 -7 -2 210.68 9.9
-3 -7 -2 211.48 10.9
-3 -7 -2 225.38 10.2
-3 -7 -2 218.98 10.1
-3 -7 -2 217.28 12.5
3 7 2 223.08 10.9
3 7 2 214.38 10.2
3 7 2 200.78 11.9
-4 -7 -2 125.59 6.6
-4 -7 -2 101.79 7.1
-4 -7 -2 97.29 6.1
-4 -7 -2 89.29 7.5
-4 -7 -2 114.59 6.5
4 7 2 91.09 7.4
4 7 2 104.29 6.6
4 7 2 109.59 7.2
-5 -7 -2 65.99 5.1
-5 -7 -2 70.09 5.5
-5 -7 -2 76.09 6.6
-5 -7 -2 72.89 5.5
-5 -7 -2 78.59 6.2
5 7 2 75.09 6.1
5 7 2 57.99 6.1
5 7 2 66.39 5.9
-6 -7 -2 12.3 2.6
-6 -7 -2 8 2.7
-6 -7 -2 6.8 3.2
-6 -7 -2 11.8 3.2
6 7 2 6.7 3.3
6 7 2 12.1 2.3
6 7 2 8.8 3.3
6 7 2 17.1 3.4
-7 -7 -2 13.1 2.8
-7 -7 -2 9.5 3
-7 -7 -2 13.3 4
7 7 2 13 2.6
7 7 2 10.9 3.5
7 7 2 15.4 4.1
7 7 2 9 3.4
-8 -7 -2 48.8 5.4
-8 -7 -2 56.99 5.8
-8 -7 -2 57.19 5.5
-8 -7 -2 50.49 6.4
8 7 2 53.49 5.3
8 7 2 74.49 7.3
8 7 2 66.69 7.1
-9 -7 -2 3.9 4.2
-9 -7 -2 11.8 3.1
9 7 2 8.4 3.5
9 7 2 14.3 4.9
9 7 2 3.3 4.5
3 -8 -2 44.5 5.3
-3 8 2 53.39 6.5
-3 8 2 26.6 254.57
2 -8 -2 4.8 3
-2 8 2 -276.17 219.78
-2 8 2 -4.8 3.5
-1 8 2 243.78 214.38
0 8 2 224.78 203.18
-1 -8 -2 5.9 2.9
-1 -8 -2 13.1 2.6
-1 -8 -2 3.7 2.4
-1 -8 -2 5.5 2
1 8 2 2.9 2.3
1 8 2 6.7 2.6
1 8 2 -62.69 165.18
-2 -8 -2 10.1 2.3
-2 -8 -2 10.1 2.3
-2 -8 -2 8.6 2.7
-2 -8 -2 12.9 3.3
-2 -8 -2 5.1 2.4
2 8 2 9.5 2.8
2 8 2 7.5 2.6
2 8 2 -264.37 163.38
-3 -8 -2 63.59 5.3
-3 -8 -2 66.69 5.5
-3 -8 -2 60.49 5.9
-3 -8 -2 75.59 5.5
-3 -8 -2 71.29 6.6
3 8 2 130.29 191.48
3 8 2 62.99 5.3
3 8 2 75.09 6
-4 -8 -2 134.79 7.7
-4 -8 -2 132.59 7.7
-4 -8 -2 128.29 8.5
-4 -8 -2 142.89 9.7
-4 -8 -2 140.69 7.8
4 8 2 115.29 8
4 8 2 145.59 8.6
-5 -8 -2 25.3 4.7
-5 -8 -2 19.1 3.4
-5 -8 -2 22.9 3.4
-5 -8 -2 27 3.9
-5 -8 -2 28.2 4.3
5 8 2 22.2 4.1
5 8 2 20.3 3.7
-6 -8 -2 1.2 2.7
-6 -8 -2 -1.1 2.6
-6 -8 -2 0.6 3.2
-6 -8 -2 0.1 2.5
-6 -8 -2 0 3.3
6 8 2 -2.9 3.1
6 8 2 9.9 3.4
6 8 2 0.5 2.9
-7 -8 -2 -0.2 3.7
-7 -8 -2 2.7 2.6
-7 -8 -2 -1 2.9
7 8 2 -0.1 3.3
7 8 2 -2.2 3.2
7 8 2 -5.5 3
-8 -8 -2 -6 2.5
-8 -8 -2 -4.9 3.3
-8 -8 -2 1.4 4.1
-8 -8 -2 -6 3
8 8 2 -5.7 4.1
8 8 2 -0.2 3.7
8 8 2 -2.1 3.4
-9 -8 -2 -7.7 3.6
-9 -8 -2 -0.1 3.1
-9 -8 -2 -0.9 4.7
9 8 2 4 4.4
9 8 2 4.1 5
9 8 2 -0.9 4.6
2 -9 -2 12.2 3.5
2 -9 -2 17.9 4.2
-2 9 2 25.3 262.67
-2 9 2 13.8 5.8
1 -9 -2 12.4 3.4
1 -9 -2 18.8 3.9
-1 9 2 15.5 4.6
-1 9 2 35 255.77
-1 9 2 19.2 3.5
0 -9 -2 10 3
0 -9 -2 10.6 3.7
0 -9 -2 16.9 3.7
0 9 2 22.9 4.2
0 9 2 20.1 3.5
0 9 2 1.1 221.88
-1 -9 -2 -0.8 2.6
-1 -9 -2 -0.8 2.5
-1 -9 -2 -2.5 2.2
-1 -9 -2 -2.3 2.8
1 9 2 3.5 2.9
1 9 2 -2.4 2.5
1 9 2 -3.1 209.28
-2 -9 -2 1.3 2.3
-2 -9 -2 -1.3 2.5
-2 -9 -2 -1.9 2.2
-2 -9 -2 2.3 3
2 9 2 1.2 2.7
2 9 2 -3.5 2.6
2 9 2 -171.88 173.28
-3 -9 -2 69.09 5.6
-3 -9 -2 54.49 5.7
-3 -9 -2 62.79 5.5
-3 -9 -2 78.29 7.3
-3 -9 -2 59.29 5.7
3 9 2 70.19 6.6
3 9 2 203.38 219.88
-4 -9 -2 12.6 3.6
-4 -9 -2 15.4 3.1
-4 -9 -2 21.5 3.5
-4 -9 -2 16.6 3.3
-4 -9 -2 12.5 4.2
4 9 2 -6.3 196.18
4 9 2 19.8 4
4 9 2 11.7 3.1
-5 -9 -2 3.6 3.1
-5 -9 -2 0.3 3.4
-5 -9 -2 1.9 4
-5 -9 -2 4 3
-5 -9 -2 3.3 2.6
5 9 2 1.1 2.8
5 9 2 2.1 3.3
-6 -9 -2 3.2 3.8
-6 -9 -2 -0.8 2.9
-6 -9 -2 3.1 3.2
-6 -9 -2 4 3.4
-6 -9 -2 -1.6 3.9
6 9 2 -1 3.7
6 9 2 -4.1 3.3
-7 -9 -2 9.6 4.6
-7 -9 -2 11.2 3.7
-7 -9 -2 14.9 3.3
7 9 2 14.2 4.3
7 9 2 14.3 4.9
-8 -9 -2 -8.9 4
-8 -9 -2 -2.9 4.6
-8 -9 -2 7.2 3.6
8 9 2 -2.4 4.2
8 9 2 -5.4 4.2
1 -10 -2 -0.1 3.4
-1 10 2 -156.88 249.18
0 -10 -2 1.6 3.9
0 -10 -2 11.2 4.1
0 10 2 7.4 4.3
0 10 2 -277.47 257.27
0 10 2 8.9 3.4
-1 -10 -2 15.6 4.2
-1 -10 -2 14.3 3.9
-1 -10 -2 14.8 3.4
1 10 2 20.1 4.6
1 10 2 36.6 246.78
1 10 2 12.6 3.6
-2 -10 -2 -1.1 3.3
-2 -10 -2 1.3 2.9
-2 -10 -2 7.1 3.4
-2 -10 -2 2.1 3.3
2 10 2 5 3.4
2 10 2 -177.18 200.08
2 10 2 -5.6 3.5
-3 -10 -2 -0.5 3.7
-3 -10 -2 -1 3
-3 -10 -2 1.2 3.2
-3 -10 -2 -0.6 3.2
3 10 2 4.9 3.6
3 10 2 -156.58 214.88
3 10 2 -0.6 3.6
-4 -10 -2 1.4 2.9
-4 -10 -2 3.6 3
-4 -10 -2 4.9 4.4
-4 -10 -2 3.7 2.9
4 10 2 -4.6 3.7
4 10 2 -87.19 209.18
-5 -10 -2 2.5 3.9
-5 -10 -2 5.7 3.1
-5 -10 -2 5.2 3.7
-5 -10 -2 5.9 4.8
-5 -10 -2 5.4 3.5
5 10 2 3.7 3.4
5 10 2 65.09 258.57
5 10 2 -5.1 3.8
-6 -10 -2 -5.5 3.4
-6 -10 -2 1.3 3.2
-6 -10 -2 -2 4.2
-6 -10 -2 2.8 3.6
6 10 2 1.1 3.8
6 10 2 -1.2 4.5
-7 -10 -2 -0.3 5.2
-7 -10 -2 2.7 3.7
-7 -10 -2 -3.9 3.7
7 10 2 -5.7 4.5
7 10 2 -3.1 4.5
-2 -11 -2 7.1 4.2
-2 -11 -2 10.4 4.9
-2 -11 -2 -0.8 3.7
2 11 2 12.2 4.1
2 11 2 -60.69 268.87
-3 -11 -2 2 3.6
-3 -11 -2 -1.4 4.4
-3 -11 -2 1.8 4.1
3 11 2 -74.29 235.18
3 11 2 2.2 4.1
-4 -11 -2 5.1 3.6
-4 -11 -2 3.5 5.4
-4 -11 -2 2.3 3.8
-4 -11 -2 -0.7 3.7
4 11 2 3.7 4.7
4 11 2 -21.7 262.37
-5 -11 -2 6.7 3.9
-5 -11 -2 7.7 4.2
-5 -11 -2 -0.4 4.2
-5 -11 -2 14.9 5.4
5 11 2 102.99 260.77
5 11 2 1.5 4.3
6 11 2 104.09 303.87
6 10 -3 -0.2 4.7
6 10 -3 12.4 235.48
-6 -10 3 12.3 4.3
-6 -10 3 5 4.2
-6 -10 3 3.7 3.6
-6 -10 3 5.7 4.8
5 10 -3 193.88 248.08
4 10 -3 -0.5 4.1
4 10 -3 92.99 254.47
-4 -10 3 2 5.4
-4 -10 3 1.5 3.6
-4 -10 3 11.2 3.7
-4 -10 3 -3.1 3.4
3 10 -3 4.4 3.9
3 10 -3 -309.67 214.58
-3 -10 3 5.3 3.8
-3 -10 3 -1.8 3.4
-3 -10 3 4 4.8
-3 -10 3 4.1 3.6
2 10 -3 140.29 241.18
1 10 -3 146.29 265.17
0 10 -3 -56.39 247.68
0 -10 3 23.5 4.3
0 -10 3 5.2 4.6
0 -10 3 19.3 4.5
0 -10 3 29.3 5.5
7 9 -3 -0.9 4.6
7 9 -3 9.5 4.7
7 9 -3 -107.09 241.68
-7 -9 3 5.5 4.1
-7 -9 3 6 4.1
-7 -9 3 3.6 5.2
6 9 -3 16.8 4.5
6 9 -3 16.5 4.8
6 9 -3 32.4 224.98
-6 -9 3 20.5 5.6
-6 -9 3 19.5 3.7
-6 -9 3 25.2 4.4
-6 -9 3 16 4.3
5 9 -3 22.9 4.6
5 9 -3 13.8 3.9
5 9 -3 257.67 244.38
-5 -9 3 18.9 4.8
-5 -9 3 20.6 3.7
-5 -9 3 28.4 6.1
-5 -9 3 17.6 4.3
-5 -9 3 25.3 4.5
4 9 -3 23.3 4.3
4 9 -3 67.29 238.58
-4 -9 3 12.9 3.4
-4 -9 3 16.6 5
-4 -9 3 17.1 3.9
-4 -9 3 15.2 3.7
-4 -9 3 9.7 3.9
3 9 -3 44.3 5.4
3 9 -3 -29.1 197.48
-3 -9 3 35.6 4.5
-3 -9 3 37.6 4.7
-3 -9 3 32.6 5.3
-3 -9 3 32.8 4.3
2 9 -3 -28.8 182.78
2 9 -3 20 3.8
-2 -9 3 13.2 3.5
-2 -9 3 13.3 3.6
-2 -9 3 12.8 3.4
-2 -9 3 16.4 4.3
1 9 -3 5.9 3
1 9 -3 -23 208.28
-1 -9 3 -1.3 3.1
-1 -9 3 4.7 2.7
-1 -9 3 8.3 3.5
-1 -9 3 0.6 2.8
0 9 -3 -213.58 180.58
-1 9 -3 215.88 224.08
-2 9 -3 -86.79 253.57
2 -9 3 14.3 3.7
2 -9 3 15.2 4.2
8 8 -3 6.2 4.9
8 8 -3 11 5
-8 -8 3 12.1 4.8
-8 -8 3 -3.5 4.8
-8 -8 3 8.4 4.6
7 8 -3 26.3 5.1
7 8 -3 19.8 5
-7 -8 3 20 5.1
-7 -8 3 21.1 5.6
-7 -8 3 17.2 4.6
6 8 -3 17.8 4.5
6 8 -3 199.38 252.97
6 8 -3 21.2 4.3
-6 -8 3 14.2 4.7
-6 -8 3 19.2 3.9
-6 -8 3 15.9 4.1
-6 -8 3 12.5 3
5 8 -3 3.3 2.8
5 8 -3 114.79 219.78
5 8 -3 8.2 3.9
-5 -8 3 6.4 2.4
-5 -8 3 1 3.8
-5 -8 3 4.6 3.1
-5 -8 3 -0.2 3.7
-5 -8 3 4.3 3
4 8 -3 11.1 3.5
4 8 -3 -118.29 176.68
4 8 -3 3.8 2.5
-4 -8 3 6.4 2.5
-4 -8 3 7.7 3.5
-4 -8 3 8.1 3
-4 -8 3 9.8 3.2
-4 -8 3 6.9 3.8
3 8 -3 -40.6 189.78
3 8 -3 67.69 6.1
3 8 -3 58.49 4.5
-3 -8 3 63.19 5.4
-3 -8 3 61.69 6.2
-3 -8 3 60.39 5.4
-3 -8 3 60.49 5.7
-3 -8 3 67.19 6.6
2 8 -3 -318.67 150.88
1 8 -3 11.5 3
1 8 -3 100.29 164.48
-1 -8 3 7.2 2.8
-1 -8 3 17 3.5
-1 -8 3 8.8 2.7
-1 -8 3 12.8 3.2
0 8 -3 94.39 208.68
0 8 -3 11.2 2.7
0 -8 3 3.9 2.4
0 -8 3 2.6 2.4
0 -8 3 4.1 3
0 -8 3 10 3
-1 8 -3 116.29 201.08
-2 8 -3 -242.38 167.68
2 -8 3 1.4 2.8
2 -8 3 -5.4 2.8
2 -8 3 -2.6 3
-3 8 -3 -264.57 218.08
3 -8 3 1.1 3.5
3 -8 3 -0.6 3.6
8 7 -3 13.8 4.5
8 7 -3 5.1 4.9
8 7 -3 13 5
-8 -7 3 15 5.4
-8 -7 3 18.4 4.6
7 7 -3 17.5 3.8
7 7 -3 11.4 4.3
7 7 -3 10.4 4.4
-7 -7 3 14.8 4.1
-7 -7 3 11.1 4.1
-7 -7 3 8.4 4.4
6 7 -3 8.9 3.2
6 7 -3 5.5 3.4
6 7 -3 5.2 3.2
-6 -7 3 4 2
-6 -7 3 5.3 3.5
-6 -7 3 7.7 3.1
-6 -7 3 6.8 3
5 7 -3 73.49 6.5
5 7 -3 66.09 6.7
5 7 -3 76.09 6.4
-5 -7 3 80.79 7.1
-5 -7 3 74.69 5
-5 -7 3 65.69 6.6
-5 -7 3 64.89 6
-5 -7 3 68.29 6.3
4 7 -3 20.9 3.9
4 7 -3 27.2 3.5
4 7 -3 116.89 172.48
4 7 -3 22.7 3.8
-4 -7 3 23.7 3.6
-4 -7 3 29.7 4.6
-4 -7 3 23.7 4
-4 -7 3 24.5 3.2
-4 -7 3 30.2 3.7
3 7 -3 93.39 161.48
3 7 -3 13.6 2.3
3 7 -3 17.4 3.4
-3 -7 3 14.1 3.2
-3 -7 3 23.4 3.2
-3 -7 3 15.9 2.6
-3 -7 3 15.4 3.6
-3 -7 3 19 3.1
2 7 -3 -21.5 156.28
2 7 -3 10.9 2.8
-2 -7 3 5.8 2.3
-2 -7 3 6.1 2.4
-2 -7 3 7.7 2.7
-2 -7 3 10.1 2.8
-2 -7 3 4.1 2.2
1 7 -3 166.68 8
1 7 -3 111.19 170.88
1 7 -3 177.58 9
-1 -7 3 152.68 8.6
-1 -7 3 169.98 10
-1 -7 3 158.08 8.7
-1 -7 3 191.38 8.6
-1 -7 3 164.98 8.8
0 7 -3 -94.29 133.79
0 -7 3 14.2 2.9
0 -7 3 11.9 3
-1 7 -3 38.4 3.7
-1 7 -3 146.39 186.78
-1 7 -3 33.7 3.8
1 -7 3 30.8 3.7
1 -7 3 31.8 4.1
1 -7 3 33.3 4
-2 7 -3 200.08 191.68
-2 7 -3 80.09 6.2
2 -7 3 81.59 6.5
2 -7 3 60.59 5.9
2 -7 3 77.79 5.7
-3 7 -3 103.19 224.88
-4 7 -3 228.38 247.28
9 6 -3 -1.1 4.9
9 6 -3 -1.5 4.4
-9 -6 3 1.1 4.8
-9 -6 3 0.6 3.5
8 6 -3 -0.8 4.1
8 6 -3 -1.8 3.2
8 6 -3 0.5 3.1
-8 -6 3 -3 3.4
-8 -6 3 -3.4 3.6
7 6 -3 22.1 4.1
7 6 -3 16 4.4
7 6 -3 30.3 4.6
-7 -6 3 21.9 4.5
-7 -6 3 24.4 4.5
-7 -6 3 22.2 4.1
6 6 -3 28.5 5.1
6 6 -3 39.2 4.9
6 6 -3 47.7 5.2
-6 -6 3 44.1 5.2
-6 -6 3 32.4 3
-6 -6 3 38.3 4.8
-6 -6 3 35.7 4.3
5 6 -3 66.19 5.8
5 6 -3 58.09 6.3
5 6 -3 59.99 5.7
-5 -6 3 70.49 5.6
-5 -6 3 60.79 4.5
-5 -6 3 68.29 6.4
-5 -6 3 67.39 6.3
-5 -6 3 71.19 5.6
4 6 -3 -145.09 143.69
4 6 -3 14.5 2.8
4 6 -3 7.8 2.5
4 6 -3 11.5 2.9
-4 -6 3 12.8 2.5
-4 -6 3 9.9 2.2
-4 -6 3 9.5 2.9
-4 -6 3 9.1 2.9
3 6 -3 292.07 180.78
2 6 -3 123.99 153.68
2 6 -3 61.89 4.6
2 6 -3 53.19 3.5
2 6 -3 47.6 4.7
-2 -6 3 62.19 5.2
-2 -6 3 53.69 4.1
-2 -6 3 58.09 4.9
-2 -6 3 55.59 4.2
-2 -6 3 64.49 4.7
-2 -6 3 59.49 4.3
1 6 -3 67.79 4.6
1 6 -3 171.08 137.29
1 6 -3 54.49 4.8
-1 -6 3 62.99 4.5
-1 -6 3 57.49 4.1
-1 -6 3 57.69 4.3
-1 -6 3 54.29 4.8
-1 -6 3 56.39 4.2
-1 -6 3 58.69 5
0 6 -3 -146.59 122.99
-1 6 -3 15.7 164.48
-1 6 -3 93.09 5.4
-1 6 -3 90.09 5.6
1 -6 3 91.39 6
1 -6 3 87.29 5.9
1 -6 3 88.49 6
1 -6 3 82.99 5.9
-2 6 -3 -39.1 143.99
-2 6 -3 -2.7 2.2
2 -6 3 1.2 2.3
2 -6 3 -4.5 1.6
2 -6 3 0.2 2
2 -6 3 -2.6 1.9
2 -6 3 -3.4 1.8
-3 6 -3 -7.8 188.78
3 -6 3 114.89 6.8
3 -6 3 104.29 5.9
3 -6 3 90.99 6
3 -6 3 99.79 7.1
-4 6 -3 47.6 176.78
4 -6 3 11.3 3.2
4 -6 3 7.5 2.8
4 -6 3 15.5 3.5
-5 6 -3 52.49 226.68
5 -6 3 7 4.1
5 -6 3 20.4 3.9
9 5 -3 14.2 5
9 5 -3 6.6 4.9
-9 -5 3 14.3 5.3
-9 -5 3 11.3 3.7
8 5 -3 15.9 4
8 5 -3 6.6 4.1
-8 -5 3 10.1 3.2
-8 -5 3 13.2 4.5
7 5 -3 8.5 3.1
7 5 -3 9.5 2.9
7 5 -3 1.3 3.4
-7 -5 3 7.1 3.3
-7 -5 3 4.4 2.8
6 5 -3 85.29 6.4
6 5 -3 94.19 6.6
-6 -5 3 88.29 6.8
-6 -5 3 85.79 7.1
-6 -5 3 94.69 6.4
5 5 -3 -0.9 2
5 5 -3 0.4 2.4
5 5 -3 -0.3 2
-5 -5 3 0.6 1.9
-5 -5 3 -1.3 1.8
-5 -5 3 2.3 2
-5 -5 3 1.3 2.3
4 5 -3 7.6 2.3
4 5 -3 9.5 2.3
4 5 -3 6.8 1.6
4 5 -3 5.9 2.4
-4 -5 3 7.5 2.5
-4 -5 3 7.5 2.2
-4 -5 3 10.3 2.1
-4 -5 3 7.7 1.6
-4 -5 3 7.6 2.2
3 5 -3 188.98 10.6
3 5 -3 184.48 9.2
3 5 -3 191.68 8.7
3 5 -3 243.78 165.28
-3 -5 3 192.48 8.3
-3 -5 3 174.88 10.3
-3 -5 3 177.18 8.6
-3 -5 3 192.58 9.1
-3 -5 3 187.38 9.5
2 5 -3 12.6 1.8
2 5 -3 12.9 2.6
2 5 -3 115.89 118.59
2 5 -3 10.2 2.1
-2 -5 3 14.2 1.9
-2 -5 3 13.2 2
-2 -5 3 13 2.1
-2 -5 3 12 2.5
-2 -5 3 14.7 1.8
-2 -5 3 9.8 2.4
-2 -5 3 13.3 2.6
1 5 -3 40.3 3.4
1 5 -3 81.99 114.19
1 5 -3 42.5 3.8
-1 -5 3 41.2 3.7
-1 -5 3 39.2 3.1
-1 -5 3 37.5 3.5
-1 -5 3 40.9 3.9
-1 -5 3 39.1 3.3
-1 -5 3 41 3.3
0 5 -3 4.8 1.5
0 5 -3 48.8 111.79
0 5 -3 4.4 1.7
0 5 -3 3.5 1.2
0 5 -3 5 1.6
0 -5 3 5.7 1.6
0 -5 3 5.5 1.6
0 -5 3 2.4 1.7
0 -5 3 5.5 1.7
0 -5 3 3.1 1.6
0 -5 3 6.6 1.7
0 -5 3 5.8 1.5
-1 5 -3 45.6 3.5
-1 5 -3 57.19 3.7
-1 5 -3 72.29 138.69
-1 5 -3 55.79 3.8
1 -5 3 54.19 4.1
1 -5 3 48.5 3.1
1 -5 3 52.79 4.1
1 -5 3 50.09 3.9
1 -5 3 47.5 3.8
-2 5 -3 220.88 10.8
-2 5 -3 221.68 156.48
2 -5 3 230.18 10.6
2 -5 3 216.38 11
2 -5 3 217.48 9.6
2 -5 3 221.08 10.5
-3 5 -3 184.08 165.78
-4 5 -3 85.59 193.58
4 -5 3 8.7 2.7
4 -5 3 13.6 3.2
4 -5 3 11.3 2.9
4 -5 3 8.3 2.5
-5 5 -3 34.9 203.28
5 -5 3 41.2 4.5
5 -5 3 38.3 4.7
5 -5 3 33.9 3.9
5 -5 3 34.2 4.6
-6 5 -3 127.19 267.57
9 4 -3 4.6 3.7
9 4 -3 11.6 4.4
-9 -4 3 12.5 3.9
-9 -4 3 16.6 5
8 4 -3 0.4 3.2
8 4 -3 4.4 3.7
-8 -4 3 3.9 3.3
-8 -4 3 -2.7 2.6
7 4 -3 3.5 2.7
7 4 -3 7.4 2.5
7 4 -3 7.1 2.8
-7 -4 3 0.7 3.1
-7 -4 3 0.2 2.3
6 4 -3 17.5 3
6 4 -3 17.4 3.1
6 4 -3 19.8 3.8
-6 -4 3 18.8 3.5
-6 -4 3 15.2 3
-6 -4 3 23.1 3.6
5 4 -3 152.98 9.8
5 4 -3 173.78 8.9
5 4 -3 174.98 10.2
5 4 -3 178.08 8.7
-5 -4 3 178.88 9.1
-5 -4 3 177.48 9.9
-5 -4 3 168.98 9.2
4 4 -3 56.79 4.3
4 4 -3 59.89 4.9
4 4 -3 51.49 4
-4 -4 3 52.29 3.1
-4 -4 3 56.59 4
-4 -4 3 55.39 4.2
-4 -4 3 55.09 4.5
-4 -4 3 60.89 4.6
3 4 -3 5.2 1.7
3 4 -3 0.4 1.5
3 4 -3 1.4 1.4
3 4 -3 3.2 1.8
3 4 -3 2.4 1
-3 -4 3 1.8 1
-3 -4 3 3.4 1.5
-3 -4 3 3 1.6
-3 -4 3 4.1 1.6
-3 -4 3 4.1 1.5
2 4 -3 412.66 16.1
2 4 -3 375.26 15.4
2 4 -3 167.98 111.39
2 4 -3 402.86 15.9
2 4 -3 403.96 19.3
2 4 -3 410.66 17
-2 -4 3 397.56 16.7
-2 -4 3 378.66 19.1
-2 -4 3 377.66 15.8
-2 -4 3 415.16 15.9
-2 -4 3 403.96 16
-2 -4 3 424.36 19.3
1 4 -3 299.17 11.8
1 4 -3 286.27 11.4
1 4 -3 100.59 105.09
1 4 -3 294.77 12.6
-1 -4 3 278.37 12.1
-1 -4 3 301.67 14.4
-1 -4 3 289.07 11.4
-1 -4 3 296.47 12
-1 -4 3 280.77 12.7
-1 -4 3 293.47 11.8
-1 -4 3 289.87 14.1
-1 -4 3 293.87 12.5
0 4 -3 43.4 95.29
0 4 -3 30.3 2.1
0 4 -3 34.9 2.2
0 4 -3 29.7 2.6
0 4 -3 29.9 2.6
0 4 -3 26.3 2.9
0 4 -3 31.3 2.7
0 -4 3 27.2 2.6
0 -4 3 29.9 2.8
0 -4 3 35.8 2.8
0 -4 3 33.5 2.9
0 -4 3 29.8 2.1
0 -4 3 34 2.8
0 -4 3 30.4 2.8
-1 4 -3 68.89 3.9
-1 4 -3 41.5 109.09
-1 4 -3 61.59 3.5
-1 4 -3 61.69 3.6
-1 4 -3 60.49 3.7
1 -4 3 58.39 4.1
1 -4 3 59.49 3.9
1 -4 3 59.09 3.3
1 -4 3 62.19 3.5
1 -4 3 62.19 3.9
1 -4 3 61.89 3.4
-2 4 -3 37.2 3.3
-2 4 -3 149.39 126.79
2 -4 3 40.6 3.1
2 -4 3 37.7 3.1
2 -4 3 46.1 3.4
2 -4 3 41.5 2.9
-3 4 -3 108.39 126.19
3 -4 3 45.3 4.2
3 -4 3 66.79 4.5
3 -4 3 53.29 3.8
-4 4 -3 84.59 166.48
-5 4 -3 -102.49 183.78
5 -4 3 132.59 7.4
5 -4 3 126.09 7.9
5 -4 3 118.99 7.7
5 -4 3 137.19 7.9
-6 4 -3 -365.06 190.88
6 -4 3 -0.6 2.7
6 -4 3 -2.8 2.9
6 -4 3 -4.2 2.6
6 -4 3 -4.2 2.6
-7 4 -3 -166.48 251.87
7 -4 3 -2.6 3.3
7 -4 3 0.8 3.6
7 -4 3 -1.4 3.8
7 -4 3 6 3.6
9 3 -3 1.9 3.7
9 3 -3 2.3 4.1
-9 -3 3 5.4 3.7
-9 -3 3 7.9 4.2
8 3 -3 1.1 3.1
8 3 -3 0.9 3.3
-8 -3 3 7.5 3.6
-8 -3 3 1.6 2.7
7 3 -3 -5 2.3
7 3 -3 -2.9 2.7
7 3 -3 0.4 1.8
-7 -3 3 -0.7 2.1
-7 -3 3 -2.1 2.2
-7 -3 3 -2.7 2.6
6 3 -3 43.8 4.3
6 3 -3 40.4 4.1
6 3 -3 40.2 4.6
-6 -3 3 42.4 4.6
-6 -3 3 42.2 4.1
5 3 -3 34.5 4
5 3 -3 32.7 3.4
5 3 -3 39 3.7
5 3 -3 30.6 3.6
-5 -3 3 35.8 3.8
-5 -3 3 31.2 3.2
-5 -3 3 43.4 4
-5 -3 3 39.7 3.9
4 3 -3 209.98 9.8
4 3 -3 233.68 10.5
4 3 -3 234.98 11.8
4 3 -3 229.88 10.1
4 3 -3 229.88 12
-4 -3 3 236.58 10.4
-4 -3 3 219.08 9.7
-4 -3 3 217.48 11.7
-4 -3 3 221.98 10.6
3 3 -3 2.9 1.5
3 3 -3 5.8 1.6
3 3 -3 5.8 1.1
3 3 -3 4.5 1.4
3 3 -3 6.7 1.9
3 3 -3 6 1.7
-3 -3 3 6 1.6
-3 -3 3 5.6 1.4
-3 -3 3 8 1.8
-3 -3 3 6.9 1.5
2 3 -3 99.09 6.3
2 3 -3 111.09 5.1
2 3 -3 -57.29 87.69
2 3 -3 108.29 5.2
2 3 -3 106.09 4.9
2 3 -3 105.09 6
2 3 -3 114.79 5.6
-2 -3 3 101.29 5.7
-2 -3 3 115.79 6.3
-2 -3 3 112.29 6.2
-2 -3 3 108.19 5.4
-2 -3 3 106.79 4.9
-2 -3 3 107.49 4.9
1 3 -3 376.06 15.9
1 3 -3 384.26 16
1 3 -3 376.26 14.9
1 3 -3 385.96 14.7
1 3 -3 140.49 91.09
1 3 -3 386.36 18.1
-1 -3 3 376.26 14.7
-1 -3 3 354.96 15.2
-1 -3 3 385.16 18
-1 -3 3 393.66 15.8
-1 -3 3 392.26 15
-1 -3 3 389.16 16.1
-1 -3 3 402.96 18.1
0 3 -3 139.09 5.9
0 3 -3 139.29 6.4
0 3 -3 133.89 6.4
0 3 -3 135.59 7.2
0 3 -3 145.89 6.1
0 3 -3 119.49 82.79
0 -3 3 143.59 5.8
0 -3 3 142.19 7.3
0 -3 3 139.79 6.5
0 -3 3 133.69 6.4
0 -3 3 128.69 7.1
0 -3 3 144.69 6.1
-1 3 -3 146.49 6.2
-1 3 -3 149.09 6
-1 3 -3 20.7 88.99
-1 3 -3 139.19 7.2
-1 3 -3 139.49 6.4
-1 3 -3 135.29 6.4
1 -3 3 145.69 7.3
1 -3 3 143.39 7.1
1 -3 3 134.69 6.6
1 -3 3 145.89 6
1 -3 3 141.99 6.1
1 -3 3 141.49 6.3
1 -3 3 143.79 6.4
-2 3 -3 -65.89 93.39
-3 3 -3 -1.4 115.09
3 -3 3 -1.8 1.1
3 -3 3 -0.7 1.2
3 -3 3 1.1 1.2
-4 3 -3 -61.79 110.79
4 -3 3 -4.2 1.5
4 -3 3 -1.2 1.4
4 -3 3 -1.4 1.5
-5 3 -3 159.48 190.28
5 -3 3 141.59 7.9
5 -3 3 141.79 7.5
5 -3 3 138.59 8
-6 3 -3 -91.99 171.28
-6 3 -3 8.6 2.7
6 -3 3 8.1 2.8
6 -3 3 5.6 2.7
6 -3 3 6 3.2
-7 3 -3 -176.98 208.78
9 2 -3 -0.8 4.6
9 2 -3 6.9 3.5
-9 -2 3 8.2 4.5
-9 -2 3 5.4 3.6
8 2 -3 20.4 4.2
8 2 -3 23 4.3
-8 -2 3 25.3 4.2
-8 -2 3 30.4 4.5
7 2 -3 18.5 3.3
7 2 -3 11.5 3.4
-7 -2 3 19 3.4
-7 -2 3 17.5 3.5
6 2 -3 0 1.5
6 2 -3 -1.7 1.8
6 2 -3 0.9 1.9
-6 -2 3 1.5 1.6
-6 -2 3 -0.3 2
-6 -2 3 -0.6 1.8
5 2 -3 14.4 2.2
5 2 -3 15.8 2.5
5 2 -3 12.7 2.6
5 2 -3 15.9 2.5
-5 -2 3 16.1 2.6
-5 -2 3 15.7 2.4
-5 -2 3 18.5 2.3
4 2 -3 24.6 2.6
4 2 -3 23 2.6
4 2 -3 22.5 2.7
4 2 -3 16.5 2.6
4 2 -3 23.5 2.6
-4 -2 3 24.9 2.8
-4 -2 3 21.8 2.7
-4 -2 3 21.6 2.3
-4 -2 3 24.3 2.8
3 2 -3 84.69 4.6
3 2 -3 95.39 5.7
3 2 -3 87.79 4.7
3 2 -3 92.89 4.8
3 2 -3 92.69 5
3 2 -3 103.19 5.5
-3 -2 3 91.89 5.2
-3 -2 3 92.89 4.9
-3 -2 3 97.19 5.6
2 2 -3 1140.89 51.19
2 2 -3 1214.78 51.09
2 2 -3 1116.99 45.2
2 2 -3 1182.98 45.3
2 2 -3 1096.89 42.1
2 2 -3 1134.89 43.6
-2 -2 3 1111.59 44.6
-2 -2 3 1122.79 45.3
-2 -2 3 1138.89 51.09
-2 -2 3 1148.39 51.19
1 2 -3 182.98 7.6
1 2 -3 174.48 9.3
1 2 -3 195.08 8.3
1 2 -3 201.48 9.2
1 2 -3 178.88 7.7
1 2 -3 184.58 8.3
-1 -2 3 191.08 7.6
-1 -2 3 191.58 7.8
-1 -2 3 189.08 9.4
-1 -2 3 190.98 9.3
-1 -2 3 189.78 8.1
-1 -2 3 188.18 8.4
0 2 -3 548.15 21.3
0 2 -3 561.84 21.2
0 2 -3 504.55 25.5
0 2 -3 582.94 22.7
0 2 -3 577.94 22.7
0 -2 3 579.74 22.8
0 -2 3 582.24 21.3
0 -2 3 561.54 22.8
0 -2 3 577.04 22.6
0 -2 3 581.14 21.2
0 -2 3 554.74 25.7
0 -2 3 590.84 25.7
-1 2 -3 148.79 77.89
-1 2 -3 541.95 19.3
-1 2 -3 517.45 20.7
-1 2 -3 535.75 23.4
-1 2 -3 508.05 20.6
-1 2 -3 517.85 19.7
1 -2 3 506.15 23.5
1 -2 3 507.35 23.4
1 -2 3 516.05 20.8
1 -2 3 512.15 21
1 -2 3 521.75 20.7
1 -2 3 532.05 19.3
1 -2 3 512.75 20.7
1 -2 3 516.35 19.7
-2 2 -3 626.44 24.3
-2 2 -3 596.54 24.2
-2 2 -3 439.96 122.09
2 -2 3 624.14 23.5
2 -2 3 618.64 24.6
2 -2 3 587.64 27.4
2 -2 3 628.94 27.5
-3 2 -3 240.18 118.19
3 -2 3 270.97 12.2
3 -2 3 279.27 11.4
3 -2 3 283.77 11.7
-4 2 -3 32 129.09
-5 2 -3 4.6 2
-5 2 -3 -284.47 145.49
5 -2 3 5.6 2
5 -2 3 9.1 2.6
-6 2 -3 123.19 201.68
-6 2 -3 43.1 4.6
6 -2 3 46.7 4.6
6 -2 3 48.2 4.9
-7 2 -3 101.49 217.48
-7 2 -3 32.6 4.4
7 -2 3 41 4.6
7 -2 3 34.9 4.6
-8 2 -3 -158.38 226.48
-8 2 -3 -1 2.9
8 -2 3 6.6 3.6
8 -2 3 0 3.7
9 1 -3 4 3.3
9 1 -3 3.2 4.2
-9 -1 3 10.8 4.2
-9 -1 3 11 4.5
8 1 -3 36.8 5.3
-8 -1 3 35.1 5.1
-8 -1 3 49.8 5.3
7 1 -3 31.6 4.6
7 1 -3 28.3 4
-7 -1 3 34.4 4.4
-7 -1 3 41.4 4.4
6 1 -3 274.47 12.6
6 1 -3 284.57 14.9
6 1 -3 292.17 13.4
-6 -1 3 305.37 13.4
-6 -1 3 283.27 12
-6 -1 3 285.97 13.2
5 1 -3 46.9 4.4
5 1 -3 56.39 4.3
5 1 -3 42.7 3.7
5 1 -3 51.69 3.7
5 1 -3 51.59 4.1
-5 -1 3 50.89 4
-5 -1 3 54.39 4.3
-5 -1 3 46 3.9
-5 -1 3 55.99 4.3
-5 -1 3 54.69 3.5
4 1 -3 11.6 2
4 1 -3 8.4 1.6
4 1 -3 7.8 1.7
4 1 -3 9.9 1.7
4 1 -3 9 1.8
-4 -1 3 11.9 1.9
-4 -1 3 11.3 1.9
-4 -1 3 11 1.6
-4 -1 3 11.3 2
3 1 -3 514.35 20
3 1 -3 532.35 23.3
3 1 -3 492.25 23.1
3 1 -3 504.65 20.5
3 1 -3 486.95 19.1
-3 -1 3 497.35 20.6
-3 -1 3 520.45 20.4
-3 -1 3 479.65 20.8
-3 -1 3 480.75 20.4
2 1 -3 1716.33 64.19
2 1 -3 1629.34 62.39
2 1 -3 1763.62 72.89
2 1 -3 1601.14 59.99
2 1 -3 1624.44 63.39
2 1 -3 1674.83 72.69
2 1 -3 1688.83 64.99
-2 -1 3 1608.34 63.49
-2 -1 3 1605.24 64.29
-2 -1 3 1602.74 72.69
-2 -1 3 1590.34 64.99
-2 -1 3 1665.83 72.69
-2 -1 3 1541.65 64.09
1 1 -3 671.33 26.4
1 1 -3 672.03 26
1 1 -3 645.34 25.3
1 1 -3 711.33 30
1 1 -3 735.93 29.9
1 1 -3 638.84 24.7
1 1 -3 695.73 26.4
1 1 -3 649.83 24.8
-1 -1 3 665.93 24.9
-1 -1 3 616.34 25.9
-1 -1 3 675.03 29.9
-1 -1 3 633.54 24.6
-1 -1 3 651.23 29.8
-1 -1 3 655.03 26.4
-1 -1 3 654.03 26.5
-1 -1 3 623.34 26.4
0 1 -3 1886.71 70.79
0 1 -3 1953.3 74.29
0 1 -3 2000.9 85.09
0 1 -3 2020.1 84.99
0 1 -3 1976.6 74.99
0 1 -3 1961.2 74.99
0 1 -3 1911.11 69.99
0 -1 3 1880.71 74.89
0 -1 3 1969.7 70.09
0 -1 3 1953.7 85.09
0 -1 3 1723.63 84.99
0 -1 3 1926.21 70.79
0 -1 3 1877.51 74.29
0 -1 3 1912.81 74.99
-1 1 -3 223.98 9.4
-1 1 -3 233.28 9.4
-1 1 -3 241.08 10.7
-1 1 -3 232.98 8.8
-1 1 -3 224.68 10.6
-1 1 -3 225.58 9.1
1 -1 3 233.78 8.8
1 -1 3 226.98 10.7
1 -1 3 218.48 9.5
1 -1 3 229.88 9.4
1 -1 3 228.38 9.1
1 -1 3 228.58 10.6
1 -1 3 213.78 9.4
-2 1 -3 324.87 12.9
-2 1 -3 330.07 13.4
-2 1 -3 349.77 15.1
-2 1 -3 317.47 13.3
-2 1 -3 124.99 73.69
2 -1 3 326.17 13
2 -1 3 339.67 15.1
2 -1 3 322.77 13
2 -1 3 344.37 15.1
2 -1 3 315.57 13.2
-3 1 -3 667.93 26.2
-3 1 -3 321.37 127.09
-3 1 -3 654.63 26.7
-3 1 -3 694.53 26.8
-3 1 -3 705.33 26.4
3 -1 3 658.13 30.4
3 -1 3 716.53 30.4
3 -1 3 676.13 26.1
3 -1 3 659.03 26.3
-4 1 -3 26.1 2.6
-4 1 -3 12.4 1.4
-4 1 -3 -7.4 107.09
4 -1 3 17.9 2
4 -1 3 19.9 1.9
4 -1 3 26.2 2.7
-5 1 -3 35.1 3.5
-5 1 -3 60.59 149.99
5 -1 3 36.2 3.5
5 -1 3 44.7 3.1
5 -1 3 34.5 3.6
-6 1 -3 134.89 174.88
-7 1 -3 8.6 187.08
-7 1 -3 7.1 2.5
7 -1 3 1.8 2.6
7 -1 3 1.1 2.6
-8 1 -3 23.8 228.48
-8 1 -3 25 4.2
8 -1 3 40 5.1
8 -1 3 42.6 5.3
8 0 -3 1.5 3.5
-8 0 3 10 3.6
-8 0 3 8.3 3.5
7 0 -3 21.2 3.7
7 0 -3 18.9 3.3
-7 0 3 22.8 4
-7 0 3 24.5 3.7
6 0 -3 29.2 3.8
6 0 -3 33.3 3.9
-6 0 3 46.2 4.1
-6 0 3 34.6 4.1
5 0 -3 141.59 7.6
5 0 -3 130.09 6.6
5 0 -3 133.09 6.5
5 0 -3 141.89 7.4
5 0 -3 136.89 7.8
-5 0 3 143.29 7.2
-5 0 3 119.49 6.7
-5 0 3 140.59 7.3
-5 0 3 167.58 8.2
4 0 -3 159.38 7.1
4 0 -3 158.78 8.3
4 0 -3 149.99 6.8
4 0 -3 158.28 7.6
4 0 -3 155.78 8.1
-4 0 3 158.38 7.5
-4 0 3 133.69 7.1
-4 0 3 157.28 8.1
-4 0 3 162.78 7.6
-4 0 3 162.88 8
3 0 -3 122.49 6.3
3 0 -3 110.89 5.2
3 0 -3 119.59 6.4
3 0 -3 118.19 5.6
3 0 -3 116.29 5.7
-3 0 3 130.59 6.3
-3 0 3 112.49 5.8
-3 0 3 109.59 5.5
-3 0 3 119.69 6.1
2 0 -3 278.87 11.3
2 0 -3 289.17 12.8
2 0 -3 273.57 10.6
2 0 -3 256.17 11.5
2 0 -3 265.57 11
-2 0 3 270.07 11.6
-2 0 3 260.07 11.1
-2 0 3 261.17 11.3
-2 0 3 264.57 12.6
-2 0 3 272.07 11.4
1 0 -3 6506.65 236.18
1 0 -3 6745.13 250.17
1 0 -3 6690.83 283.87
1 0 -3 6127.99 233.68
1 0 -3 6865.91 247.68
1 0 -3 6595.04 250.17
1 0 -3 6973.3 283.87
-1 0 3 6431.16 250.07
-1 0 3 6523.15 254.37
-1 0 3 6762.82 283.87
-1 0 3 5992.6 283.77
-1 0 3 6289.67 247.68
-1 0 3 6098.49 236.18
-1 0 3 6339.27 250.17
-1 0 3 6102.59 233.68
0 0 -3 1874.21 69.19
0 0 -3 1847.22 69.99
0 0 -3 1746.93 66.09
0 0 -3 1867.61 69.99
0 0 -3 1711.63 65.39
0 0 -3 1939.11 79.39
0 0 -3 1854.81 79.39
0 0 3 1820.92 65.39
0 0 3 1774.12 79.39
0 0 3 1798.82 69.99
0 0 3 1814.12 69.99
0 0 3 1666.43 66.09
0 0 3 1731.93 67.49
0 0 3 1746.03 79.39
0 0 3 1790.82 69.19
-1 0 -3 3.8 0.8
-1 0 -3 2.9 0.7
-1 0 -3 4.3 0.9
-1 0 -3 3.4 0.8
-1 0 -3 5.3 0.9
-1 0 -3 4.9 0.7
1 0 3 3.1 0.8
1 0 3 4.1 0.7
1 0 3 3.4 0.8
1 0 3 3.9 0.8
1 0 3 4 0.7
1 0 3 5.2 1
1 0 3 3.7 0.9
1 0 3 3.4 0.9
-2 0 -3 1117.19 42
-2 0 -3 1150.98 43
-2 0 -3 1120.19 44.3
-2 0 -3 1088.29 50.09
-2 0 -3 1122.29 42.3
-2 0 -3 1123.69 44.2
-2 0 -3 1197.08 50.09
-2 0 -3 1121.29 41.3
2 0 3 1132.19 42.3
2 0 3 1108.19 43.2
2 0 3 1105.89 50.19
2 0 3 1151.58 50.19
2 0 3 1096.89 42
2 0 3 1175.88 41.3
-3 0 -3 78.09 3.9
-3 0 -3 79.39 4.2
-3 0 -3 75.89 4.1
-3 0 -3 84.09 4.2
-3 0 -3 -32.2 86.49
-3 0 -3 79.79 3.7
-3 0 -3 85.89 4.3
3 0 3 76.29 4.3
3 0 3 87.99 4.6
3 0 3 83.59 3.7
3 0 3 83.49 4.2
3 0 3 83.59 4.5
3 0 3 78.39 4
-4 0 -3 0.6 0.9
-4 0 -3 2.2 1.1
-4 0 -3 -80.89 115.59
-4 0 -3 1.2 1.2
-4 0 -3 -0.6 0.7
4 0 3 0.9 1.1
4 0 3 -0.1 1.1
4 0 3 -0.6 0.8
4 0 3 0.5 0.9
4 0 3 2.4 1.2
-5 0 -3 7.5 1.8
-5 0 -3 -98.49 121.99
5 0 3 9.7 2
-6 0 -3 -259.37 149.99
-7 0 -3 9.1 2.6
-7 0 -3 -110.09 177.58
-7 0 -3 5.5 2.4
7 0 3 7.7 2.5
7 0 3 8.8 2.5
7 0 3 5.5 1.8
7 0 3 5 2.6
-8 0 -3 60.49 222.68
-8 0 -3 40.1 4.8
8 0 3 41.4 5
8 0 3 44.3 4.5
8 0 3 39.2 5.1
-9 0 -3 -28.1 285.37
-9 0 -3 1.3 2.9
9 0 3 1.2 3.7
9 0 3 -5.8 3.6
9 0 3 -0.5 2.2
8 -1 -3 5.7 3.7
8 -1 -3 1.5 2.6
-8 1 3 2.5 3.2
7 -1 -3 23.8 4.2
7 -1 -3 27.9 3.8
-7 1 3 24 4.2
-7 1 3 31.2 4
6 -1 -3 11.6 2.4
6 -1 -3 11.5 2.5
6 -1 -3 6.1 2.7
-6 1 3 15.3 3
-6 1 3 16 2.7
5 -1 -3 49.5 3.9
5 -1 -3 44.1 4.4
5 -1 -3 49.1 3.9
-5 1 3 44.7 4.3
-5 1 3 53.19 4
-5 1 3 46.6 4.8
4 -1 -3 95.69 5.6
4 -1 -3 94.79 5.6
4 -1 -3 94.39 5.6
4 -1 -3 101.39 4.7
-4 1 3 103.19 5.3
-4 1 3 88.39 4.8
-4 1 3 104.69 6
-4 1 3 93.29 5.3
3 -1 -3 1.9 1
3 -1 -3 1.6 0.9
3 -1 -3 1.5 1
3 -1 -3 0.7 0.8
3 -1 -3 2.5 0.9
-3 1 3 0 0.9
-3 1 3 0.9 1
-3 1 3 0.5 0.8
-3 1 3 -0.1 1.3
-3 1 3 -0.5 1
2 -1 -3 94.69 4.9
2 -1 -3 91.19 4.1
2 -1 -3 92.79 4.3
2 -1 -3 89.59 4.9
-2 1 3 91.99 4.3
-2 1 3 91.09 4.5
-2 1 3 86.09 4.8
-2 1 3 87.89 4.4
-2 1 3 94.69 4.8
1 -1 -3 3.9 0.9
1 -1 -3 3.1 0.8
1 -1 -3 2.4 0.8
1 -1 -3 3.7 0.5
1 -1 -3 4.3 0.8
1 -1 -3 3.9 0.7
1 -1 -3 4.6 1.1
1 -1 -3 3.9 0.9
-1 1 3 3.3 0.8
-1 1 3 3.4 0.9
-1 1 3 3.2 0.8
-1 1 3 4.6 0.8
-1 1 3 3.7 1
-1 1 3 3.1 0.6
-1 1 3 4.2 0.8
-1 1 3 3.8 0.6
0 -1 -3 -0.3 0.6
0 -1 -3 0 0.7
0 -1 -3 -0.3 0.5
0 -1 -3 0.5 0.4
0 -1 -3 0.3 0.6
0 -1 -3 0.8 0.7
0 -1 -3 -0.5 0.8
0 1 3 -0.6 0.6
0 1 3 -0.2 0.5
0 1 3 -0.4 0.5
0 1 3 -0.2 0.5
0 1 3 -1.1 0.7
0 1 3 -0.7 0.6
0 1 3 0.8 0.3
0 1 3 0.6 0.5
-1 -1 -3 566.84 21.2
-1 -1 -3 539.65 21.9
-1 -1 -3 566.74 22.1
-1 -1 -3 594.34 22.8
-1 -1 -3 592.44 25.7
-1 -1 -3 578.84 22.8
-1 -1 -3 572.04 25.8
-1 -1 -3 564.24 21.4
1 1 3 572.24 22.8
1 1 3 569.44 21.5
1 1 3 550.04 22.1
1 1 3 572.44 25.8
1 1 3 581.64 21.2
-2 -1 -3 1533.25 59.39
-2 -1 -3 1552.64 56.89
-2 -1 -3 1622.44 60.99
-2 -1 -3 1562.24 57.99
-2 -1 -3 1622.74 69.09
-2 -1 -3 1565.44 57.59
-2 -1 -3 1536.95 58.89
-2 -1 -3 1620.14 60.89
2 1 3 1585.74 60.99
2 1 3 1579.04 69.09
2 1 3 1541.05 58.89
2 1 3 1431.86 69.09
2 1 3 1615.14 57.99
2 1 3 1557.84 57.59
2 1 3 1528.45 59.49
2 1 3 1508.95 56.89
-3 -1 -3 212.48 8.9
-3 -1 -3 200.48 8.4
-3 -1 -3 186.68 8.1
-3 -1 -3 40.6 89.09
-3 -1 -3 193.68 8.7
-3 -1 -3 221.68 9.9
3 1 3 192.58 8.8
3 1 3 185.08 9.8
3 1 3 206.48 10
3 1 3 206.78 8.8
3 1 3 200.08 8.6
3 1 3 209.88 8.1
-4 -1 -3 1744.03 67.29
-4 -1 -3 1751.82 62.69
-4 -1 -3 1830.12 76.09
-4 -1 -3 1673.63 64.39
-4 -1 -3 1623.64 67.09
4 1 3 1795.32 76.19
4 1 3 1643.44 65.69
4 1 3 1690.83 67.09
4 1 3 1747.83 62.69
4 1 3 1690.93 63.99
4 1 3 1666.23 76.19
-5 -1 -3 111.59 5.9
-5 -1 -3 5.8 118.09
-5 -1 -3 100.89 5.5
-5 -1 -3 110.59 6.1
-5 -1 -3 109.19 5.9
5 1 3 111.69 6.5
5 1 3 114.79 6.1
5 1 3 119.89 5.3
5 1 3 108.79 6
5 1 3 114.09 6.4
5 1 3 103.69 5.5
-6 -1 -3 74.89 161.48
-6 -1 -3 37.1 3.3
-6 -1 -3 53.59 4.2
-6 -1 -3 48.3 4.2
6 1 3 48.3 4.5
6 1 3 53.99 3.5
6 1 3 49.1 4.1
6 1 3 49.5 4.2
6 1 3 53.09 4.2
6 1 3 44.2 3.4
-7 -1 -3 125.59 190.28
-8 -1 -3 10.3 3.5
-8 -1 -3 15.3 3.4
8 1 3 11.4 3.1
8 1 3 14.7 3.6
8 1 3 9.1 2.5
-9 -1 -3 0 3
-9 -1 -3 -0.9 3.8
9 1 3 4.3 3.6
9 1 3 4.1 3.1
9 1 3 -0.5 2.4
8 -2 -3 -0.5 4.3
-8 2 3 1.4 3.8
7 -2 -3 16.3 3.9
7 -2 -3 9.6 2.8
-7 2 3 9.2 3.3
6 -2 -3 42 4.9
-6 2 3 44.4 4.7
-6 2 3 45.3 5.4
5 -2 -3 258.47 12.7
5 -2 -3 268.47 12.3
5 -2 -3 254.67 12.8
-5 2 3 268.27 12.1
-5 2 3 439.96 211.48
-5 2 3 252.47 13.1
4 -2 -3 0.5 1.2
4 -2 -3 1.1 1.2
-4 2 3 1.7 1.6
-4 2 3 -0.9 1.6
-4 2 3 -50.19 143.89
3 -2 -3 -0.7 0.9
3 -2 -3 -0.2 0.9
3 -2 -3 1.2 1
-3 2 3 -0.7 1
-3 2 3 -0.1 0.7
-3 2 3 0.4 1.1
-3 2 3 -0.5 1.3
2 -2 -3 1196.78 46.9
2 -2 -3 1236.28 53.99
2 -2 -3 1251.07 45.9
2 -2 -3 1182.68 47.4
2 -2 -3 1181.68 53.89
-2 2 3 1249.77 47.6
-2 2 3 1232.88 45.6
-2 2 3 1190.68 45.9
-2 2 3 1202.08 49.1
1 -2 -3 33.8 2.1
1 -2 -3 34.5 2.5
1 -2 -3 35.1 2.1
1 -2 -3 33.8 2.2
1 -2 -3 33.1 2.5
1 -2 -3 36.6 2.1
-1 2 3 37.8 2.3
-1 2 3 34.2 2.1
-1 2 3 31.5 2
-1 2 3 32.8 2.6
-1 2 3 30.5 2.2
0 -2 -3 262.77 12.2
0 -2 -3 276.77 12.2
0 -2 -3 255.27 10.3
0 -2 -3 258.27 10
0 -2 -3 263.07 10.7
0 -2 -3 261.67 10
0 -2 -3 265.47 10.7
0 2 3 255.87 10.7
0 2 3 235.28 12
0 2 3 253.27 10.1
0 2 3 248.88 10
0 2 3 260.27 10.8
0 2 3 255.37 10.3
-1 -2 -3 81.59 4.1
-1 -2 -3 71.89 4.5
-1 -2 -3 86.59 3.6
-1 -2 -3 92.59 4.6
-1 -2 -3 78.49 3.9
-1 -2 -3 82.59 4
-1 -2 -3 81.69 3.8
-1 -2 -3 80.59 3.9
1 2 3 81.29 3.9
1 2 3 82.29 3.6
1 2 3 79.09 4.5
1 2 3 85.59 3.9
1 2 3 81.09 3.8
1 2 3 68.09 4.4
1 2 3 83.09 4.2
1 2 3 83.89 4.1
-2 -2 -3 115.99 5.7
-2 -2 -3 117.19 5.7
-2 -2 -3 130.39 6.6
-2 -2 -3 128.49 5.1
-2 -2 -3 120.29 5.6
-2 -2 -3 140.89 6.6
-2 -2 -3 132.29 5.4
-2 -2 -3 132.19 5.9
-2 -2 -3 128.09 5.5
2 2 3 123.79 6.6
2 2 3 117.19 5.3
2 2 3 121.69 5.5
2 2 3 116.09 5.4
2 2 3 122.99 6.6
2 2 3 115.39 5.8
2 2 3 122.29 5.8
2 2 3 135.89 6
-3 -2 -3 203.68 8.5
-3 -2 -3 190.08 8.9
-3 -2 -3 201.98 8.5
-3 -2 -3 212.88 8.8
-3 -2 -3 224.48 10.3
-3 -2 -3 204.28 9.2
3 2 3 211.68 9.1
3 2 3 207.18 10.4
3 2 3 200.58 9.2
3 2 3 205.88 8.7
3 2 3 207.78 8.4
-4 -2 -3 673.33 28.8
-4 -2 -3 746.93 29.1
-4 -2 -3 711.83 26.9
-4 -2 -3 730.33 27.6
-4 -2 -3 712.83 32.6
-4 -2 -3 721.43 27.9
4 2 3 716.33 28.6
4 2 3 722.53 26.9
4 2 3 719.33 27.6
4 2 3 693.83 32.8
4 2 3 731.63 28.9
-5 -2 -3 133.39 139.69
-5 -2 -3 26.6 2.7
-5 -2 -3 14.6 2
-5 -2 -3 20.1 2.6
-5 -2 -3 19.3 2.1
-5 -2 -3 29.4 2.8
5 2 3 20.8 2.2
5 2 3 21.3 2.4
5 2 3 17.8 2.5
5 2 3 15.4 2.8
5 2 3 16.3 2.4
5 2 3 18.4 2.3
-6 -2 -3 -0.4 1.6
-6 -2 -3 0.7 1.7
-6 -2 -3 5.3 2.3
-6 -2 -3 -2.3 2
6 2 3 -1.8 2.8
6 2 3 -1.5 1.6
6 2 3 5.8 2.1
6 2 3 -2.1 1.6
6 2 3 0.1 1.7
6 2 3 -1.1 1.7
-7 -2 -3 74.99 5.7
7 2 3 79.19 6.3
7 2 3 72.89 5.9
7 2 3 79.29 5.8
-8 -2 -3 1.7 2.8
-8 -2 -3 2.5 2.5
8 2 3 4.7 2.4
8 2 3 3.3 2.4
8 2 3 4.8 3
-9 -2 -3 6.4 4.2
-9 -2 -3 4.6 3
9 2 3 10.2 3.7
9 2 3 0.6 2.8
9 2 3 0.7 3.2
7 -3 -3 4.7 4
-7 3 3 5.6 3.7
6 -3 -3 -0.3 3.1
-6 3 3 3.6 2.9
-6 3 3 7.9 3.5
-5 3 3 261.97 211.48
4 -3 -3 392.06 15.5
-4 3 3 363.96 17.6
-4 3 3 384.66 16
-4 3 3 -59.49 194.88
-3 3 3 10.7 2.4
-3 3 3 -78.29 113.89
2 -3 -3 95.99 4.2
2 -3 -3 88.49 5
2 -3 -3 92.29 4.6
2 -3 -3 98.49 5.1
-2 3 3 89.19 4.5
-2 3 3 89.29 5.4
-2 3 3 89.89 4.7
-2 3 3 94.59 4.6
1 -3 -3 863.81 32.5
1 -3 -3 885.21 33
1 -3 -3 837.52 39.5
1 -3 -3 867.61 34.7
1 -3 -3 888.21 33.8
1 -3 -3 910.61 39.6
1 -3 -3 875.61 33.1
-1 3 3 907.51 33.2
-1 3 3 887.61 34.9
-1 3 3 909.11 39.3
-1 3 3 878.81 36
-1 3 3 869.11 34.9
0 -3 -3 1309.27 55.89
0 -3 -3 1252.87 47.6
0 -3 -3 1223.08 45.9
0 -3 -3 1221.68 55.79
0 -3 -3 1263.57 49.2
0 -3 -3 1255.27 46.2
0 3 3 1266.57 49.2
0 3 3 1230.58 49.3
-1 -3 -3 44.4 3.2
-1 -3 -3 46.1 2.7
-1 -3 -3 46.5 3.1
-1 -3 -3 42.3 2.2
-1 -3 -3 44.5 2.7
-1 -3 -3 46 2.9
1 3 3 42.2 2.8
1 3 3 40.5 2.2
1 3 3 41.8 3.1
1 3 3 44.5 2.8
1 3 3 44 2.2
1 3 3 39.6 2.9
1 3 3 38.2 3.2
-2 -3 -3 0.2 1
-2 -3 -3 0.2 0.9
-2 -3 -3 2.1 1
-2 -3 -3 0.5 0.7
-2 -3 -3 -0.2 1
-2 -3 -3 -0.2 1.1
2 3 3 0 0.8
2 3 3 -0.1 0.9
2 3 3 -0.4 0.9
2 3 3 -0.4 0.7
2 3 3 -0.9 0.9
2 3 3 1.2 0.7
-3 -3 -3 216.38 9.9
-3 -3 -3 189.18 7.7
-3 -3 -3 185.18 8.7
-3 -3 -3 185.08 9.9
-3 -3 -3 191.88 8.3
-3 -3 -3 176.28 8
3 3 3 184.18 7.9
3 3 3 192.28 9.8
3 3 3 194.28 8.7
3 3 3 170.58 8.6
-4 -3 -3 20.6 2.5
-4 -3 -3 20.4 2.3
-4 -3 -3 17.7 1.9
-4 -3 -3 19 2.4
-4 -3 -3 19 2
4 3 3 21.1 2.4
4 3 3 12.8 2.1
4 3 3 17.2 2.5
4 3 3 15.2 2.5
4 3 3 16.8 2.5
-5 -3 -3 27.4 2.7
-5 -3 -3 28.3 2.7
-5 -3 -3 26.1 2.6
-5 -3 -3 29.7 3.1
5 3 3 31.3 3.1
5 3 3 21.7 2.9
5 3 3 31.7 3.3
5 3 3 29.4 3
-6 -3 -3 95.79 5.7
-6 -3 -3 100.59 6.5
-6 -3 -3 100.09 6.2
-6 -3 -3 84.59 5.2
6 3 3 100.89 5.9
6 3 3 95.49 6.4
6 3 3 95.29 6.7
6 3 3 99.39 5.9
-7 -3 -3 8.9 2.4
-7 -3 -3 11.2 3
-7 -3 -3 1.1 1.9
7 3 3 4.1 2.7
7 3 3 -1.3 2.1
7 3 3 5.7 2.1
7 3 3 2.4 2.3
-8 -3 -3 0.8 2.8
-8 -3 -3 -0.6 2.3
8 3 3 -2.6 1.8
8 3 3 -0.9 2.5
8 3 3 -0.3 2.8
-9 -3 -3 -3.9 3.5
-9 -3 -3 1.5 2.6
9 3 3 0.9 3
9 3 3 -2.5 2.6
9 3 3 0.7 3.6
-10 -3 -3 2.8 3.3
-10 -3 -3 -1 4.9
10 3 3 1.6 3.4
10 3 3 1 3.3
6 -4 -3 -3.3 3.2
-6 4 3 4.3 3.9
-6 4 3 3.6 3.1
5 -4 -3 10.3 2.5
5 -4 -3 13.1 2.5
5 -4 -3 14.7 3.4
-5 4 3 18.9 3.9
-5 4 3 15.8 3.3
-4 4 3 -262.77 185.48
3 -4 -3 28.4 2.9
3 -4 -3 36.1 3.3
3 -4 -3 34.7 3.2
3 -4 -3 37.2 2.8
-3 4 3 37.9 3.5
-3 4 3 31.4 4
-3 4 3 -11 160.38
2 -4 -3 75.39 4.6
2 -4 -3 87.69 4.6
2 -4 -3 84.79 3.9
2 -4 -3 84.19 4.9
-2 4 3 -103.39 117.29
-2 4 3 78.09 5.3
-2 4 3 79.29 4.4
-2 4 3 78.29 4.2
1 -4 -3 -0.2 0.8
1 -4 -3 0.1 1
1 -4 -3 -0.3 1
1 -4 -3 -1.2 1
1 -4 -3 -1.4 0.9
1 -4 -3 0.5 0.9
1 -4 -3 -1 0.6
-1 4 3 0.1 1
-1 4 3 0.4 1.1
-1 4 3 0.1 1
-1 4 3 -0.4 0.8
0 -4 -3 76.19 4
0 -4 -3 81.09 4.2
0 -4 -3 76.29 4.7
0 -4 -3 79.69 4.8
0 -4 -3 78.29 3.5
0 -4 -3 75.79 4.2
0 -4 -3 75.79 3.6
0 4 3 78.79 4.3
0 4 3 80.89 4.5
0 4 3 76.59 4.3
0 4 3 76.59 4.5
0 4 3 74.89 3.4
-1 -4 -3 422.66 16.2
-1 -4 -3 415.86 19
-1 -4 -3 384.76 16
-1 -4 -3 399.66 16.7
-1 -4 -3 432.16 19.1
-1 -4 -3 388.86 15.6
1 4 3 404.56 16.7
1 4 3 390.86 16.7
1 4 3 382.16 15.9
-2 -4 -3 56.79 4.2
-2 -4 -3 66.79 3
-2 -4 -3 60.29 3.7
-2 -4 -3 66.59 4.4
-2 -4 -3 57.09 3.5
-2 -4 -3 59.39 3.4
-2 -4 -3 66.89 4
2 4 3 61.39 3
2 4 3 58.89 3.3
2 4 3 57.99 3.8
2 4 3 60.79 3.8
2 4 3 64.59 4.3
-3 -4 -3 1127.99 45.1
-3 -4 -3 1177.58 51.09
-3 -4 -3 1131.69 41.9
-3 -4 -3 1127.69 43.3
-3 -4 -3 1049.49 50.89
3 4 3 1107.59 50.99
3 4 3 1124.29 44.1
3 4 3 1152.78 45.1
3 4 3 1153.28 42
-4 -4 -3 9.8 1.9
-4 -4 -3 9.4 2.1
-4 -4 -3 6.4 1.3
-4 -4 -3 8.9 1.6
-4 -4 -3 6.6 1.6
4 4 3 6.8 1.8
4 4 3 6.3 1.8
4 4 3 8.6 2
4 4 3 7.5 2.4
4 4 3 7.9 1.5
-5 -4 -3 28.7 3.4
-5 -4 -3 29 2.8
-5 -4 -3 29.4 3.2
-5 -4 -3 29 2.8
-5 -4 -3 29.4 2.9
5 4 3 29.2 3.3
5 4 3 26.5 3.3
5 4 3 24.1 3.2
5 4 3 27.4 2.8
-6 -4 -3 50.79 4.5
-6 -4 -3 45.6 3.8
-6 -4 -3 42.2 4.7
-6 -4 -3 43.6 3.8
-6 -4 -3 40.9 3.7
6 4 3 50.19 4
6 4 3 49.2 4.3
6 4 3 47.1 4.7
6 4 3 45.1 4.7
-7 -4 -3 1.8 1.8
-7 -4 -3 0.6 1.8
-7 -4 -3 0.7 2.3
7 4 3 1.5 2.3
7 4 3 1.7 2.1
7 4 3 0.4 2.5
7 4 3 1.1 1.8
-8 -4 -3 2.3 2.2
-8 -4 -3 -0.7 2.9
8 4 3 -1.3 2
8 4 3 4.8 3.5
8 4 3 0.5 2.6
-9 -4 -3 -0.3 2.7
-9 -4 -3 -3.5 3.6
9 4 3 -1.5 2.9
9 4 3 -1.4 3.8
9 4 3 -2.3 2.2
-10 -4 -3 2.4 3.2
-10 -4 -3 3.8 4.8
10 4 3 -0.5 4.9
10 4 3 1.9 3.7
10 4 3 -0.4 3.3
6 -5 -3 -4.3 4
-6 5 3 5.3 4.3
-6 5 3 7 3.3
5 -5 -3 11.8 3.5
-5 5 3 15.2 3.5
-5 5 3 17.8 4.3
4 -5 -3 2.2 2.3
-4 5 3 4.6 2.3
-4 5 3 8.9 3.2
3 -5 -3 11.8 2.5
-3 5 3 -128.59 167.88
2 -5 -3 242.48 10.1
2 -5 -3 217.58 11.6
2 -5 -3 243.88 10.7
2 -5 -3 247.08 11.9
-2 5 3 205.68 170.88
-2 5 3 245.68 10.5
-2 5 3 234.28 11.9
1 -5 -3 101.99 5.3
1 -5 -3 99.89 5.9
1 -5 -3 94.69 4.5
1 -5 -3 89.89 5.5
-1 5 3 95.49 5.9
-1 5 3 92.79 5.1
-1 5 3 88.69 5
-1 5 3 30.5 129.59
0 -5 -3 2.6 0.9
0 -5 -3 4.8 1.5
0 -5 -3 4.7 1.5
0 -5 -3 3.3 1.5
0 -5 -3 3.5 1.3
0 -5 -3 4.4 1.3
0 5 3 2 0.7
0 5 3 5.7 1.6
0 5 3 4.6 1.4
0 5 3 6.9 1.7
0 5 3 -17 106.69
0 5 3 2.5 1.3
-1 -5 -3 671.33 27
-1 -5 -3 674.33 31.7
-1 -5 -3 680.93 27.8
-1 -5 -3 695.73 26
-1 -5 -3 659.23 31.6
-1 -5 -3 698.83 27
1 5 3 699.63 27.9
1 5 3 709.03 28
1 5 3 680.33 27
1 5 3 693.13 31.6
-2 -5 -3 36.9 3.1
-2 -5 -3 39.3 3.2
-2 -5 -3 37.6 3.6
-2 -5 -3 31.7 2.9
-2 -5 -3 37.3 3.5
-2 -5 -3 32.2 2.5
2 5 3 33 3.3
2 5 3 35.9 3.2
2 5 3 33.5 2.9
-3 -5 -3 45.3 3.1
-3 -5 -3 40.5 3.2
-3 -5 -3 37.1 3.8
-3 -5 -3 44.3 3.8
-3 -5 -3 43.6 3.3
-3 -5 -3 37.9 4
3 5 3 40.6 3.5
3 5 3 40.7 3.7
3 5 3 38.5 3.8
-4 -5 -3 77.19 5.6
-4 -5 -3 80.79 4.7
-4 -5 -3 75.29 5.1
-4 -5 -3 79.99 4.6
4 5 3 77.69 4.1
4 5 3 75.49 5.7
4 5 3 76.69 5.1
4 5 3 75.39 5.1
-5 -5 -3 40 3.9
-5 -5 -3 39.6 3.5
-5 -5 -3 38 3.2
-5 -5 -3 35.5 3.5
-5 -5 -3 38.3 4.2
5 5 3 37.7 4.4
5 5 3 44.3 4.2
5 5 3 40 4.3
5 5 3 34.3 3.1
-6 -5 -3 -2.8 1.4
-6 -5 -3 3.3 2.1
-6 -5 -3 1.4 2.1
-6 -5 -3 -0.2 1.5
-6 -5 -3 -1.1 1.6
6 5 3 0.1 1.4
6 5 3 4.8 3.4
6 5 3 0.7 1.9
6 5 3 -1.3 1.8
6 5 3 1.8 2.1
-7 -5 -3 23.1 3.7
-7 -5 -3 17 2.9
-7 -5 -3 14.3 2.7
-7 -5 -3 18.9 2.7
7 5 3 10.4 3.1
7 5 3 18.5 3
7 5 3 14.3 3.7
7 5 3 18.3 3.3
-8 -5 -3 40.9 5.2
-8 -5 -3 41.1 4.3
-8 -5 -3 37.3 4.3
8 5 3 44.9 6
8 5 3 40.4 4.6
8 5 3 35.5 4.3
8 5 3 53.29 6
-9 -5 -3 -4.8 3.7
-9 -5 -3 2.6 2.7
9 5 3 0 2.4
9 5 3 -3.7 3.5
9 5 3 -0.9 3.1
-10 -5 -3 5.7 3.4
-10 -5 -3 -1 4.7
10 5 3 2.4 3.6
10 5 3 -0.6 4.2
10 5 3 4.9 5.2
5 -6 -3 17 4.1
-5 6 3 16.8 4.8
4 -6 -3 4.7 2.8
-4 6 3 3.6 3.5
3 -6 -3 0.5 2.1
-3 6 3 14.6 201.88
-3 6 3 -3.9 2.5
2 -6 -3 46.4 4.1
2 -6 -3 42.6 3.8
2 -6 -3 46.6 4.3
2 -6 -3 35.3 3.2
-2 6 3 68.79 176.68
-2 6 3 51.99 4.8
1 -6 -3 59.29 4.4
1 -6 -3 58.59 4.5
1 -6 -3 60.09 4.7
1 -6 -3 51.79 3.4
-1 6 3 61.19 4.2
-1 6 3 -96.19 165.68
-1 6 3 52.59 4.9
0 -6 -3 4.8 1.3
0 -6 -3 0.8 1.6
0 -6 -3 2.6 1.5
0 -6 -3 2.3 1.7
0 -6 -3 1.4 1.7
0 -6 -3 0.6 1.7
0 6 3 -14.1 140.69
0 6 3 2.4 1.5
0 6 3 2.4 1.6
0 6 3 3.2 1.8
-1 -6 -3 198.28 8.7
-1 -6 -3 208.98 8.9
-1 -6 -3 190.08 9.1
-1 -6 -3 196.68 9.4
-1 -6 -3 212.18 10.9
-1 -6 -3 200.08 10.9
1 6 3 -118.59 134.79
1 6 3 191.18 10.5
1 6 3 200.38 9.6
-2 -6 -3 118.49 6.2
-2 -6 -3 130.69 6.7
-2 -6 -3 131.09 6.4
-2 -6 -3 127.39 7.7
-2 -6 -3 134.99 8
-2 -6 -3 128.89 7
2 6 3 123.19 7.6
2 6 3 129.79 6.8
2 6 3 131.29 7.1
-3 -6 -3 17.3 3.2
-3 -6 -3 19.8 2.5
-3 -6 -3 13.9 2.2
-3 -6 -3 18.2 3
-3 -6 -3 18.1 2.4
-3 -6 -3 19 3.2
3 6 3 13.6 2.7
3 6 3 17.8 2.6
3 6 3 18.4 2.8
-4 -6 -3 4.8 2.2
-4 -6 -3 2 1.8
-4 -6 -3 3.4 1.7
-4 -6 -3 2.2 1.7
-4 -6 -3 1.3 2.1
4 6 3 4.7 2
4 6 3 2.5 2
4 6 3 3.8 2.2
-5 -6 -3 11.1 2.9
-5 -6 -3 8.2 2.5
-5 -6 -3 8.9 2.2
-5 -6 -3 12 2.3
5 6 3 8.6 2.5
5 6 3 11.4 2.9
5 6 3 10.1 2.6
5 6 3 10.3 1.9
-6 -6 -3 2 1.9
-6 -6 -3 4.5 2.7
-6 -6 -3 3.4 2
-6 -6 -3 3.3 1.9
-6 -6 -3 5.5 2.7
6 6 3 3.4 1.9
6 6 3 7.2 2.6
6 6 3 1.1 2.5
6 6 3 6.6 2.7
-7 -6 -3 51.79 5
-7 -6 -3 36.3 3.9
-7 -6 -3 44.9 5
-7 -6 -3 42.1 4.3
7 6 3 51.89 5.6
7 6 3 33.3 4.9
7 6 3 27.8 4.4
7 6 3 41 4.3
-8 -6 -3 7.8 2.9
-8 -6 -3 9.7 2.8
-8 -6 -3 12.7 3.8
-8 -6 -3 11.6 2.8
8 6 3 10.6 3.3
8 6 3 9.9 3.5
8 6 3 8 3.6
8 6 3 5.9 2.6
-9 -6 -3 2.6 4.6
-9 -6 -3 2.4 3.1
9 6 3 3.3 3
9 6 3 7.2 4
9 6 3 9.1 4.7
-10 -6 -3 -2.4 4.7
4 -7 -3 -1.5 2.9
-4 7 3 -1.2 4.1
3 -7 -3 25.1 3.8
-3 7 3 32.3 5.3
-2 7 3 -87.99 184.68
1 -7 -3 37.9 4
1 -7 -3 44.1 4.5
1 -7 -3 30.3 3.1
-1 7 3 37.7 4.3
-1 7 3 43.2 4
-1 7 3 114.19 195.78
0 7 3 -162.68 153.28
-1 -7 -3 96.29 5.9
-1 -7 -3 105.29 7
-1 -7 -3 88.49 5.9
-1 -7 -3 106.29 5.3
-1 -7 -3 87.89 7
-1 -7 -3 99.99 5.9
1 7 3 95.59 6.1
1 7 3 145.79 162.98
1 7 3 101.29 6.4
-2 -7 -3 -1.7 1.8
-2 -7 -3 1.2 2.2
-2 -7 -3 -1.4 1.9
-2 -7 -3 -0.7 1.6
-2 -7 -3 0.4 1.9
-2 -7 -3 2 2.2
2 7 3 -1.1 2.1
2 7 3 -22.1 150.08
2 7 3 1 1.8
-3 -7 -3 723.33 27.4
-3 -7 -3 704.53 33.5
-3 -7 -3 646.34 28.2
-3 -7 -3 718.83 33.5
-3 -7 -3 697.23 29.6
-3 -7 -3 724.03 28.6
3 7 3 722.53 29.6
3 7 3 715.23 28.7
3 7 3 673.73 33.3
-4 -7 -3 231.38 10
-4 -7 -3 209.68 10.3
-4 -7 -3 207.58 10.1
-4 -7 -3 199.58 12.2
-4 -7 -3 205.98 11
4 7 3 203.78 10.5
4 7 3 223.98 11.1
4 7 3 196.38 12
-5 -7 -3 2.4 2.2
-5 -7 -3 -0.3 2.8
-5 -7 -3 -0.8 2.4
-5 -7 -3 3.2 2
5 7 3 0.9 2.4
5 7 3 0.7 2.3
5 7 3 -0.1 2
-6 -7 -3 10.2 2.4
-6 -7 -3 3.3 3
-6 -7 -3 4.2 2.5
-6 -7 -3 3.3 2.9
6 7 3 0 2.7
6 7 3 6 1.9
6 7 3 2 2.7
6 7 3 6.6 3.1
-7 -7 -3 32.4 3.8
-7 -7 -3 27.3 3.9
-7 -7 -3 34.1 4.9
-7 -7 -3 26.4 3.8
7 7 3 23.2 4.5
7 7 3 25 3.5
7 7 3 32.2 5
7 7 3 35.9 5.1
-8 -7 -3 12.2 4.3
-8 -7 -3 3.4 2.4
-8 -7 -3 4.7 2.8
-8 -7 -3 7.3 3.2
8 7 3 4.4 2.5
8 7 3 2.7 3.7
8 7 3 6.3 4.2
8 7 3 6.1 3.7
-9 -7 -3 12.1 3.6
-9 -7 -3 4 4.3
9 7 3 7.4 4.5
9 7 3 19.5 5.6
9 7 3 4.9 3.5
3 -8 -3 3.5 3.4
-3 8 3 4.7 4.3
-2 8 3 136.59 219.48
1 -8 -3 62.29 5.7
1 -8 -3 73.59 6.1
-1 8 3 76.59 6.7
-1 8 3 9.3 214.68
-1 8 3 69.69 5.7
0 8 3 172.38 197.98
-1 -8 -3 12.5 2.7
-1 -8 -3 11.4 2.6
-1 -8 -3 13.6 3.2
1 8 3 -32.1 166.68
1 8 3 10.4 2.9
1 8 3 12.4 2.7
2 8 3 151.88 188.48
-3 -8 -3 83.29 5.4
-3 -8 -3 84.89 5.9
-3 -8 -3 81.79 6.1
-3 -8 -3 87.19 7.2
-3 -8 -3 85.89 6.6
3 8 3 77.09 6.3
3 8 3 48.6 198.98
3 8 3 92.29 6.6
-4 -8 -3 124.89 7.7
-4 -8 -3 114.39 7.3
-4 -8 -3 129.89 9.5
-4 -8 -3 135.59 7.5
-4 -8 -3 127.79 8.4
4 8 3 131.29 8.3
4 8 3 129.69 7.9
-5 -8 -3 64.89 5.5
-5 -8 -3 66.09 7.3
-5 -8 -3 63.19 6.3
-5 -8 -3 52.89 5.4
-5 -8 -3 66.29 5.6
5 8 3 79.89 6.3
5 8 3 61.19 6.4
-6 -8 -3 -2 2.2
-6 -8 -3 -4.6 2.9
-6 -8 -3 -1.2 2.5
-6 -8 -3 -2.3 3
6 8 3 3.9 2.8
6 8 3 -1.4 2.9
6 8 3 -2.1 2.9
-7 -8 -3 -2.3 2.7
-7 -8 -3 -1.7 3.8
-7 -8 -3 -1.9 2.7
-7 -8 -3 -1.8 2.2
7 8 3 -1.8 3.3
7 8 3 2.8 3.5
7 8 3 1.1 3.3
-8 -8 -3 2.2 2.5
-8 -8 -3 -0.5 3.1
-8 -8 -3 0.5 3.2
-8 -8 -3 -8.6 4.1
8 8 3 -2.4 3.8
8 8 3 -1.5 3.6
8 8 3 -1.1 4
-9 -8 -3 16.2 3.5
-9 -8 -3 8.5 5.4
-9 -8 -3 15.3 4.7
9 8 3 12.5 5
9 8 3 -1 4.9
9 8 3 23.4 5.8
2 -9 -3 3.3 3
2 -9 -3 -3.4 3.5
-2 9 3 -9.1 4.6
1 -9 -3 5.9 3.3
1 -9 -3 12.2 3.3
-1 9 3 -70.79 229.78
-1 9 3 14.9 4.4
-1 9 3 6.5 3.4
0 -9 -3 1.3 3.1
0 -9 -3 -4.4 3
0 -9 -3 0.2 2.4
0 9 3 2.7 2.8
0 9 3 -3.4 3.2
0 9 3 -12.7 247.18
-1 -9 -3 29.7 4
-1 -9 -3 24.3 4.4
-1 -9 -3 24.7 3.6
1 9 3 26 3.7
1 9 3 25.4 4.6
1 9 3 163.08 204.18
2 9 3 314.67 233.48
-3 -9 -3 31.5 4.1
-3 -9 -3 36.2 5.1
-3 -9 -3 30 4.5
-3 -9 -3 36.3 4.5
-3 -9 -3 53.99 4.5
3 9 3 49.7 5.5
3 9 3 204.48 207.08
-4 -9 -3 9.5 3
-4 -9 -3 11.4 2.8
-4 -9 -3 13.3 4.3
-4 -9 -3 9.4 3
-4 -9 -3 5.3 3.3
4 9 3 83.49 205.78
4 9 3 11.7 3
4 9 3 9.4 3.6
-5 -9 -3 29.5 4.1
-5 -9 -3 35 4.4
-5 -9 -3 25.4 4.9
-5 -9 -3 36.1 5.7
-5 -9 -3 20.3 3.8
5 9 3 21.8 4.2
5 9 3 27 4.8
-6 -9 -3 3.5 4
-6 -9 -3 2.8 2.7
-6 -9 -3 3.2 2.9
6 9 3 3 3.6
6 9 3 6 3.5
-7 -9 -3 4.5 3.2
-7 -9 -3 1.5 4
-7 -9 -3 0.7 3
7 9 3 -0.7 3.4
7 9 3 5.1 4.3
-8 -9 -3 1.6 3.5
-8 -9 -3 -3.5 4.5
-8 -9 -3 -5 2.9
-8 -9 -3 0.7 4
8 9 3 -0.1 4.5
8 9 3 -4.3 4.3
0 10 3 22.7 5.5
0 10 3 -199.38 265.77
-1 -10 -3 13.6 4.2
-1 -10 -3 6.2 3.2
-1 -10 -3 15.3 3.9
1 10 3 5.6 4.7
1 10 3 14.1 3.7
1 10 3 -173.58 248.78
2 10 3 107.19 230.18
-3 -10 -3 20.9 4.4
-3 -10 -3 21.6 4.1
3 10 3 -364.76 213.38
4 10 3 142.09 242.78
-5 -10 -3 3.5 3.6
-5 -10 -3 -3.7 3.6
-5 -10 -3 1.4 4.3
-5 -10 -3 3.8 3.1
-5 -10 -3 6.1 3.4
5 10 3 3.9 4.1
5 10 3 -1 3.1
5 10 3 -25 225.28
-6 -10 -3 9.4 3.5
-6 -10 -3 7.6 3.8
-6 -10 -3 0.5 4.5
6 10 3 1.4 4.4
6 10 3 6.1 4.2
-7 -10 -3 -8.1 4.7
-7 -10 -3 4.7 3.6
-7 -10 -3 0.6 3.7
7 10 3 5.6 4.6
7 10 3 5.7 4.2
-2 -11 -3 2.7 4.4
-2 -11 -3 5.7 3.6
-2 -11 -3 2.8 4.9
2 11 3 11.5 3.9
2 11 3 43 272.47
2 11 3 9.4 4.8
3 11 3 342.67 304.77
-4 -11 -3 1.1 3.6
-4 -11 -3 2 5
-4 -11 -3 -2.5 3.7
4 11 3 -64.79 240.08
4 11 3 6.7 4.7
4 11 3 3.4 4.1
5 11 3 462.65 319.97
6 11 3 45.1 306.67
5 10 -4 11.9 4.9
5 10 -4 -246.18 233.78
-5 -10 4 4.8 3.7
-5 -10 4 -2.7 3.9
-5 -10 4 7.6 6.3
-5 -10 4 6.8 4.5
4 10 -4 3.3 4.2
4 10 -4 -145.69 213.48
-4 -10 4 -6.4 3.5
-4 -10 4 -3.2 3.9
-4 -10 4 -2.7 3.8
-4 -10 4 1 5.3
3 10 -4 -151.98 181.38
3 10 -4 7.9 4.2
-3 -10 4 3.9 3.9
-3 -10 4 -1 3.7
-3 -10 4 2.5 3.5
-3 -10 4 3.3 5.3
2 10 -4 149.99 270.37
1 10 -4 -82.29 243.18
1 10 -4 -0.2 3.6
-1 -10 4 1.5 3.6
-1 -10 4 -0.5 3.7
-1 -10 4 8.5 4.5
-1 -10 4 -0.8 3.8
7 9 -4 149.49 256.47
6 9 -4 25.3 5.2
6 9 -4 91.69 263.97
-6 -9 4 17.2 4.6
-6 -9 4 14.3 5.4
-6 -9 4 14.1 4.3
5 9 -4 204.98 242.58
4 9 -4 5.3 3.7
4 9 -4 -414.36 173.48
-4 -9 4 -0.2 3.1
-4 -9 4 0.2 3.6
-4 -9 4 6 4.7
-4 -9 4 6.7 3.2
-4 -9 4 2.2 3.7
3 9 -4 98.09 231.18
2 9 -4 -152.48 180.98
2 9 -4 3.2 3.4
-2 -9 4 6.3 3.2
-2 -9 4 0.5 3
-2 -9 4 2.5 3.8
-2 -9 4 -1.4 3.3
1 9 -4 375.16 253.47
0 9 -4 25.5 215.28
0 9 -4 53.79 5.3
0 -9 4 43.7 5.2
0 -9 4 47.2 5.9
0 -9 4 43.5 4.6
0 -9 4 36 5
-1 9 -4 -288.17 181.38
-1 9 -4 2 3.5
1 -9 4 2.9 3.5
1 -9 4 5.2 3.8
1 -9 4 4.5 3.9
-2 9 -4 -182.48 214.28
-8 -8 4 4.1 5.6
7 8 -4 35.5 255.37
7 8 -4 21.9 4.8
7 8 -4 16.6 5
-7 -8 4 10.9 4.6
-7 -8 4 14.7 5.5
-7 -8 4 16.2 5
6 8 -4 73.89 243.78
6 8 -4 14.3 4.3
6 8 -4 15 4.5
-6 -8 4 10.4 4.7
-6 -8 4 11.5 4.3
-6 -8 4 21.4 4.1
5 8 -4 -1.1 2.6
5 8 -4 -152.38 209.58
5 8 -4 -4.1 3.1
-5 -8 4 -1.9 2.4
-5 -8 4 -4.6 3.5
-5 -8 4 1.5 4
-5 -8 4 -2.7 3.2
-5 -8 4 -0.5 2.9
4 8 -4 -18.8 201.28
4 8 -4 -4.7 2.1
4 8 -4 1.1 3.1
-4 -8 4 2.6 2.6
-4 -8 4 -7.5 3
-4 -8 4 2.7 2.6
-4 -8 4 0.4 3.7
-4 -8 4 -1.7 3.1
3 8 -4 -49.3 192.98
3 8 -4 62.79 6.6
-3 -8 4 54.59 6.5
-3 -8 4 58.39 5.5
-3 -8 4 58.69 5.5
-3 -8 4 56.89 5.2
-3 -8 4 49.6 5.5
2 8 -4 113.59 197.18
2 8 -4 22.2 4
-2 -8 4 19.4 3.7
-2 -8 4 19.3 3.7
-2 -8 4 23.5 3.7
-2 -8 4 16.6 3.5
-2 -8 4 25.3 4.5
1 8 -4 -69.99 181.08
1 8 -4 10.3 3.1
-1 -8 4 13.6 3
-1 -8 4 9.6 3.1
-1 -8 4 10.8 3.1
-1 -8 4 14.1 3.5
0 8 -4 6.6 2.9
0 8 -4 -49 185.88
0 -8 4 3.7 2.7
0 -8 4 4.8 3.2
0 -8 4 3.5 3.1
0 -8 4 2.9 2.6
-1 8 -4 9 3.1
-1 8 -4 -40.8 208.48
1 -8 4 7.4 2.9
1 -8 4 5.8 3
1 -8 4 8.6 3.3
-2 8 -4 -184.38 180.68
2 -8 4 10.4 3
2 -8 4 14.6 3.8
2 -8 4 14 4
-3 8 -4 62.19 260.57
8 7 -4 7 4
8 7 -4 3.1 4.9
8 7 -4 -2.7 4.8
-8 -7 4 -3.4 4.3
-8 -7 4 -0.1 4
-8 -7 4 -2.3 4.8
7 7 -4 -6.2 3.9
7 7 -4 2.5 3.6
7 7 -4 2.5 3.6
-7 -7 4 -0.2 3.7
-7 -7 4 -1.7 3.8
-7 -7 4 2.4 3.7
6 7 -4 4.5 3.4
6 7 -4 -1.8 3.6
6 7 -4 -3.7 3
-6 -7 4 -1.3 2.9
-6 -7 4 4.9 3.6
-6 -7 4 2.2 2.8
5 7 -4 27.9 4.1
5 7 -4 148.99 214.88
5 7 -4 33.2 4.8
-5 -7 4 31.8 4.1
-5 -7 4 27.7 4.3
-5 -7 4 31.9 5
-5 -7 4 27.8 4.8
-5 -7 4 24.7 3.1
4 7 -4 13 2.7
4 7 -4 9 3.1
4 7 -4 7.8 165.68
-4 -7 4 9.7 2.4
-4 -7 4 8.1 3
-4 -7 4 9.5 3.7
-4 -7 4 13.2 3.6
-4 -7 4 8.7 2.7
3 7 -4 -202.28 159.68
3 7 -4 -3.4 1.6
3 7 -4 0.2 2.5
-3 -7 4 1.3 2
-3 -7 4 -2 2.2
-3 -7 4 -1.8 2.5
-3 -7 4 1.8 2
-3 -7 4 1.1 2.5
2 7 -4 68.89 169.98
1 7 -4 -84.99 159.38
1 7 -4 54.59 5.2
-1 -7 4 56.09 5.2
-1 -7 4 56.29 4.8
-1 -7 4 58.39 5.8
-1 -7 4 59.09 5.2
-1 -7 4 58.49 5.2
0 7 -4 116.69 6.6
0 7 -4 -32.4 194.18
0 7 -4 128.39 7.2
0 -7 4 111.59 7.3
0 -7 4 116.19 7.4
0 -7 4 95.39 7.7
0 -7 4 124.59 6.8
-1 7 -4 -85.79 161.78
-2 7 -4 40.6 191.18
2 -7 4 9.8 3.4
2 -7 4 8 3.3
2 -7 4 10.8 2.7
-3 7 -4 216.18 250.87
-4 7 -4 236.08 258.77
8 6 -4 3.2 4.8
8 6 -4 -3 3.9
-8 -6 4 9.2 4.3
-8 -6 4 -4.7 3.6
7 6 -4 49 5.5
7 6 -4 48 6.4
7 6 -4 52.79 6
-7 -6 4 46.2 6
-7 -6 4 44.7 5.5
-7 -6 4 62.09 6.3
6 6 -4 0.2 3
6 6 -4 0.3 2.9
6 6 -4 1 2.9
-6 -6 4 2.5 2.7
-6 -6 4 2.4 2.7
-6 -6 4 -2.2 3.4
5 6 -4 56.39 5.7
5 6 -4 54.09 6.3
5 6 -4 68.09 6
-5 -6 4 57.49 5.6
-5 -6 4 62.09 6.3
-5 -6 4 53.29 5.4
-5 -6 4 53.79 5.9
-5 -6 4 62.09 4.1
4 6 -4 54.39 175.78
4 6 -4 76.69 6.1
4 6 -4 75.59 6.5
4 6 -4 74.99 5.6
-4 -6 4 85.69 6.5
-4 -6 4 70.19 4.8
-4 -6 4 75.49 5.6
-4 -6 4 76.39 5.6
-4 -6 4 68.79 6.3
3 6 -4 352.86 187.48
3 6 -4 237.78 10.5
3 6 -4 241.38 11.6
3 6 -4 198.58 12.7
-3 -6 4 242.28 11.8
-3 -6 4 241.08 10.6
-3 -6 4 226.48 12.9
-3 -6 4 252.17 10.9
-3 -6 4 236.18 11.3
2 6 -4 13.9 2.9
2 6 -4 -8.8 142.99
2 6 -4 13.2 2.6
-2 -6 4 11.8 2.4
-2 -6 4 12.7 2.3
-2 -6 4 12.2 3.1
-2 -6 4 15.3 2.5
-2 -6 4 14.1 2.7
-2 -6 4 14.5 2.9
1 6 -4 15.3 2.6
1 6 -4 13.1 2.8
1 6 -4 45.8 133.59
-1 -6 4 14.2 2.9
-1 -6 4 13.8 2.7
-1 -6 4 16.2 2.6
-1 -6 4 15 2.6
-1 -6 4 16.3 2.6
-1 -6 4 13.8 2.9
0 6 -4 72.19 4.3
0 6 -4 85.29 5.4
0 6 -4 76.09 144.49
0 -6 4 85.39 5
0 -6 4 70.49 5.9
0 -6 4 72.69 4.9
0 -6 4 82.69 6
0 -6 4 74.89 5.5
0 -6 4 71.29 5.3
-1 6 -4 194.58 176.88
-1 6 -4 80.99 5.2
1 -6 4 70.79 5.7
1 -6 4 80.19 4.9
1 -6 4 63.19 4.1
1 -6 4 61.89 5.6
1 -6 4 72.79 5.5
1 -6 4 69.39 5.6
-2 6 -4 71.39 170.08
-3 6 -4 62.79 191.48
3 -6 4 73.19 5.9
3 -6 4 61.69 5.1
3 -6 4 70.89 6.4
-4 6 -4 97.49 214.08
4 -6 4 19.9 4.2
4 -6 4 14.4 3.6
4 -6 4 18.7 3.3
-5 6 -4 176.68 267.27
5 -6 4 46.7 5.8
5 -6 4 48.8 5.3
9 5 -4 7.6 4.3
9 5 -4 10.5 5.1
-9 -5 4 5.6 3.6
-9 -5 4 9.3 5.2
8 5 -4 3.2 3.2
8 5 -4 3.2 4.3
-8 -5 4 7.8 4
7 5 -4 4.4 2.9
7 5 -4 3.8 2.9
7 5 -4 10.3 4.1
-7 -5 4 9.9 3.9
-7 -5 4 6.6 3.3
-7 -5 4 4.1 3.2
6 5 -4 25.6 3.5
6 5 -4 24.5 4.6
6 5 -4 25.7 4
-6 -5 4 27.8 4.2
-6 -5 4 27 4.5
-6 -5 4 23.8 3.6
5 5 -4 93.99 6.2
5 5 -4 89.79 7.4
5 5 -4 97.39 6.8
-5 -5 4 86.49 7.1
-5 -5 4 93.49 6.5
-5 -5 4 94.79 7
-5 -5 4 97.09 6.1
4 5 -4 68.69 5.3
4 5 -4 70.09 5.2
-4 -5 4 71.39 5.8
-4 -5 4 74.19 5
-4 -5 4 66.99 5
-4 -5 4 59.69 5.4
-4 -5 4 62.59 4
3 5 -4 2.7 1.9
3 5 -4 18.8 123.69
3 5 -4 2.7 1.7
3 5 -4 2.2 2
-3 -5 4 1.7 1.3
-3 -5 4 -1 1.8
-3 -5 4 1.2 1.7
-3 -5 4 3.5 2
-3 -5 4 0.3 1.6
2 5 -4 42.3 4.4
2 5 -4 54.49 4.3
2 5 -4 -78.39 125.39
2 5 -4 56.29 4
-2 -5 4 60.09 3.9
-2 -5 4 54.39 4.5
-2 -5 4 59.19 5
-2 -5 4 53.19 4.1
-2 -5 4 53.19 4.8
-2 -5 4 52.29 4
1 5 -4 385.56 145.79
1 5 -4 336.87 15
1 5 -4 346.07 13.9
-1 -5 4 339.47 13.4
-1 -5 4 346.47 17
-1 -5 4 325.87 14.4
-1 -5 4 343.87 15
-1 -5 4 338.37 14.8
-1 -5 4 353.66 16.9
-1 -5 4 340.47 13.9
0 5 -4 -17.1 122.79
0 5 -4 2 1.6
0 5 -4 4 1.8
0 5 -4 0.3 1.7
0 -5 4 1.6 1
0 -5 4 0.8 1.5
0 -5 4 4 1.7
0 -5 4 1.3 1.4
0 -5 4 1.7 1.7
0 -5 4 2.2 1.5
0 -5 4 -0.6 1.7
0 -5 4 4.8 1.7
-1 5 -4 206.08 9
-1 5 -4 222.98 136.19
-1 5 -4 178.88 8.8
1 -5 4 200.48 8.3
1 -5 4 187.58 8.7
1 -5 4 178.88 8.2
1 -5 4 183.48 8.3
1 -5 4 194.98 9.3
1 -5 4 190.18 10.1
1 -5 4 195.38 9.3
1 -5 4 186.88 9.9
-2 5 -4 192.98 9
-2 5 -4 219.38 163.68
2 -5 4 194.88 10.1
2 -5 4 193.88 9.6
2 -5 4 189.38 9.8
2 -5 4 192.58 8.7
2 -5 4 190.28 9.9
-3 5 -4 -240.48 140.29
-4 5 -4 78.19 175.48
4 -5 4 9.9 2.5
4 -5 4 9.8 2.6
4 -5 4 13.5 3.3
4 -5 4 10.3 2.8
-5 5 -4 228.28 217.88
5 -5 4 52.49 5.4
5 -5 4 58.69 5.9
5 -5 4 57.69 5.5
-6 5 -4 -2.4 245.88
6 -5 4 11.2 3.7
6 -5 4 7.6 3.9
6 -5 4 -0.6 3.7
9 4 -4 5.8 4.6
9 4 -4 9.6 4.6
-9 -4 4 13.3 4.1
-9 -4 4 17.4 5.2
8 4 -4 4.8 3.3
-8 -4 4 4.9 3.3
-8 -4 4 7.3 4.3
7 4 -4 36.1 4.5
7 4 -4 38.5 5.5
7 4 -4 30 4.1
-7 -4 4 39.9 5
-7 -4 4 35.7 4.4
6 4 -4 -1.4 2
6 4 -4 -1.5 2.3
6 4 -4 1.6 2.7
-6 -4 4 0.2 2.7
-6 -4 4 2 2.4
-6 -4 4 -1.3 2.1
5 4 -4 12.5 3.2
5 4 -4 16.1 2.7
5 4 -4 14.9 2.8
-5 -4 4 12.5 2.5
-5 -4 4 16.9 3.1
-5 -4 4 17.6 2.9
-5 -4 4 16.6 3.1
4 4 -4 237.18 10.6
4 4 -4 214.18 9.8
4 4 -4 220.38 9.8
4 4 -4 197.68 11.8
4 4 -4 197.18 9.7
-4 -4 4 235.48 11.9
-4 -4 4 208.08 10.2
-4 -4 4 209.48 9.7
-4 -4 4 212.88 10.7
3 4 -4 13.5 2
3 4 -4 14.8 3
3 4 -4 14.7 2.4
3 4 -4 12.2 2.3
3 4 -4 29.5 119.39
-3 -4 4 14.1 2.6
-3 -4 4 13.8 1.6
-3 -4 4 14.1 2.6
-3 -4 4 17.8 2.3
-3 -4 4 12.3 2.1
2 4 -4 243.18 128.29
2 4 -4 66.09 4.6
2 4 -4 61.79 5
2 4 -4 73.69 3.8
2 4 -4 64.79 4.2
-2 -4 4 67.89 5.2
-2 -4 4 68.99 3.9
-2 -4 4 77.39 5.1
-2 -4 4 69.89 4.3
-2 -4 4 69.09 4.8
1 4 -4 -12.8 106.09
1 4 -4 167.08 7.5
1 4 -4 160.08 8
1 4 -4 162.88 9
-1 -4 4 159.68 7.8
-1 -4 4 158.98 8.9
-1 -4 4 170.68 9.1
-1 -4 4 158.28 7.6
-1 -4 4 172.68 8.2
-1 -4 4 172.68 7.1
0 4 -4 97.19 5
0 4 -4 87.09 5.2
0 4 -4 -23.8 97.59
0 4 -4 99.79 5.4
0 4 -4 107.69 6
0 -4 4 97.79 4.9
0 -4 4 96.69 5.3
0 -4 4 100.99 5.9
0 -4 4 87.99 5.3
0 -4 4 97.19 5.8
0 -4 4 97.99 4.6
-1 4 -4 186.48 8.2
-1 4 -4 130.29 121.69
-1 4 -4 183.68 7.6
-1 4 -4 176.98 9.1
-1 4 -4 172.98 8.1
1 -4 4 174.98 9.1
1 -4 4 173.68 8.4
1 -4 4 173.48 7.6
1 -4 4 180.68 8
1 -4 4 173.38 7.6
1 -4 4 169.18 7.9
1 -4 4 176.28 9.1
-2 4 -4 23.8 2.5
-2 4 -4 27.9 2.7
-2 4 -4 135.59 114.89
2 -4 4 23.4 2.6
2 -4 4 24.5 2.7
2 -4 4 29.1 2.7
2 -4 4 24 2.7
-3 4 -4 80.59 144.49
-4 4 -4 -115.69 147.79
4 -4 4 0.6 1.9
4 -4 4 -1 1.8
4 -4 4 -1.7 1.7
-5 4 -4 133.39 217.58
5 -4 4 73.99 6.1
5 -4 4 71.89 5.2
5 -4 4 70.59 5.8
-6 4 -4 46.1 199.38
-7 4 -4 70.39 264.67
7 -4 4 19.6 4.5
7 -4 4 27.8 4.8
7 -4 4 26.7 4.8
9 3 -4 12 4.8
9 3 -4 18.7 4.8
-9 -3 4 26.3 5.3
-9 -3 4 26.2 5.1
8 3 -4 1 3.3
8 3 -4 0.7 3.1
-8 -3 4 -5.5 3.5
-8 -3 4 1.1 3.1
7 3 -4 -1.9 2.4
7 3 -4 0.9 2.7
-7 -3 4 -2.5 2.8
-7 -3 4 -0.2 2.2
6 3 -4 -0.6 2
6 3 -4 -1 2.2
6 3 -4 -0.2 1.9
-6 -3 4 0 2.3
-6 -3 4 0.2 1.9
5 3 -4 34.2 4.3
5 3 -4 39.4 4.1
5 3 -4 35.3 3.7
5 3 -4 26 3.2
5 3 -4 37.4 3.8
-5 -3 4 42.8 4.1
-5 -3 4 39.9 4.1
-5 -3 4 38.1 3.8
-5 -3 4 36.6 4
4 3 -4 202.68 9.6
4 3 -4 214.18 11.2
4 3 -4 198.28 9.6
4 3 -4 236.18 11.8
4 3 -4 221.38 10.2
-4 -3 4 218.98 10.4
-4 -3 4 214.38 10
-4 -3 4 203.98 9.4
-4 -3 4 204.78 11.3
3 3 -4 331.57 13.9
3 3 -4 364.86 14.9
3 3 -4 366.76 16.9
3 3 -4 337.67 14.1
3 3 -4 337.57 14
3 3 -4 318.47 16.5
-3 -3 4 329.27 15
-3 -3 4 335.17 16.5
-3 -3 4 337.17 14.5
2 3 -4 423.06 20.5
2 3 -4 434.46 18.2
2 3 -4 51.69 100.39
2 3 -4 430.66 17
2 3 -4 447.46 17.1
-2 -3 4 426.76 18.3
-2 -3 4 435.16 17
-2 -3 4 427.56 20.6
-2 -3 4 425.36 17.9
-2 -3 4 440.36 20.5
1 3 -4 13.6 1.9
1 3 -4 12.7 2.1
1 3 -4 14.6 1.8
1 3 -4 12.6 89.79
-1 -3 4 15.2 1.6
-1 -3 4 10.6 1.9
-1 -3 4 13.6 2.1
-1 -3 4 14.9 2
-1 -3 4 11.8 1.8
0 3 -4 152.18 7.3
0 3 -4 151.98 7.3
0 3 -4 55.39 94.99
0 3 -4 160.98 6.8
0 3 -4 137.89 8.1
0 -3 4 161.28 6.7
0 -3 4 162.28 7.5
0 -3 4 160.18 7.3
0 -3 4 159.98 6.9
0 -3 4 158.88 8.2
0 -3 4 154.88 8.1
-1 3 -4 291.67 109.79
-1 3 -4 854.11 36.5
-1 3 -4 843.82 30.1
-1 3 -4 815.02 32.2
-1 3 -4 770.12 32.1
1 -3 4 808.52 32.2
1 -3 4 785.72 32.4
1 -3 4 774.92 36.4
1 -3 4 820.22 30
1 -3 4 804.42 30.5
1 -3 4 823.12 32.3
1 -3 4 802.62 36.5
-2 3 -4 -127.29 104.09
-2 3 -4 3.4 1.1
-2 3 -4 2.7 1.2
2 -3 4 2.7 1.4
2 -3 4 3.6 1.3
2 -3 4 6.8 1.4
2 -3 4 2.6 1.1
-3 3 -4 142.69 133.99
-4 3 -4 -2.2 149.49
4 -3 4 36.5 3.3
4 -3 4 31.9 3.4
4 -3 4 44.2 3.9
-5 3 -4 133.79 184.78
5 -3 4 72.39 5.5
5 -3 4 68.19 4.9
5 -3 4 62.49 5.4
-6 3 -4 303.07 218.08
-7 3 -4 -79.59 207.98
7 -3 4 17.6 4.2
7 -3 4 19.8 4
9 2 -4 4.6 3.8
-9 -2 4 9.4 4.4
8 2 -4 22.8 5
8 2 -4 33 4.9
-8 -2 4 30.6 5
-8 -2 4 34.5 5.3
7 2 -4 5.2 2.9
7 2 -4 1.8 2.8
-7 -2 4 6.3 3.2
-7 -2 4 2.7 2.7
6 2 -4 -1.1 2.3
6 2 -4 -2.5 1.9
6 2 -4 0.9 1.8
-6 -2 4 1.2 2.2
-6 -2 4 -2 1.9
-6 -2 4 3.4 1.9
5 2 -4 -1.3 1.5
5 2 -4 1.3 1.7
5 2 -4 0.7 1.4
5 2 -4 -1.6 1.7
5 2 -4 -0.9 1.7
-5 -2 4 -0.9 1.7
-5 -2 4 -1.4 1.5
-5 -2 4 2.1 1.4
-5 -2 4 -1.1 1.6
4 2 -4 60.29 4
4 2 -4 63.99 4.9
4 2 -4 57.39 4.2
4 2 -4 67.29 4.8
4 2 -4 61.39 4.1
-4 -2 4 65.89 4.7
-4 -2 4 64.59 4.4
-4 -2 4 70.49 4.6
3 2 -4 446.66 18.2
3 2 -4 419.16 20.3
3 2 -4 437.46 17.9
3 2 -4 414.96 16.9
3 2 -4 435.86 17.4
3 2 -4 429.46 20.6
-3 -2 4 433.46 17.9
-3 -2 4 441.86 20.4
-3 -2 4 419.46 18.3
2 2 -4 0.9 1.1
2 2 -4 1 1
2 2 -4 1.8 1.2
2 2 -4 0 1.2
2 2 -4 3.7 1.1
-2 -2 4 1.6 1.2
-2 -2 4 0.2 1.2
-2 -2 4 2.3 1.4
-2 -2 4 0.9 1.1
1 2 -4 327.37 16.7
1 2 -4 348.27 13.9
1 2 -4 372.66 15
1 2 -4 355.26 16.9
-1 -2 4 357.66 15.1
-1 -2 4 370.76 16.9
-1 -2 4 360.76 13.9
-1 -2 4 347.27 16.7
-1 -2 4 359.46 14.6
0 2 -4 61.19 4.1
0 2 -4 64.89 3.6
0 2 -4 63.79 3.4
0 2 -4 65.59 3.6
0 2 -4 68.39 3.7
0 -2 4 66.99 4
0 -2 4 67.09 3.8
0 -2 4 63.29 3.4
0 -2 4 64.39 3.3
0 -2 4 63.39 3.5
0 -2 4 61.79 4.1
-1 2 -4 -49.4 74.39
-1 2 -4 48.8 3
-1 2 -4 50.69 2.9
-1 2 -4 47.9 3
-1 2 -4 49.2 3.3
1 -2 4 47.6 3.1
1 -2 4 50.89 3.1
1 -2 4 51.49 3.3
1 -2 4 54.39 2.9
1 -2 4 50.69 3
1 -2 4 46.7 3.2
-2 2 -4 99.39 108.29
-2 2 -4 436.66 17
-2 2 -4 412.26 19.1
-2 2 -4 407.26 16.9
2 -2 4 421.76 17.3
2 -2 4 402.26 19.1
2 -2 4 431.06 19.3
2 -2 4 413.76 16.9
2 -2 4 424.16 16.5
2 -2 4 415.76 15.8
-3 2 -4 145.49 132.99
-3 2 -4 150.78 6.6
-3 2 -4 143.59 6.5
3 -2 4 154.68 7.5
3 -2 4 149.69 7
3 -2 4 148.39 7.3
3 -2 4 136.09 7.3
3 -2 4 150.38 6.5
-4 2 -4 -43.5 129.89
4 -2 4 0.5 1.5
4 -2 4 2.5 1.4
4 -2 4 0.5 1.4
4 -2 4 1 1.3
-5 2 -4 6.5 2
-5 2 -4 -144.49 145.19
5 -2 4 3.8 2.3
5 -2 4 4.7 2.1
-6 2 -4 76.99 190.68
-7 2 -4 -167.18 179.28
7 -2 4 19.3 4
-8 2 -4 80.19 260.07
8 1 -4 18.2 4.5
8 1 -4 21 4.7
-8 -1 4 24.1 4.7
-8 -1 4 27.5 4.6
7 1 -4 6.6 3.1
7 1 -4 4.4 3
-7 -1 4 2.8 2.7
-7 -1 4 11.4 3.2
6 1 -4 22.8 3.7
6 1 -4 30.8 3.8
-6 -1 4 28.1 3.8
-6 -1 4 33.7 4
-6 -1 4 21.3 2.8
5 1 -4 2.5 1.9
5 1 -4 3.1 1.5
5 1 -4 1.6 1.5
5 1 -4 1.9 1.9
5 1 -4 1.5 1.6
-5 -1 4 4.4 2.2
-5 -1 4 2.5 1.7
-5 -1 4 0.6 1.4
-5 -1 4 1.1 1.7
4 1 -4 46.6 3.6
4 1 -4 43.6 3.3
4 1 -4 42.1 3.5
4 1 -4 41 3.7
4 1 -4 43.1 3.3
-4 -1 4 40.1 3.5
-4 -1 4 43.3 3.7
-4 -1 4 42.6 3.5
-4 -1 4 41.7 3.4
3 1 -4 -0.2 1.1
3 1 -4 0 1
3 1 -4 -0.7 1.2
3 1 -4 0.7 1
3 1 -4 -1.1 1
-3 -1 4 -0.5 1
-3 -1 4 -1.4 0.9
-3 -1 4 -1.1 1.2
-3 -1 4 -0.1 1
2 1 -4 1322.57 50.89
2 1 -4 1404.76 57.69
2 1 -4 1232.28 51.29
2 1 -4 1336.07 57.79
2 1 -4 1258.77 47.5
2 1 -4 1266.77 49.3
-2 -1 4 1289.97 57.59
-2 -1 4 1240.88 51.39
-2 -1 4 1244.88 50.99
-2 -1 4 1299.07 50.29
1 1 -4 74.79 4.5
1 1 -4 75.19 3.6
1 1 -4 74.19 4.4
1 1 -4 68.09 3.8
1 1 -4 77.29 4
-1 -1 4 70.39 4.3
-1 -1 4 73.59 4.2
-1 -1 4 72.79 3.4
-1 -1 4 72.79 3.7
-1 -1 4 76.29 4.5
-1 -1 4 72.29 3.7
0 1 -4 19.8 2.1
0 1 -4 16.8 1.7
0 1 -4 17.1 1.7
0 1 -4 17.8 1.9
0 1 -4 20.6 1.9
0 1 -4 15.5 1.5
0 1 -4 18 1.5
0 -1 4 18.1 1.8
0 -1 4 20.7 1.9
0 -1 4 19.4 2
0 -1 4 15.9 1.6
0 -1 4 17.6 1.9
0 -1 4 21.1 1.7
-1 1 -4 356.06 13.3
-1 1 -4 339.27 14.2
-1 1 -4 348.37 14.2
1 -1 4 353.26 13.3
1 -1 4 336.47 16
1 -1 4 358.06 16.1
1 -1 4 340.97 13.6
1 -1 4 344.67 14.2
1 -1 4 336.97 14.2
-2 1 -4 71.09 78.29
-2 1 -4 112.89 5.1
-2 1 -4 105.19 5.1
-2 1 -4 112.59 4.8
-2 1 -4 105.59 5.7
2 -1 4 107.09 5.1
2 -1 4 111.09 5.8
2 -1 4 116.19 5.3
2 -1 4 104.49 5.8
2 -1 4 115.49 4.8
2 -1 4 109.39 5.4
-3 1 -4 0.2 0.8
-3 1 -4 -55.69 86.99
-3 1 -4 1.2 0.9
-3 1 -4 -0.4 0.9
-3 1 -4 -0.1 0.9
3 -1 4 -0.9 0.8
3 -1 4 -2.1 1
3 -1 4 -0.1 0.8
3 -1 4 1.7 0.9
3 -1 4 -0.8 1.1
3 -1 4 -0.3 0.8
-4 1 -4 16.4 1.7
-4 1 -4 18.9 2
-4 1 -4 19.8 2.4
-4 1 -4 87.39 122.79
4 -1 4 17.9 1.9
4 -1 4 17.3 2
4 -1 4 20.6 2.4
4 -1 4 15.7 2.2
-5 1 -4 162.98 151.58
-5 1 -4 179.08 9.1
5 -1 4 217.08 10
5 -1 4 204.48 9.1
5 -1 4 189.48 9.5
5 -1 4 176.08 9.6
-6 1 -4 55.29 4.8
-6 1 -4 168.58 194.58
6 -1 4 65.19 4.4
6 -1 4 51.99 4
6 -1 4 54.89 5.3
6 -1 4 59.29 4.8
-7 1 -4 263.37 199.48
-8 1 -4 61.89 240.68
8 0 -4 -1.6 3.2
8 0 -4 -4.3 3.4
-8 0 4 -2.4 3.5
-8 0 4 1.3 3.3
7 0 -4 1.6 2.9
7 0 -4 3.4 2.7
-7 0 4 6.3 3
-7 0 4 0.3 2.8
6 0 -4 107.79 7.2
6 0 -4 95.69 7.1
-6 0 4 107.39 6.8
-6 0 4 121.49 7
5 0 -4 6.1 1.6
5 0 -4 7.1 2.1
5 0 -4 3.4 1.9
5 0 -4 7.8 2.3
5 0 -4 5.2 1.9
-5 0 4 7.4 2.4
-5 0 4 9.7 2.4
-5 0 4 10.2 2.6
-5 0 4 5.4 1.6
4 0 -4 276.17 11.2
4 0 -4 275.57 12.1
4 0 -4 272.87 13.6
4 0 -4 275.27 11.9
4 0 -4 282.57 13.5
-4 0 4 259.67 12.2
-4 0 4 278.77 12.7
-4 0 4 256.27 11.9
-4 0 4 274.67 11.9
-4 0 4 276.57 13.4
3 0 -4 70.49 3.9
3 0 -4 59.89 3.9
3 0 -4 68.99 4.3
3 0 -4 62.69 3.6
3 0 -4 56.49 4.1
-3 0 4 68.09 4.1
-3 0 4 59.89 4
-3 0 4 65.69 3.8
-3 0 4 62.99 3.7
-3 0 4 61.29 4
2 0 -4 163.68 8.1
2 0 -4 148.79 8.1
2 0 -4 164.88 6.8
2 0 -4 163.78 7.2
2 0 -4 151.18 6.8
-2 0 4 155.78 7.3
-2 0 4 154.58 7.3
-2 0 4 163.18 7
-2 0 4 145.79 7.1
1 0 -4 300.97 14
1 0 -4 292.27 11.8
1 0 -4 314.47 13.9
1 0 -4 297.67 12.3
1 0 -4 308.17 11.6
-1 0 4 291.77 11.8
-1 0 4 297.47 11.7
-1 0 4 284.47 12.4
-1 0 4 285.07 12.3
-1 0 4 273.47 12.2
-1 0 4 282.27 13.9
-1 0 4 301.17 13.9
0 0 -4 76.79 3.9
0 0 -4 77.89 4
0 0 -4 85.89 4.4
0 0 -4 75.99 3.8
0 0 -4 74.79 3.6
0 0 -4 77.39 4.4
0 0 -4 80.49 3.5
0 0 4 76.69 3.7
0 0 4 76.59 3.6
0 0 4 80.99 3.6
0 0 4 73.69 3.9
0 0 4 77.69 4
0 0 4 74.69 4.3
0 0 4 69.79 4.3
0 0 4 78.69 3.7
-1 0 -4 139.09 6.9
-1 0 -4 135.89 5.8
-1 0 -4 141.29 6.9
-1 0 -4 135.69 6.2
-1 0 -4 137.69 5.7
-1 0 -4 141.69 6.2
1 0 4 139.29 6
1 0 4 135.79 7
1 0 4 133.09 6.2
1 0 4 136.09 6.9
1 0 4 132.89 6
1 0 4 133.29 6
1 0 4 129.79 6.2
1 0 4 143.39 5.8
1 0 4 135.59 5.7
-2 0 -4 418.86 17
-2 0 -4 435.76 19.2
-2 0 -4 415.46 15.9
-2 0 -4 416.36 16.4
-2 0 -4 424.96 17.1
2 0 4 386.36 16.3
2 0 4 430.26 19.3
2 0 4 426.36 16.4
2 0 4 417.56 16.6
2 0 4 431.76 15.9
2 0 4 401.76 17
-3 0 -4 54.89 3.2
-3 0 -4 54.49 3.3
-3 0 -4 53.19 3.2
-3 0 -4 50.79 2.8
-3 0 -4 -63.59 86.69
-3 0 -4 49.5 3
-3 0 -4 50.49 3.1
3 0 4 50.39 3.4
3 0 4 52.89 3.6
3 0 4 52.89 3.4
3 0 4 50.39 2.9
3 0 4 44.4 3.3
3 0 4 54.29 3.1
-4 0 -4 309.77 14.1
-4 0 -4 -104.49 117.29
-4 0 -4 279.67 12.5
-4 0 -4 308.17 12.7
-4 0 -4 290.97 12.6
4 0 4 325.37 14.5
4 0 4 302.87 12.7
4 0 4 303.97 12.8
4 0 4 305.47 11.7
4 0 4 275.77 14.3
-5 0 -4 -41.7 124.79
-5 0 -4 5.2 1.3
5 0 4 6.1 1.8
5 0 4 8.5 2.1
-6 0 -4 -1.1 1.6
-6 0 -4 -1.6 1.8
-6 0 -4 0.9 174.18
6 0 4 -0.4 1.7
6 0 4 -0.3 1.3
6 0 4 -2.9 1.6
6 0 4 1 1.9
-7 0 -4 -253.97 157.68
-8 0 -4 -116.69 217.68
-8 0 -4 6.8 2.8
8 0 4 11.2 3.5
8 0 4 7.8 3.8
8 0 4 6 2.3
-9 0 -4 93.49 267.97
8 -1 -4 -1.2 3.7
8 -1 -4 -1.6 3.1
-8 1 4 3.9 3.5
-8 1 4 8.4 3.7
7 -1 -4 21.9 3.7
7 -1 -4 23 4.2
-7 1 4 23.6 4.2
-7 1 4 21 3.8
6 -1 -4 1.1 2
6 -1 -4 -1.4 2.3
-6 1 4 1.8 2.5
-6 1 4 0.3 2.3
-6 1 4 -1.9 2.2
5 -1 -4 65.19 5.1
5 -1 -4 74.09 5.2
5 -1 -4 73.29 5.5
-5 1 4 69.39 5.7
-5 1 4 70.19 5.2
-5 1 4 77.69 5.1
4 -1 -4 115.49 7
4 -1 -4 114.59 5.8
4 -1 -4 127.19 6.7
4 -1 -4 116.59 6
4 -1 -4 130.59 7.1
-4 1 4 128.09 6.4
-4 1 4 125.09 6.5
-4 1 4 128.69 6.7
-4 1 4 125.19 7.1
-4 1 4 112.19 6
3 -1 -4 110.19 5.9
3 -1 -4 101.69 4.9
3 -1 -4 97.59 5.9
3 -1 -4 105.59 5.2
3 -1 -4 102.39 5
-3 1 4 109.09 6
-3 1 4 102.89 5.3
-3 1 4 106.79 5.7
-3 1 4 113.59 5.5
-3 1 4 93.19 5.1
2 -1 -4 0.8 0.9
2 -1 -4 1.5 1
2 -1 -4 1.5 0.7
2 -1 -4 1 0.9
2 -1 -4 0.4 1
-2 1 4 0.5 1
-2 1 4 1.9 1.1
-2 1 4 -0.5 0.9
-2 1 4 0.3 0.8
1 -1 -4 198.58 9.6
1 -1 -4 198.18 7.9
1 -1 -4 184.88 7.8
1 -1 -4 193.28 8.5
1 -1 -4 211.48 8.1
1 -1 -4 205.08 9.6
-1 1 4 186.78 7.9
-1 1 4 189.68 8.5
-1 1 4 188.88 8.4
-1 1 4 190.48 8.6
-1 1 4 197.68 7.9
-1 1 4 198.98 8.2
0 -1 -4 31.2 2.6
0 -1 -4 28.9 2
0 -1 -4 32.3 2.1
0 -1 -4 34.4 2.3
0 -1 -4 36.9 2.4
0 -1 -4 35.2 2.3
0 -1 -4 33.8 2.6
0 1 4 35.8 2.1
0 1 4 34.2 2.5
0 1 4 32.3 2.5
0 1 4 34.7 2.2
0 1 4 31.4 2.1
0 1 4 32.9 1.7
0 1 4 30.9 2.4
0 1 4 33.9 2.3
-1 -1 -4 1363.46 50.19
-1 -1 -4 1416.66 53.69
-1 -1 -4 1493.15 60.99
-1 -1 -4 1310.77 51.79
-1 -1 -4 1346.77 52.19
-1 -1 -4 1345.17 50.69
-1 -1 -4 1444.76 60.89
-1 -1 -4 1389.16 53.69
1 1 4 1318.17 51.79
1 1 4 1309.37 52.09
1 1 4 1383.66 60.89
1 1 4 1334.27 50.69
1 1 4 1427.26 53.79
1 1 4 1281.67 60.89
1 1 4 1377.26 50.09
-2 -1 -4 2.7 1
-2 -1 -4 2.4 0.9
-2 -1 -4 2.5 1
-2 -1 -4 3 1
-2 -1 -4 2.7 1
-2 -1 -4 2.7 1
-2 -1 -4 2.9 0.9
-2 -1 -4 1.7 0.7
2 1 4 1.6 1
2 1 4 2.2 0.9
2 1 4 1.4 0.8
2 1 4 1.8 1
2 1 4 2.3 1.1
2 1 4 3 0.9
2 1 4 3.4 1.1
-3 -1 -4 292.47 13.1
-3 -1 -4 276.87 11.8
-3 -1 -4 270.77 11.1
-3 -1 -4 247.08 11.5
-3 -1 -4 30.8 94.99
-3 -1 -4 270.87 10.8
3 1 4 297.07 10.9
3 1 4 268.97 11.6
3 1 4 282.87 11.7
3 1 4 270.77 13.2
3 1 4 271.57 13.3
-4 -1 -4 957.4 41.5
-4 -1 -4 1118.59 47.1
-4 -1 -4 1052.19 41.7
-4 -1 -4 1006.4 39.9
-4 -1 -4 1029.1 38.7
4 1 4 1042.5 41.6
4 1 4 1069.99 41
4 1 4 1044.3 47.3
4 1 4 1053.19 38.8
4 1 4 1118.89 47.3
-5 -1 -4 40.9 3.4
-5 -1 -4 35.6 3.2
-5 -1 -4 36.5 3
-5 -1 -4 41.2 3.5
-5 -1 -4 -125.49 120.99
-5 -1 -4 43.9 2.8
5 1 4 43.3 3
5 1 4 36.6 3.6
5 1 4 43.2 3.6
5 1 4 40.5 3.1
5 1 4 39.7 3.8
5 1 4 44.3 3.7
-6 -1 -4 -336.57 169.48
-6 -1 -4 6 2.3
6 1 4 5.2 2.2
6 1 4 8.5 2.4
6 1 4 7.7 2.1
6 1 4 9.3 1.9
6 1 4 7.8 1.8
6 1 4 11.3 2.5
-7 -1 -4 1.4 2.3
-7 -1 -4 0.7 1.8
-7 -1 -4 -104.29 172.28
7 1 4 1.8 2.4
7 1 4 1.9 1.9
7 1 4 3.3 2.2
-8 -1 -4 5.7 3.2
-8 -1 -4 6 2.6
-8 -1 -4 -108.59 214.68
8 1 4 6.8 2.5
8 1 4 4.9 3.1
8 1 4 6.5 3.1
-9 -1 -4 3.6 2.9
-9 -1 -4 -4.1 3.7
9 1 4 -1.7 3.3
9 1 4 -0.5 2.3
9 1 4 -3.8 3.4
7 -2 -4 -1.7 3.4
7 -2 -4 4 2.5
-7 2 4 -1.2 3.1
6 -2 -4 -2.5 2.5
-6 2 4 -0.8 2.8
-6 2 4 -0.3 2.2
-6 2 4 2.2 2.4
5 -2 -4 83.59 5.6
5 -2 -4 81.69 5.6
5 -2 -4 87.39 6.2
-5 2 4 87.19 5.8
-5 2 4 93.79 5.7
-5 2 4 81.79 6.5
4 -2 -4 0.2 1.3
4 -2 -4 0.5 1.3
-4 2 4 1.5 1.4
-4 2 4 -0.1 1.4
-4 2 4 -1.7 1.8
-4 2 4 1 1.1
3 -2 -4 68.79 3.7
3 -2 -4 63.69 3.6
3 -2 -4 69.89 4.4
3 -2 -4 67.69 4.3
-3 2 4 68.09 4
-3 2 4 70.89 4.9
-3 2 4 61.69 3.8
-3 2 4 66.29 4.1
-3 2 4 69.29 4.1
2 -2 -4 792.22 30.9
2 -2 -4 766.92 35
2 -2 -4 764.52 35.1
2 -2 -4 806.92 28.9
2 -2 -4 760.22 30.1
2 -2 -4 802.52 29.6
-2 2 4 755.52 32
-2 2 4 781.52 29.6
-2 2 4 817.62 34.9
-2 2 4 736.63 30.9
-2 2 4 742.63 29.6
-2 2 4 781.52 31
1 -2 -4 6.1 1.4
1 -2 -4 6.7 1.4
1 -2 -4 6.8 1.1
1 -2 -4 6.5 1.2
1 -2 -4 7.3 1.2
-1 2 4 10.1 1.6
-1 2 4 6.3 1.1
-1 2 4 6.2 1.3
-1 2 4 7.9 1.3
-1 2 4 8.5 1.3
-1 2 4 6.8 1.2
0 -2 -4 291.57 11.5
0 -2 -4 261.87 11.2
0 -2 -4 285.67 13.6
0 -2 -4 298.67 13.6
0 -2 -4 293.57 11.3
0 -2 -4 284.67 12
0 2 4 288.07 13.6
0 2 4 294.67 11.5
0 2 4 277.07 11.3
0 2 4 289.67 12.2
-1 -2 -4 184.68 9.7
-1 -2 -4 199.78 8
-1 -2 -4 193.98 8.6
-1 -2 -4 203.98 8.7
-1 -2 -4 196.48 8
-1 -2 -4 191.98 8.3
-1 -2 -4 212.38 9.8
1 2 4 195.98 8.3
1 2 4 194.08 8.7
1 2 4 190.08 9.6
1 2 4 198.18 8
1 2 4 186.08 8.6
-2 -2 -4 1585.74 58.09
-2 -2 -4 1593.64 62.29
-2 -2 -4 1684.73 70.59
-2 -2 -4 1590.04 70.69
-2 -2 -4 1547.45 62.29
-2 -2 -4 1546.35 60.19
2 2 4 1409.76 70.49
2 2 4 1601.94 70.69
2 2 4 1621.64 58.79
2 2 4 1635.64 58.29
2 2 4 1627.24 60.69
2 2 4 1599.74 62.39
-3 -2 -4 3 1.1
-3 -2 -4 -69.49 85.09
-3 -2 -4 3.7 1.3
-3 -2 -4 3.8 1.3
-3 -2 -4 1 1
-3 -2 -4 1.3 1.3
-3 -2 -4 2.2 0.9
3 2 4 0.3 1.2
3 2 4 1.6 1.1
3 2 4 2.5 1.2
3 2 4 2.2 1
3 2 4 2.9 1.3
3 2 4 3.9 1.2
3 2 4 2 0.9
-4 -2 -4 934.91 41.4
-4 -2 -4 1040 40.1
-4 -2 -4 1064.29 38.7
-4 -2 -4 1050.29 39.5
-4 -2 -4 1052.59 41.6
4 2 4 1025.2 40.9
4 2 4 1039.8 38.7
4 2 4 1076.39 39.6
4 2 4 1076.49 41.6
4 2 4 1058.39 47.3
-5 -2 -4 73.59 4.7
-5 -2 -4 -71.09 130.79
-5 -2 -4 71.99 4.1
-5 -2 -4 70.69 4.3
-5 -2 -4 65.99 4.9
5 2 4 68.59 4.1
5 2 4 67.99 4.4
5 2 4 70.69 5.2
5 2 4 68.09 4.5
5 2 4 73.29 5
-6 -2 -4 1097.69 41.1
-6 -2 -4 829.92 230.38
-6 -2 -4 1053.49 49.6
-6 -2 -4 1098.09 42.5
-6 -2 -4 1124.69 44.4
6 2 4 1063.19 43.7
6 2 4 1107.99 50.29
6 2 4 1088.49 41.2
6 2 4 1080.49 44
6 2 4 1188.08 50.39
6 2 4 1100.29 42.5
-7 -2 -4 12.9 3
-7 -2 -4 12.8 2.8
7 2 4 11.3 2.7
7 2 4 9.4 2.8
7 2 4 13.8 3.3
-8 -2 -4 -0.9 2.3
-8 -2 -4 -2.9 2.7
8 2 4 2.5 2.6
8 2 4 0.2 2.1
8 2 4 0.4 3.1
-9 -2 -4 4.3 2.9
-9 -2 -4 9.8 4.1
9 2 4 7.3 3.1
9 2 4 6.5 3.4
9 2 4 11.2 4.1
7 -3 -4 8.1 4.3
-7 3 4 10.9 4.3
6 -3 -4 37.2 5.1
-6 3 4 39.7 5.3
-6 3 4 42.7 5.1
5 -3 -4 276.47 12.7
5 -3 -4 236.98 12.7
-5 3 4 251.17 13.4
-5 3 4 260.67 12.2
4 -3 -4 47.4 4.3
4 -3 -4 49.6 4
-4 3 4 56.39 4.3
-4 3 4 51.39 5.1
-4 3 4 63.69 4.6
3 -3 -4 128.39 5.9
3 -3 -4 136.49 6.1
3 -3 -4 119.99 6.9
3 -3 -4 132.49 7.3
-3 3 4 120.69 6.2
-3 3 4 141.89 6.4
-3 3 4 131.09 6.5
-3 3 4 131.89 7.5
2 -3 -4 45.4 3
2 -3 -4 46.3 2.8
2 -3 -4 42.4 3.3
-2 3 4 44.5 3
-2 3 4 47.8 3
-2 3 4 44.2 3.6
-2 3 4 42 2.9
-2 3 4 49.9 3.1
1 -3 -4 9.1 1.6
1 -3 -4 10.4 1.5
1 -3 -4 9.4 1.5
1 -3 -4 8.7 1.5
1 -3 -4 10.6 1.8
-1 3 4 11.4 1.3
-1 3 4 8.2 1.5
-1 3 4 9.5 1.9
-1 3 4 8.6 1.6
0 -3 -4 960.1 34.8
0 -3 -4 925.81 37.2
0 -3 -4 915.91 34.9
0 -3 -4 946.51 42.3
0 -3 -4 911.01 35.9
0 -3 -4 978.3 42.2
0 3 4 950.5 37.3
0 3 4 917.91 37.2
0 3 4 928.41 35
-1 -3 -4 6.2 1.6
-1 -3 -4 4.2 1.2
-1 -3 -4 4.3 0.9
-1 -3 -4 4.3 1.1
-1 -3 -4 5.4 1.3
-1 -3 -4 6.2 1.5
1 3 4 4.2 1.3
1 3 4 5.5 1.4
1 3 4 5.5 1.4
1 3 4 3.7 0.7
1 3 4 4.4 0.9
-2 -3 -4 541.35 23.5
-2 -3 -4 479.75 19.9
-2 -3 -4 525.05 23.5
-2 -3 -4 490.65 20.7
-2 -3 -4 510.05 19.2
-2 -3 -4 518.55 19.4
2 3 4 502.65 19.3
2 3 4 503.75 23.5
2 3 4 513.75 20.8
2 3 4 473.45 20.1
2 3 4 494.85 20.2
2 3 4 497.15 23.4
-3 -3 -4 0.5 1.2
-3 -3 -4 1.8 0.8
-3 -3 -4 3.6 1.4
-3 -3 -4 0.4 1.2
-3 -3 -4 1.5 1.3
3 3 4 1.4 1.1
3 3 4 2.8 1.1
3 3 4 1.7 1.3
3 3 4 2.1 1.3
3 3 4 0.1 1.7
-4 -3 -4 84.89 4.3
-4 -3 -4 90.69 5.5
-4 -3 -4 88.39 4.8
-4 -3 -4 84.29 4.6
4 3 4 80.89 5.6
4 3 4 90.99 5.1
4 3 4 81.79 4.6
4 3 4 82.39 5.2
-5 -3 -4 6.1 1.9
-5 -3 -4 10.4 1.8
-5 -3 -4 8 1.8
-5 -3 -4 7.3 1.6
-5 -3 -4 5.5 1.7
5 3 4 3.9 2.3
5 3 4 7.4 1.8
5 3 4 9.1 2.3
5 3 4 4.7 1.8
5 3 4 8.2 1.8
-6 -3 -4 25.8 3.1
-6 -3 -4 33.5 3.8
-6 -3 -4 37.7 3.6
-6 -3 -4 37.3 4
6 3 4 35.4 4.1
6 3 4 33.3 4.1
6 3 4 35.3 3.8
6 3 4 32.6 3.5
-7 -3 -4 173.08 8.4
-7 -3 -4 189.08 9.2
7 3 4 164.28 9
7 3 4 177.38 9.4
7 3 4 174.18 10.5
7 3 4 174.18 10.1
-8 -3 -4 35.8 4.3
-8 -3 -4 38 4.6
8 3 4 30.6 4.3
8 3 4 31.3 4.2
8 3 4 45.5 5.5
-9 -3 -4 6.8 3
-9 -3 -4 5.5 3.8
9 3 4 11.6 3.5
9 3 4 14.5 4.4
9 3 4 7 3.3
6 -4 -4 4.2 3.5
-6 4 4 -0.8 3.6
-6 4 4 1.7 3.5
5 -4 -4 38.6 4.7
-5 4 4 37.2 4.4
-5 4 4 37.2 5.2
4 -4 -4 152.18 7.2
4 -4 -4 146.29 6.9
4 -4 -4 124.59 7.8
4 -4 -4 145.59 8.1
-4 4 4 156.38 8
-4 4 4 143.59 9.2
3 -4 -4 117.79 5.9
3 -4 -4 118.79 5.4
3 -4 -4 113.79 6.7
3 -4 -4 104.79 6.4
-3 4 4 122.99 6.3
-3 4 4 110.99 6
-3 4 4 111.39 7.3
2 -4 -4 187.18 10.5
2 -4 -4 225.88 9.4
2 -4 -4 215.18 10.9
-2 4 4 209.88 9.5
-2 4 4 223.78 9.2
-2 4 4 212.68 10.7
-2 4 4 220.98 9.5
1 -4 -4 50.69 3.8
1 -4 -4 52.69 3
1 -4 -4 53.59 3.3
1 -4 -4 55.99 3.3
1 -4 -4 58.79 3.6
1 -4 -4 57.59 4
-1 4 4 56.89 3.6
-1 4 4 51.79 4
-1 4 4 50.49 3.5
-1 4 4 62.19 3.6
0 -4 -4 574.34 23.8
0 -4 -4 630.74 25.5
0 -4 -4 654.83 29.1
0 -4 -4 631.64 28.9
0 -4 -4 646.44 24.8
0 -4 -4 638.34 23.8
0 4 4 672.33 28.9
0 4 4 621.04 25.6
0 4 4 634.84 25.6
0 4 4 594.54 26.2
-1 -4 -4 4.9 1.5
-1 -4 -4 2.1 1.4
-1 -4 -4 4.4 1
-1 -4 -4 0.8 1.2
-1 -4 -4 2.6 1.3
-1 -4 -4 3.7 1.2
1 4 4 1.5 1.4
1 4 4 3.4 0.9
1 4 4 2 1.3
1 4 4 3.3 0.7
1 4 4 3 1.3
-2 -4 -4 136.09 6.5
-2 -4 -4 153.58 8
-2 -4 -4 142.59 6.1
-2 -4 -4 155.08 8
-2 -4 -4 148.79 7.1
-2 -4 -4 142.99 6.7
2 4 4 140.19 6.9
2 4 4 137.89 6.3
2 4 4 134.39 7.1
2 4 4 141.19 6.1
2 4 4 145.19 7.9
-3 -4 -4 41 4
-3 -4 -4 46.4 3.2
-3 -4 -4 35.8 3.2
-3 -4 -4 40.1 3.4
-3 -4 -4 36.7 3.5
3 4 4 44.8 3.5
3 4 4 40.4 3.7
3 4 4 37.3 2.7
3 4 4 39.1 3.4
-4 -4 -4 61.29 4
-4 -4 -4 59.89 4.4
-4 -4 -4 58.49 4
-4 -4 -4 64.69 4.8
-4 -4 -4 60.69 3.4
4 4 4 58.69 3.6
4 4 4 59.99 4.3
4 4 4 58.29 4.8
4 4 4 62.79 4.3
-5 -4 -4 39.3 3.5
-5 -4 -4 39.6 4
-5 -4 -4 46.7 3.7
-5 -4 -4 42.9 3.1
-5 -4 -4 39.8 4
5 4 4 44.8 3.9
5 4 4 40.7 3.4
5 4 4 42.5 4.1
5 4 4 44.3 4.4
-6 -4 -4 40.3 3.5
-6 -4 -4 41.7 4.2
-6 -4 -4 38.3 4.4
-6 -4 -4 28.9 3.3
-6 -4 -4 41.9 3.5
6 4 4 29.7 3.9
6 4 4 32.7 3.4
6 4 4 33.1 3.5
6 4 4 46.8 4.7
-7 -4 -4 -1.5 2.4
-7 -4 -4 -3.5 1.8
-7 -4 -4 -1.1 1.7
7 4 4 -1.6 2.2
7 4 4 -0.1 1.9
7 4 4 -2 2.5
7 4 4 2.1 1.9
-8 -4 -4 13.9 3.8
-8 -4 -4 7.9 2.6
8 4 4 10.7 3.1
8 4 4 14.5 3.9
8 4 4 10.2 3.3
-9 -4 -4 1.1 2.7
-9 -4 -4 -4.7 3.8
9 4 4 -0.3 3.8
9 4 4 1.9 2.8
9 4 4 -1.7 2.8
-10 -4 -4 -13 4.4
-10 -4 -4 2.1 3
10 4 4 -0.5 3.4
10 4 4 3.9 5.1
10 4 4 -2.5 3.3
6 -5 -4 4.1 3.8
-6 5 4 -0.5 3.5
-6 5 4 -2.2 4.2
-5 5 4 11.2 4.5
-5 5 4 18.5 3.8
4 -5 -4 0.5 2
-4 5 4 0.3 2.4
-4 5 4 0.7 3.1
3 -5 -4 30.1 3.3
3 -5 -4 28.9 3.1
3 -5 -4 31 3.4
-3 5 4 37.1 3.5
-3 5 4 33.9 4.4
-2 5 4 -295.97 147.49
1 -5 -4 149.19 8
1 -5 -4 125.69 6.5
1 -5 -4 134.39 7.6
1 -5 -4 153.28 7
-1 5 4 135.39 7.8
-1 5 4 -42.9 133.59
-1 5 4 145.19 6.9
-1 5 4 129.29 6.9
0 -5 -4 56.79 4.1
0 -5 -4 63.09 3.7
0 -5 -4 59.99 3.4
0 -5 -4 62.29 4.7
0 -5 -4 62.59 4.4
0 -5 -4 63.29 4.1
0 5 4 66.79 4.1
0 5 4 60.29 4.4
0 5 4 14.4 110.59
0 5 4 58.19 4.1
0 5 4 60.39 4.2
-1 -5 -4 65.49 3.9
-1 -5 -4 61.09 4.1
-1 -5 -4 66.39 4.8
-1 -5 -4 53.49 3.2
-1 -5 -4 63.79 4.5
-1 -5 -4 66.49 4.1
1 5 4 -29.4 110.39
1 5 4 56.39 4.3
1 5 4 71.79 4.4
1 5 4 60.19 3
-2 -5 -4 13.4 2.3
-2 -5 -4 11.5 2
-2 -5 -4 12.7 2.3
-2 -5 -4 11.1 2
-2 -5 -4 10.8 1.9
2 5 4 13.2 2.3
2 5 4 11.2 1.9
2 5 4 9.9 2.1
-3 -5 -4 74.39 4.2
-3 -5 -4 90.89 5.9
-3 -5 -4 80.29 5.9
-3 -5 -4 86.79 4.9
-3 -5 -4 82.39 4.9
-3 -5 -4 79.59 5.2
3 5 4 84.69 5.3
3 5 4 74.59 5
3 5 4 77.19 5.7
3 5 4 86.19 4.1
-4 -5 -4 4.1 1.8
-4 -5 -4 3.6 1.3
-4 -5 -4 1.7 1.4
-4 -5 -4 2.1 1.5
-4 -5 -4 2.8 2
4 5 4 4.1 1.9
4 5 4 2.5 1.8
4 5 4 6.3 1.4
4 5 4 1.7 1.6
-5 -5 -4 27.9 3.8
-5 -5 -4 28.8 2.7
-5 -5 -4 24.4 3
-5 -5 -4 34.8 3.3
-5 -5 -4 25.5 3.4
5 5 4 22.3 3.4
5 5 4 28.2 2.8
5 5 4 25.4 3.3
5 5 4 32.6 3.7
-6 -5 -4 16.3 2.8
-6 -5 -4 15.4 2.7
-6 -5 -4 11.1 2.1
-6 -5 -4 13 2.9
-6 -5 -4 13.8 2.9
6 5 4 10.6 3
6 5 4 12.7 2.8
6 5 4 11.4 2.3
6 5 4 16.6 3.3
-7 -5 -4 30 4.4
-7 -5 -4 27 3.5
-7 -5 -4 30.6 3.6
-7 -5 -4 30.5 3.5
7 5 4 21 4
7 5 4 30.9 4.4
7 5 4 25.1 3.5
7 5 4 25 3.8
-8 -5 -4 0.4 2.1
-8 -5 -4 1.7 3.3
-8 -5 -4 0.7 2.5
8 5 4 -2.2 2.1
8 5 4 -0.6 2.8
8 5 4 -1.3 2.9
8 5 4 5.7 2.4
-9 -5 -4 0.3 3.8
-9 -5 -4 -2.3 2.4
9 5 4 3 3.3
9 5 4 -2.8 2.5
9 5 4 0 3.9
-10 -5 -4 0.5 3.1
-10 -5 -4 -1.1 4.8
10 5 4 0.5 3.9
10 5 4 1.3 3.5
10 5 4 13.6 5.6
-5 6 4 26.9 5.7
4 -6 -4 1.8 2.6
-4 6 4 2.8 3.5
3 -6 -4 36.8 3.8
3 -6 -4 34.7 3.8
-3 6 4 38.1 5.1
2 -6 -4 4.3 1.8
2 -6 -4 2.2 2.1
2 -6 -4 7.4 2.3
-2 6 4 5.6 2.7
1 -6 -4 24.7 3
1 -6 -4 20.3 2.1
1 -6 -4 25 3.1
1 -6 -4 25.5 3.2
-1 6 4 55.99 166.18
-1 6 4 22.7 3.5
-1 6 4 27.5 2.9
0 -6 -4 70.89 4.8
0 -6 -4 70.79 3.5
0 -6 -4 68.29 4.3
0 -6 -4 57.09 4.5
0 -6 -4 73.19 5.1
0 -6 -4 70.09 5.3
0 6 4 60.49 4.7
0 6 4 57.69 4.7
0 6 4 188.98 151.68
0 6 4 65.69 4.7
0 6 4 77.19 5.2
1 6 4 142.49 144.99
-2 -6 -4 3.4 1.6
-2 -6 -4 2.3 1.4
-2 -6 -4 3.2 2.1
-2 -6 -4 5.1 1.8
-2 -6 -4 1.1 1.9
-2 -6 -4 4.2 1.8
2 6 4 2.6 1.7
2 6 4 4 1.9
-3 -6 -4 17.3 2.6
-3 -6 -4 14.8 3
-3 -6 -4 10.3 2.9
-3 -6 -4 9 2.3
-3 -6 -4 13.6 2.9
3 6 4 11.5 2.1
3 6 4 11.9 2.5
3 6 4 12.7 2.7
-4 -6 -4 11.4 2.4
-4 -6 -4 11.9 2.4
-4 -6 -4 10.7 2.7
-4 -6 -4 8.8 2.5
4 6 4 11.6 2.5
4 6 4 8.4 1.5
4 6 4 10.6 2.7
4 6 4 10.1 2.7
-5 -6 -4 47.4 3.5
-5 -6 -4 50.39 5.3
-5 -6 -4 53.79 4.5
-5 -6 -4 51.49 4.3
-5 -6 -4 48 5
5 6 4 42.8 5.1
5 6 4 49.6 3.6
5 6 4 51.59 5.1
5 6 4 54.39 5
-6 -6 -4 21.7 4.1
-6 -6 -4 18.6 2.6
-6 -6 -4 17.4 3.6
-6 -6 -4 19.8 3.1
-6 -6 -4 19.9 3
6 6 4 19.6 2.7
6 6 4 13.5 3.4
6 6 4 23.6 3.6
6 6 4 23 3.8
-7 -6 -4 8.7 2.8
-7 -6 -4 4.9 2.6
-7 -6 -4 9.6 2.4
-7 -6 -4 2.9 3
7 6 4 8.3 3.4
7 6 4 3.7 3
7 6 4 3 3
7 6 4 4.4 2.4
-8 -6 -4 0.5 2.4
-8 -6 -4 2.6 2.4
-8 -6 -4 0.6 2.7
-8 -6 -4 -5.1 3
8 6 4 -1.3 2.5
8 6 4 -3.7 3
8 6 4 1.5 2.7
8 6 4 3.7 3.5
-9 -6 -4 1.9 2.8
-9 -6 -4 -0.1 4.4
9 6 4 2 3.7
9 6 4 2 3.1
9 6 4 5.5 4.3
4 -7 -4 12.7 3.6
-4 7 4 21.7 5.4
3 -7 -4 29.4 3.6
3 -7 -4 34.8 4.1
-3 7 4 30.8 5.2
2 -7 -4 1.2 2.2
2 -7 -4 0.7 2.3
-2 7 4 2.4 2.7
1 -7 -4 2.2 2.1
1 -7 -4 1.1 2.3
-1 7 4 0.1 2
-1 7 4 5 2.6
-1 7 4 -243.78 156.68
0 7 4 35.6 173.38
-1 -7 -4 5.2 2.3
-1 -7 -4 2.7 2.4
-1 -7 -4 3.4 1.6
-1 -7 -4 0.5 1.9
-1 -7 -4 5.7 2.2
1 7 4 -22.6 163.78
1 7 4 3.6 2.1
1 7 4 3.9 2.3
-2 -7 -4 22.1 3.2
-2 -7 -4 20.7 2.9
-2 -7 -4 19.3 3.2
-2 -7 -4 24.7 2.5
-2 -7 -4 26.1 3.8
2 7 4 23.6 3.3
2 7 4 25.7 161.58
-3 -7 -4 1.5 1.8
-3 -7 -4 0.1 1.9
-3 -7 -4 -4 2.2
-3 -7 -4 1.1 2.3
-3 -7 -4 -0.8 2.5
3 7 4 -1.8 2.1
3 7 4 0.4 1.8
3 7 4 -0.7 2.1
-4 -7 -4 -3.3 2.2
-4 -7 -4 -2.2 2
-4 -7 -4 3.2 2.6
-4 -7 -4 0.1 2.4
4 7 4 1 2.2
4 7 4 1.2 2.2
4 7 4 1.7 2.1
-5 -7 -4 63.09 6.1
-5 -7 -4 73.29 6.9
-5 -7 -4 76.99 5.6
-5 -7 -4 62.49 5.2
5 7 4 65.39 4.2
5 7 4 63.69 6.2
5 7 4 78.59 6.3
5 7 4 59.59 6
-6 -7 -4 1.3 2.3
-6 -7 -4 5.4 2.9
-6 -7 -4 3.4 2.5
-6 -7 -4 -4.3 2.9
-6 -7 -4 0.4 1.9
6 7 4 5.1 2.9
6 7 4 1.2 2.9
6 7 4 -0.8 2.7
6 7 4 1.7 1.6
-7 -7 -4 -2.4 2.5
-7 -7 -4 -1 2
-7 -7 -4 -5 3.1
-7 -7 -4 -1.3 2.5
7 7 4 -1.6 2
7 7 4 2.8 3.3
7 7 4 0.9 3
7 7 4 1 3.1
-8 -7 -4 3.3 3.2
-8 -7 -4 2.5 3.9
-8 -7 -4 1.6 3
-8 -7 -4 9.1 2.8
8 7 4 2.3 3.5
8 7 4 6.4 3.8
8 7 4 -1.9 3.5
8 7 4 1.8 2.5
-9 -7 -4 0.9 4.5
-9 -7 -4 4.8 3.3
9 7 4 5 3.4
9 7 4 4.4 4.5
9 7 4 11 5.3
3 -8 -4 5 3.4
-3 8 4 -2.4 4.3
2 -8 -4 2.3 2.8
2 -8 -4 0 2.5
-2 8 4 0.6 3.5
1 -8 -4 72.29 6.8
1 -8 -4 99.99 6.8
-1 8 4 95.19 6.5
-1 8 4 103.89 7.7
0 -8 -4 23.9 3.7
0 -8 -4 25.3 3.1
0 -8 -4 28.9 3.9
0 8 4 28.7 3.8
0 8 4 34.3 4.6
0 8 4 92.89 194.08
-1 -8 -4 35.9 3.4
-1 -8 -4 36.2 4.5
-1 -8 -4 45.2 4.4
-1 -8 -4 43.2 4.5
1 8 4 41.2 4.6
1 8 4 83.29 187.18
1 8 4 48.5 4.8
-2 -8 -4 12.3 2.9
-2 -8 -4 11.5 3.2
-2 -8 -4 11 2.9
-2 -8 -4 17.3 2.4
-2 -8 -4 10.6 2.8
2 8 4 4.2 194.48
2 8 4 21.1 3.2
-3 -8 -4 64.09 5.9
-3 -8 -4 60.69 5
-3 -8 -4 64.79 5.6
-3 -8 -4 66.69 5.3
-3 -8 -4 61.99 6.4
3 8 4 66.09 5.7
3 8 4 51.59 195.78
-4 -8 -4 33.5 4
-4 -8 -4 25.3 3.8
-4 -8 -4 20.7 3.8
-4 -8 -4 33.2 4.9
-4 -8 -4 30.3 3.6
4 8 4 28.2 3.9
4 8 4 21.7 3.5
-5 -8 -4 28.6 4.5
-5 -8 -4 47.2 6
-5 -8 -4 42.3 4.6
-5 -8 -4 40.3 4.4
5 8 4 44.9 5.3
5 8 4 47.5 5.4
-6 -8 -4 15.4 4.2
-6 -8 -4 21.6 4.5
-6 -8 -4 18.2 3.3
-6 -8 -4 20.7 3.8
6 8 4 13 3.9
6 8 4 21.9 4.3
-7 -8 -4 5.5 4
-7 -8 -4 8.2 2.6
-7 -8 -4 2.7 3.1
-7 -8 -4 9.6 3.4
7 8 4 9 3.7
7 8 4 3.4 3.9
7 8 4 4.3 3.4
-8 -8 -4 4.2 3.6
-8 -8 -4 0.3 3.4
-8 -8 -4 10.1 2.8
-8 -8 -4 -2.8 4.4
8 8 4 9.3 4.5
8 8 4 -0.6 3.9
8 8 4 -1.4 3.7
-9 -8 -4 -5 5
-9 -8 -4 -1.8 4.1
-9 -8 -4 3.1 3
9 8 4 3.6 4.5
9 8 4 -4.5 4.7
9 8 4 1.4 4.5
2 -9 -4 3.3 3.6
2 -9 -4 2.1 2.9
-2 9 4 4.9 4.8
1 -9 -4 3.3 3.3
1 -9 -4 4.7 3.4
-1 9 4 5.9 3.5
-1 9 4 7.4 4.3
0 -9 -4 2.4 3.4
0 -9 -4 4.4 3.2
0 -9 -4 1 2.5
0 9 4 -131.59 213.48
0 9 4 -0.4 3.5
0 9 4 1.9 3.2
1 9 4 -152.08 183.88
-2 -9 -4 -1.7 2.7
-2 -9 -4 4.9 2.9
-2 -9 -4 1.8 2.9
2 9 4 -2.3 3
2 9 4 1.6 2.6
2 9 4 32.4 223.68
-3 -9 -4 1.2 2.4
-3 -9 -4 -1.7 2.6
-3 -9 -4 2.4 3.4
-3 -9 -4 8.6 2.9
-3 -9 -4 0.9 3
3 9 4 1.6 2.7
3 9 4 90.19 218.28
-4 -9 -4 5.3 3.8
-4 -9 -4 1.5 2.9
-4 -9 -4 3 2.6
-4 -9 -4 2.5 2.7
-4 -9 -4 -0.3 3.2
4 9 4 6.2 3
4 9 4 28.7 222.68
4 9 4 0.7 2.6
-5 -9 -4 89.79 8.6
-5 -9 -4 65.39 6.4
-5 -9 -4 77.09 7.9
-5 -9 -4 79.49 6.8
5 9 4 84.89 7.3
5 9 4 89.99 7.4
-6 -9 -4 28.4 5.4
-6 -9 -4 23.7 4.2
-6 -9 -4 16.9 4.4
-6 -9 -4 27.1 4.2
6 9 4 30.5 5.1
6 9 4 23.4 4.8
-7 -9 -4 7.9 4.5
-7 -9 -4 12.1 3.8
-7 -9 -4 5.6 3.7
7 9 4 6.2 4.6
7 9 4 12.5 4.6
-8 -9 -4 -2.5 4.1
-8 -9 -4 -8 3.8
-8 -9 -4 -6 4.3
8 9 4 5.3 4.5
8 9 4 0.4 4.2
0 -10 -4 10.7 4
0 -10 -4 0.5 3.9
0 10 4 -3.7 3.8
0 10 4 13 5.1
-1 -10 -4 10.8 4
-1 -10 -4 9.4 3.2
-1 -10 -4 11.3 4.2
1 10 4 11.4 4.9
1 10 4 10.1 3.7
1 10 4 -114.59 244.18
-2 -10 -4 6.7 3.3
-2 -10 -4 7.9 3.4
-2 -10 -4 9.1 3.9
2 10 4 6.2 3.5
2 10 4 7.6 4.1
2 10 4 -259.27 229.38
-3 -10 -4 -2.3 3.1
-3 -10 -4 -2 4
-3 -10 -4 10.6 3.6
3 10 4 3.4 3.3
3 10 4 9.2 4
3 10 4 -89.79 252.87
-4 -10 -4 6.3 3
-4 -10 -4 0.1 4.3
-4 -10 -4 -5.4 3.1
-4 -10 -4 -1.7 3.2
4 10 4 1.4 3.6
4 10 4 -218.98 220.38
-5 -10 -4 10.7 4.6
-5 -10 -4 10 3.9
-5 -10 -4 6.6 3.9
-5 -10 -4 7.3 3.8
5 10 4 65.79 222.98
5 10 4 12.4 3.5
5 10 4 10.8 4
-6 -10 -4 9.4 3.6
-6 -10 -4 1 4.8
-6 -10 -4 8.2 3.7
6 10 4 11.1 4.4
6 10 4 9.3 4.2
-7 -10 -4 7.7 4.1
-7 -10 -4 22.7 4.7
-7 -10 -4 3.7 4.8
7 10 4 -2.6 4.6
7 10 4 10.6 5.1
2 11 4 308.37 293.87
-3 -11 -4 15.5 5.1
-3 -11 -4 22.3 4.5
-3 -11 -4 7.2 3.8
3 11 4 -50.29 255.77
3 11 4 6.9 4.6
3 11 4 10.4 4.1
-4 -11 -4 12.9 4.2
-4 -11 -4 14.7 5.9
-4 -11 -4 19.5 5.2
4 11 4 38 282.87
4 11 4 18.6 4.8
4 11 4 15.1 4.9
-5 -11 -4 4.2 5.4
-5 -11 -4 2.8 3.9
-5 -11 -4 -5.4 3.9
5 11 4 52.49 275.07
5 11 4 5.6 4.5
-6 -11 -4 1 3.8
6 11 4 -351.96 260.77
6 11 4 0.9 4.6
4 10 -5 12.3 5.2
4 10 -5 -153.48 222.18
-4 -10 5 8.5 6
-4 -10 5 1.8 4
-4 -10 5 -2.8 4.2
-4 -10 5 -0.4 4
3 10 -5 257.77 259.17
2 10 -5 9.5 4.4
2 10 -5 -373.96 189.38
-2 -10 5 4.5 4
-2 -10 5 5.8 4.2
-2 -10 5 -1.7 3.9
-2 -10 5 2.3 4.6
1 10 -5 -82.59 234.88
6 9 -5 126.39 260.87
5 9 -5 2.3 4.4
5 9 -5 -66.39 249.78
-5 -9 5 4.5 3.7
-5 -9 5 5.3 3.2
-5 -9 5 3.8 4.5
-5 -9 5 -0.7 4.1
4 9 -5 146.49 241.28
3 9 -5 72.59 198.38
3 9 -5 1.5 4.1
-3 -9 5 1.7 4.6
-3 -9 5 -2 3.3
-3 -9 5 7.7 3.3
-3 -9 5 1.1 3
2 9 -5 -116.19 200.38
2 9 -5 0.5 3.7
-2 -9 5 3.9 3.6
-2 -9 5 4.1 3.3
-2 -9 5 5.5 4.1
-2 -9 5 6.2 3.6
1 9 -5 70.89 209.48
0 9 -5 12.7 4.2
0 9 -5 20.8 210.18
0 -9 5 15.4 4.3
0 -9 5 5.3 4.4
0 -9 5 1.5 3.4
0 -9 5 9.5 3.7
-1 9 -5 9.3 3.9
-1 9 -5 -14.9 236.38
1 -9 5 7.6 3.9
1 -9 5 3.7 4.5
1 -9 5 2.9 3.9
7 8 -5 2.8 4.6
7 8 -5 -134.49 257.07
-7 -8 5 1.4 4.3
-7 -8 5 0.9 4.6
-7 -8 5 5 5.4
6 8 -5 13.6 4.6
6 8 -5 -264.07 199.08
-6 -8 5 9.4 4.2
-6 -8 5 2.5 4.3
-6 -8 5 15.8 5.1
5 8 -5 94.09 226.68
4 8 -5 1.5 3.2
4 8 -5 53.99 234.98
-4 -8 5 -2.2 2.8
-4 -8 5 -0.6 3.3
-4 -8 5 -0.1 2.5
-4 -8 5 0.2 2.5
-4 -8 5 2.3 4
3 8 -5 87.59 190.98
2 8 -5 15.4 4.2
2 8 -5 -135.29 177.08
-2 -8 5 14.4 3.4
-2 -8 5 15.5 3.9
-2 -8 5 11.3 3.2
-2 -8 5 10.9 3.4
1 8 -5 8.6 3.4
1 8 -5 22.9 203.48
-1 -8 5 3 3.5
-1 -8 5 9.5 3.2
-1 -8 5 17 3.5
-1 -8 5 11.4 3.2
0 8 -5 -22.9 205.78
0 8 -5 15.5 3.6
0 -8 5 5.3 3.5
0 -8 5 11.7 3.5
0 -8 5 14.1 3.5
0 -8 5 11.6 3.3
-1 8 -5 60.89 194.88
-2 8 -5 -70.19 222.28
2 -8 5 21.7 4.9
-3 8 -5 -238.88 233.28
3 -8 5 -4.4 4.4
3 -8 5 0.3 4
3 -8 5 0.9 3
8 7 -5 -0.1 4.9
8 7 -5 6.9 4.4
-8 -7 5 2 5.3
7 7 -5 9.8 4.6
7 7 -5 7.8 4.1
-7 -7 5 4.5 4.1
-7 -7 5 7.2 4.1
-7 -7 5 -0.9 4.2
6 7 -5 138.99 230.18
5 7 -5 22.1 3.7
5 7 -5 15.1 3.9
5 7 -5 -16.6 201.28
-5 -7 5 20.5 4.7
-5 -7 5 13.8 4.4
-5 -7 5 16.5 3.7
-5 -7 5 11.4 3.5
-5 -7 5 17.3 2.8
4 7 -5 -3.3 192.28
4 7 -5 22.7 3.2
4 7 -5 14.9 3.8
-4 -7 5 22.4 3.8
-4 -7 5 26.7 3.7
-4 -7 5 19.7 4.5
-4 -7 5 21 4.4
-4 -7 5 21.1 3
3 7 -5 203.68 177.88
2 7 -5 1.3 2.6
2 7 -5 9.3 177.18
-2 -7 5 2 2.1
-2 -7 5 2.9 3.1
-2 -7 5 -2.2 2.3
-2 -7 5 -4.1 2.5
-2 -7 5 0.3 2
1 7 -5 106.69 171.08
1 7 -5 130.39 7.8
-1 -7 5 109.09 8.4
-1 -7 5 120.89 7.2
-1 -7 5 114.59 7.4
-1 -7 5 119.39 7.6
-1 -7 5 124.29 7.5
0 7 -5 -3.6 2.4
0 7 -5 -28.4 154.88
0 -7 5 3.3 2.4
0 -7 5 0.4 2.5
0 -7 5 -4 2.2
0 -7 5 4.7 2.9
-1 7 -5 105.49 173.48
-2 7 -5 89.09 200.88
-3 7 -5 -59.09 205.98
3 -7 5 0 2.7
3 -7 5 2.5 3.4
3 -7 5 2.9 3.7
-4 7 -5 -168.88 216.68
4 -7 5 3.7 3.9
4 -7 5 -2.4 3.8
8 6 -5 0.2 5
8 6 -5 6.2 4.8
-8 -6 5 11.2 4.8
7 6 -5 -3.4 3
7 6 -5 -3.8 3.2
7 6 -5 0.8 4.1
-7 -6 5 4.8 4.3
-7 -6 5 -1.6 3.4
-7 -6 5 -0.9 3.7
6 6 -5 20.3 3.8
6 6 -5 13 4.4
6 6 -5 20.9 4.2
-6 -6 5 16.1 4
-6 -6 5 17.3 3.8
-6 -6 5 8.1 4
5 6 -5 181.08 200.28
5 6 -5 17.5 4.4
5 6 -5 14.6 3.7
5 6 -5 18.5 3.6
-5 -6 5 23.3 3.8
-5 -6 5 17.2 3.6
-5 -6 5 14 4.2
-5 -6 5 23 4
-5 -6 5 18.4 2.5
4 6 -5 -100.29 164.48
4 6 -5 0.8 2.9
4 6 -5 4.6 2.7
4 6 -5 5.7 2.5
-4 -6 5 2.4 2.8
-4 -6 5 5.3 2.5
-4 -6 5 2.3 2.9
-4 -6 5 4.7 2
-4 -6 5 3.9 2.5
3 6 -5 102.59 6.8
3 6 -5 86.79 7.3
3 6 -5 56.29 173.18
-3 -6 5 82.19 7.2
-3 -6 5 110.79 6.5
-3 -6 5 105.29 6.5
-3 -6 5 99.19 7.1
-3 -6 5 97.59 5.8
2 6 -5 -93.99 138.19
2 6 -5 -6.1 2.2
2 6 -5 1.4 2.1
-2 -6 5 0 2.2
-2 -6 5 -2.1 2.2
-2 -6 5 -1.9 1.6
-2 -6 5 -1.6 1.7
-2 -6 5 -3.8 1.6
1 6 -5 -1.2 2.1
1 6 -5 -178.68 119.09
-1 -6 5 -2.7 2.1
-1 -6 5 -1.5 1.8
-1 -6 5 -1.4 1.8
-1 -6 5 -1 1.7
-1 -6 5 -0.8 2.3
-1 -6 5 -0.5 1.3
0 6 -5 33.1 3.8
0 6 -5 -62.99 166.18
0 -6 5 32.9 3.5
0 -6 5 33.3 3.8
0 -6 5 28.2 3.4
0 -6 5 28.2 2.6
0 -6 5 32.3 4.1
0 -6 5 31.9 3.7
-1 6 -5 527.65 21.9
-1 6 -5 565.14 214.98
1 -6 5 503.95 24.5
1 -6 5 522.75 21.9
1 -6 5 478.95 20.1
1 -6 5 538.35 20.3
1 -6 5 508.45 22.2
-2 6 -5 2.8 2.4
-2 6 -5 -79.89 159.18
2 -6 5 0.8 2.2
2 -6 5 4.2 2.6
2 -6 5 2.9 1.9
2 -6 5 4.9 2.4
-3 6 -5 -50.59 193.68
3 -6 5 8.7 3.4
3 -6 5 5.2 2.5
3 -6 5 7.5 2.5
3 -6 5 2.7 2.9
-4 6 -5 187.78 208.58
4 -6 5 41.9 4.6
4 -6 5 45.3 5.2
4 -6 5 49.4 5.6
-5 6 -5 18.1 231.88
5 -6 5 0.8 3.9
5 -6 5 2.3 3.6
8 5 -5 0.4 4.4
8 5 -5 0.3 3.7
-8 -5 5 -1.6 4.6
7 5 -5 6.1 3.1
7 5 -5 0.9 4.2
7 5 -5 5.7 3
-7 -5 5 8.6 3.8
-7 -5 5 10.3 3.4
-7 -5 5 6.7 3.3
6 5 -5 20.5 4.4
6 5 -5 21.1 3.9
6 5 -5 21.6 3.7
-6 -5 5 27.3 3.8
-6 -5 5 17.4 4.3
-6 -5 5 21.3 4
5 5 -5 68.99 6.1
5 5 -5 66.59 6.9
5 5 -5 74.69 5.8
-5 -5 5 63.79 5.6
-5 -5 5 57.09 5.8
-5 -5 5 66.79 5.5
-5 -5 5 77.89 6.8
4 5 -5 72.69 171.98
4 5 -5 111.39 6.7
4 5 -5 113.69 6.7
4 5 -5 115.69 7.3
-4 -5 5 104.59 5.6
-4 -5 5 102.49 7.6
-4 -5 5 112.89 6.6
-4 -5 5 108.59 6.8
3 5 -5 216.78 10
3 5 -5 44.4 148.39
3 5 -5 222.08 11.1
3 5 -5 224.18 10.3
-3 -5 5 222.28 12.5
-3 -5 5 213.98 11.2
-3 -5 5 229.18 10.8
-3 -5 5 225.18 9.8
-3 -5 5 222.78 10.3
2 5 -5 14.2 2.9
2 5 -5 20.7 2.9
2 5 -5 12.2 3
2 5 -5 33.3 135.69
-2 -5 5 12.7 2.4
-2 -5 5 20.7 3.1
-2 -5 5 12.2 2.8
-2 -5 5 15.6 2.9
-2 -5 5 17.2 2.4
1 5 -5 333.97 149.79
1 5 -5 339.77 13.8
1 5 -5 321.27 14.7
-1 -5 5 333.17 16.7
-1 -5 5 326.67 14.1
-1 -5 5 316.47 13.2
-1 -5 5 332.27 14.5
-1 -5 5 313.67 16.4
-1 -5 5 338.57 14.8
0 5 -5 7.7 2.1
0 5 -5 85.59 129.39
0 5 -5 6.4 2
0 5 -5 8.7 2.2
0 -5 5 10.5 2.4
0 -5 5 3.9 2.1
0 -5 5 6.6 2.2
0 -5 5 10.7 2.4
0 -5 5 5.1 2
0 -5 5 7.3 1.5
-1 5 -5 11 2.3
-1 5 -5 -180.68 119.69
1 -5 5 6.7 2.1
1 -5 5 10.2 2.3
1 -5 5 6.3 2.2
1 -5 5 6.3 2.2
1 -5 5 10.3 2.2
-2 5 -5 74.49 5.1
-2 5 -5 169.28 160.38
2 -5 5 74.99 5.4
2 -5 5 84.19 5.6
2 -5 5 72.59 4.8
2 -5 5 75.79 5.5
-3 5 -5 203.18 186.68
-4 5 -5 178.98 206.48
-5 5 -5 102.99 207.28
5 -5 5 63.69 6.3
5 -5 5 42.1 4.9
5 -5 5 46.6 5.5
-6 5 -5 543.15 324.87
8 4 -5 0.9 4.3
8 4 -5 0.7 3.4
-8 -4 5 5 3.5
-8 -4 5 2.4 4.2
7 4 -5 44.4 5.1
7 4 -5 39.7 6
7 4 -5 44.6 4.7
-7 -4 5 40.9 4.8
-7 -4 5 40.3 5.8
6 4 -5 11.7 3.1
6 4 -5 8 3.4
6 4 -5 14.4 2.9
-6 -4 5 6.9 3.1
-6 -4 5 14 3.1
-6 -4 5 11.9 3.3
5 4 -5 7.1 2.4
5 4 -5 10.2 2.6
5 4 -5 7.5 3.4
5 4 -5 5.9 2.7
-5 -4 5 12.6 2.7
-5 -4 5 13.5 3.5
-5 -4 5 9.3 2.4
-5 -4 5 10 3
4 4 -5 151.38 7.7
4 4 -5 124.99 9
4 4 -5 152.28 8.2
4 4 -5 142.19 7.3
-4 -4 5 145.79 8.4
-4 -4 5 138.99 7.5
-4 -4 5 139.49 8.9
-4 -4 5 146.59 7.8
3 4 -5 6.4 1.6
3 4 -5 -105.19 111.69
3 4 -5 7 2
3 4 -5 7.2 2.8
3 4 -5 6.9 2.2
-3 -4 5 6.4 2.3
-3 -4 5 6.3 2.3
-3 -4 5 8.5 1.9
2 4 -5 -158.08 102.79
2 4 -5 58.29 4
2 4 -5 38 4.5
2 4 -5 57.49 4.2
-2 -4 5 51.09 3.5
-2 -4 5 51.39 4.5
-2 -4 5 55.89 4.6
-2 -4 5 51.29 4.7
-2 -4 5 55.09 3.8
1 4 -5 87.69 6.5
1 4 -5 -109.49 96.19
1 4 -5 113.19 5.7
1 4 -5 109.29 6.1
-1 -4 5 111.09 5.9
-1 -4 5 107.29 6.3
-1 -4 5 105.39 6.6
-1 -4 5 116.19 6.9
-1 -4 5 115.69 5.3
0 4 -5 -36.2 111.99
0 4 -5 75.69 4.4
0 4 -5 68.29 4.4
0 4 -5 68.19 5.1
0 -4 5 61.19 4.4
0 -4 5 67.69 4.6
0 -4 5 73.39 3.9
0 -4 5 73.99 5
0 -4 5 72.19 5.1
-1 4 -5 181.58 9.9
-1 4 -5 216.28 119.79
-1 4 -5 182.18 8.7
-1 4 -5 196.48 8.3
-1 4 -5 201.08 8.9
1 -4 5 190.08 8.3
1 -4 5 192.78 9.8
1 -4 5 174.58 9.9
1 -4 5 185.68 8.3
1 -4 5 198.38 8.9
-2 4 -5 22.9 135.29
-2 4 -5 63.49 4.4
-2 4 -5 76.89 4.6
2 -4 5 79.19 5
2 -4 5 73.49 4.5
2 -4 5 72.49 4.8
2 -4 5 74.09 5
-3 4 -5 -1.1 149.69
3 -4 5 0.8 1.5
3 -4 5 3.5 1.9
3 -4 5 2.1 1.8
3 -4 5 5.4 2
-4 4 -5 -7.5 154.88
4 -4 5 3.6 2.3
4 -4 5 2.9 2.1
-5 4 -5 -80.29 185.58
5 -4 5 8.7 2.8
5 -4 5 4.4 2.8
-6 4 -5 -84.99 194.38
6 -4 5 17.8 3.6
6 -4 5 13.4 3.5
-7 4 -5 33.4 274.77
7 -4 5 7.4 4.3
7 -4 5 12.7 4.1
7 -4 5 18.8 4.5
8 3 -5 1.6 4.2
8 3 -5 9.8 4.2
-8 -3 5 10.5 3.7
-8 -3 5 9.8 4.2
7 3 -5 9.6 3.8
7 3 -5 8.7 3
-7 -3 5 5.7 3.6
-7 -3 5 8.6 3
6 3 -5 2.2 2.9
6 3 -5 5.7 2.5
6 3 -5 6.6 2.6
-6 -3 5 6.1 3
-6 -3 5 -1.2 2.5
-6 -3 5 3.2 2.2
5 3 -5 -4.5 2.1
5 3 -5 1.7 2
5 3 -5 1 1.9
5 3 -5 1.2 2
-5 -3 5 -1.6 2
-5 -3 5 -0.1 2
-5 -3 5 -0.7 1.8
-5 -3 5 -3.1 2
4 3 -5 31.3 3.7
4 3 -5 33.2 3.3
4 3 -5 27.9 3.3
4 3 -5 33.3 3.8
4 3 -5 32.5 3.9
-4 -3 5 28.6 4
-4 -3 5 33.4 3.5
-4 -3 5 31 3.9
3 3 -5 81.59 4.5
3 3 -5 -13.5 124.59
3 3 -5 86.79 6
3 3 -5 72.59 4.9
3 3 -5 84.49 5.3
-3 -3 5 80.29 5.5
-3 -3 5 82.29 5
-3 -3 5 83.39 5.7
2 3 -5 195.78 9.3
2 3 -5 8.5 109.19
2 3 -5 195.18 8.3
2 3 -5 200.38 8.7
2 3 -5 191.48 10.4
-2 -3 5 193.68 8.4
-2 -3 5 193.28 9.5
-2 -3 5 203.48 9
-2 -3 5 184.78 10.2
1 3 -5 111.19 6.1
1 3 -5 75.89 104.99
1 3 -5 112.49 5.7
1 3 -5 115.59 6.8
-1 -3 5 121.79 5.5
-1 -3 5 116.49 6.8
-1 -3 5 107.29 5.8
-1 -3 5 117.99 6.8
-1 -3 5 119.29 6.4
0 3 -5 7.1 1.5
0 3 -5 5.5 1.5
0 3 -5 -63.29 88.09
0 3 -5 0.8 1.1
0 -3 5 4.6 1.4
0 -3 5 4.1 1.2
0 -3 5 3 1.7
0 -3 5 5.3 1.7
0 -3 5 4.3 1.6
-1 3 -5 250.67 124.69
-1 3 -5 580.44 26.2
-1 3 -5 601.84 21.8
-1 3 -5 577.64 23.3
-1 3 -5 551.64 23.2
1 -3 5 564.64 21.7
1 -3 5 549.74 23.3
1 -3 5 559.24 23.1
1 -3 5 568.64 23.3
1 -3 5 545.05 26.1
1 -3 5 568.44 26.3
1 -3 5 595.04 22.1
-2 3 -5 14.8 1.9
-2 3 -5 40.4 117.29
-2 3 -5 16 2.1
-2 3 -5 17.3 2.2
2 -3 5 17.7 2
2 -3 5 12.4 1.9
2 -3 5 19.7 2.5
2 -3 5 18.7 2.2
2 -3 5 15.2 2
2 -3 5 16.4 2.1
-3 3 -5 250.37 137.29
-3 3 -5 77.79 4.2
3 -3 5 66.39 4.5
3 -3 5 74.39 4.8
3 -3 5 74.49 4.8
3 -3 5 76.99 4.7
-4 3 -5 -51.69 144.59
4 -3 5 4.6 1.7
4 -3 5 3 2
4 -3 5 2.5 1.2
4 -3 5 4.4 1.9
-5 3 -5 -197.98 148.99
5 -3 5 -2.8 2
5 -3 5 1 2
5 -3 5 0.7 2.1
-6 3 -5 -121.19 200.48
6 -3 5 1 2.5
6 -3 5 1.9 2.6
6 -3 5 0.1 2.6
-7 3 -5 453.95 260.17
8 2 -5 12.2 3.5
8 2 -5 7.2 4
-8 -2 5 21.7 3.9
-8 -2 5 7.6 4.2
7 2 -5 72.79 7.2
7 2 -5 67.09 6.7
-7 -2 5 103.09 7.3
-7 -2 5 74.99 6.7
6 2 -5 57.19 5.1
6 2 -5 58.59 5.5
6 2 -5 60.89 6
6 2 -5 56.79 5
-6 -2 5 62.99 5.7
-6 -2 5 64.09 4.8
5 2 -5 6.4 2.4
5 2 -5 8.4 2.4
5 2 -5 4.8 2.1
5 2 -5 0.6 1.6
-5 -2 5 3.6 1.7
-5 -2 5 3.8 2.3
-5 -2 5 4.4 2.4
4 2 -5 3.1 1.7
4 2 -5 5 1.7
4 2 -5 0.1 1.6
4 2 -5 4.6 1.6
4 2 -5 3.6 1.9
-4 -2 5 1.6 1.7
-4 -2 5 7.2 2.2
-4 -2 5 2.7 1.6
3 2 -5 646.14 30.1
3 2 -5 672.23 30
3 2 -5 646.24 25.5
3 2 -5 635.24 26.7
3 2 -5 629.34 24.8
3 2 -5 625.94 26.4
-3 -2 5 665.23 26.2
-3 -2 5 623.74 26.8
-3 -2 5 656.83 30
2 2 -5 861.91 38.9
2 2 -5 850.81 32.2
2 2 -5 860.81 39
2 2 -5 847.92 34.4
2 2 -5 860.11 32.9
-2 -2 5 848.52 33.8
-2 -2 5 823.82 34.6
-2 -2 5 858.41 38.9
1 2 -5 247.58 12.5
1 2 -5 250.37 10.3
1 2 -5 247.88 11
-1 -2 5 250.37 10.3
-1 -2 5 252.17 11.2
-1 -2 5 258.67 12.4
-1 -2 5 235.78 10.7
-1 -2 5 243.98 12.3
0 2 -5 452.65 18.8
0 2 -5 471.35 21.4
0 2 -5 448.26 17.6
0 -2 5 460.65 21.3
0 -2 5 465.15 17.7
0 -2 5 431.56 21.1
0 -2 5 458.15 18.6
0 -2 5 445.86 18.9
-1 2 -5 2.6 1.2
-1 2 -5 -94.49 77.49
-1 2 -5 2.8 1.3
-1 2 -5 2.9 1.2
-1 2 -5 2.4 1.1
1 -2 5 3 1.2
1 -2 5 1.5 1
1 -2 5 2.2 1.2
1 -2 5 1.1 1.2
1 -2 5 0.1 1
1 -2 5 3 1.1
-2 2 -5 76.99 4.4
-2 2 -5 80.79 4.5
-2 2 -5 83.39 5
-2 2 -5 83.39 4.2
-2 2 -5 -101.19 89.99
2 -2 5 77.49 4.5
2 -2 5 84.59 4.2
2 -2 5 81.29 4.9
2 -2 5 84.79 5.1
2 -2 5 88.29 4.8
2 -2 5 88.99 4.6
-3 2 -5 209.08 8.9
-3 2 -5 193.18 8.8
-3 2 -5 203.88 133.69
3 -2 5 196.08 9.4
3 -2 5 207.18 9.1
3 -2 5 210.18 8.3
3 -2 5 181.98 9.7
3 -2 5 195.08 8.7
3 -2 5 203.28 10
-4 2 -5 -141.19 122.19
4 -2 5 10.2 2.2
4 -2 5 8.2 1.9
4 -2 5 8.4 2
-5 2 -5 -66.29 152.78
5 -2 5 10.7 2.5
-6 2 -5 -8.2 185.18
6 -2 5 4.3 2.5
6 -2 5 6.2 2.6
6 -2 5 2.2 2.6
-7 2 -5 194.38 218.58
-8 2 -5 -46.1 251.67
8 -2 5 -2 3.5
8 -2 5 -0.9 3.5
8 -2 5 1.1 3.5
8 1 -5 1.2 3.8
8 1 -5 4.6 3.4
-8 -1 5 6 3.7
-8 -1 5 3.5 4
7 1 -5 3.8 2.8
7 1 -5 -0.7 2.9
-7 -1 5 5.7 2.7
6 1 -5 50.79 5.5
6 1 -5 55.49 4.9
6 1 -5 55.79 5.4
-6 -1 5 54.89 5.4
-6 -1 5 56.99 5.5
5 1 -5 128.39 7.9
5 1 -5 121.29 6.7
5 1 -5 122.69 6.6
5 1 -5 117.59 7
-5 -1 5 120.09 7.3
4 1 -5 32.9 3.6
4 1 -5 34.8 3.1
4 1 -5 33.7 3.5
4 1 -5 32 3.2
4 1 -5 31.2 3.2
-4 -1 5 34.9 3.2
-4 -1 5 23.7 3
-4 -1 5 34.1 3.3
-4 -1 5 35.1 3.7
3 1 -5 202.38 10.4
3 1 -5 198.08 8.7
3 1 -5 190.78 10.1
3 1 -5 200.28 9.1
3 1 -5 184.18 8.5
-3 -1 5 189.58 8.7
-3 -1 5 187.28 8.9
-3 -1 5 180.48 9.2
-3 -1 5 197.28 10
2 1 -5 990.5 42.8
2 1 -5 1031.7 42.9
2 1 -5 900.51 36.3
2 1 -5 929.11 37.7
2 1 -5 931.31 35.3
-2 -1 5 912.11 37.8
-2 -1 5 923.61 37.9
-2 -1 5 955.2 42.6
-2 -1 5 903.41 37
1 1 -5 427.86 17.5
1 1 -5 429.76 16.4
1 1 -5 431.76 19.8
1 1 -5 446.86 19.7
-1 -1 5 400.46 17.1
-1 -1 5 419.16 19.7
-1 -1 5 405.06 16.5
-1 -1 5 417.06 16.9
-1 -1 5 411.36 17.5
-1 -1 5 400.16 19.5
0 1 -5 286.47 11.6
0 1 -5 282.87 12.3
0 1 -5 304.27 14
0 -1 5 281.97 11.6
0 -1 5 283.77 12.4
0 -1 5 300.77 13.9
0 -1 5 277.07 12
0 -1 5 285.57 13.8
-1 1 -5 27.3 2.4
-1 1 -5 83.19 88.39
-1 1 -5 24.1 2.6
-1 1 -5 27.7 2.3
-1 1 -5 24.7 2.3
1 -1 5 27.4 2.5
1 -1 5 30.1 2.4
1 -1 5 29 2.3
1 -1 5 32.7 2.4
1 -1 5 33.6 2.5
1 -1 5 31.3 2.7
-2 1 -5 821.12 30.7
-2 1 -5 800.22 32.8
-2 1 -5 855.71 37.2
-2 1 -5 821.12 32.9
2 -1 5 837.42 37.2
2 -1 5 849.52 30.7
2 -1 5 797.72 32.8
2 -1 5 823.52 32.8
2 -1 5 808.32 37.1
2 -1 5 824.62 31.3
-3 1 -5 127.09 6.6
-3 1 -5 110.59 110.49
-3 1 -5 128.39 6.1
-3 1 -5 119.79 6
-3 1 -5 127.59 5.7
3 -1 5 124.99 6.6
3 -1 5 131.59 5.9
3 -1 5 124.39 6.8
3 -1 5 134.49 5.6
3 -1 5 127.69 6.3
3 -1 5 126.49 6
3 -1 5 115.09 6.7
-4 1 -5 -113.29 99.79
-4 1 -5 2.3 1.2
-4 1 -5 0.7 1
4 -1 5 -0.3 1.2
4 -1 5 1.2 1.1
4 -1 5 1.4 1.3
4 -1 5 1.3 1.3
4 -1 5 -0.2 1.6
-5 1 -5 132.79 6.6
-5 1 -5 48.9 149.69
-5 1 -5 122.39 7.1
5 -1 5 133.09 7.5
5 -1 5 139.49 7.5
5 -1 5 138.59 7
-6 1 -5 -105.39 156.18
-6 1 -5 1.6 1.8
6 -1 5 0.4 2.1
6 -1 5 2.7 2.2
6 -1 5 0.8 2.1
-7 1 -5 -0.7 2
-7 1 -5 -44.1 166.58
7 -1 5 -1.6 2.6
7 -1 5 6.7 2.9
-8 1 -5 117.39 247.48
8 0 -5 7.9 4.1
8 0 -5 4.8 3.7
-8 0 5 4.4 3.9
-8 0 5 3.8 4.2
7 0 -5 0 3
7 0 -5 -2.2 2.8
-7 0 5 -3 2.9
-7 0 5 2.4 2.9
6 0 -5 58.09 4.8
6 0 -5 49.5 5.1
6 0 -5 50.19 5.3
-6 0 5 52.39 5.3
-6 0 5 53.79 5.4
5 0 -5 37.2 4.4
5 0 -5 41.1 3.8
5 0 -5 41.4 4.3
5 0 -5 37.1 3.7
-5 0 5 45.1 4.5
-5 0 5 50.19 4.7
-5 0 5 52.09 4.5
4 0 -5 185.98 10
4 0 -5 176.28 8.7
4 0 -5 178.58 8.2
4 0 -5 183.48 8.8
4 0 -5 167.78 9.7
-4 0 5 183.88 8.6
-4 0 5 187.98 9.3
-4 0 5 186.28 9.6
-4 0 5 189.48 9.1
3 0 -5 1 1.4
3 0 -5 2.4 1.3
3 0 -5 2.4 1.3
3 0 -5 1.5 1.3
-3 0 5 3.9 1.6
-3 0 5 3.6 1.3
-3 0 5 0.9 1.4
-3 0 5 1.5 1.2
2 0 -5 3.8 1.2
2 0 -5 3.5 1.2
2 0 -5 5.7 1.6
2 0 -5 5.4 1.4
2 0 -5 3.4 1
-2 0 5 3.2 1.2
-2 0 5 2.4 1.3
-2 0 5 3.2 1.1
-2 0 5 4.8 1.2
1 0 -5 34.8 2.1
1 0 -5 39.1 3.2
1 0 -5 28.1 2.6
1 0 -5 33.5 2.9
1 0 -5 35.9 2.8
-1 0 5 30.6 2.9
-1 0 5 34.6 2.4
-1 0 5 34.5 2.9
-1 0 5 35.3 2.1
-1 0 5 32.1 2.3
-1 0 5 37.2 2.7
0 0 -5 128.09 5.6
0 0 -5 138.29 6.9
0 0 -5 135.39 6.9
0 0 -5 132.59 6.1
0 0 -5 129.19 5.8
0 0 5 129.59 6.9
0 0 5 118.09 5.7
0 0 5 122.09 5.6
0 0 5 124.59 6.7
0 0 5 123.79 6.2
0 0 5 122.79 5.7
-1 0 -5 248.98 10.5
-1 0 -5 243.18 11.8
-1 0 -5 243.28 10.5
-1 0 -5 238.78 9.8
-1 0 -5 244.78 9.8
1 0 5 247.28 10.2
1 0 5 247.18 11.9
1 0 5 243.08 10
1 0 5 242.08 10.5
1 0 5 239.98 9.8
1 0 5 237.78 11.8
-2 0 -5 248.98 10.5
-2 0 -5 235.38 10.4
-2 0 -5 243.48 9.8
-2 0 -5 236.08 10
-2 0 -5 -44.2 84.89
2 0 5 236.38 10.4
2 0 5 234.28 11.7
2 0 5 245.48 11.9
2 0 5 232.88 10.4
2 0 5 243.28 10.1
2 0 5 247.28 10
2 0 5 259.27 9.8
-3 0 -5 44.8 3.2
-3 0 -5 34.1 2.8
-3 0 -5 45.3 2.9
-3 0 -5 42.2 2.7
-3 0 -5 38.2 3
-3 0 -5 -5.2 101.89
3 0 5 41.6 3.3
3 0 5 41.9 2.8
3 0 5 40.8 3.1
3 0 5 45 3
3 0 5 37.5 2.9
-4 0 -5 -151.08 103.49
-4 0 -5 31.3 2.9
4 0 5 32.3 3.1
4 0 5 27.8 2.5
-5 0 -5 30.9 2.9
-5 0 -5 40.3 3.3
-5 0 -5 35.1 3.5
-5 0 -5 -101.59 122.09
5 0 5 32.9 2.9
5 0 5 39 3.7
5 0 5 35.2 3.3
5 0 5 34.5 2.9
5 0 5 30.1 3.7
5 0 5 39.6 3.6
-6 0 -5 -55.99 161.18
-6 0 -5 6.7 2.3
-6 0 -5 8.2 2.1
6 0 5 8.5 2.3
6 0 5 6.4 1.9
6 0 5 6.9 2.3
6 0 5 5.4 2.2
-7 0 -5 -107.39 166.28
-8 0 -5 52.99 205.48
-9 0 -5 -3.7 2.8
-9 0 -5 -87.39 253.57
9 0 5 1.2 3.8
9 0 5 -1.2 4.1
9 0 5 -1.7 2.4
7 -1 -5 9.9 3.4
7 -1 -5 22.9 4.7
-7 1 5 20.4 3.9
-7 1 5 18.2 4.1
6 -1 -5 1.9 2.7
6 -1 -5 4.9 2.4
6 -1 -5 6.9 2.6
-6 1 5 4 2.7
-6 1 5 6 3
-6 1 5 4.6 2.8
5 -1 -5 20.7 3.2
5 -1 -5 28.4 3.6
5 -1 -5 27.3 3.2
-5 1 5 32.3 3.7
-5 1 5 23.7 3.6
-5 1 5 32.7 3.7
4 -1 -5 66.49 5
4 -1 -5 66.89 4.9
4 -1 -5 67.59 5.1
4 -1 -5 65.89 4.3
4 -1 -5 71.09 4.4
-4 1 5 67.99 4.6
-4 1 5 68.79 4.4
-4 1 5 81.09 4.8
-4 1 5 73.79 5.3
-4 1 5 79.69 5
3 -1 -5 167.38 7.4
3 -1 -5 170.08 8.9
3 -1 -5 150.28 7.2
3 -1 -5 173.28 8.8
3 -1 -5 163.38 7.7
-3 1 5 166.38 8.6
-3 1 5 156.88 7.7
-3 1 5 161.88 8
-3 1 5 168.38 7.7
-3 1 5 163.08 8.4
2 -1 -5 393.86 16
2 -1 -5 369.96 14.9
2 -1 -5 378.56 15.2
2 -1 -5 402.86 18
2 -1 -5 388.96 18.1
-2 1 5 345.47 15.8
-2 1 5 371.86 16.4
-2 1 5 376.16 16
-2 1 5 382.36 15.3
-2 1 5 391.46 17.9
1 -1 -5 1.4 1.1
1 -1 -5 0.4 0.9
1 -1 -5 0.5 1.1
1 -1 -5 2.4 0.6
1 -1 -5 2.7 1
1 -1 -5 1.3 0.9
-1 1 5 2.1 0.7
-1 1 5 2 1.1
-1 1 5 0.8 0.9
-1 1 5 1.1 1
-1 1 5 2.1 0.9
-1 1 5 1.7 0.9
-1 1 5 0.5 0.9
0 -1 -5 30.7 2.3
0 -1 -5 30.2 2.7
0 -1 -5 33.2 2.2
0 -1 -5 32.7 2.5
0 -1 -5 29 2.8
0 1 5 31.6 2.6
0 1 5 31.5 2.2
0 1 5 31.4 2.3
0 1 5 27.8 2.5
0 1 5 31.5 1.8
0 1 5 33 2.7
-1 -1 -5 578.34 22.9
-1 -1 -5 635.94 27
-1 -1 -5 609.34 27
-1 -1 -5 561.24 22.9
-1 -1 -5 580.94 23.8
-1 -1 -5 604.64 22.2
1 1 5 568.24 26.9
1 1 5 585.84 23.8
1 1 5 570.14 26.9
1 1 5 574.24 23.1
1 1 5 586.54 22.4
-2 -1 -5 12.6 1.8
-2 -1 -5 11.2 1.7
-2 -1 -5 15.9 1.7
-2 -1 -5 9.9 1.5
-2 -1 -5 9.3 1.5
2 1 5 14.1 1.8
2 1 5 13.5 1.5
2 1 5 10.6 1.8
2 1 5 14.4 1.5
2 1 5 13.6 1.6
2 1 5 13.9 1.7
-3 -1 -5 63.19 102.79
-4 -1 -5 456.65 20.6
-4 -1 -5 95.49 131.99
-4 -1 -5 455.45 18.5
-4 -1 -5 424.26 17
-4 -1 -5 441.76 17.6
-4 -1 -5 390.46 18.2
4 1 5 427.16 20.9
4 1 5 455.45 17.1
4 1 5 436.46 17.9
4 1 5 448.36 18.3
4 1 5 447.96 18.4
4 1 5 475.15 21
-5 -1 -5 137.79 6.5
-5 -1 -5 -110.29 129.19
-5 -1 -5 136.69 7.2
-5 -1 -5 142.19 7.8
-5 -1 -5 157.28 7.4
-5 -1 -5 134.79 7
5 1 5 148.29 6.7
5 1 5 139.19 8.1
5 1 5 143.29 7.2
5 1 5 150.88 7.6
5 1 5 149.79 7.5
-6 -1 -5 -125.89 178.78
6 1 5 9.3 2.4
6 1 5 7.7 2
-7 -1 -5 394.56 225.18
-8 -1 -5 97.09 215.48
-9 -1 -5 19.9 4.4
-9 -1 -5 15.6 3.9
9 1 5 22.6 4.9
9 1 5 17 3.4
9 1 5 9.6 3.8
7 -2 -5 -3.1 2.9
7 -2 -5 -2.2 3.5
-7 2 5 2.7 3.6
6 -2 -5 17.8 4.2
6 -2 -5 15.7 3
-6 2 5 15.7 3.9
-6 2 5 20 3.6
-6 2 5 13.5 3.8
5 -2 -5 14.2 2.8
5 -2 -5 15 3.1
-5 2 5 16.8 3.3
-5 2 5 16.5 3.5
-5 2 5 20.4 3.1
4 -2 -5 1.9 1.6
4 -2 -5 -0.3 1.3
4 -2 -5 2.3 1.8
4 -2 -5 3.5 1.7
-4 2 5 1.1 2
-4 2 5 2.8 1.9
-4 2 5 1.6 1.7
3 -2 -5 50.19 3.9
3 -2 -5 48.3 3.4
3 -2 -5 47.3 3.4
3 -2 -5 47.3 2.8
3 -2 -5 51.39 4
-3 2 5 51.99 3.8
-3 2 5 54.79 3.6
-3 2 5 42.1 3.4
-3 2 5 47.5 4.2
-3 2 5 49.4 3.6
2 -2 -5 14.2 1.9
2 -2 -5 14.2 2
2 -2 -5 15 1.6
2 -2 -5 15.9 2.2
2 -2 -5 15.2 2.1
-2 2 5 16.2 1.8
-2 2 5 16.4 2.1
-2 2 5 12.3 2.1
-2 2 5 14.5 1.6
-2 2 5 17.1 2
-2 2 5 15 1.9
1 -2 -5 92.09 4.3
1 -2 -5 88.79 5.3
1 -2 -5 84.09 4.4
1 -2 -5 91.89 5.3
1 -2 -5 93.99 4.7
-1 2 5 82.79 5
-1 2 5 88.89 4.1
-1 2 5 87.79 4.7
-1 2 5 87.19 4.8
-1 2 5 85.69 4.9
0 -2 -5 212.28 10.2
0 -2 -5 210.78 8.5
0 -2 -5 211.68 9.1
0 -2 -5 200.38 10.2
0 -2 -5 197.08 8.6
0 2 5 197.48 10.1
0 2 5 199.08 9.1
0 2 5 197.18 8.5
0 2 5 193.98 9
-1 -2 -5 444.76 16.9
-1 -2 -5 476.85 20.7
-1 -2 -5 445.46 18.1
-1 -2 -5 451.15 20.5
-1 -2 -5 433.76 17.4
1 2 5 415.56 17
1 2 5 429.26 20.5
1 2 5 407.56 20.4
1 2 5 441.66 18.3
-2 -2 -5 319.47 14.8
-2 -2 -5 290.87 12.2
-2 -2 -5 321.27 13.2
-2 -2 -5 326.37 14.9
-2 -2 -5 310.97 12.7
2 2 5 310.47 12.4
2 2 5 303.87 14.8
2 2 5 300.97 12.7
2 2 5 272.87 14.6
2 2 5 301.17 13.2
-3 -2 -5 13 1.8
-3 -2 -5 -31.7 84.49
-3 -2 -5 12.2 1.7
-3 -2 -5 14.9 1.8
-3 -2 -5 12.7 1.4
-3 -2 -5 11.2 1.9
3 2 5 13.1 1.6
3 2 5 15.5 2.1
3 2 5 14.3 1.9
3 2 5 17.3 2.4
3 2 5 10.4 1.7
3 2 5 11.7 1.8
-4 -2 -5 -2 121.29
-4 -2 -5 145.59 7.1
-4 -2 -5 135.29 6.3
-4 -2 -5 141.59 6.4
4 2 5 132.39 7.8
4 2 5 133.79 7.1
4 2 5 139.39 6.8
4 2 5 132.29 6.9
-5 -2 -5 138.19 141.29
-5 -2 -5 157.58 7.3
-5 -2 -5 154.88 8.4
-5 -2 -5 155.58 7.8
-5 -2 -5 146.19 6.9
5 2 5 142.09 7.5
5 2 5 138.59 8.5
5 2 5 152.18 8
5 2 5 147.29 7.5
-6 -2 -5 138.59 178.48
-6 -2 -5 313.07 13
-6 -2 -5 333.17 14.5
-6 -2 -5 320.27 13.9
6 2 5 296.57 14.3
6 2 5 334.77 16.2
6 2 5 313.27 14.2
6 2 5 313.47 16.2
6 2 5 316.27 14.7
-7 -2 -5 -2.4 1.8
-7 -2 -5 -1.5 2.2
-7 -2 -5 -53.09 211.48
7 2 5 0.9 2
7 2 5 -1.5 2.5
7 2 5 -3 1.8
-8 -2 -5 1.3 3
-8 -2 -5 4.8 2.5
8 2 5 4.1 2.7
8 2 5 7.1 3.6
8 2 5 3.8 2.4
-9 -2 -5 5.5 2.9
-9 -2 -5 0.3 3.6
9 2 5 -6.3 2.7
9 2 5 4.3 4
9 2 5 1.2 2.8
7 -3 -5 4.4 4.3
-7 3 5 3 4.6
-7 3 5 7.7 4.1
6 -3 -5 2.8 3.3
6 -3 -5 0 2.4
-6 3 5 -3.3 3
-6 3 5 -1.2 3.2
5 -3 -5 6 2.8
5 -3 -5 1.7 2.2
-5 3 5 -0.8 2.5
-5 3 5 7.9 3.4
-5 3 5 4.2 2.6
4 -3 -5 -1.4 1.8
-4 3 5 -1.8 2.2
-4 3 5 0.4 2
-4 3 5 -0.3 1.9
3 -3 -5 250.77 12.4
3 -3 -5 253.57 10.2
3 -3 -5 236.28 12
3 -3 -5 226.28 10.4
3 -3 -5 228.48 9.9
-3 3 5 255.37 10.9
-3 3 5 245.08 10.6
-3 3 5 225.28 10.7
-3 3 5 245.18 12
2 -3 -5 3.4 1.4
2 -3 -5 2.6 1.2
2 -3 -5 3.7 1.5
2 -3 -5 2.9 1.3
-2 3 5 2.6 1.3
-2 3 5 1.5 1.2
-2 3 5 2.5 1.2
-2 3 5 4 1.4
-2 3 5 1.8 1.4
1 -3 -5 117.59 5.5
1 -3 -5 116.49 5.5
1 -3 -5 116.99 5.7
1 -3 -5 115.09 6.6
1 -3 -5 115.89 6.6
-1 3 5 118.59 6.3
-1 3 5 116.59 5.9
-1 3 5 113.59 5.9
-1 3 5 115.49 6.3
0 -3 -5 617.94 28.5
0 -3 -5 601.64 23.4
0 -3 -5 612.54 28.3
0 -3 -5 624.14 25.1
0 -3 -5 608.84 24.1
0 3 5 630.34 25.2
0 3 5 614.04 25.1
0 3 5 621.74 23.6
-1 -3 -5 147.89 8.1
-1 -3 -5 145.99 6.9
-1 -3 -5 167.88 8.2
-1 -3 -5 164.68 7.3
-1 -3 -5 141.89 6.7
1 3 5 142.69 6.5
1 3 5 142.69 6.2
1 3 5 156.38 7.3
-2 -3 -5 1149.48 42.9
-2 -3 -5 1155.28 46.1
-2 -3 -5 1138.29 44.5
-2 -3 -5 1153.28 52.19
-2 -3 -5 1182.68 52.39
2 3 5 1138.59 44.8
2 3 5 1157.28 46.2
2 3 5 1205.38 43.4
2 3 5 1149.39 52.19
-3 -3 -5 249.97 12.4
-3 -3 -5 244.28 10.2
-3 -3 -5 237.98 11
-3 -3 -5 250.37 10.7
3 3 5 245.58 11.1
3 3 5 244.98 10.9
3 3 5 247.98 10.3
3 3 5 235.88 12.5
-4 -3 -5 42.3 2.7
-4 -3 -5 35.9 3.1
-4 -3 -5 41.1 3.7
-4 -3 -5 33.7 3.4
-4 -3 -5 35.7 3.2
4 3 5 42.5 3.5
4 3 5 33.4 3.4
4 3 5 38.6 3
4 3 5 38.5 3.7
-5 -3 -5 3.4 1.7
-5 -3 -5 6.6 2
-5 -3 -5 3.2 1.8
-5 -3 -5 4.1 1.5
-5 -3 -5 4.7 1.4
5 3 5 4.3 1.9
5 3 5 4 1.5
5 3 5 7.8 2.1
5 3 5 6.5 2.3
5 3 5 3.9 1.9
-6 -3 -5 386.26 16.1
-6 -3 -5 396.46 19.3
-6 -3 -5 387.36 15.8
6 3 5 402.76 16.6
6 3 5 388.96 19.5
6 3 5 367.76 17
6 3 5 365.76 17.4
-7 -3 -5 58.49 4.7
-7 -3 -5 44.6 4.2
-7 -3 -5 63.99 5.5
7 3 5 49.2 4.9
7 3 5 52.59 5.4
7 3 5 58.99 5.7
7 3 5 50.59 5.1
-8 -3 -5 35.9 4.7
-8 -3 -5 36.1 4.4
8 3 5 41.6 5.5
8 3 5 32 4.4
8 3 5 46.6 5.4
-9 -3 -5 3.3 2.7
-9 -3 -5 4 3.7
9 3 5 1.2 2.9
9 3 5 0.5 3
9 3 5 1.2 3.6
6 -4 -5 10.2 3.9
-6 4 5 4.8 4.2
-6 4 5 4.7 3.6
5 -4 -5 -2.3 2.1
-5 4 5 -2.8 3.2
-5 4 5 -1.3 2.6
4 -4 -5 7.4 2.4
4 -4 -5 7.8 2.2
-4 4 5 13.2 2.9
-4 4 5 10.7 3.4
3 -4 -5 113.09 6.8
3 -4 -5 101.39 5.8
3 -4 -5 104.69 6.6
-3 4 5 117.19 6.2
-3 4 5 120.89 6.2
-3 4 5 105.59 7.3
2 -4 -5 207.38 11.5
2 -4 -5 236.88 11.8
2 -4 -5 214.38 10.1
2 -4 -5 236.28 9.7
2 -4 -5 245.38 10.2
-2 4 5 231.18 11.5
-2 4 5 243.48 9.8
-2 4 5 216.18 10.3
-2 4 5 240.78 10.5
1 -4 -5 -0.9 1.2
1 -4 -5 -0.4 1.3
1 -4 -5 1.3 1.2
1 -4 -5 0 1.2
1 -4 -5 0.4 1.5
-1 4 5 -0.2 1.2
-1 4 5 -1.4 1.3
-1 4 5 0.7 1.1
0 -4 -5 4.3 1.4
0 -4 -5 5.1 1.5
0 -4 -5 6 1.7
0 -4 -5 4 1.3
0 -4 -5 5.6 1.5
0 4 5 3.7 1.5
0 4 5 6.2 1.5
0 4 5 4.5 1.4
0 4 5 6.4 1.6
-1 -4 -5 2.8 1.3
-1 -4 -5 4.6 1.7
-1 -4 -5 3.4 1.3
-1 -4 -5 5.8 1.5
-1 -4 -5 2.5 1.6
1 4 5 4.7 1.5
1 4 5 3.5 1
1 4 5 5.2 1.5
-2 -4 -5 195.58 10.2
-2 -4 -5 196.28 9.1
-2 -4 -5 195.18 8.6
-2 -4 -5 198.08 10.3
-2 -4 -5 196.18 8.5
2 4 5 198.28 9.2
2 4 5 184.88 8.2
2 4 5 180.28 8.7
2 4 5 182.08 10.1
2 4 5 187.38 8
-3 -4 -5 138.39 6.7
-3 -4 -5 131.69 6.8
-3 -4 -5 139.69 7.9
-3 -4 -5 135.39 7.1
3 4 5 146.29 6.4
3 4 5 134.29 8
3 4 5 138.29 7.3
3 4 5 132.29 6.9
-4 -4 -5 22.6 2.5
-4 -4 -5 26.9 2.1
-4 -4 -5 20.2 2.8
-4 -4 -5 19.2 2.4
-4 -4 -5 25.2 3.1
4 4 5 23.1 2.9
4 4 5 25.5 2.9
4 4 5 21.4 3.2
4 4 5 22.7 2.4
4 4 5 21.6 3
-5 -4 -5 28.1 3
-5 -4 -5 26.8 3.3
-5 -4 -5 21.6 2.6
-5 -4 -5 21.4 3
-5 -4 -5 21.4 2.3
5 4 5 16.3 3.4
5 4 5 23.4 2.9
5 4 5 21.9 3.1
5 4 5 26 3.5
5 4 5 20.6 2.5
-6 -4 -5 36.1 3.6
-6 -4 -5 29.2 3.8
-6 -4 -5 32.9 3.2
-6 -4 -5 33.1 3.4
-6 -4 -5 32.9 3.8
6 4 5 30.4 3.3
6 4 5 25.3 3.8
6 4 5 35.4 4.3
6 4 5 32.4 3.6
-7 -4 -5 8.5 2.4
-7 -4 -5 6.9 2.8
-7 -4 -5 11.1 2.6
7 4 5 10.6 3.1
7 4 5 10.8 2.7
7 4 5 9.5 2.5
7 4 5 7.6 3.2
-8 -4 -5 34.2 4.1
-8 -4 -5 28 4.5
8 4 5 32.9 5.2
8 4 5 24 4.2
8 4 5 23.9 3.9
-9 -4 -5 7.7 2.9
-9 -4 -5 6.3 4.2
9 4 5 4.1 3.2
9 4 5 4.9 3.2
9 4 5 3.2 3.9
-5 5 5 24.7 5.3
-5 5 5 26.8 4.3
4 -5 -5 1.6 2
4 -5 -5 4.1 2.3
-4 5 5 0.3 3.2
-4 5 5 6.2 2.6
3 -5 -5 1 1.8
3 -5 -5 -1.1 1.9
-3 5 5 3.1 1.9
-3 5 5 0.1 2.5
-3 5 5 0.2 2.1
2 -5 -5 53.09 4.6
2 -5 -5 61.59 4.5
2 -5 -5 66.79 5
-2 5 5 55.89 4.3
-2 5 5 67.59 5.5
1 -5 -5 107.89 6.9
1 -5 -5 103.89 5.9
1 -5 -5 124.29 6.4
1 -5 -5 122.89 7.3
1 -5 -5 115.69 5.9
-1 5 5 116.49 7.2
-1 5 5 117.69 6.5
-1 5 5 112.19 6.3
-1 5 5 116.29 6.4
0 -5 -5 203.08 9.2
0 -5 -5 208.58 10.8
0 -5 -5 199.18 10.5
0 -5 -5 194.58 9.2
0 -5 -5 190.18 8.7
0 5 5 205.18 9.5
0 5 5 191.18 9.9
0 5 5 201.08 10.4
-1 -5 -5 26 2.7
-1 -5 -5 25 2.5
-1 -5 -5 28.7 3.3
-1 -5 -5 23.8 2.7
-1 -5 -5 26.3 3.1
1 5 5 25.1 2.3
1 5 5 22.4 2.8
1 5 5 22.7 1.5
-2 -5 -5 294.57 12.9
-2 -5 -5 329.37 15.9
-2 -5 -5 298.07 13.3
-2 -5 -5 335.77 15.8
-2 -5 -5 308.97 13.9
2 5 5 318.17 12.9
2 5 5 308.47 12.4
2 5 5 298.47 15.6
2 5 5 325.97 14.1
-3 -5 -5 152.78 7.6
-3 -5 -5 161.08 9
-3 -5 -5 150.08 8.1
-3 -5 -5 163.58 7.5
3 5 5 151.48 9
3 5 5 154.18 6.9
3 5 5 146.99 8.1
3 5 5 161.38 7.9
-4 -5 -5 27.5 3.5
-4 -5 -5 31.9 3.8
-4 -5 -5 30.4 3.2
-4 -5 -5 30.2 2.2
-4 -5 -5 31.2 3.2
4 5 5 28.2 3.4
4 5 5 31.7 3.6
4 5 5 25 3.4
4 5 5 28.5 2.7
-5 -5 -5 31.3 3.5
-5 -5 -5 39.8 3.8
-5 -5 -5 35.8 4.3
-5 -5 -5 38 3
-5 -5 -5 31 3.7
5 5 5 38.7 4.7
5 5 5 40.4 4.2
5 5 5 34.6 4
5 5 5 36 3.3
-6 -5 -5 23 3.5
-6 -5 -5 36.4 3.9
-6 -5 -5 28.8 3.5
-6 -5 -5 41.7 4.6
-6 -5 -5 35.2 3.4
6 5 5 36.1 4
6 5 5 30.8 4.4
6 5 5 33.4 4.2
6 5 5 34.8 3.6
-7 -5 -5 12.4 3.6
-7 -5 -5 22.9 3.3
-7 -5 -5 15.6 2.8
-7 -5 -5 17.7 3.1
7 5 5 13.6 3.5
7 5 5 15.6 3.1
7 5 5 17 4
7 5 5 16.1 2.9
-8 -5 -5 2.7 2.4
-8 -5 -5 1.1 2.5
-8 -5 -5 -1.1 3.4
8 5 5 -1.5 2.7
8 5 5 -0.5 3
8 5 5 -0.8 2.3
8 5 5 0.2 2.2
-9 -5 -5 -7.2 3.7
-9 -5 -5 -0.5 2.5
9 5 5 3.6 3.8
9 5 5 -2.4 2.6
9 5 5 -2.9 3
-5 6 5 4.7 5.1
4 -6 -5 0.5 2.3
-4 6 5 3 4.3
3 -6 -5 46.1 4.7
3 -6 -5 58.59 5.2
-3 6 5 68.89 6.7
2 -6 -5 6.8 2.5
2 -6 -5 4.4 2.2
-2 6 5 8.7 2.9
-2 6 5 7.9 2.3
1 -6 -5 2 2.2
1 -6 -5 4.9 2.1
1 -6 -5 3.2 1.8
1 -6 -5 1.9 2.1
-1 6 5 3 2.2
-1 6 5 3.3 2
0 -6 -5 215.38 11.6
0 -6 -5 212.68 9.3
0 -6 -5 194.98 9.8
0 -6 -5 210.28 11.3
0 -6 -5 215.78 10
0 6 5 37.1 137.39
0 6 5 211.28 10.2
0 6 5 204.98 10.7
-1 -6 -5 29.2 3.7
-1 -6 -5 23.1 3.3
-1 -6 -5 23.3 2.8
-1 -6 -5 22.4 2.9
-1 -6 -5 27.6 3.3
1 6 5 26.4 1.8
1 6 5 27.8 3.3
1 6 5 62.49 144.39
1 6 5 28.7 3.4
-2 -6 -5 351.46 14.3
-2 -6 -5 343.97 17.3
-2 -6 -5 345.27 17.2
-2 -6 -5 327.77 14.6
-2 -6 -5 343.67 15.3
2 6 5 346.27 15.4
2 6 5 323.27 17
-3 -6 -5 717.13 33.9
-3 -6 -5 705.43 28.8
-3 -6 -5 747.03 34.1
-3 -6 -5 716.63 28
-3 -6 -5 728.03 30.1
3 6 5 724.13 27.3
3 6 5 716.33 29.3
3 6 5 711.23 30.1
3 6 5 716.53 34
-4 -6 -5 21.3 3.2
-4 -6 -5 21.4 3
-4 -6 -5 21.4 2.8
-4 -6 -5 19.4 3.4
4 6 5 22.4 3.1
4 6 5 20.1 2.2
4 6 5 15.7 3.2
4 6 5 16.3 3
-5 -6 -5 82.29 5.8
-5 -6 -5 87.49 6.5
-5 -6 -5 85.59 5.9
-5 -6 -5 83.19 6.9
-5 -6 -5 85.29 4.7
5 6 5 92.09 5.3
5 6 5 97.39 6.5
5 6 5 87.69 6.9
5 6 5 95.89 6.6
-6 -6 -5 37.4 4.2
-6 -6 -5 41.8 3.6
-6 -6 -5 43.6 4.3
-6 -6 -5 41.2 5
-6 -6 -5 25.4 4.1
6 6 5 41.3 4.9
6 6 5 41 3.9
6 6 5 28 4.4
6 6 5 38.6 4.3
-7 -6 -5 13.4 3.1
-7 -6 -5 2 3.2
-7 -6 -5 2.8 2.7
-7 -6 -5 8.7 2.5
7 6 5 8.1 2.8
7 6 5 5.9 3.2
7 6 5 6.9 2.4
7 6 5 17.1 3.8
-8 -6 -5 2.9 2.3
-8 -6 -5 0.9 2.8
-8 -6 -5 -0.6 2.7
-8 -6 -5 -1.2 3.4
8 6 5 1.5 2.4
8 6 5 -0.1 3.4
8 6 5 2.9 2.5
8 6 5 -1.3 3.2
-9 -6 -5 1.8 2.8
-9 -6 -5 -6 4.4
9 6 5 -2.6 4.2
9 6 5 4.5 3.1
9 6 5 -0.2 3.9
-4 7 5 19.6 5.2
3 -7 -5 20.7 3.3
3 -7 -5 27.5 4.1
-3 7 5 25.7 5.2
2 -7 -5 9 2.7
2 -7 -5 13.8 3.2
-2 7 5 10.7 3.7
1 -7 -5 59.59 5.3
1 -7 -5 47.6 4.5
1 -7 -5 51.69 5.2
-1 7 5 57.29 6
-1 7 5 59.89 5
0 -7 -5 5.3 2.4
0 -7 -5 3.1 1.9
0 -7 -5 8.2 2.5
0 7 5 -117.19 167.68
0 7 5 7.1 2.3
0 7 5 6.4 2.5
1 7 5 105.79 177.08
-2 -7 -5 6 2.5
-2 -7 -5 7.1 2.8
-2 -7 -5 10.6 2.6
-2 -7 -5 8.1 2.7
2 7 5 4.9 2.6
2 7 5 8.5 163.98
-3 -7 -5 -0.6 2.2
-3 -7 -5 -3.6 2.2
-3 -7 -5 -0.9 2.5
-3 -7 -5 -2.2 2
3 7 5 0.1 2
3 7 5 3 2
3 7 5 -1.1 2.1
-4 -7 -5 10.6 3.1
-4 -7 -5 3.7 2.4
-4 -7 -5 9 2.9
-4 -7 -5 2.6 2.4
4 7 5 7.3 2.3
4 7 5 8.1 2.9
4 7 5 4.6 2.4
-5 -7 -5 107.49 6.9
-5 -7 -5 103.39 6.6
-5 -7 -5 103.39 5.4
-5 -7 -5 120.69 8.4
5 7 5 108.19 7.2
5 7 5 123.39 7.7
5 7 5 106.19 8.1
5 7 5 87.89 5.6
-6 -7 -5 4.6 2.7
-6 -7 -5 7 3
-6 -7 -5 6.9 1.9
-6 -7 -5 2.2 3.1
-6 -7 -5 5.5 2.5
6 7 5 4.6 1.8
6 7 5 3.4 2.7
6 7 5 4 2.5
6 7 5 2.2 2.6
-7 -7 -5 35.3 4.5
-7 -7 -5 34.9 4.5
-7 -7 -5 19.1 4.7
-7 -7 -5 33.2 3.6
7 7 5 33.3 3.8
7 7 5 34.2 4.6
7 7 5 41.7 5.6
7 7 5 24.6 4.6
-8 -7 -5 -5 3.6
-8 -7 -5 1.6 2.5
-8 -7 -5 0.9 3.5
-8 -7 -5 -1.3 3.1
8 7 5 5.1 2.7
8 7 5 0.2 3.6
8 7 5 6.5 3.9
8 7 5 6.3 3.1
-9 -7 -5 5.2 3
-9 -7 -5 0.2 3.9
-9 -7 -5 -6 4.2
9 7 5 8.7 4.6
9 7 5 2.2 3.3
9 7 5 1.2 4.2
3 -8 -5 4.8 3.8
3 -8 -5 4.1 2.9
-3 8 5 1.1 5
2 -8 -5 -1 3.1
2 -8 -5 1.4 2.5
-2 8 5 3.9 3.9
1 -8 -5 12 3.2
1 -8 -5 9.2 3.4
-1 8 5 12.8 3.4
-1 8 5 18.2 4.3
0 -8 -5 -2.9 2.7
0 -8 -5 2.3 2.3
0 -8 -5 1.8 2.8
0 8 5 7.9 3.3
0 8 5 0.9 2.7
1 8 5 297.57 205.88
2 8 5 189.58 202.08
-3 -8 -5 0.4 2.6
-3 -8 -5 -2 2.3
-3 -8 -5 0.6 2.3
-3 -8 -5 -0.1 2.5
3 8 5 4.6 2.5
3 8 5 -339.17 169.68
-4 -8 -5 4 3.1
-4 -8 -5 4.6 2.9
-4 -8 -5 -1.4 2.5
-4 -8 -5 -0.1 2.6
4 8 5 0.2 2
4 8 5 0.3 2.4
-5 -8 -5 100.09 8
-5 -8 -5 112.29 7.5
-5 -8 -5 100.49 7.2
-5 -8 -5 124.39 9.2
5 8 5 104.79 7.9
5 8 5 108.39 8
-6 -8 -5 2.1 1.9
-6 -8 -5 -4 2.6
-6 -8 -5 8 3.7
-6 -8 -5 2 2.7
-6 -8 -5 -0.5 3.4
6 8 5 2 3.1
6 8 5 0.8 2.9
-7 -8 -5 15.1 3.9
-7 -8 -5 8.5 4.3
-7 -8 -5 15.5 3.8
-7 -8 -5 17.9 2.8
7 8 5 15.7 4.4
7 8 5 8.8 4.2
7 8 5 15.7 4.1
-8 -8 -5 0.5 3.8
-8 -8 -5 3.7 2.5
-8 -8 -5 -8.2 4.2
-8 -8 -5 -1.9 3.7
8 8 5 -0.5 4
8 8 5 1.6 2.8
8 8 5 -8.1 4.1
-9 -8 -5 -5 5
-9 -8 -5 -6.6 3.7
-9 -8 -5 -5.4 4
-9 -8 -5 3 3.1
9 8 5 3.1 4.7
9 8 5 0.2 5.1
1 -9 -5 -3.7 3.2
1 -9 -5 1.5 3.1
-1 9 5 -2.8 3.9
-1 9 5 -0.2 3.4
0 -9 -5 2.4 3
0 -9 -5 0.7 2.6
0 -9 -5 0.8 3.3
0 9 5 -0.5 3.2
0 9 5 -4.3 3.6
1 9 5 -311.87 216.28
2 9 5 106.29 219.18
3 9 5 -416.16 182.28
-4 -9 -5 9.1 3.6
-4 -9 -5 3.9 3.1
-4 -9 -5 14.6 4
-4 -9 -5 10.6 3.9
4 9 5 11 3.1
-5 -9 -5 17.6 4.3
-5 -9 -5 22.7 4.9
-5 -9 -5 19.4 4
-5 -9 -5 29.4 4.3
5 9 5 23.1 4.4
5 9 5 22.1 4.3
-6 -9 -5 0.8 3.8
-6 -9 -5 1.5 3
-6 -9 -5 -2.7 3.3
6 9 5 0.6 3.5
6 9 5 3 3.6
-7 -9 -5 3 3.6
-7 -9 -5 -0.1 4.2
-7 -9 -5 7.2 3.6
7 9 5 8.6 4.5
7 9 5 6.5 4
-8 -9 -5 -4.2 5
-8 -9 -5 -6.5 4.5
-8 -9 -5 -0.6 4.2
8 9 5 3.3 3.2
8 9 5 -3.5 4.7
0 -10 -5 -5 3.7
0 -10 -5 3.2 4
0 -10 -5 -2.8 3.2
0 10 5 -1.9 4.4
0 10 5 4.2 4
-1 -10 -5 2.6 2.7
-1 -10 -5 7 3.6
-1 -10 -5 0 3.7
1 10 5 3.7 4.4
1 10 5 1.3 3.6
-2 -10 -5 -3.1 3.1
-2 -10 -5 -0.2 3.7
-2 -10 -5 3.9 3.3
2 10 5 -289.77 215.48
2 10 5 -0.7 3.6
2 10 5 -1.5 3.3
-3 -10 -5 -1.7 3.1
-3 -10 -5 -0.1 3.5
-3 -10 -5 -0.6 4
3 10 5 1.5 3.5
3 10 5 -45.2 284.17
3 10 5 3.4 4
-4 -10 -5 17.2 4.9
-4 -10 -5 6.5 4
-4 -10 -5 4.9 3.5
4 10 5 115.59 268.37
4 10 5 17.7 4.1
-5 -10 -5 1.5 3.6
-5 -10 -5 -1.3 3.8
-5 -10 -5 5.2 3.4
-5 -10 -5 10.6 4.7
5 10 5 2.8 3.7
5 10 5 4 3.5
-6 -10 -5 2.2 3.5
-6 -10 -5 -5.9 4.2
-6 -10 -5 -3.2 3.7
6 10 5 1.7 3.7
6 10 5 1.7 3.8
-7 -10 -5 27.7 5.1
-7 -10 -5 26.7 5.4
-7 -10 -5 24.6 5.9
7 10 5 23.7 5.3
7 10 5 21.1 5.7
-3 -11 -5 -3 4.7
-3 -11 -5 0.5 4
-3 -11 -5 0.8 4.3
3 11 5 62.19 267.47
3 11 5 5.9 3.7
3 11 5 -7.4 4.9
4 11 5 287.57 313.67
-5 -11 -5 -0.2 4
-5 -11 -5 9.8 5.4
-5 -11 -5 3.6 3.9
5 11 5 12.2 4.3
5 11 5 34.7 311.57
5 9 -6 -5.8 254.17
5 9 -6 16.1 5.2
-5 -9 6 4.4 5
-5 -9 6 8.1 4.2
-5 -9 6 2.4 4.7
4 9 -6 1.7 4.6
4 9 -6 -112.59 234.48
-4 -9 6 5.8 3.6
-4 -9 6 10 5.5
-4 -9 6 7.1 3.7
-4 -9 6 1.3 4.4
3 9 -6 19 5
3 9 -6 109.29 203.28
-3 -9 6 -2.5 3.7
-3 -9 6 15.6 4.3
-3 -9 6 13.1 5.2
-3 -9 6 11 3.9
2 9 -6 2 3.9
2 9 -6 -272.97 171.68
-2 -9 6 2.2 3.5
-2 -9 6 3.4 3.7
-2 -9 6 4.3 4.5
-2 -9 6 -1.9 3.9
1 9 -6 102.49 226.08
1 9 -6 16.8 4.5
-1 -9 6 15.6 4
-1 -9 6 10.3 3.8
-1 -9 6 14.2 4.6
-1 -9 6 10 4.2
0 9 -6 -143.79 216.08
0 9 -6 -2.6 3.8
0 -9 6 -4.4 3.8
0 -9 6 -7.1 3.3
0 -9 6 -3.2 3.5
0 -9 6 2.1 3.9
-7 -8 6 19.1 5.7
6 8 -6 1.4 4.2
6 8 -6 4.8 241.28
-6 -8 6 -2.7 4
-6 -8 6 3 4.1
-6 -8 6 5.5 4.9
5 8 -6 -81.39 235.28
5 8 -6 25.8 5.5
4 8 -6 -93.29 197.18
4 8 -6 -2.9 3.5
-4 -8 6 -0.6 2.7
-4 -8 6 4.7 4.2
-4 -8 6 -7.5 3.2
-4 -8 6 -1.4 3.9
-4 -8 6 -4.4 3.1
3 8 -6 -5 197.48
3 8 -6 -1.1 3.5
-3 -8 6 -4 4
-3 -8 6 5.2 3.2
-3 -8 6 -4.7 2.8
-3 -8 6 -0.4 3.4
-3 -8 6 3 3.4
2 8 -6 -52.39 198.48
2 8 -6 1.3 3.3
-2 -8 6 -0.2 2.9
-2 -8 6 -6.2 3.5
-2 -8 6 -3.1 2.5
-2 -8 6 -0.2 3.1
1 8 -6 8.6 3.4
1 8 -6 -177.48 194.48
-1 -8 6 8 3.2
-1 -8 6 10.8 4.3
-1 -8 6 14.6 3.7
-1 -8 6 8 3.1
0 8 -6 -20.5 207.78
0 8 -6 20.7 4
0 -8 6 11 3.5
0 -8 6 6.7 3.6
0 -8 6 10.4 3.8
0 -8 6 12.1 3.5
-1 8 -6 115.79 219.18
-2 8 -6 -169.58 215.58
-2 8 -6 15.2 4
2 -8 6 6.5 4.6
2 -8 6 10.9 4.2
2 -8 6 -0.5 3.4
7 7 -6 8.1 4.9
7 7 -6 3.7 4.4
7 7 -6 19.5 269.87
-7 -7 6 1.1 4.5
-7 -7 6 0.8 5.2
-7 -7 6 5.2 4.1
6 7 -6 0.8 3.6
6 7 -6 -153.98 206.28
6 7 -6 3.3 3.6
-6 -7 6 -5.8 3.5
-6 -7 6 -0.5 3.3
-6 -7 6 -4.2 4.3
5 7 -6 0.7 3.2
5 7 -6 -92.59 182.48
-5 -7 6 -3.6 3
-5 -7 6 -2.5 3
-5 -7 6 -1.6 3.5
4 7 -6 -76.79 202.08
4 7 -6 -2.4 3
-4 -7 6 -1.9 2.7
-4 -7 6 5 3.3
-4 -7 6 6.1 2.3
-4 -7 6 0.8 3.4
-4 -7 6 -3.2 2.9
3 7 -6 26.4 4.4
3 7 -6 34.9 190.28
-3 -7 6 25.3 3.4
-3 -7 6 29.1 5.1
-3 -7 6 29.7 4.1
-3 -7 6 28.7 4.1
-3 -7 6 29.7 4.6
2 7 -6 -3.9 2.7
2 7 -6 -76.79 187.08
-2 -7 6 1.3 2
-2 -7 6 -3.5 2.1
-2 -7 6 0.7 2.8
-2 -7 6 2.8 2.5
-2 -7 6 -4.6 3.1
1 7 -6 1.3 3
1 7 -6 -53.39 181.48
-1 -7 6 2.8 3.4
-1 -7 6 6.9 3
-1 -7 6 6 2.9
-1 -7 6 4 2.6
0 7 -6 -111.29 190.88
-1 7 -6 129.69 210.98
-1 7 -6 19.8 3.4
1 -7 6 16.2 3.9
1 -7 6 15.1 3.6
1 -7 6 16.2 3.1
1 -7 6 10.6 3.6
-2 7 -6 -115.29 215.08
-2 7 -6 7.3 3.3
2 -7 6 8.1 3.3
2 -7 6 10.6 4
2 -7 6 7.3 3.5
-3 7 -6 96.49 221.28
-4 7 -6 37 238.38
8 6 -6 0 5.1
-8 -6 6 -3.3 5.5
7 6 -6 4.6 4.1
7 6 -6 9.8 4.4
7 6 -6 2 4.7
-7 -6 6 -0.5 3.8
-7 -6 6 5.3 4.2
-7 -6 6 4.9 4.5
6 6 -6 -3.3 3.7
6 6 -6 -93.79 213.38
6 6 -6 5.8 3.6
6 6 -6 10.9 3.5
-6 -6 6 6.5 4.6
-6 -6 6 13.4 3.5
-6 -6 6 9.3 3.5
5 6 -6 18 3.9
5 6 -6 13.2 3.3
5 6 -6 -201.98 175.38
5 6 -6 9.3 3.9
-5 -6 6 18.2 4.2
-5 -6 6 13.3 3.6
-5 -6 6 14.8 3.4
4 6 -6 1.5 3.4
4 6 -6 6.7 3
4 6 -6 -140.79 162.38
4 6 -6 11 2.8
-4 -6 6 11.8 2.2
-4 -6 6 12.9 3.2
-4 -6 6 7.9 3.3
-4 -6 6 11.4 2.9
-4 -6 6 4.8 3
3 6 -6 4.4 2.8
3 6 -6 -101.59 159.28
3 6 -6 9.3 3
-3 -6 6 11.6 2.9
-3 -6 6 6.1 3
-3 -6 6 7.4 3.3
-3 -6 6 8.5 2.9
-3 -6 6 6.3 2.1
2 6 -6 -61.29 154.98
-2 -6 6 15.2 3.4
1 6 -6 116.99 154.08
0 6 -6 180.88 9.4
0 6 -6 143.59 174.48
0 6 -6 184.88 8.7
0 -6 6 143.49 7.9
0 -6 6 167.18 9.2
0 -6 6 190.88 8.9
0 -6 6 176.68 9.2
0 -6 6 178.58 10.2
0 -6 6 163.98 9.2
-1 6 -6 223.98 190.18
-2 6 -6 -117.89 152.58
-3 6 -6 56.69 209.68
3 -6 6 10.3 3.5
3 -6 6 15.8 3.1
3 -6 6 14.4 3.8
3 -6 6 10.8 2.8
-4 6 -6 206.48 236.28
-5 6 -6 -293.37 224.18
5 -6 6 10.6 4.1
5 -6 6 13.7 4.3
8 5 -6 1.6 4.1
8 5 -6 -5.2 4.9
-8 -5 6 2.8 4.6
7 5 -6 15.9 5.1
7 5 -6 21.6 4.4
7 5 -6 21.6 4.6
-7 -5 6 25.5 4.4
-7 -5 6 17 4.3
-7 -5 6 15.8 4.9
6 5 -6 2.3 2.9
6 5 -6 3.3 3.8
6 5 -6 -1.8 2.5
-6 -5 6 3.3 2.8
-6 -5 6 2.5 3.6
-6 -5 6 0.9 2.9
5 5 -6 -128.09 168.98
5 5 -6 2.3 2.7
5 5 -6 1.8 2.6
5 5 -6 0.1 3.5
5 5 -6 3.9 2.3
-5 -5 6 1.5 3.1
-5 -5 6 0 2.2
-5 -5 6 2 2.8
4 5 -6 14.2 3.1
4 5 -6 8.9 3.1
4 5 -6 12.5 2.6
4 5 -6 7.7 3.6
4 5 -6 -88.69 158.38
-4 -5 6 12.8 3.5
-4 -5 6 7.9 3.7
-4 -5 6 11.9 2.8
-4 -5 6 16.1 3.1
3 5 -6 -29.6 161.78
3 5 -6 124.19 8
3 5 -6 133.19 7.4
-3 -5 6 127.49 8.2
-3 -5 6 123.89 8.5
-3 -5 6 130.09 6.5
-3 -5 6 117.89 7.3
2 5 -6 5 3.1
2 5 -6 12.4 3
2 5 -6 19.1 3
2 5 -6 55.49 150.98
-2 -5 6 13.3 2.6
-2 -5 6 18.4 3.4
-2 -5 6 16.2 3.2
-2 -5 6 15.4 2.6
-2 -5 6 13 3.4
1 5 -6 49.9 139.19
1 5 -6 112.79 6.7
1 5 -6 114.79 6.4
1 5 -6 90.89 7.2
-1 -5 6 117.79 7.4
-1 -5 6 113.79 6.3
-1 -5 6 101.59 5.6
-1 -5 6 100.59 7.4
-1 -5 6 116.79 6.5
-1 -5 6 116.99 6.9
0 5 -6 -102.29 139.99
0 5 -6 -4.1 1.7
0 5 -6 -0.3 2
0 -5 6 -0.6 1.7
0 -5 6 0.6 1.9
0 -5 6 -0.3 2.1
0 -5 6 -2 2
0 -5 6 1.3 1.3
-1 5 -6 48.4 4.2
-1 5 -6 44.7 4.4
-1 5 -6 45.6 149.39
1 -5 6 48.2 3.8
1 -5 6 40.6 4.3
1 -5 6 45 4.5
1 -5 6 45.6 4.8
1 -5 6 45.4 4.3
-2 5 -6 -103.79 142.79
2 -5 6 1.5 2.1
2 -5 6 -1.6 1.7
-3 5 -6 -63.59 151.78
-4 5 -6 78.29 190.48
-5 5 -6 79.49 211.58
-6 5 -6 -259.87 216.18
6 -5 6 7.6 3.7
6 -5 6 7.7 4.1
6 -5 6 4.5 3.8
8 4 -6 0.4 3.6
8 4 -6 -0.9 5
-8 -4 6 -4.5 3
-8 -4 6 3.8 4.9
7 4 -6 6.7 4.5
7 4 -6 4.3 3.3
-7 -4 6 9.5 3.4
-7 -4 6 9.9 4.1
6 4 -6 20.8 3.7
6 4 -6 34.7 4.5
6 4 -6 26.2 5
-6 -4 6 25.9 3.7
-6 -4 6 30.3 4.8
-6 -4 6 20.1 3.9
5 4 -6 8.3 3.8
5 4 -6 15.8 3
5 4 -6 13.1 3.3
5 4 -6 16.6 3.5
-5 -4 6 15.3 3
-5 -4 6 17.7 3.1
-5 -4 6 16.6 3.8
4 4 -6 46.2 4.5
4 4 -6 42.3 3.9
4 4 -6 3.7 159.08
4 4 -6 45.1 4.9
-4 -4 6 49.9 4.7
-4 -4 6 44.6 4.9
-4 -4 6 50.79 5.5
3 4 -6 -82.49 143.29
3 4 -6 110.09 5.7
3 4 -6 112.69 7.7
3 4 -6 104.99 6.3
3 4 -6 109.79 6.9
-3 -4 6 110.29 7.4
-3 -4 6 114.49 6.5
-3 -4 6 103.39 5.4
-3 -4 6 107.79 7.3
2 4 -6 185.58 8.6
2 4 -6 183.28 10.3
2 4 -6 -62.09 118.49
2 4 -6 167.98 9.1
-2 -4 6 176.28 8.1
-2 -4 6 170.28 8.1
-2 -4 6 172.68 8.6
-2 -4 6 181.48 9.4
-2 -4 6 172.28 9.9
1 4 -6 56.29 5.1
1 4 -6 57.69 130.69
1 4 -6 56.09 4.6
1 4 -6 58.19 4.3
-1 -4 6 63.59 4.4
-1 -4 6 59.69 4.9
-1 -4 6 62.49 4.9
-1 -4 6 62.89 3.9
-1 -4 6 60.69 5.1
0 4 -6 0.4 1.6
0 4 -6 17.3 119.29
0 4 -6 3.4 1.8
0 4 -6 0.2 1.6
0 -4 6 1.4 1.6
0 -4 6 1.3 1.6
0 -4 6 0 1.8
0 -4 6 0.9 1.2
0 -4 6 -0.6 1.8
-1 4 -6 338.27 12.6
-1 4 -6 266.97 14.9
-1 4 -6 292.07 149.09
-1 4 -6 309.87 13.4
1 -4 6 279.97 13.5
1 -4 6 315.87 12.6
1 -4 6 305.67 14.9
1 -4 6 273.37 12.9
1 -4 6 311.97 13.4
1 -4 6 304.67 15.1
-2 4 -6 1.6 1.8
-2 4 -6 -30.4 127.29
-2 4 -6 1.7 1.8
2 -4 6 2.7 1.9
2 -4 6 1.4 1.9
2 -4 6 1.2 1.8
2 -4 6 2 1.9
2 -4 6 3.9 1.7
-3 4 -6 -121.69 147.89
-4 4 -6 -79.69 162.88
4 -4 6 10.6 2.8
4 -4 6 11.6 3.1
-5 4 -6 6.1 204.28
5 -4 6 6.5 2.8
5 -4 6 0.9 2.6
-6 4 -6 307.27 251.27
8 3 -6 19.2 4.9
8 3 -6 16.4 4.3
-8 -3 6 10.6 4
-8 -3 6 19.1 5.2
7 3 -6 3.1 2.7
7 3 -6 -0.9 3.6
-7 -3 6 4.5 3.5
6 3 -6 2.3 2.3
6 3 -6 2.8 3.3
6 3 -6 0.1 2.6
6 3 -6 0.8 2.2
-6 -3 6 1.3 2.3
-6 -3 6 1.1 2.9
-6 -3 6 2.8 2.7
5 3 -6 171.88 9
5 3 -6 160.98 8.4
5 3 -6 142.99 10
5 3 -6 145.99 8.2
-5 -3 6 169.38 9.5
-5 -3 6 164.78 8.8
-5 -3 6 161.48 8.3
4 3 -6 22.7 2.9
4 3 -6 29.8 3.8
4 3 -6 104.89 156.88
4 3 -6 27.9 3.3
4 3 -6 21.7 3.7
-4 -3 6 27.2 3.6
-4 -3 6 29.8 4.1
-4 -3 6 27.2 3.6
-4 -3 6 29.7 3.4
3 3 -6 108.29 7.4
3 3 -6 118.29 5.8
3 3 -6 -51.19 126.29
3 3 -6 113.89 6.3
3 3 -6 116.29 6.9
-3 -3 6 110.29 7.1
-3 -3 6 116.49 6.3
-3 -3 6 112.69 7.2
2 3 -6 231.78 9.5
2 3 -6 135.99 118.09
2 3 -6 226.38 10
2 3 -6 212.68 10.6
2 3 -6 229.18 12.1
-2 -3 6 221.28 9.8
-2 -3 6 227.88 11
-2 -3 6 223.58 10.2
-2 -3 6 231.58 11.9
1 3 -6 21.2 2.9
1 3 -6 38.1 111.09
1 3 -6 19.6 2.5
1 3 -6 20 2.5
-1 -3 6 17.9 2.4
-1 -3 6 14.9 2.6
-1 -3 6 18 2.5
-1 -3 6 18.7 2.7
-1 -3 6 19 2.1
0 3 -6 7.1 1.6
0 3 -6 3.9 1.7
0 3 -6 22.2 103.79
0 3 -6 2.9 1.5
0 -3 6 5.1 2.1
0 -3 6 4.6 1.9
0 -3 6 5.7 1.4
0 -3 6 3.5 1.4
0 -3 6 3.2 1.6
-1 3 -6 5.7 1.6
-1 3 -6 3.8 1.8
-1 3 -6 -75.29 101.99
-1 3 -6 6.2 1.7
1 -3 6 4.8 1.9
1 -3 6 7.1 1.7
1 -3 6 5.3 1.4
1 -3 6 5.9 1.9
1 -3 6 4.6 1.5
1 -3 6 6.3 1.8
-2 3 -6 93.69 4.7
-2 3 -6 20.5 121.09
-2 3 -6 93.19 5.1
-2 3 -6 70.19 4.7
-2 3 -6 81.19 5.3
2 -3 6 83.49 4.6
2 -3 6 88.39 4.9
2 -3 6 86.09 5.5
2 -3 6 82.79 5
2 -3 6 82.29 5.3
2 -3 6 82.19 5.2
-3 3 -6 224.08 9.8
-3 3 -6 242.38 164.28
3 -3 6 198.78 10.9
3 -3 6 219.08 11.2
3 -3 6 208.88 10.5
3 -3 6 229.58 10.1
-4 3 -6 -149.49 135.39
-5 3 -6 2.3 185.38
5 -3 6 0.2 2.3
5 -3 6 -0.1 2.1
5 -3 6 0.7 1.6
5 -3 6 -1.7 2.1
-6 3 -6 -23.9 200.68
6 -3 6 3 2.8
6 -3 6 2.8 3
-7 3 -6 199.98 248.48
8 2 -6 21.3 4.9
8 2 -6 29.6 4.9
-8 -2 6 29.4 5.5
-8 -2 6 27 4.6
7 2 -6 3.8 3.6
7 2 -6 2 3
-7 -2 6 -0.8 3
-7 -2 6 8.7 3.5
6 2 -6 18.6 3.2
6 2 -6 21.1 3.3
6 2 -6 14.9 3.3
6 2 -6 18.5 3.8
-6 -2 6 18 3.1
-6 -2 6 21.3 3.8
5 2 -6 1.4 2
5 2 -6 5.4 2.2
5 2 -6 6.2 2.7
5 2 -6 1.2 2.1
-5 -2 6 4.5 2.5
-5 -2 6 9 2.9
4 2 -6 18.5 2.6
4 2 -6 21.7 3.3
4 2 -6 21.5 3.1
4 2 -6 21.3 3.2
4 2 -6 22.4 2.8
-4 -2 6 18.9 3.5
-4 -2 6 17.4 2.9
-4 -2 6 23.4 2.7
3 2 -6 -120.29 121.39
3 2 -6 244.38 12.3
3 2 -6 229.48 10.3
3 2 -6 235.98 11.1
3 2 -6 230.48 12.3
3 2 -6 232.98 10.2
-3 -2 6 224.08 11.2
-3 -2 6 237.98 10.5
-3 -2 6 222.98 12
-3 -2 6 220.38 10.2
2 2 -6 442.96 18.8
2 2 -6 439.86 17.6
2 2 -6 409.96 21.1
2 2 -6 449.36 17.6
2 2 -6 -163.38 106.09
-2 -2 6 432.96 21
-2 -2 6 438.06 18.2
-2 -2 6 455.55 19.1
-2 -2 6 455.15 17.6
1 2 -6 15.1 2.3
1 2 -6 11.5 2
1 2 -6 90.79 94.49
1 2 -6 7.7 2.1
-1 -2 6 13.2 1.9
-1 -2 6 10.2 2.2
-1 -2 6 13.3 2.4
-1 -2 6 10 1.7
-1 -2 6 10.2 2.1
0 2 -6 1015.5 37.9
0 2 -6 1042.1 45.9
0 2 -6 995.1 40.5
0 -2 6 1027.8 38.2
0 -2 6 1023.8 45.8
0 -2 6 985.6 39.9
0 -2 6 1024 40.6
0 -2 6 966.5 45.7
-1 2 -6 71.69 4.5
-1 2 -6 77.39 4.3
-1 2 -6 28.7 100.69
1 -2 6 73.89 4.2
1 -2 6 75.49 4.9
1 -2 6 73.79 5
1 -2 6 74.39 4.6
1 -2 6 80.69 4.5
-2 2 -6 67.29 4.2
-2 2 -6 63.69 4
-2 2 -6 68.49 4
-2 2 -6 64.29 4.5
-2 2 -6 -20.3 103.89
2 -2 6 69.19 4.7
2 -2 6 71.99 4.5
2 -2 6 63.99 4.5
2 -2 6 74.19 4.3
2 -2 6 66.59 4.3
2 -2 6 63.89 4
-3 2 -6 245.88 13.1
-3 2 -6 279.17 11.1
-3 2 -6 244.68 11.8
-3 2 -6 67.09 127.79
-3 2 -6 291.87 12
3 -2 6 287.67 12.5
3 -2 6 284.37 12
3 -2 6 269.77 11.8
3 -2 6 262.07 13.3
3 -2 6 280.27 11.2
3 -2 6 287.17 13.6
-4 2 -6 -44.6 141.49
-4 2 -6 31.2 3.2
4 -2 6 29.1 3.2
4 -2 6 40.7 3.9
4 -2 6 38.4 4
4 -2 6 42.9 3.9
-5 2 -6 127.49 191.68
-5 2 -6 106.39 5.7
5 -2 6 93.29 5.9
5 -2 6 102.99 6.5
5 -2 6 104.09 6.1
5 -2 6 97.99 6.5
5 -2 6 91.59 6.4
-6 2 -6 -274.87 163.38
6 -2 6 7.3 2.8
6 -2 6 6.9 2.8
6 -2 6 6.1 2.7
-7 2 -6 146.79 223.38
-8 2 -6 -303.87 206.58
8 -2 6 8.4 4
8 -2 6 6.8 4.1
8 1 -6 4.7 3.8
8 1 -6 -2.5 3.9
-8 -1 6 4.1 4.1
-8 -1 6 4.4 3.6
7 1 -6 32.7 5.1
7 1 -6 43.9 5.2
-7 -1 6 55.29 5.7
-7 -1 6 48.1 5.4
6 1 -6 152.28 8.5
6 1 -6 139.99 9.9
6 1 -6 164.78 9
-6 -1 6 165.28 9.4
-6 -1 6 159.08 9.1
5 1 -6 46 4.7
5 1 -6 52.59 4.5
5 1 -6 48.5 5.2
5 1 -6 52.79 5
-5 -1 6 62.59 5.6
-5 -1 6 58.19 4.9
4 1 -6 105.29 6.8
4 1 -6 104.29 6.2
4 1 -6 90.09 5.6
4 1 -6 103.39 6.1
4 1 -6 109.09 7.1
-4 -1 6 106.59 6.2
-4 -1 6 102.89 6.7
-4 -1 6 112.99 6.2
3 1 -6 107.69 5.7
3 1 -6 112.99 6.2
3 1 -6 101.69 6.7
3 1 -6 103.69 5.7
3 1 -6 110.09 7
-3 -1 6 107.79 6.4
-3 -1 6 108.59 6.6
-3 -1 6 112.39 5.8
-3 -1 6 105.79 5.8
2 1 -6 52.39 4
2 1 -6 53.89 4.1
2 1 -6 46.1 3.8
2 1 -6 55.59 4.5
-2 -1 6 47.6 4.1
-2 -1 6 55.99 3.4
-2 -1 6 59.89 3.6
-2 -1 6 47.7 4.2
-2 -1 6 54.19 3.3
1 1 -6 -1.4 1.2
1 1 -6 -2.3 1.2
1 1 -6 -0.8 1.5
1 1 -6 -1.3 1.3
-1 -1 6 1.2 0.9
-1 -1 6 -3.5 1.1
-1 -1 6 -1.6 0.9
-1 -1 6 0.2 0.8
0 1 -6 753.42 32.7
0 1 -6 705.33 27
0 1 -6 692.73 28.9
0 -1 6 720.83 28.3
0 -1 6 716.83 32.6
0 -1 6 707.33 32.6
0 -1 6 683.13 28.9
0 -1 6 706.33 27.2
-1 1 -6 167.98 8.9
-1 1 -6 175.88 7.5
-1 1 -6 165.28 7.9
-1 1 -6 20.6 91.69
1 -1 6 165.78 7.6
1 -1 6 164.78 7.7
1 -1 6 169.98 8
1 -1 6 165.28 8.8
1 -1 6 180.18 9
-2 1 -6 216.08 9.7
-2 1 -6 217.98 9.1
-2 1 -6 115.59 108.59
-2 1 -6 218.98 10.9
-2 1 -6 207.28 9.7
2 -1 6 225.68 11
2 -1 6 209.78 9.4
2 -1 6 215.38 9.1
2 -1 6 220.78 10.9
2 -1 6 206.48 9.7
2 -1 6 223.58 9.8
-3 1 -6 36.7 2.9
-3 1 -6 38.8 3.3
-3 1 -6 38.5 3
-3 1 -6 -19.8 105.99
-3 1 -6 37.5 3
3 -1 6 31.8 3.2
3 -1 6 40.5 3.3
3 -1 6 33.6 3.2
3 -1 6 41.3 3.5
3 -1 6 32.3 2.9
3 -1 6 30.4 3
-4 1 -6 11.7 2
-4 1 -6 10.5 111.39
-4 1 -6 8.8 1.8
-4 1 -6 12.6 2.2
4 -1 6 11.8 2.2
4 -1 6 12.5 2.4
4 -1 6 12.5 1.9
4 -1 6 12.8 1.8
4 -1 6 12.2 2.2
4 -1 6 9.2 2.2
4 -1 6 12.1 2
-5 1 -6 -50.69 138.49
-6 1 -6 126.69 204.88
-7 1 -6 194.28 217.68
-8 1 -6 58.49 241.98
7 0 -6 1 3.1
7 0 -6 -8.8 3
-7 0 6 -0.7 3.4
-7 0 6 2 3.2
6 0 -6 2.5 2.9
6 0 -6 0.6 2.8
6 0 -6 11.2 2.7
-6 0 6 6.1 2.9
-6 0 6 5.6 2.9
-6 0 6 7.5 2.7
5 0 -6 27.7 4
5 0 -6 36.1 4.2
5 0 -6 31 3.4
5 0 -6 31.6 3.6
-5 0 6 41.6 4.4
-5 0 6 30 3.9
-5 0 6 27.7 3.7
4 0 -6 210.48 9.7
4 0 -6 221.48 10.2
4 0 -6 213.78 11.7
4 0 -6 205.18 10.3
4 0 -6 211.58 11.5
-4 0 6 220.68 11.4
-4 0 6 222.08 10.7
-4 0 6 210.68 10.5
3 0 -6 14.8 2.2
3 0 -6 8.9 2.2
3 0 -6 12.8 2.2
3 0 -6 13.9 2.2
-3 0 6 14.9 2.4
-3 0 6 13.9 2.4
-3 0 6 14.7 2
2 0 -6 709.63 32.1
2 0 -6 729.33 32
2 0 -6 688.63 28.3
2 0 -6 680.23 26.4
-2 0 6 699.23 27.5
-2 0 6 670.13 28.4
-2 0 6 691.13 28.5
-2 0 6 672.83 31.9
1 0 -6 -1.8 1.3
1 0 -6 -1.4 1.1
1 0 -6 -2.3 1.1
1 0 -6 0.4 0.7
1 0 -6 -2.9 1.2
-1 0 6 0 1
-1 0 6 -0.7 0.8
-1 0 6 1.5 1.1
-1 0 6 -0.2 0.7
-1 0 6 7 1.7
-1 0 6 -1.2 1.1
0 0 -6 20 2.1
0 0 -6 20 2.4
0 0 -6 26 2.6
0 0 -6 20.9 2.4
0 0 6 22.2 2.4
0 0 6 19 2
0 0 6 20.9 1.8
0 0 6 16.1 2.3
0 0 6 18.7 2.3
-1 0 -6 83.59 5
-1 0 -6 83.09 4.4
-1 0 -6 77.09 4
-1 0 -6 83.59 4.6
1 0 6 81.79 4.2
1 0 6 80.19 5
1 0 6 85.19 4.3
1 0 6 80.99 5.1
1 0 6 74.79 4.7
-2 0 -6 165.58 7.5
-2 0 -6 -14.9 104.39
-2 0 -6 171.38 8.9
-2 0 -6 173.18 7.5
-2 0 -6 177.88 8
2 0 6 164.88 9
2 0 6 170.28 7.7
2 0 6 161.98 8.9
2 0 6 176.98 8
2 0 6 176.58 7.8
2 0 6 172.98 7.3
-3 0 -6 29.4 2.6
-3 0 -6 32.9 2.9
-3 0 -6 29.4 2.8
-3 0 -6 -57.49 101.09
-3 0 -6 34.7 3
3 0 6 32.6 3.1
3 0 6 32.7 2.6
3 0 6 29.6 2.8
3 0 6 30.7 3.1
3 0 6 29.6 3
3 0 6 32.3 2.7
-4 0 -6 -53.49 123.79
-4 0 -6 105.69 5.3
-4 0 -6 111.59 6.3
-4 0 -6 110.69 5.8
-4 0 -6 99.09 5.6
4 0 6 111.09 6.7
4 0 6 110.69 5.7
4 0 6 113.69 5.9
4 0 6 114.29 5.5
4 0 6 102.09 6
-5 0 -6 50.19 4.3
-5 0 -6 -61.89 145.29
-5 0 -6 45.7 3.6
-5 0 -6 49.8 3.6
-5 0 -6 52.79 4.3
5 0 6 56.99 3.6
5 0 6 48.1 3.7
5 0 6 64.19 4.5
5 0 6 50.99 4.2
5 0 6 55.09 4.6
5 0 6 54.89 4.5
-6 0 -6 -0.4 1.9
-6 0 -6 -1.3 1.8
-6 0 -6 -240.88 158.78
6 0 6 0.7 1.9
6 0 6 -0.8 2.2
6 0 6 -0.6 1.5
-7 0 -6 48.1 204.78
-7 0 -6 17.6 3.2
-7 0 -6 14.8 3.3
7 0 6 15.5 2.8
7 0 6 17.5 3.7
7 0 6 25.2 4.1
-8 0 -6 105.09 230.58
7 -1 -6 1.4 3
7 -1 -6 -0.8 3.7
-7 1 6 2.4 3.5
-7 1 6 1.3 3.6
6 -1 -6 2 2.7
6 -1 -6 4.9 2.5
6 -1 -6 2.6 2.9
-6 1 6 7.7 3.2
-6 1 6 4.3 2.7
-6 1 6 -0.3 3.1
5 -1 -6 8.2 2.4
5 -1 -6 11.1 3
5 -1 -6 14.6 3.1
-5 1 6 13.3 3
-5 1 6 13.3 3.2
-5 1 6 9 2.9
4 -1 -6 25.8 3
4 -1 -6 19.9 3.1
4 -1 -6 21.3 2.8
4 -1 -6 22.1 3
-4 1 6 23.3 3.4
-4 1 6 28.1 3.3
-4 1 6 26.8 3.3
3 -1 -6 62.19 4.1
3 -1 -6 57.39 4.7
3 -1 -6 58.39 4.5
3 -1 -6 58.19 4.2
-3 1 6 57.69 4.5
-3 1 6 62.29 4.6
-3 1 6 62.79 4.1
-3 1 6 55.69 4.3
2 -1 -6 537.25 23.7
2 -1 -6 534.75 21
2 -1 -6 486.95 19.6
2 -1 -6 486.05 19.9
2 -1 -6 503.25 23.7
-2 1 6 486.95 21.3
-2 1 6 499.25 20.9
-2 1 6 485.15 20
1 -1 -6 111.49 5
1 -1 -6 116.09 5.9
1 -1 -6 106.99 6.6
1 -1 -6 124.59 6.7
1 -1 -6 119.19 5.2
1 -1 -6 109.39 5.6
-1 1 6 109.29 5.8
-1 1 6 114.79 5.4
-1 1 6 115.89 6.5
-1 1 6 106.59 6
-1 1 6 112.79 5
-1 1 6 123.19 5.7
0 -1 -6 34.2 2.7
0 -1 -6 36.3 3.2
0 -1 -6 38.4 2.8
0 -1 -6 34.4 3.2
0 -1 -6 34.1 2.5
0 1 6 34 2.9
0 1 6 33.5 2.6
0 1 6 33 2.9
0 1 6 33.6 2
-1 -1 -6 21.1 2.1
-1 -1 -6 20.5 2.6
-1 -1 -6 18.4 2.4
-1 -1 -6 19.4 2.2
-1 -1 -6 19.1 2
1 1 6 20.1 2.1
1 1 6 16.1 2.1
1 1 6 20.8 2.5
1 1 6 21.3 1.7
1 1 6 17.1 2.3
-2 -1 -6 4.1 86.99
-2 -1 -6 0.6 1
-2 -1 -6 0.3 0.9
-2 -1 -6 0.6 1.2
2 1 6 1 1.2
2 1 6 -0.7 0.8
2 1 6 -0.8 0.8
2 1 6 0.2 0.8
2 1 6 -1.6 1.1
2 1 6 1 0.9
2 1 6 1 1.2
-3 -1 -6 227.78 11.6
-3 -1 -6 239.28 10.6
-3 -1 -6 243.08 9.8
-3 -1 -6 19.3 93.29
3 1 6 240.78 10.2
3 1 6 239.58 10.2
3 1 6 207.28 11.7
-4 -1 -6 16 2.3
-4 -1 -6 20 2.2
-4 -1 -6 16 2
-4 -1 -6 66.09 121.29
-4 -1 -6 18.7 2.5
4 1 6 15.3 2.5
4 1 6 13.1 2.2
4 1 6 17.3 2.5
4 1 6 18.2 2.4
-5 -1 -6 121.99 6.4
-5 -1 -6 127.39 6.6
-5 -1 -6 115.79 5.8
-5 -1 -6 112.79 6.9
-5 -1 -6 -224.88 158.48
5 1 6 113.49 7.4
5 1 6 109.09 5.8
5 1 6 120.79 6.8
5 1 6 108.29 7.1
-6 -1 -6 173.28 7.9
-6 -1 -6 119.59 183.48
-6 -1 -6 171.38 8.7
6 1 6 180.38 9.3
6 1 6 163.48 9.8
-7 -1 -6 0.8 2.2
-7 -1 -6 2.1 2.1
-7 -1 -6 -279.47 155.38
7 1 6 2.6 2.2
7 1 6 0.2 2
7 1 6 0.2 2.5
-8 -1 -6 74.79 223.48
-9 -1 -6 42.4 307.67
-9 -1 -6 7.8 3.9
-9 -1 -6 3.5 3.3
9 1 6 5.5 2.9
9 1 6 1.9 4.4
9 1 6 4.2 3.5
7 -2 -6 35.4 5
7 -2 -6 32.6 5.5
-7 2 6 47.5 6
-7 2 6 41.9 5
6 -2 -6 74.59 6.7
6 -2 -6 88.39 7.7
-6 2 6 100.49 7.2
-6 2 6 85.19 7.2
-6 2 6 78.89 7.7
5 -2 -6 4.2 2.8
5 -2 -6 4.5 2.5
-5 2 6 7.2 2.7
-5 2 6 3 2.8
-5 2 6 4.1 2.6
4 -2 -6 14.8 2.7
4 -2 -6 24 2.8
-4 2 6 20.3 3.1
-4 2 6 19 3.4
-4 2 6 24.8 3.3
3 -2 -6 103.49 6.6
3 -2 -6 102.89 6.8
3 -2 -6 105.79 5
3 -2 -6 111.89 5.7
3 -2 -6 105.39 5.8
-3 2 6 108.29 6.3
-3 2 6 120.29 6
-3 2 6 109.89 6.7
-3 2 6 110.29 6.2
2 -2 -6 106.99 5.8
2 -2 -6 100.19 6.6
2 -2 -6 117.19 5.3
2 -2 -6 110.99 6.8
2 -2 -6 108.29 5.6
-2 2 6 117.69 5.5
-2 2 6 118.09 6.4
-2 2 6 113.99 6.5
-2 2 6 105.19 6
1 -2 -6 172.98 9.2
1 -2 -6 172.78 8.1
1 -2 -6 173.18 7.5
1 -2 -6 168.08 7.6
1 -2 -6 171.58 9.1
-1 2 6 163.88 8.2
-1 2 6 167.98 7.7
-1 2 6 166.68 8.1
0 -2 -6 185.58 7.9
0 -2 -6 181.88 8
0 -2 -6 185.48 8.5
0 -2 -6 191.18 9.6
0 -2 -6 180.58 9.5
0 2 6 180.68 8.5
0 2 6 172.78 9.3
0 2 6 178.78 8
-1 -2 -6 57.49 3.6
-1 -2 -6 65.59 4
-1 -2 -6 65.99 3.8
-1 -2 -6 63.99 4.4
-1 -2 -6 64.69 4.4
1 2 6 66.29 3.6
1 2 6 52.49 4.1
1 2 6 57.59 3
-2 -2 -6 10.2 1.6
-2 -2 -6 21.3 2.4
-2 -2 -6 15.3 2.2
-2 -2 -6 18.9 2
2 2 6 14.9 1.8
2 2 6 10.6 1.9
2 2 6 20.6 2.1
2 2 6 13.9 2.1
-3 -2 -6 75.49 4.5
-3 -2 -6 51.99 99.79
-3 -2 -6 76.29 4.2
-3 -2 -6 69.39 4.8
-3 -2 -6 76.39 4.6
3 2 6 70.39 4.4
3 2 6 71.39 4.3
3 2 6 75.59 4.6
3 2 6 76.99 5.1
-4 -2 -6 26.7 2.6
-4 -2 -6 32.6 2.6
-4 -2 -6 26.8 3
-4 -2 -6 27.1 3
-4 -2 -6 -46.1 108.59
4 2 6 21.4 2.9
4 2 6 27.4 2.9
4 2 6 32 3.2
4 2 6 33.8 3.2
4 2 6 28.8 3.3
-5 -2 -6 -28 119.39
-5 -2 -6 305.17 12.9
-5 -2 -6 329.27 15.6
-5 -2 -6 319.07 13.3
-5 -2 -6 309.97 14.2
5 2 6 318.17 14.1
5 2 6 328.87 14.3
5 2 6 293.67 16
-6 -2 -6 275.77 196.68
-7 -2 -6 32.7 4
-7 -2 -6 13.1 189.48
-7 -2 -6 26.4 3.6
7 2 6 29.1 3.9
7 2 6 25.9 3.7
7 2 6 28.6 4.4
-8 -2 -6 -179.18 216.58
-9 -2 -6 5.5 3
-9 -2 -6 10.7 4.4
9 2 6 11.9 3.5
9 2 6 8.9 4.6
9 2 6 11.4 3.8
6 -3 -6 13.5 3.3
6 -3 -6 18.5 4.2
-6 3 6 15.1 3.7
-6 3 6 11 3.9
-6 3 6 9.1 4.5
5 -3 -6 42.8 5.1
5 -3 -6 38.6 4.4
-5 3 6 45.6 4.5
-5 3 6 46.5 4.9
-5 3 6 40.7 5.5
4 -3 -6 -1.5 2
-4 3 6 2.3 2.6
-4 3 6 0.4 2.3
-4 3 6 3.9 2.3
3 -3 -6 65.89 5.3
3 -3 -6 73.79 4.3
3 -3 -6 75.39 4.7
3 -3 -6 69.49 5.6
3 -3 -6 72.69 4.6
-3 3 6 74.59 4.9
-3 3 6 82.59 5.8
-3 3 6 84.59 5
2 -3 -6 171.28 7.6
2 -3 -6 160.28 9
2 -3 -6 164.78 7.9
2 -3 -6 168.28 7.4
-2 3 6 157.18 8.7
-2 3 6 167.58 7.4
-2 3 6 161.58 8.7
-2 3 6 179.18 8.3
-2 3 6 157.98 8.1
1 -3 -6 305.47 14.8
1 -3 -6 292.47 12.2
1 -3 -6 293.97 14.8
1 -3 -6 293.17 13
1 -3 -6 301.07 12.4
-1 3 6 314.07 14.6
-1 3 6 291.47 13.1
-1 3 6 300.17 13.6
0 -3 -6 216.58 10.8
0 -3 -6 201.78 9
0 -3 -6 198.28 8.8
0 -3 -6 206.48 9.5
0 -3 -6 200.58 10.7
0 3 6 209.18 8.9
0 3 6 204.88 10.5
-1 -3 -6 41.5 3.3
-1 -3 -6 42.6 3.7
-1 -3 -6 40.8 3.5
-1 -3 -6 40.5 3.1
-1 -3 -6 41.8 3.1
1 3 6 37.7 3.4
1 3 6 39.2 2.1
1 3 6 36.4 2.7
1 3 6 44.5 3.5
-2 -3 -6 40.5 3.3
-2 -3 -6 34.8 3.5
-2 -3 -6 38.8 3.7
-2 -3 -6 41.2 3.2
-2 -3 -6 38.6 3
2 3 6 37.9 3
2 3 6 42.9 3.5
2 3 6 38.8 2.8
2 3 6 37.1 3.5
-3 -3 -6 34.5 3.2
-3 -3 -6 28.7 2.8
-3 -3 -6 32.7 3.4
-3 -3 -6 36.2 3.2
3 3 6 37.2 3.2
3 3 6 25.6 3.3
3 3 6 33 3.3
3 3 6 32.2 3.4
3 3 6 32.9 2.8
-4 -3 -6 147.59 6.6
-4 -3 -6 151.08 7
-4 -3 -6 153.08 7.4
-4 -3 -6 159.68 8.6
-4 -3 -6 148.09 7.8
4 3 6 155.18 7.9
4 3 6 142.49 7.7
4 3 6 150.78 7.3
4 3 6 135.89 8.7
-5 -3 -6 -0.4 1.7
-5 -3 -6 1.2 1.8
-5 -3 -6 1.5 1.4
-5 -3 -6 1.7 1.3
-5 -3 -6 -1 1.5
5 3 6 1 1.5
5 3 6 -0.6 1.7
5 3 6 -0.9 1.5
5 3 6 -0.1 1.6
5 3 6 2 2.6
-6 -3 -6 49.5 5.1
-6 -3 -6 51.09 4.2
-6 -3 -6 51.69 4.2
6 3 6 58.79 5.5
6 3 6 50.49 5.3
6 3 6 51.59 4.9
6 3 6 60.29 4.9
-7 -3 -6 7.2 2.4
-7 -3 -6 7.2 2.8
-7 -3 -6 8.9 2.1
7 3 6 7.5 2.6
7 3 6 9.7 2.7
7 3 6 9.2 3.2
7 3 6 3.1 2.6
-8 -3 -6 108.29 7.4
8 3 6 117.79 8.6
8 3 6 117.69 8.9
-9 -3 -6 2.5 2.7
-9 -3 -6 2.3 3.8
9 3 6 1.9 2.9
9 3 6 4.6 3
9 3 6 3.1 4.2
6 -4 -6 -0.2 2.8
6 -4 -6 6.7 3.8
-6 4 6 0.6 3.7
-6 4 6 -0.9 4.3
5 -4 -6 30.4 4
-5 4 6 36.3 4.2
-5 4 6 26.8 4.2
-5 4 6 33.4 5.5
4 -4 -6 2.1 2.4
-4 4 6 2.5 2.7
-4 4 6 6.2 2.6
-4 4 6 1.3 3
3 -4 -6 11.7 2.3
3 -4 -6 10.6 2.4
-3 4 6 20 3.4
-3 4 6 15.2 2.6
-3 4 6 17.9 2.7
2 -4 -6 63.29 4.3
2 -4 -6 63.49 5.1
2 -4 -6 63.99 4.4
2 -4 -6 59.59 5.2
2 -4 -6 66.89 4.4
-2 4 6 70.79 4.1
-2 4 6 66.39 4.6
-2 4 6 71.99 5.4
1 -4 -6 94.59 5.3
1 -4 -6 90.99 6.3
1 -4 -6 96.29 5.5
1 -4 -6 98.69 6.5
1 -4 -6 106.69 5.5
-1 4 6 97.09 5.9
-1 4 6 98.49 5.8
-1 4 6 103.69 6.3
0 -4 -6 44.2 3.7
0 -4 -6 40 3.4
0 -4 -6 46.3 3.4
0 -4 -6 45.2 4.1
0 -4 -6 37.1 3.6
0 4 6 45.2 3.7
0 4 6 48 3.2
0 4 6 35.3 3.5
0 4 6 46.9 3.7
-1 -4 -6 1 1.5
-1 -4 -6 -0.2 1.3
-1 -4 -6 0.6 1.2
-1 -4 -6 1.5 1.2
-1 -4 -6 1.9 1.5
1 4 6 0.3 1
1 4 6 1.5 1.5
1 4 6 1 1.3
-2 -4 -6 513.15 23.7
-2 -4 -6 518.55 23.9
-2 -4 -6 502.75 20.2
-2 -4 -6 496.35 19.5
-2 -4 -6 497.45 21
2 4 6 488.15 23.6
2 4 6 467.55 19.8
2 4 6 503.85 21.2
2 4 6 495.45 19.4
-3 -4 -6 9.1 1.8
-3 -4 -6 9 2
-3 -4 -6 9.3 2.1
-3 -4 -6 7.6 2.3
3 4 6 9.1 2.2
3 4 6 8.7 1.6
3 4 6 7.6 2.1
3 4 6 8.8 1.9
-4 -4 -6 203.48 8.4
-4 -4 -6 210.88 11.1
-4 -4 -6 190.18 9.1
-4 -4 -6 195.58 9.9
-4 -4 -6 203.78 9.6
4 4 6 193.58 9.8
4 4 6 201.78 11.2
4 4 6 199.78 9.1
4 4 6 207.98 10.1
-5 -4 -6 -0.5 1.6
-5 -4 -6 0.2 1.5
-5 -4 -6 -0.7 1.2
-5 -4 -6 0.7 1.9
-5 -4 -6 -0.1 1.6
5 4 6 1 1.6
5 4 6 0.4 1.8
5 4 6 0.6 1.7
5 4 6 -1.1 1.3
5 4 6 2.3 2.7
-6 -4 -6 19.5 2.6
-6 -4 -6 17.7 3
-6 -4 -6 16.7 2.8
-6 -4 -6 13.2 3
6 4 6 14.5 2.9
6 4 6 20 3.4
6 4 6 21.1 3.8
6 4 6 21.3 3
-7 -4 -6 8.7 2.3
-7 -4 -6 12.6 2.8
-7 -4 -6 15 3.4
7 4 6 11.9 2.6
7 4 6 8.8 2.9
7 4 6 6.4 3.3
7 4 6 9 2.6
-8 -4 -6 19.2 3.5
-8 -4 -6 24.9 4.4
8 4 6 25.2 4.8
8 4 6 22.4 4.2
8 4 6 22.6 3.6
-9 -4 -6 -0.9 3.8
-9 -4 -6 0 2.7
9 4 6 5.2 3.4
9 4 6 5.3 3.7
9 4 6 2.8 3
5 -5 -6 11.8 3.1
-5 5 6 7.9 4.4
4 -5 -6 -0.7 2.2
-4 5 6 -1.7 2.8
-4 5 6 -5 3.4
-4 5 6 -0.8 2.5
3 -5 -6 16.2 2.7
3 -5 -6 12.5 2.7
-3 5 6 13 3.6
-3 5 6 16.4 3
-3 5 6 18.4 2.7
2 -5 -6 11.7 2.3
2 -5 -6 13.1 2.7
2 -5 -6 10 2.3
-2 5 6 10.2 2.4
-2 5 6 9 2.7
1 -5 -6 98.09 6.7
1 -5 -6 107.49 6.1
1 -5 -6 107.69 7
1 -5 -6 105.59 5.9
1 -5 -6 109.39 5.8
-1 5 6 106.29 6.9
0 -5 -6 195.58 8.6
0 -5 -6 194.28 9
0 -5 -6 181.38 10.2
0 -5 -6 180.48 10.4
0 -5 -6 187.28 9.1
0 5 6 176.98 9.6
0 5 6 187.38 10.1
0 5 6 191.38 9.3
-1 -5 -6 42.5 4.1
-1 -5 -6 45.9 3.6
-1 -5 -6 42.4 4.4
-1 -5 -6 44.7 3.8
-1 -5 -6 46.6 4.3
1 5 6 40.7 3.9
1 5 6 47 4.2
1 5 6 48.1 3.2
-2 -5 -6 65.99 4.7
-2 -5 -6 65.99 5.2
-2 -5 -6 67.79 4.4
-2 -5 -6 68.99 4.4
-2 -5 -6 63.49 5.1
2 5 6 55.29 4.8
2 5 6 57.19 3.3
2 5 6 61.99 3.6
2 5 6 67.29 4.9
-3 -5 -6 -0.9 1.6
-3 -5 -6 0.7 1.8
-3 -5 -6 0.2 1.6
-3 -5 -6 2.1 1.8
3 5 6 0.5 1.7
3 5 6 0.9 1
3 5 6 1.3 1.4
3 5 6 0.8 1.6
-4 -5 -6 84.79 5.9
-4 -5 -6 87.09 5.5
-4 -5 -6 86.89 5.7
-4 -5 -6 88.79 6.5
4 5 6 92.59 6.1
4 5 6 89.69 5.8
4 5 6 91.79 6.7
4 5 6 94.39 5.1
-5 -5 -6 15.1 3
-5 -5 -6 14.9 3.2
-5 -5 -6 16.3 2.8
-5 -5 -6 19 3
-5 -5 -6 16.3 2
5 5 6 19.1 3.2
5 5 6 17.3 2.4
5 5 6 20.1 3.7
5 5 6 17.1 3.1
-6 -5 -6 0.5 1.7
-6 -5 -6 1.7 2.4
-6 -5 -6 1.3 2.1
-6 -5 -6 1.6 2.3
6 5 6 1.2 2.3
6 5 6 3.9 2.6
6 5 6 0.8 1.6
6 5 6 0.7 2.1
-7 -5 -6 11.7 2.9
-7 -5 -6 10.6 3.5
-7 -5 -6 14.5 3.2
-7 -5 -6 13.2 2.7
7 5 6 12.4 3.5
7 5 6 14.9 2.8
7 5 6 13.2 3.5
7 5 6 15 3.2
-8 -5 -6 0.1 2.7
-8 -5 -6 -2.5 3.2
-8 -5 -6 1.9 2.2
8 5 6 -3.7 3.4
8 5 6 -0.7 2.8
8 5 6 1.3 2.2
-9 -5 -6 13.8 3.3
-9 -5 -6 4.7 4.3
9 5 6 13.7 3.9
9 5 6 13.6 4.2
9 5 6 8.5 4.6
4 -6 -6 4.5 2.8
-4 6 6 3.4 4.2
3 -6 -6 43.7 4.9
3 -6 -6 62.79 5.1
-3 6 6 55.99 5.4
-3 6 6 50.39 6.1
2 -6 -6 30.4 3.9
2 -6 -6 49.2 4.5
-2 6 6 46.9 4.6
-2 6 6 36.7 4.8
1 -6 -6 1.8 1.9
1 -6 -6 5.9 2
1 -6 -6 1.4 2
-1 6 6 4.9 2.2
-1 6 6 2.9 2.4
0 -6 -6 42.2 4.3
0 -6 -6 42.2 4
0 -6 -6 43.3 4
0 -6 -6 45.9 4.6
0 6 6 45.5 4.2
0 6 6 41.6 4.6
-1 -6 -6 351.56 15
-1 -6 -6 362.56 15.7
-1 -6 -6 373.86 16.3
-1 -6 -6 374.36 18.3
-1 -6 -6 370.16 18.6
1 6 6 105.79 159.28
1 6 6 354.26 16.3
1 6 6 352.46 18.4
-2 -6 -6 0.4 2.1
-2 -6 -6 0.4 2.2
-2 -6 -6 -1.6 1.8
-2 -6 -6 1.9 1.7
-2 -6 -6 1.9 2
2 6 6 1.9 2
2 6 6 0.7 1
2 6 6 0.4 2
2 6 6 -0.2 1.1
-3 -6 -6 19.2 3
-3 -6 -6 18.9 3.4
-3 -6 -6 23.8 3.6
-3 -6 -6 19.5 2.9
3 6 6 18.8 3.3
3 6 6 16.2 2.7
3 6 6 25.3 2.4
3 6 6 18.6 3.1
-4 -6 -6 75.19 5.6
-4 -6 -6 64.59 5.3
-4 -6 -6 67.19 5.8
-4 -6 -6 75.69 5.1
4 6 6 75.39 5.9
4 6 6 59.49 4.2
4 6 6 71.49 5.6
4 6 6 61.29 5.9
-5 -6 -6 24.9 3.4
-5 -6 -6 22.7 3.3
-5 -6 -6 23.2 3.7
-5 -6 -6 22.7 3.8
5 6 6 25.5 3.6
5 6 6 19.3 3.3
5 6 6 20.4 3.7
5 6 6 22.2 2.8
-6 -6 -6 15.6 3.7
-6 -6 -6 14.9 3.4
-6 -6 -6 23.9 2.6
-6 -6 -6 19.4 3.2
6 6 6 23.4 4
6 6 6 16.7 3.4
6 6 6 21.7 4.1
6 6 6 17.5 2.7
-7 -6 -6 8.4 3.1
-7 -6 -6 2.4 3.4
-7 -6 -6 12 3.2
-7 -6 -6 8.2 2.3
7 6 6 10 2.7
7 6 6 7.2 2.8
7 6 6 8.8 3.7
7 6 6 12.5 3.9
-8 -6 -6 -2.5 3.8
-8 -6 -6 -2.1 2.4
-8 -6 -6 1.8 3
-8 -6 -6 -4.8 3.1
8 6 6 -1.5 3.2
8 6 6 0 2.5
8 6 6 4.4 3.5
8 6 6 0.1 2.5
-9 -6 -6 -2.3 4.2
-9 -6 -6 1.1 2.7
9 6 6 -1.8 2.9
9 6 6 1.9 4
9 6 6 3.9 4.3
3 -7 -6 15.1 3.3
3 -7 -6 2 2.8
-3 7 6 8.5 4.2
-3 7 6 4.3 3.1
2 -7 -6 13.2 3.2
2 -7 -6 9.8 3.1
-2 7 6 10.9 3.9
-2 7 6 11.4 3.2
1 -7 -6 116.39 6.6
1 -7 -6 102.89 7.7
1 -7 -6 124.89 7.3
-1 7 6 117.69 7.4
-1 7 6 120.09 8.6
0 -7 -6 1.2 2.3
0 -7 -6 -0.3 2.1
0 -7 -6 -0.6 2.1
0 7 6 -0.4 2.4
0 7 6 2.4 2.3
-1 -7 -6 3.8 2.2
-1 -7 -6 -0.5 2.2
-1 -7 -6 2.1 2.3
-1 -7 -6 0.6 2.4
1 7 6 3.3 2.1
1 7 6 3 2.3
1 7 6 -21.9 179.78
-2 -7 -6 172.88 9.6
-2 -7 -6 177.38 9.3
-2 -7 -6 170.78 10.7
-2 -7 -6 189.18 8.9
2 7 6 -41.9 179.18
2 7 6 191.78 10
-3 -7 -6 183.98 9.5
-3 -7 -6 180.38 10.2
-3 -7 -6 193.58 11.3
-3 -7 -6 174.08 9.4
3 7 6 197.98 10.5
-4 -7 -6 2 2.4
-4 -7 -6 3.8 2.9
-4 -7 -6 6 2.6
-4 -7 -6 8.3 2.5
4 7 6 5.1 2.7
4 7 6 7.1 2.7
4 7 6 -0.6 2.3
4 7 6 3.5 1.5
-5 -7 -6 17.1 3.1
-5 -7 -6 14.5 3.6
-5 -7 -6 8.2 3
-5 -7 -6 17.2 3.9
5 7 6 11.7 3.3
5 7 6 12.8 2.3
5 7 6 12.8 3.4
5 7 6 10.7 3.2
-6 -7 -6 7.6 3.2
-6 -7 -6 7.3 2.7
-6 -7 -6 7.6 3.5
-6 -7 -6 9 2
6 7 6 3.4 2.9
6 7 6 11 3.3
6 7 6 3.1 3.3
6 7 6 6.6 2.4
-7 -7 -6 3.9 2.1
-7 -7 -6 7.4 3.2
-7 -7 -6 0.8 2.7
-7 -7 -6 -3.4 3.5
7 7 6 -2.5 3.1
7 7 6 12.3 3.8
7 7 6 3.6 2.4
7 7 6 4.8 3
-8 -7 -6 -1.9 3.1
-8 -7 -6 0 3.1
-8 -7 -6 -2.2 3.9
-8 -7 -6 4.9 2.5
8 7 6 4.4 3.9
8 7 6 5.3 2.9
8 7 6 5.7 4.1
8 7 6 5.6 3
-9 -7 -6 -7.6 4.2
-9 -7 -6 0.9 3.6
-9 -7 -6 -5.7 2.7
9 7 6 -0.2 3.1
9 7 6 6.8 4.5
9 7 6 3.2 4.5
2 -8 -6 3.9 2.9
2 -8 -6 7.2 3.2
-2 8 6 10.5 3.5
-2 8 6 13.1 4
1 -8 -6 17.2 3.5
1 -8 -6 10.6 3.3
-1 8 6 14 4.2
-1 8 6 16.9 3.8
0 -8 -6 1.6 2.9
0 -8 -6 1.3 2.6
0 -8 -6 -2.8 2.5
0 8 6 0.7 3.2
0 8 6 0.1 2.7
-1 -8 -6 15.1 3.3
-1 -8 -6 13.2 3.6
-1 -8 -6 18.6 3.1
1 8 6 11 3
1 8 6 10.6 3.4
-2 -8 -6 -1.2 2.5
-2 -8 -6 2.5 2.4
-2 -8 -6 -0.6 2.2
-2 -8 -6 -1.3 2.6
2 8 6 0.2 2.4
2 8 6 -29 186.78
-3 -8 -6 4.5 2.9
-3 -8 -6 5.1 2.6
-3 -8 -6 2.1 3
-3 -8 -6 6.5 3
3 8 6 4.3 2.7
3 8 6 -6.5 211.68
-4 -8 -6 5.7 3.3
-4 -8 -6 5.9 3.4
-4 -8 -6 7 2.9
-4 -8 -6 2.5 2.8
4 8 6 3.5 2.6
4 8 6 4.5 2.8
-5 -8 -6 0.8 3.5
-5 -8 -6 6.3 2.9
-5 -8 -6 5.2 3.4
-5 -8 -6 0.1 2.5
5 8 6 3.8 2.7
5 8 6 4.2 2.9
-6 -8 -6 2.7 2.8
-6 -8 -6 6.3 3.2
-6 -8 -6 -1.3 3.3
6 8 6 1 2.9
6 8 6 1 3.5
-7 -8 -6 37.8 4.9
-7 -8 -6 23.4 5.1
-7 -8 -6 31.8 4.8
7 8 6 46.5 6.5
7 8 6 29.8 4.6
-8 -8 -6 2.4 3.8
-8 -8 -6 0.9 3.8
-8 -8 -6 -4.5 4
8 8 6 -2.1 2.9
8 8 6 0.6 4
-9 -8 -6 15.6 4.5
-9 -8 -6 8.7 4.7
-9 -8 -6 -0.4 5.2
9 8 6 1.3 5.2
1 -9 -6 4.8 3.4
1 -9 -6 -0.4 3.3
-1 9 6 -2.6 3.9
-1 9 6 2.3 4.1
0 -9 -6 5.6 3.4
0 -9 -6 2.1 3
0 -9 -6 4.2 3.3
0 9 6 1.3 3.3
0 9 6 1 4.3
-1 -9 -6 35.9 5.2
-1 -9 -6 38.5 4.4
-1 -9 -6 37 4.9
1 9 6 36.4 5.2
1 9 6 37.1 4.8
2 9 6 82.99 250.87
3 9 6 -233.38 202.08
-4 -9 -6 3.2 3.3
-4 -9 -6 4.7 3.1
-4 -9 -6 2.9 3.8
-4 -9 -6 1.6 2.9
4 9 6 5.6 3.2
-5 -9 -6 3.7 3
-5 -9 -6 3.1 3.1
-5 -9 -6 1.4 3.7
-5 -9 -6 0.3 4
5 9 6 3.3 3.3
5 9 6 1.7 2.8
-6 -9 -6 0.5 3.3
-6 -9 -6 2.6 3.1
-6 -9 -6 1.4 3.7
6 9 6 0.6 3.7
6 9 6 2.8 3.2
-7 -9 -6 2.9 4.3
-7 -9 -6 18.7 4.6
-7 -9 -6 19 4.3
7 9 6 13 5.1
7 9 6 11 3.5
-8 -9 -6 2.5 5
-8 -9 -6 3.7 4.5
-8 -9 -6 8.2 4.8
8 9 6 5.4 3.9
8 9 6 4.6 5.4
-1 -10 -6 -2.6 3.3
-1 -10 -6 -2.3 4.1
-1 -10 -6 0.1 3.9
1 10 6 -2.6 3.4
1 10 6 0.5 4.1
-2 -10 -6 19.8 4.8
-2 -10 -6 17.8 4.6
-2 -10 -6 15.3 3.7
2 10 6 9.2 4.3
2 10 6 13.2 4.4
-3 -10 -6 43.8 5.5
-3 -10 -6 33.9 5
-3 -10 -6 39.4 6
3 10 6 48.7 5.9
3 10 6 177.78 305.77
3 10 6 36.8 5.5
-4 -10 -6 3.9 4.5
-4 -10 -6 -1.7 3.5
-4 -10 -6 3.9 3.8
4 10 6 2.5 3.4
4 10 6 -675.93 218.88
-5 -10 -6 -2.8 4.5
-5 -10 -6 6.2 4.3
-5 -10 -6 -0.9 3.5
-5 -10 -6 5.7 3.9
5 10 6 -1.5 3.7
-6 -10 -6 17.4 4.3
-6 -10 -6 7.4 4.6
-6 -10 -6 11.7 4.1
6 10 6 12.9 4.2
6 10 6 21.3 4.8
-7 -10 -6 1.2 4.7
-7 -10 -6 6.1 4.3
-7 -10 -6 6.7 4.1
7 10 6 -1.6 4.5
7 10 6 -1.5 3.5
-4 -11 -6 5.2 5.4
4 9 -7 -285.77 214.48
4 9 -7 6.3 5.1
-4 -9 7 7.1 3.7
-4 -9 7 -3.4 3.9
-4 -9 7 2.4 4.4
-4 -9 7 2.6 5.5
3 9 -7 129.29 236.48
2 9 -7 63.69 232.98
2 9 -7 -9.6 4.2
-2 -9 7 3.9 4.1
-2 -9 7 -5.8 5
-2 -9 7 3.4 3.8
-2 -9 7 5.7 3.8
1 9 -7 -297.27 188.88
1 9 -7 -0.1 4.4
-1 -9 7 4.6 3.7
-1 -9 7 -2.5 4.8
-1 -9 7 1.7 3.8
-1 -9 7 -1 4
0 9 -7 85.29 241.28
6 8 -7 -88.69 231.58
6 8 -7 -4 4.6
-6 -8 7 -9.6 4
-6 -8 7 -1.5 5.8
5 8 -7 124.69 254.17
5 8 -7 42.2 6.9
-5 -8 7 36.7 5.6
-5 -8 7 28.4 6.2
-5 -8 7 35.8 5.7
4 8 -7 0.2 3.9
4 8 -7 -144.09 230.18
-4 -8 7 -2.2 3.6
-4 -8 7 9.8 3.9
-4 -8 7 1.6 4.2
-4 -8 7 3.7 3
-4 -8 7 -9.6 4.3
3 8 -7 -170.88 179.48
3 8 -7 5.9 3.9
-3 -8 7 9.2 3.8
-3 -8 7 8.7 3.2
-3 -8 7 0.9 3.5
-3 -8 7 3.4 4.5
2 8 -7 6.2 4
2 8 -7 -194.58 190.68
-2 -8 7 11.3 3.4
-2 -8 7 10.3 3.4
-2 -8 7 11.3 3.8
-2 -8 7 5.8 4.6
1 8 -7 24.9 5
1 8 -7 127.19 234.48
-1 -8 7 35.4 4.9
-1 -8 7 28.3 4.5
-1 -8 7 27.9 4.5
-1 -8 7 20.9 5
0 8 -7 0.2 3.6
0 8 -7 -60.19 185.68
0 -8 7 1.5 3.4
0 -8 7 2.4 3.1
0 -8 7 -2.1 3.3
0 -8 7 0 3.8
-1 8 -7 108.19 222.98
-2 8 -7 -1.3 4
-2 8 -7 -84.49 201.38
2 -8 7 3.1 3.7
2 -8 7 -0.1 4.1
2 -8 7 -3.2 3.8
-7 -7 7 1.7 5.3
6 7 -7 -109.39 243.48
6 7 -7 1.3 4.2
-6 -7 7 -1 4.4
-6 -7 7 0.3 3.8
-6 -7 7 5.2 4.8
5 7 -7 27.4 5.1
5 7 -7 106.69 239.88
-5 -7 7 27.9 4.8
-5 -7 7 22.2 5.6
-5 -7 7 25.7 4.7
4 7 -7 86.89 201.08
4 7 -7 10.9 4.2
-4 -7 7 6 4.2
-4 -7 7 11.7 3.5
-4 -7 7 5.1 4
-4 -7 7 6.1 2.8
-4 -7 7 -2.2 3
3 7 -7 20.8 4.3
3 7 -7 3.7 211.08
-3 -7 7 19.9 4.2
-3 -7 7 18.9 3.9
-3 -7 7 23.6 3.5
-3 -7 7 20 5
-3 -7 7 32.1 4.5
2 7 -7 -187.18 195.88
2 7 -7 1.6 3.2
-2 -7 7 2.5 2.9
-2 -7 7 3.8 2.7
-2 -7 7 4.1 4.1
-2 -7 7 -0.6 2.6
-2 -7 7 -1.2 3.1
1 7 -7 192.28 203.88
1 7 -7 54.29 5.6
-1 -7 7 38.6 4.6
-1 -7 7 40 5.7
-1 -7 7 43.1 4.9
-1 -7 7 45.3 5
0 7 -7 75.39 6.7
0 7 -7 190.38 203.38
0 -7 7 73.49 6
0 -7 7 63.89 6.9
0 -7 7 69.39 6.5
0 -7 7 58.19 6.2
-1 7 -7 -31.2 191.48
-1 7 -7 60.59 6
1 -7 7 59.79 6
1 -7 7 43.1 5.5
1 -7 7 53.49 4.8
1 -7 7 41.9 5.2
-2 7 -7 171.78 222.68
-3 7 -7 17.1 4.1
-3 7 -7 1.8 229.08
3 -7 7 8.8 4.2
3 -7 7 16 4.3
3 -7 7 2.7 3.4
7 6 -7 137.49 249.48
6 6 -7 93.49 243.58
5 6 -7 -15.4 193.28
5 6 -7 -3.2 3.1
5 6 -7 3.4 2.9
-5 -6 7 2.3 3.6
-5 -6 7 0.7 2.7
-5 -6 7 -0.3 2.8
4 6 -7 -18.1 192.18
4 6 -7 89.19 6.7
4 6 -7 77.09 7.1
-4 -6 7 75.59 8
-4 -6 7 92.39 6.7
-4 -6 7 72.79 5.5
-4 -6 7 90.29 7
3 6 -7 -24.3 172.88
3 6 -7 28.7 4.5
3 6 -7 32.1 4.2
-3 -6 7 21.2 4.3
-3 -6 7 27.8 3.1
-3 -6 7 29.3 4.1
-3 -6 7 26.8 3.9
-3 -6 7 22 4
2 6 -7 49.1 172.78
2 6 -7 -0.8 2.7
2 6 -7 -0.3 2.5
-2 -6 7 -0.6 2.6
-2 -6 7 -0.8 2.2
-2 -6 7 0.1 2.2
-2 -6 7 2.8 2.6
-2 -6 7 -2.3 3
1 6 -7 76.29 6.7
1 6 -7 86.69 6.4
1 6 -7 -150.78 154.88
-1 -6 7 80.39 6.9
-1 -6 7 83.99 6.2
-1 -6 7 90.19 6.6
-1 -6 7 75.69 5.2
-1 -6 7 88.29 6.1
0 6 -7 34.9 183.68
0 6 -7 -0.7 2.6
0 6 -7 5.6 2.8
0 -6 7 1.1 2.2
0 -6 7 -2 1.8
0 -6 7 -0.9 2.5
0 -6 7 -0.4 2.9
-1 6 -7 -0.4 2.6
-1 6 -7 -90.49 157.38
1 -6 7 1.7 2
1 -6 7 5.4 3
1 -6 7 3 2.5
1 -6 7 -0.7 2.7
-2 6 -7 -271.97 150.28
-3 6 -7 -24.8 174.28
-3 6 -7 33.5 4.4
3 -6 7 37.2 4.5
3 -6 7 43.6 5.4
3 -6 7 33.9 4.2
3 -6 7 41 5.4
-4 6 -7 312.37 253.27
7 5 -7 -159.78 244.58
7 5 -7 16.6 5.5
6 5 -7 -1.8 3.1
6 5 -7 3 4.1
6 5 -7 22.2 208.28
6 5 -7 -1.8 3.1
-6 -5 7 2.9 3.9
-6 -5 7 2.9 3.3
-6 -5 7 1.6 2.7
5 5 -7 74.09 206.18
4 5 -7 2.6 2.1
4 5 -7 -173.98 160.88
4 5 -7 1.4 3.7
4 5 -7 2.8 2.4
4 5 -7 -0.4 2.6
-4 -5 7 -3.1 3.9
-4 -5 7 4 2.5
-4 -5 7 -0.1 2.1
-4 -5 7 -1.1 2.8
-4 -5 7 2.5 1.6
3 5 -7 82.09 168.58
3 5 -7 2 2.3
3 5 -7 -0.3 3.2
3 5 -7 -0.9 2.8
-3 -5 7 7.1 3.1
-3 -5 7 0 2.4
-3 -5 7 3.4 2.3
-3 -5 7 8.5 2.1
2 5 -7 49.4 4.8
2 5 -7 53.59 167.68
2 5 -7 45.4 4.9
-2 -5 7 49.6 5.5
-2 -5 7 50.39 4.4
-2 -5 7 40.3 4.3
-2 -5 7 50.29 4
-2 -5 7 53.79 5.6
1 5 -7 -54.09 150.38
1 5 -7 108.29 6.6
1 5 -7 103.99 6.9
-1 -5 7 93.89 7.1
-1 -5 7 110.89 7.1
-1 -5 7 98.89 6.4
-1 -5 7 99.29 5.8
0 5 -7 31.8 4
0 5 -7 19.8 159.48
0 5 -7 28.1 3.5
0 -5 7 28.9 3.7
0 -5 7 28.9 3
0 -5 7 32 3.8
0 -5 7 27.1 3.5
-1 5 -7 193.08 179.98
-1 5 -7 135.29 7.5
-1 5 -7 142.29 8.1
1 -5 7 130.59 8.8
1 -5 7 137.09 8
1 -5 7 136.99 7.9
1 -5 7 135.49 7.1
-2 5 -7 160.18 173.88
-3 5 -7 322.37 203.38
-3 5 -7 66.59 5.4
3 -5 7 61.59 5.3
3 -5 7 63.09 5.5
3 -5 7 69.49 6
-4 5 -7 204.88 212.38
-5 5 -7 165.18 212.48
8 4 -7 8.3 5.1
-8 -4 7 -1.2 5.3
7 4 -7 11.6 5.2
7 4 -7 5.5 3.8
-7 -4 7 12.6 4.6
-7 -4 7 12.4 4.5
6 4 -7 0 2.8
6 4 -7 2.6 3.1
6 4 -7 -104.59 192.88
6 4 -7 -4.2 3.4
6 4 -7 -3.6 2.8
-6 -4 7 2.5 3.5
-6 -4 7 1.2 2.6
-6 -4 7 -1.1 3.1
5 4 -7 34.3 4.5
5 4 -7 31.1 3.9
5 4 -7 39.2 4.5
5 4 -7 19.6 4.7
5 4 -7 142.39 189.48
-5 -4 7 34.1 4.2
-5 -4 7 37 5.2
-5 -4 7 43.2 4.6
4 4 -7 11.5 3.2
4 4 -7 15.1 3
4 4 -7 10.9 2.6
4 4 -7 230.88 171.48
4 4 -7 12.8 3.9
-4 -4 7 10.5 3.9
-4 -4 7 17.8 3.1
-4 -4 7 10.6 3.9
-4 -4 7 23.6 4.3
3 4 -7 67.49 5.5
3 4 -7 72.79 6.6
3 4 -7 -65.39 145.59
3 4 -7 79.09 6.1
3 4 -7 79.89 4.7
-3 -4 7 82.49 5.6
-3 -4 7 74.69 4.5
-3 -4 7 82.49 6.5
-3 -4 7 64.69 6
2 4 -7 76.29 5.4
2 4 -7 90.49 150.58
2 4 -7 75.49 6.3
2 4 -7 69.49 5.8
-2 -4 7 77.99 4.9
-2 -4 7 67.09 4.9
-2 -4 7 74.59 6
-2 -4 7 78.39 6.3
1 4 -7 35.9 3.6
1 4 -7 34.7 4.3
1 4 -7 35.2 3.9
1 4 -7 57.59 140.79
-1 -4 7 43 4.8
-1 -4 7 34.4 4.2
-1 -4 7 38.2 3.5
-1 -4 7 37.6 3.8
-1 -4 7 42.2 4.2
0 4 -7 11.2 2.5
0 4 -7 -61.59 137.99
0 4 -7 0 1.7
0 -4 7 12.4 2.8
0 -4 7 11 2.8
0 -4 7 10 2.4
0 -4 7 12.2 2.4
-1 4 -7 -40 135.69
-1 4 -7 188.78 8.7
-1 4 -7 183.18 9.3
1 -4 7 179.98 9.4
1 -4 7 194.18 10.3
1 -4 7 183.98 9.4
1 -4 7 191.08 8.7
1 -4 7 183.58 10.4
-2 4 -7 -3.3 1.8
-2 4 -7 -81.49 135.89
-2 4 -7 0.4 1.8
2 -4 7 -0.8 2
2 -4 7 0.3 1.7
2 -4 7 3 2
2 -4 7 -5.7 2
-3 4 -7 262.57 183.08
-4 4 -7 84.29 182.08
-5 4 -7 -70.39 214.18
5 -4 7 0.8 2.2
5 -4 7 -1.1 2.9
5 -4 7 -4.4 2.9
-6 4 -7 49.7 228.08
8 3 -7 -1.1 4.9
-8 -3 7 9.2 4.9
-8 -3 7 -5.7 3.5
7 3 -7 2.4 3
7 3 -7 -0.5 4.2
-7 -3 7 -5.7 3.6
6 3 -7 7.6 2.9
6 3 -7 4.7 2.9
6 3 -7 1.8 2.8
6 3 -7 2.4 4.1
-6 -3 7 2.6 2.7
-6 -3 7 6.6 3.7
-6 -3 7 3.2 3
5 3 -7 -182.48 171.88
4 3 -7 -322.87 157.58
4 3 -7 235.58 13.6
4 3 -7 228.18 11.2
4 3 -7 248.28 12.1
4 3 -7 232.18 11.1
-4 -3 7 240.78 13.1
-4 -3 7 245.48 11.6
-4 -3 7 250.57 12.5
3 3 -7 -234.78 123.19
2 3 -7 -8 118.69
2 3 -7 12.7 2.5
2 3 -7 14.7 2.9
2 3 -7 16.1 2.7
-2 -3 7 19.9 3.3
-2 -3 7 16.6 2.4
-2 -3 7 10.4 2.6
-2 -3 7 16.8 2.4
1 3 -7 10.8 116.99
1 3 -7 0.6 1.9
1 3 -7 1 1.6
1 3 -7 0 1.6
-1 -3 7 0.7 2
-1 -3 7 -0.9 1.3
-1 -3 7 0.8 1.3
-1 -3 7 4 1.6
0 3 -7 52.99 4.7
0 3 -7 54.39 4.4
0 3 -7 -69.49 119.79
0 3 -7 59.79 4.1
0 -3 7 55.39 4.7
0 -3 7 47 4
0 -3 7 61.09 3.9
0 -3 7 58.09 4.8
0 -3 7 62.29 4.7
-1 3 -7 6.1 2.1
-1 3 -7 7.5 2
-1 3 -7 -41.3 113.29
-1 3 -7 4.8 1.8
1 -3 7 8 1.9
1 -3 7 7.4 2
1 -3 7 7 1.8
1 -3 7 5.7 2.1
1 -3 7 8.9 2.2
-2 3 -7 6.1 2
-2 3 -7 7.5 2.1
-2 3 -7 3.8 2.1
-2 3 -7 -16.4 141.49
2 -3 7 8 2.1
2 -3 7 7.3 2.1
2 -3 7 9.9 2.2
2 -3 7 7.9 2.3
2 -3 7 5 2.2
2 -3 7 4.2 1.9
-3 3 -7 163.78 7.8
-3 3 -7 151.28 7.3
-3 3 -7 38.6 151.78
3 -3 7 157.18 8.9
3 -3 7 154.48 8.7
3 -3 7 152.18 8.4
3 -3 7 158.78 8
3 -3 7 142.09 7.7
-4 3 -7 9.4 170.08
-4 3 -7 20.8 2.8
4 -3 7 19.6 2.7
4 -3 7 16.9 3.2
4 -3 7 22.4 3.4
-5 3 -7 -0.1 2.1
-5 3 -7 -207.18 177.48
5 -3 7 3.3 2
5 -3 7 3.6 2.5
5 -3 7 -0.3 2.5
-6 3 -7 110.19 224.78
-7 3 -7 167.58 278.67
8 2 -7 4.7 4.6
7 2 -7 3.1 3.4
7 2 -7 1.8 3.8
7 2 -7 2.8 3.4
-7 -2 7 2.5 3.7
-7 -2 7 1.3 3.3
6 2 -7 13.1 3.7
6 2 -7 12.9 3.1
6 2 -7 13 3.1
-6 -2 7 9 4
5 2 -7 5 2.5
5 2 -7 -0.2 2.3
5 2 -7 2.7 2.3
5 2 -7 6.4 3.1
-5 -2 7 1.4 2.8
-5 -2 7 0.4 2.6
4 2 -7 74.99 5.2
4 2 -7 71.89 5
4 2 -7 74.09 5.7
4 2 -7 67.19 5.9
4 2 -7 -139.79 142.99
-4 -2 7 68.29 5.9
-4 -2 7 63.39 5.5
-4 -2 7 77.69 5.5
3 2 -7 128.99 6.6
3 2 -7 126.89 7.4
3 2 -7 127.89 6.9
3 2 -7 -138.39 137.79
3 2 -7 131.59 8.3
-3 -2 7 127.59 6.8
-3 -2 7 128.19 7.8
-3 -2 7 124.59 6.4
-3 -2 7 128.69 7.9
2 2 -7 9.7 2.5
2 2 -7 7.2 2.2
2 2 -7 9.3 1.9
2 2 -7 -111.19 96.49
-2 -2 7 6 2.3
-2 -2 7 8.3 2.1
1 2 -7 26.9 99.39
1 2 -7 1.5 1.7
1 2 -7 1.3 1.7
1 2 -7 2.9 1.9
-1 -2 7 1.8 1.8
-1 -2 7 5.6 1.5
-1 -2 7 0.9 1.8
-1 -2 7 3.4 1.4
0 2 -7 102.19 5.5
0 2 -7 -63.89 107.19
0 2 -7 96.99 5.8
0 2 -7 93.39 6.3
0 -2 7 110.79 5.6
0 -2 7 101.29 6.4
0 -2 7 105.89 6
0 -2 7 103.99 6.3
0 -2 7 98.59 5.3
-1 2 -7 262.67 11.2
-1 2 -7 250.37 13.4
-1 2 -7 -57.69 115.79
-1 2 -7 264.47 12
1 -2 7 275.97 12.2
1 -2 7 255.27 13.4
1 -2 7 266.37 11.8
1 -2 7 275.67 13.6
1 -2 7 281.17 11.5
-2 2 -7 64.59 133.19
-2 2 -7 19.5 2.3
-2 2 -7 22.1 2.6
-2 2 -7 17.4 2.7
2 -2 7 19.6 2.6
2 -2 7 20.8 2.6
2 -2 7 22.8 2.8
2 -2 7 21.3 2.7
2 -2 7 15.1 2.3
-3 2 -7 -132.79 118.39
-4 2 -7 21.9 2.9
-4 2 -7 21.4 157.88
4 -2 7 24.8 3.4
4 -2 7 24 3.3
4 -2 7 23.6 2.9
4 -2 7 20.4 3.3
-5 2 -7 -58.49 162.28
-6 2 -7 51.99 207.78
-7 2 -7 -157.88 222.68
7 -2 7 2.9 3
7 -2 7 1.1 2.3
7 -2 7 -0.4 3.1
7 1 -7 -0.2 3.9
7 1 -7 1.2 3.2
7 1 -7 -0.6 3.1
-7 -1 7 0.1 3.6
-7 -1 7 7.4 3.4
6 1 -7 33.5 4.4
6 1 -7 32.7 5
6 1 -7 39.9 4.6
-6 -1 7 38.5 5.1
-6 -1 7 33.4 4.5
5 1 -7 20.8 3.7
5 1 -7 15.9 3.1
5 1 -7 18.4 3.3
5 1 -7 15.1 3.1
-5 -1 7 18.9 3.2
-5 -1 7 16 3.7
4 1 -7 122.49 8.5
4 1 -7 122.19 7
4 1 -7 128.09 7.7
4 1 -7 130.39 7.3
-4 -1 7 139.09 7.4
-4 -1 7 141.99 8.2
-4 -1 7 134.69 7.4
3 1 -7 3.4 1.6
3 1 -7 3 1.7
3 1 -7 0.5 1.9
3 1 -7 -0.4 1.5
3 1 -7 3.5 1.7
-3 -1 7 1.7 1.7
-3 -1 7 0 1.3
-3 -1 7 4.3 2
-3 -1 7 2 1.6
2 1 -7 16.1 2.9
2 1 -7 19.3 2.6
2 1 -7 23.9 3.1
2 1 -7 23.3 3
-2 -1 7 17.3 2.6
-2 -1 7 25.4 2.7
-2 -1 7 22.7 2.3
-2 -1 7 22.9 3.2
-2 -1 7 26.2 2.6
1 1 -7 38.7 3.7
1 1 -7 40.3 4.1
1 1 -7 34.2 3.4
-1 -1 7 48.2 3
-1 -1 7 43.2 2.7
-1 -1 7 38.3 3.8
-1 -1 7 42.7 3.3
-1 -1 7 39.7 3.9
0 1 -7 165.08 7.4
0 1 -7 -1.4 94.29
0 1 -7 158.98 7.8
0 1 -7 157.48 8.7
0 -1 7 158.18 7.3
0 -1 7 156.08 7.2
0 -1 7 150.28 8.6
0 -1 7 159.78 8
0 -1 7 139.89 8.5
-1 1 -7 47.1 106.09
-2 1 -7 -36.5 107.19
-2 1 -7 119.39 6
-2 1 -7 117.59 6.4
2 -1 7 115.89 6.9
2 -1 7 122.29 6.3
2 -1 7 123.09 6.5
2 -1 7 124.09 6.3
2 -1 7 125.09 7.3
-3 1 -7 2.4 1.5
-3 1 -7 2.9 1.7
-3 1 -7 1.8 1.6
-3 1 -7 27.2 135.99
3 -1 7 1.6 1.5
3 -1 7 2.3 1.6
3 -1 7 1.9 1.6
3 -1 7 1.9 1.4
3 -1 7 1.9 1.5
3 -1 7 1.9 1.6
-4 1 -7 48.3 4
-4 1 -7 -122.39 138.79
-4 1 -7 48.7 3.8
-4 1 -7 42.4 3.5
-4 1 -7 33.2 3.4
4 -1 7 41 4.1
4 -1 7 41.4 4.3
4 -1 7 41.6 3.6
4 -1 7 43.6 3.6
4 -1 7 39 4
4 -1 7 49.99 4.2
-5 1 -7 163.08 176.08
-5 1 -7 90.19 5.5
5 -1 7 82.59 5.7
5 -1 7 94.69 6.2
5 -1 7 80.29 5.9
5 -1 7 89.59 6.2
5 -1 7 99.79 7.1
-6 1 -7 -1.3 157.78
-6 1 -7 -1.9 2.1
6 -1 7 0.7 2.6
6 -1 7 2.1 2.5
6 -1 7 0.2 2
6 -1 7 0.6 2.4
-7 1 -7 20.4 3.3
-7 1 -7 -26.5 190.08
7 -1 7 14.4 4
7 -1 7 14 3.8
7 -1 7 13.9 4
7 -1 7 12.3 3.2
-8 1 -7 87.29 258.77
7 0 -7 -1 3.5
7 0 -7 5.1 3.2
7 0 -7 7.2 3.5
-7 0 7 1.9 3.5
-7 0 7 -3.5 3.4
6 0 -7 5.5 3.1
6 0 -7 3.1 3.2
6 0 -7 7.1 3
-6 0 7 7.7 3.2
-6 0 7 12.5 3.5
-6 0 7 6.8 3.1
5 0 -7 1.3 2.5
5 0 -7 -0.1 2.2
5 0 -7 3.4 2.7
-5 0 7 0.2 2.9
-5 0 7 -1.1 2.3
-5 0 7 2.1 2.4
4 0 -7 134.39 7.7
4 0 -7 126.99 7.2
4 0 -7 139.39 8.8
4 0 -7 135.79 7.5
-4 0 7 141.29 8.1
-4 0 7 131.59 7.7
3 0 -7 156.78 9
3 0 -7 143.39 7.6
3 0 -7 151.68 8.7
3 0 -7 166.08 8.1
-3 0 7 141.99 7.2
-3 0 7 143.69 8.5
-3 0 7 154.08 8.3
-3 0 7 149.49 7.9
2 0 -7 77.59 5.8
2 0 -7 86.49 5.2
2 0 -7 80.69 5.5
2 0 -7 80.89 4.8
-2 0 7 78.99 5.5
-2 0 7 77.59 4.3
-2 0 7 75.79 4.6
-2 0 7 75.79 5.3
1 0 -7 9.8 2.2
1 0 -7 6.7 1.9
1 0 -7 9.1 2.1
1 0 -7 10.1 2.3
-1 0 7 10.4 1.8
-1 0 7 9.2 2.1
-1 0 7 12.7 1.8
-1 0 7 12.6 1.5
-1 0 7 7 1.9
0 0 -7 35.3 3.1
0 0 -7 38.4 3.6
0 0 -7 42 3.4
0 0 7 34.1 3.3
0 0 7 37.3 3
0 0 7 39.2 2.6
0 0 7 36.8 3.4
-1 0 -7 -11.1 82.59
-1 0 -7 25.9 2.3
-1 0 -7 31.1 2.9
-1 0 -7 30.8 3.2
-1 0 -7 29.1 2.8
1 0 7 29 3.1
1 0 7 30.2 2.6
1 0 7 30.8 2.4
1 0 7 28.2 3.3
1 0 7 28.3 3
-2 0 -7 87.69 4.8
-2 0 -7 91.19 5.1
-2 0 -7 -199.08 87.39
-2 0 -7 89.49 5.7
-2 0 -7 90.59 4.6
2 0 7 88.59 5.7
2 0 7 87.09 5.2
2 0 7 87.79 5.7
2 0 7 91.39 5.1
2 0 7 95.09 4.9
-3 0 -7 -68.89 118.49
-3 0 -7 82.59 4.9
-3 0 -7 79.39 4.5
-3 0 -7 82.89 5.3
3 0 7 73.99 5.5
3 0 7 75.69 4.9
3 0 7 77.89 4.8
3 0 7 78.79 4.4
3 0 7 87.29 5.4
3 0 7 71.59 4.7
-4 0 -7 286.77 12.5
-4 0 -7 274.17 11.5
-4 0 -7 279.57 13.7
-4 0 -7 70.19 158.18
4 0 7 275.57 14
4 0 7 270.87 12.4
4 0 7 267.37 12.3
4 0 7 274.77 12
4 0 7 271.47 14.1
4 0 7 286.17 12.9
-5 0 -7 6.8 2.1
-5 0 -7 5.9 1.8
-5 0 -7 60.79 173.98
5 0 7 8.2 2.3
5 0 7 6 2.5
5 0 7 7.2 2.4
5 0 7 10.7 2.4
5 0 7 5.7 2
-6 0 -7 -32.4 164.08
-6 0 -7 0.8 1.9
6 0 7 5.6 2.2
6 0 7 0.9 2.6
-7 0 -7 37.4 4.6
-7 0 -7 37.6 4.2
-7 0 -7 -3.7 221.58
7 0 7 43.6 5.1
7 0 7 37 4.7
-8 0 -7 -179.48 219.58
-8 0 -7 10.4 3.6
-8 0 -7 5.1 3
8 0 7 7.9 3.4
8 0 7 6.3 4.1
7 -1 -7 11 3.7
7 -1 -7 4.1 3.6
7 -1 -7 7.8 4.5
-7 1 7 12.5 4.5
-7 1 7 14.1 4.5
6 -1 -7 19.8 3.9
6 -1 -7 29.6 4.7
6 -1 -7 20.5 3.5
-6 1 7 25.7 4.3
-6 1 7 30.3 4.7
-6 1 7 24.5 4.5
5 -1 -7 -0.1 2.2
5 -1 -7 -1.9 2.4
5 -1 -7 -0.9 2.3
-5 1 7 -3.9 2.2
-5 1 7 6.3 2.6
-5 1 7 -4.4 2.4
4 -1 -7 73.99 5.4
4 -1 -7 71.29 5.3
4 -1 -7 71.39 6.1
-4 1 7 80.69 5.9
-4 1 7 83.29 6.1
-4 1 7 83.09 5.7
3 -1 -7 -1.3 1.7
3 -1 -7 1.3 1.8
3 -1 -7 -0.1 1.8
3 -1 -7 -2.3 1.9
-3 1 7 -0.2 1.5
-3 1 7 -3.2 1.9
-3 1 7 -2.3 1.4
2 -1 -7 226.78 10.7
2 -1 -7 241.68 12.1
2 -1 -7 233.08 10.1
2 -1 -7 223.88 12
2 -1 -7 213.38 9.5
-2 1 7 240.18 11.8
-2 1 7 232.28 9.7
-2 1 7 226.78 10.8
-2 1 7 228.58 10.8
1 -1 -7 50.69 3.8
1 -1 -7 50.59 2.9
1 -1 -7 58.39 4.5
1 -1 -7 50.79 4.4
1 -1 -7 58.29 4.1
-1 1 7 45.1 4
-1 1 7 49.4 2.9
-1 1 7 54.29 3.8
-1 1 7 55.29 3.7
-1 1 7 51.09 4.2
0 -1 -7 598.14 27.7
0 -1 -7 615.14 27.8
0 -1 -7 578.44 22.9
0 -1 -7 615.14 24.5
0 1 7 608.44 23.1
0 1 7 590.24 24.6
0 1 7 596.84 27.6
0 1 7 538.55 23.4
-1 -1 -7 205.88 9.7
-1 -1 -7 215.98 10.9
-1 -1 -7 204.98 9
1 1 7 220.98 9.2
1 1 7 208.48 9
1 1 7 214.08 10.9
1 1 7 190.98 11.3
1 1 7 211.18 9.8
-2 -1 -7 116.69 104.19
-3 -1 -7 103.39 125.69
-3 -1 -7 174.58 8
-3 -1 -7 185.58 9.6
-3 -1 -7 186.68 8.8
3 1 7 178.98 8.2
3 1 7 174.28 9.8
3 1 7 185.08 8.7
3 1 7 176.68 9.9
3 1 7 179.98 8.4
-4 -1 -7 167.68 8.8
-4 -1 -7 155.98 7.4
-4 -1 -7 160.08 8.1
-4 -1 -7 118.49 145.99
4 1 7 154.58 8.1
4 1 7 155.08 9
4 1 7 157.38 8
4 1 7 159.68 7.9
-5 -1 -7 2.4 1.9
-5 -1 -7 1.9 1.9
-5 -1 -7 -187.38 174.38
-5 -1 -7 1.9 1.7
5 1 7 2 1.8
5 1 7 6.5 2.3
5 1 7 -1.4 2
5 1 7 5.9 2
5 1 7 5.5 2.2
-6 -1 -7 -80.09 175.88
-6 -1 -7 60.89 5
6 1 7 72.39 5.7
6 1 7 82.19 6
6 1 7 79.99 5.8
-7 -1 -7 17 3.2
-7 -1 -7 21.5 3.5
-7 -1 -7 72.49 211.88
7 1 7 22.5 3.6
7 1 7 15.2 3.7
7 1 7 20.3 3.4
-8 -1 -7 -280.37 198.58
-8 -1 -7 7.8 3.6
-8 -1 -7 3.3 2.5
8 1 7 4.6 2.8
8 1 7 1.2 3.9
8 1 7 9.4 3.2
-9 -1 -7 762.12 329.97
6 -2 -7 59.79 6.5
6 -2 -7 43.6 5.5
-6 2 7 48.3 5.7
-6 2 7 49.9 6.2
-6 2 7 50.39 5.7
5 -2 -7 2 2.6
5 -2 -7 -1.6 2.8
5 -2 -7 -2.6 2.3
-5 2 7 -2.1 2.3
-5 2 7 2.2 2.7
-5 2 7 -4.1 2.7
4 -2 -7 20 3.2
4 -2 -7 15.4 3.1
-4 2 7 22 3.2
-4 2 7 19.9 2.9
-4 2 7 20 3.8
3 -2 -7 130.49 7.2
3 -2 -7 132.99 8.3
3 -2 -7 138.49 6.9
-3 2 7 134.29 7.9
-3 2 7 140.59 7
-3 2 7 132.49 7.6
2 -2 -7 157.58 7.4
2 -2 -7 150.48 7.7
2 -2 -7 151.48 8.8
2 -2 -7 158.38 8.8
2 -2 -7 150.48 6.9
-2 2 7 149.79 8.1
-2 2 7 138.79 7.7
-2 2 7 149.29 8.4
-2 2 7 155.08 7.1
1 -2 -7 135.69 6.1
1 -2 -7 131.59 6.8
1 -2 -7 125.79 6.4
1 -2 -7 126.99 7.7
1 -2 -7 126.99 7.5
-1 2 7 118.49 7.3
-1 2 7 127.89 6.9
-1 2 7 124.29 6.5
-1 2 7 130.99 6.8
0 -2 -7 110.79 5.5
0 -2 -7 111.79 6
0 -2 -7 111.09 6.7
0 -2 -7 102.59 5.5
0 -2 -7 106.29 6.6
0 2 7 102.89 4.7
0 2 7 105.69 5.5
0 2 7 108.69 6.1
0 2 7 109.89 6.5
-1 -2 -7 316.07 13.8
-1 -2 -7 322.27 15.8
-1 -2 -7 315.87 12.9
-1 -2 -7 314.67 13.1
-1 -2 -7 306.17 15.5
1 2 7 333.37 13
1 2 7 312.67 12.7
1 2 7 306.67 13.8
1 2 7 284.97 15.4
-2 -2 -7 215.48 9.4
-2 -2 -7 235.18 11.4
-2 -2 -7 218.98 9.7
-2 -2 -7 220.08 10.2
2 2 7 219.98 9.5
2 2 7 205.78 9.4
2 2 7 223.78 11.5
2 2 7 197.78 11.5
-3 -2 -7 -45 106.59
-3 -2 -7 172.18 8.2
-3 -2 -7 170.68 7.8
-3 -2 -7 178.68 8.5
-3 -2 -7 179.48 9.4
3 2 7 179.38 8.1
3 2 7 144.09 9.1
3 2 7 171.58 8
3 2 7 168.48 8.5
-4 -2 -7 -85.49 113.89
-5 -2 -7 396.56 15.6
-5 -2 -7 370.06 18.4
-5 -2 -7 375.26 15.3
-5 -2 -7 135.59 172.68
5 2 7 367.16 16.1
5 2 7 385.56 16.4
5 2 7 333.27 18.7
5 2 7 397.26 18.9
5 2 7 363.86 16.6
-6 -2 -7 152.98 7.8
-6 -2 -7 62.89 181.88
-6 -2 -7 136.99 7.4
6 2 7 154.68 9.3
6 2 7 154.88 8.9
6 2 7 145.99 8.2
6 2 7 154.98 8.4
-7 -2 -7 0.7 2.2
-7 -2 -7 8 2.9
-7 -2 -7 -132.49 182.38
7 2 7 6.7 2.8
7 2 7 4.1 2.6
7 2 7 5 2.5
-8 -2 -7 -150.48 212.68
-9 -2 -7 -1.3 4.2
-9 -2 -7 -3.5 3
9 2 7 0.7 3
9 2 7 -3.8 4.1
9 2 7 5.8 3.8
6 -3 -7 45.9 5.6
6 -3 -7 55.99 6.1
-6 3 7 57.39 7.2
-6 3 7 52.19 5.7
-6 3 7 61.59 6.2
5 -3 -7 6.1 3.2
5 -3 -7 4.4 2.9
-5 3 7 -4.5 3.1
-5 3 7 1.5 2.9
-5 3 7 6.1 3
4 -3 -7 21.5 3.8
4 -3 -7 23.7 3.3
-4 3 7 25 3.5
-4 3 7 19.6 4
-4 3 7 29.2 3.6
3 -3 -7 24.8 3
3 -3 -7 19.4 3.2
-3 3 7 27.2 3.1
-3 3 7 26.6 3.8
-3 3 7 30.5 3.4
2 -3 -7 3.8 2
2 -3 -7 1.7 1.8
2 -3 -7 2.6 1.6
2 -3 -7 3.6 1.8
-2 3 7 5.1 1.9
-2 3 7 1.1 1.8
-2 3 7 6.3 1.6
1 -3 -7 183.48 9.7
1 -3 -7 169.68 8
1 -3 -7 168.38 8.4
1 -3 -7 171.28 9.6
1 -3 -7 175.38 7.9
-1 3 7 165.58 8.6
-1 3 7 166.48 9.2
-1 3 7 177.18 8.9
0 -3 -7 17.2 2.8
0 -3 -7 15.6 2.7
0 -3 -7 10 2
0 -3 -7 16.6 2.2
0 -3 -7 13.3 2.1
0 3 7 16.2 2.5
0 3 7 16.2 2.5
0 3 7 17.4 2.1
-1 -3 -7 -0.4 1.6
-1 -3 -7 0.8 1.8
-1 -3 -7 4.7 1.5
-1 -3 -7 2.7 1.6
-1 -3 -7 2.8 1.5
1 3 7 3.2 0.8
1 3 7 2.8 1.2
1 3 7 3 1.5
-2 -3 -7 110.19 6.2
-2 -3 -7 103.29 5.7
-2 -3 -7 109.49 5.9
-2 -3 -7 106.59 6.7
2 3 7 108.89 5.6
2 3 7 114.19 6.4
2 3 7 114.19 6.9
-3 -3 -7 0.4 1.3
-3 -3 -7 0.5 1.4
-3 -3 -7 -0.6 1.2
-3 -3 -7 -0.3 1.4
3 3 7 0.1 1.2
3 3 7 2.1 1.3
3 3 7 -0.7 1.3
3 3 7 -0.2 1.6
-4 -3 -7 4.6 1.9
-4 -3 -7 9.2 1.8
-4 -3 -7 7 1.9
-4 -3 -7 5.9 1.8
-4 -3 -7 7.9 1.5
4 3 7 6 1.7
4 3 7 9.3 2.4
4 3 7 8.9 2.2
4 3 7 6.3 1.9
4 3 7 3.8 2.1
-5 -3 -7 -0.9 1.8
-5 -3 -7 -1.1 1.5
-5 -3 -7 -0.3 1.3
-5 -3 -7 -0.1 1.8
5 3 7 -2.8 1.8
5 3 7 2.4 1.8
5 3 7 0.3 1.6
5 3 7 1.7 2.9
5 3 7 -0.7 1.7
-6 -3 -7 38.6 3.7
-6 -3 -7 40.8 4.4
-6 -3 -7 40.5 3.7
6 3 7 43.3 4.6
6 3 7 36.9 4.9
6 3 7 31.8 3.9
6 3 7 38.7 4.1
-7 -3 -7 10.5 2.6
-7 -3 -7 9.6 3
-7 -3 -7 11.7 2.6
7 3 7 9.6 2.7
7 3 7 11.1 3.1
7 3 7 9.4 3.5
-8 -3 -7 56.39 5.5
-8 -3 -7 70.69 6.8
8 3 7 55.79 6
8 3 7 62.09 6.6
8 3 7 55.99 6.4
-9 -3 -7 2 2.7
-9 -3 -7 1.7 3.8
9 3 7 3.5 3.4
9 3 7 4.7 3.9
9 3 7 -1.3 2.9
5 -4 -7 37.9 4.8
-5 4 7 42 6.1
-5 4 7 46.6 5
4 -4 -7 5 2.8
-4 4 7 0 3.1
-4 4 7 1.7 2.6
-4 4 7 3.2 3.2
3 -4 -7 12.6 2.9
3 -4 -7 16.8 2.9
3 -4 -7 18.3 2.4
-3 4 7 20.2 3.2
-3 4 7 19 3.6
-3 4 7 16.3 2.7
2 -4 -7 0.6 1.8
2 -4 -7 0.1 1.9
2 -4 -7 0.2 1.5
2 -4 -7 -2.6 1.9
-2 4 7 1.1 2
-2 4 7 -0.5 1.8
1 -4 -7 336.17 17.2
1 -4 -7 328.77 17.1
1 -4 -7 344.77 14.2
1 -4 -7 356.16 14.4
1 -4 -7 336.87 15
-1 4 7 343.47 16
-1 4 7 343.27 16.8
-1 4 7 356.46 15.4
0 -4 -7 144.39 7.5
0 -4 -7 135.69 8.4
0 -4 -7 147.69 7.1
0 -4 -7 143.59 8.7
0 -4 -7 136.59 7
0 4 7 148.29 7.1
0 4 7 149.09 7.8
-1 -4 -7 41.2 3.7
-1 -4 -7 41.2 3.6
-1 -4 -7 47.3 3.9
-1 -4 -7 47.7 4.4
-1 -4 -7 49.5 4.1
1 4 7 43 4.1
1 4 7 41.8 3.2
1 4 7 39.1 4
-2 -4 -7 134.09 6.8
-2 -4 -7 132.29 8
-2 -4 -7 133.19 7
-2 -4 -7 137.39 7.4
2 4 7 140.09 6.5
2 4 7 128.89 6.1
2 4 7 130.79 7.4
-3 -4 -7 10.2 2.2
-3 -4 -7 14.1 2.4
-3 -4 -7 16.9 2.3
-3 -4 -7 11.1 2.6
3 4 7 12.2 2.2
3 4 7 12.5 1.9
3 4 7 14.8 2.8
3 4 7 11.6 2.5
-4 -4 -7 173.38 8.3
-4 -4 -7 170.08 8.8
-4 -4 -7 181.68 9.2
-4 -4 -7 184.58 10.2
4 4 7 180.08 9
4 4 7 172.18 8.4
4 4 7 177.38 10.3
4 4 7 167.78 9.2
-5 -4 -7 6.1 1.9
-5 -4 -7 4.8 2.2
-5 -4 -7 7.2 2.1
-5 -4 -7 0.1 2.1
-5 -4 -7 4.6 1.5
5 4 7 4.5 2.3
5 4 7 1.7 1.7
5 4 7 5.2 2.4
5 4 7 5.4 2.4
5 4 7 -0.9 3.3
-6 -4 -7 28 3.6
-6 -4 -7 18.6 3.5
-6 -4 -7 23.4 2.8
-6 -4 -7 20.3 2.9
6 4 7 18.4 3.1
6 4 7 20.4 3.7
6 4 7 20.6 3.6
6 4 7 21.9 3.8
-7 -4 -7 -0.6 2.8
-7 -4 -7 1.6 1.8
-7 -4 -7 -0.9 1.9
7 4 7 1.7 2.4
7 4 7 -0.6 2.5
7 4 7 0.2 2.2
7 4 7 2.5 2.6
-8 -4 -7 16.6 3.2
-8 -4 -7 15.9 4
8 4 7 18 3.5
8 4 7 10.8 3.8
8 4 7 4.5 3.7
-9 -4 -7 5.6 4.3
-9 -4 -7 8 3.3
9 4 7 10.6 3.4
9 4 7 2.7 3.4
9 4 7 8.9 4.8
5 -5 -7 5.3 3.2
-5 5 7 14.6 3.8
-5 5 7 8.3 5.1
4 -5 -7 0.5 2.6
-4 5 7 -3.3 2.9
-4 5 7 -3.7 3.4
3 -5 -7 38.8 3.8
3 -5 -7 38.4 3.8
3 -5 -7 31.3 4.2
-3 5 7 39.4 5.3
-3 5 7 54.19 5.3
2 -5 -7 3.9 2.2
2 -5 -7 5.7 2.1
2 -5 -7 1.5 2.4
-2 5 7 0.9 2.3
-2 5 7 4.7 2.2
1 -5 -7 15.7 2.9
1 -5 -7 15.1 2.6
1 -5 -7 16.1 2.6
1 -5 -7 14.3 2.4
-1 5 7 15.7 3.2
-1 5 7 18.7 2.9
0 -5 -7 41.8 4.3
0 -5 -7 44.2 4.1
0 -5 -7 44.3 4.5
0 -5 -7 44.1 5
0 -5 -7 50.39 4.1
0 5 7 42.8 4.6
0 5 7 40.5 4.5
-1 -5 -7 26 3.7
-1 -5 -7 32.9 3.3
-1 -5 -7 37.1 4.2
-1 -5 -7 30.4 3.2
-1 -5 -7 27.9 3.4
1 5 7 24.5 3.4
1 5 7 24 2.7
1 5 7 29.3 3.7
-2 -5 -7 277.17 11.8
-2 -5 -7 272.57 14.3
-2 -5 -7 288.87 12.8
-2 -5 -7 278.87 14.5
-2 -5 -7 273.17 12.2
2 5 7 251.67 11.1
2 5 7 269.77 12.9
2 5 7 265.97 11.4
-3 -5 -7 4.5 1.9
-3 -5 -7 4.8 1.8
-3 -5 -7 1.8 1.9
-3 -5 -7 5.6 2.4
3 5 7 6.8 1.7
3 5 7 2.5 2.2
3 5 7 4.5 2
3 5 7 5.6 1.9
-4 -5 -7 61.29 5.7
-4 -5 -7 70.59 5.2
-4 -5 -7 71.69 5.6
-4 -5 -7 70.19 4.8
4 5 7 71.09 4.6
4 5 7 64.79 5.8
4 5 7 68.59 5.6
4 5 7 67.89 5.4
-5 -5 -7 78.59 5.8
-5 -5 -7 77.39 5.3
-5 -5 -7 76.49 4.2
-5 -5 -7 76.59 6.5
-5 -5 -7 69.99 6
5 5 7 79.49 5.2
5 5 7 74.49 6
5 5 7 69.99 6.6
5 5 7 75.79 6.1
-6 -5 -7 23.1 3.6
-6 -5 -7 14 3.3
-6 -5 -7 16.6 3.1
-6 -5 -7 15.3 2.3
6 5 7 14.7 2.8
6 5 7 11.2 3.5
6 5 7 16.2 3.8
6 5 7 13.2 3.2
-7 -5 -7 -1.7 2.4
-7 -5 -7 1.4 2.4
-7 -5 -7 0.3 2.9
-7 -5 -7 -0.3 1.9
7 5 7 -0.3 2.2
7 5 7 0.8 2.7
7 5 7 -3.7 2.9
7 5 7 0.9 2.2
-8 -5 -7 0.4 3.4
-8 -5 -7 3 2.5
8 5 7 1.4 3
8 5 7 5.2 2.7
8 5 7 2.8 3.4
-9 -5 -7 2.9 4.1
-9 -5 -7 2.8 2.7
9 5 7 10.5 3.4
9 5 7 10.5 4.9
9 5 7 0.4 3.4
4 -6 -7 6.9 3
-4 6 7 8.5 5.1
3 -6 -7 10.4 2.9
3 -6 -7 5.1 3
-3 6 7 3.9 3.6
-3 6 7 8.2 3.2
2 -6 -7 -0.3 2.5
2 -6 -7 1.1 2.3
2 -6 -7 1.2 2.7
-2 6 7 -0.6 2.7
-2 6 7 0.5 2.6
1 -6 -7 10.4 3.2
1 -6 -7 13.6 3
1 -6 -7 14.3 2.8
-1 6 7 23.2 3.4
-1 6 7 18.4 3.4
0 -6 -7 0.9 1.9
0 -6 -7 1.8 2
0 -6 -7 0.5 2.1
0 -6 -7 -1.3 1.8
0 6 7 -1.3 1.7
0 6 7 -2.8 1.8
-1 -6 -7 105.89 6.3
-1 -6 -7 94.99 7.2
-1 -6 -7 98.99 6.6
-1 -6 -7 111.19 6.5
1 6 7 105.39 5.7
1 6 7 105.29 6.9
-2 -6 -7 26.5 3.4
-2 -6 -7 19.5 3.5
-2 -6 -7 23.8 3.9
-2 -6 -7 29.4 3.5
2 6 7 21.1 3.4
2 6 7 19.1 3.6
2 6 7 22.7 2.4
-3 -6 -7 10.3 2.8
-3 -6 -7 15.4 3.4
-3 -6 -7 15.2 2.7
-3 -6 -7 14.2 2.7
3 6 7 16.4 3.3
3 6 7 12.6 2
3 6 7 15.4 3.4
-4 -6 -7 2.7 2.1
-4 -6 -7 -0.4 2
-4 -6 -7 1.5 2.6
-4 -6 -7 1.2 2.4
4 6 7 0 1.7
4 6 7 0.4 2.2
4 6 7 -0.2 1.4
4 6 7 1.4 2.5
-5 -6 -7 15.3 3
-5 -6 -7 18.7 3.7
-5 -6 -7 14.4 3.2
-5 -6 -7 18.1 3.2
5 6 7 13.3 3.2
5 6 7 17.2 3.7
5 6 7 18.1 3.5
5 6 7 15.3 2.6
-6 -6 -7 11.2 3
-6 -6 -7 8.4 1.9
-6 -6 -7 9 3.1
-6 -6 -7 13.3 3
6 6 7 8.1 3.4
6 6 7 8.7 2.7
6 6 7 11.8 3.6
6 6 7 9.3 3.1
-7 -6 -7 3.4 2.1
-7 -6 -7 2.5 2.8
-7 -6 -7 7 3.1
-7 -6 -7 3.8 3.5
7 6 7 3.4 2.9
7 6 7 4.3 3.5
7 6 7 0.4 3.2
7 6 7 9.3 2.7
-8 -6 -7 11.8 3.7
-8 -6 -7 0.9 3.7
-8 -6 -7 4.3 3.1
-8 -6 -7 4.5 2.5
8 6 7 2.5 3.2
8 6 7 6.2 3
8 6 7 6.3 3.6
8 6 7 6.1 4.1
-9 -6 -7 11.9 3.5
-9 -6 -7 14.1 5.4
9 6 7 15.6 5.2
9 6 7 10.3 4.7
9 6 7 21.1 4.4
3 -7 -7 13.8 3.4
-3 7 7 5.8 3.6
-3 7 7 13.3 4.9
2 -7 -7 -2.4 2.8
2 -7 -7 -2.2 2.8
-2 7 7 4.1 3.9
-2 7 7 -2.4 2.8
1 -7 -7 42.9 4.2
1 -7 -7 37.1 4.4
1 -7 -7 32 4.6
-1 7 7 44.3 5.7
0 -7 -7 1 2.5
0 -7 -7 2.1 2.5
0 -7 -7 -1.8 2.4
0 7 7 3.7 2.9
0 7 7 1.9 2.7
-1 -7 -7 -1.8 2
-1 -7 -7 3.9 2.5
-1 -7 -7 1.9 2.3
-1 -7 -7 -2.2 2.2
1 7 7 -0.2 2.3
1 7 7 -1.5 2.2
-2 -7 -7 7.9 2.7
-2 -7 -7 5.9 2.7
-2 -7 -7 12.8 3.5
-2 -7 -7 7.4 2.6
2 7 7 5.6 1.8
2 7 7 8 2.9
2 7 7 54.59 183.58
-3 -7 -7 9.5 2.5
-3 -7 -7 4.7 2.4
-3 -7 -7 3.8 3
-3 -7 -7 3.8 2.8
3 7 7 3.9 1.6
3 7 7 4.8 2.8
-4 -7 -7 48.4 5.2
-4 -7 -7 47 4.9
-4 -7 -7 48.6 4.9
-4 -7 -7 52.99 6.1
4 7 7 55.19 3.9
4 7 7 55.99 5.6
4 7 7 45.3 5
-5 -7 -7 42.2 4.6
-5 -7 -7 36.3 5
-5 -7 -7 35.8 4.4
-5 -7 -7 35.5 4.9
5 7 7 37.4 4.9
5 7 7 34.7 3.4
5 7 7 35.8 5.6
5 7 7 36.2 4.6
-6 -7 -7 3.4 3.1
-6 -7 -7 1.3 2.6
-6 -7 -7 2.8 2.7
6 7 7 -2.9 2.3
6 7 7 0.2 2
6 7 7 0.1 2.7
6 7 7 0.7 2.9
-7 -7 -7 11.6 4.3
-7 -7 -7 20.7 4.1
-7 -7 -7 18.2 4.1
7 7 7 17 4.4
7 7 7 11.3 3
7 7 7 13.9 3.7
7 7 7 14.3 4.2
-8 -7 -7 -2.4 3.9
-8 -7 -7 -3.3 3.3
-8 -7 -7 1 3.3
8 7 7 -0.4 3.7
8 7 7 4.5 3.2
8 7 7 4.7 2.8
8 7 7 0.1 4.1
-9 -7 -7 -2.6 4.5
-9 -7 -7 4.2 4.2
9 7 7 1.1 3.4
9 7 7 -1.1 4.3
9 7 7 -4.1 4.3
2 -8 -7 24.3 4.5
2 -8 -7 23.4 4.5
-2 8 7 29.2 5.5
-2 8 7 30.7 4.7
1 -8 -7 17.4 4
1 -8 -7 22.3 4.1
1 -8 -7 17.4 3.5
-1 8 7 30.7 5.2
0 -8 -7 0.1 3
0 -8 -7 5.8 3.3
0 -8 -7 6.4 3
0 8 7 3.3 3.2
0 8 7 12.6 4.2
-1 -8 -7 33.1 4.6
-1 -8 -7 32.6 4.2
-1 -8 -7 37.1 4.8
1 8 7 28.8 4.5
1 8 7 34.9 5.1
-2 -8 -7 -3.4 2.8
-2 -8 -7 -0.7 2.8
-2 -8 -7 -0.1 2.5
-2 -8 -7 -2.8 2.6
2 8 7 -2.9 2.3
-3 -8 -7 3.4 2.6
-3 -8 -7 2.3 2.5
-3 -8 -7 3.4 3.1
-3 -8 -7 4.2 3.1
3 8 7 -49.2 193.38
3 8 7 1.4 2.9
-4 -8 -7 10.8 3
-4 -8 -7 6.3 3
-4 -8 -7 12.3 4
-4 -8 -7 5.9 3.1
4 8 7 7.8 3
-5 -8 -7 8.4 3.9
-5 -8 -7 4.4 3.2
-5 -8 -7 5 3.7
-5 -8 -7 8.6 3.1
5 8 7 10.6 3.6
5 8 7 6.1 3.3
-6 -8 -7 1.5 3
-6 -8 -7 -2.6 2.9
-6 -8 -7 1.9 3.6
6 8 7 -0.2 2.9
6 8 7 -0.1 3.2
-7 -8 -7 10.5 4.4
-7 -8 -7 21.6 4.4
-7 -8 -7 10.3 4.2
7 8 7 12.7 4.2
7 8 7 8.2 3.7
-8 -8 -7 2.5 4.7
-8 -8 -7 1.1 4
-8 -8 -7 -0.4 4.1
8 8 7 -5.6 4.3
8 8 7 5.4 3.3
1 -9 -7 -0.2 3.6
1 -9 -7 -1.1 3.9
-1 9 7 3.6 4.5
0 -9 -7 2.8 3.4
0 -9 -7 10 4.1
0 -9 -7 2.5 3.6
0 9 7 7 4.1
0 9 7 6.7 4.5
-1 -9 -7 13.6 4.2
-1 -9 -7 17.4 3.8
-1 -9 -7 15.8 4.1
1 9 7 19.7 4.8
1 9 7 13.4 4.1
-2 -9 -7 8 3.9
-2 -9 -7 11.5 3.7
-2 -9 -7 7.2 4.1
2 9 7 18 4.3
2 9 7 10.9 3.8
-3 -9 -7 11.3 3.2
-3 -9 -7 19.4 4.7
-3 -9 -7 14.8 4
3 9 7 22.5 4.6
3 9 7 -306.97 216.18
-4 -9 -7 12.9 3.7
-4 -9 -7 9.2 3.6
-4 -9 -7 7.6 4.1
-4 -9 -7 14.8 4.1
4 9 7 19.4 4.2
-5 -9 -7 3.9 4
-5 -9 -7 11.4 3.5
-5 -9 -7 6.8 3.5
-5 -9 -7 2.1 4
5 9 7 7.3 3.7
5 9 7 5.6 3.5
-6 -9 -7 4.3 3.5
-6 -9 -7 2.7 3.7
-6 -9 -7 7.2 3.9
6 9 7 5.5 3.7
6 9 7 6.1 4.1
-7 -9 -7 26.5 5.5
-7 -9 -7 35.5 5.2
-7 -9 -7 34.4 5.7
7 9 7 42 6.5
7 9 7 26.8 4.8
-8 -9 -7 -4.7 4.1
-8 -9 -7 -3.2 4.2
-8 -9 -7 -3.1 4.8
8 9 7 7.6 4.9
8 9 7 -5.9 3.3
-1 -10 -7 -3.3 4.1
-1 -10 -7 1.4 3.4
-1 -10 -7 -5.4 3.8
1 10 7 1.4 4.7
1 10 7 0.6 4
-2 -10 -7 -10.4 3.7
-2 -10 -7 -0.9 4.1
-2 -10 -7 1.5 3.5
2 10 7 -3.7 3.7
2 10 7 -2.4 3.8
-3 -10 -7 10.8 3.8
-3 -10 -7 14.4 4.6
-3 -10 -7 12 5.2
3 10 7 12.4 4.3
3 10 7 14.7 4.4
-4 -10 -7 9.8 4.8
-4 -10 -7 0.8 3.8
-4 -10 -7 -1.4 3.5
4 10 7 87.59 285.57
4 10 7 1.5 3.8
-5 -10 -7 24.9 4.7
-5 -10 -7 15 5.4
-5 -10 -7 14.9 5.2
-5 -10 -7 22.9 4.7
5 10 7 12.5 4.5
-6 -10 -7 -3.3 3.9
-6 -10 -7 6.1 5
-6 -10 -7 3.3 4
6 10 7 -1.1 4.1
6 10 7 3.5 4.1
-7 -10 -7 1.7 4.9
5 8 -8 110.19 233.98
4 8 -8 74.09 238.08
3 8 -8 97.49 216.58
3 8 -8 15.7 4.9
-3 -8 8 1.7 5.3
-3 -8 8 15.8 4.5
-3 -8 8 11 3.8
-3 -8 8 7.5 4.1
2 8 -8 88.09 231.78
1 8 -8 311.77 266.67
0 8 -8 -180.08 192.78
0 8 -8 0.7 3.8
0 -8 8 -1.4 3.5
0 -8 8 -5 4.3
0 -8 8 0.9 3.6
0 -8 8 -0.9 3.5
-1 8 -8 9.4 4.8
-1 8 -8 -68.39 212.78
1 -8 8 8.7 4.2
1 -8 8 15.4 4.1
1 -8 8 -2.7 4.2
1 -8 8 11.4 4.6
6 7 -8 -432.06 234.88
6 7 -8 -2.3 4.5
-6 -7 8 1.6 5.3
-6 -7 8 -0.5 4.2
-6 -7 8 12.9 4.8
5 7 -8 31.8 5.8
5 7 -8 108.29 263.97
-5 -7 8 29.9 5.5
-5 -7 8 14.7 5.4
-5 -7 8 27.1 4.9
4 7 -8 7 4.2
4 7 -8 -56.99 202.58
-4 -7 8 5.7 3.8
-4 -7 8 8.9 4.1
-4 -7 8 6.4 4.7
3 7 -8 209.08 221.38
3 7 -8 40.1 5.7
-3 -7 8 30.5 4.8
-3 -7 8 31.5 4.7
-3 -7 8 25.9 5.4
-3 -7 8 32.8 6.2
-3 -7 8 35.7 4.2
2 7 -8 22.6 4.7
2 7 -8 125.49 227.58
2 7 -8 21.6 4.4
-2 -7 8 22.9 4.3
-2 -7 8 19 5.3
-2 -7 8 22.9 4
-2 -7 8 20.6 4
-2 -7 8 25.7 4.8
1 7 -8 165.68 215.88
1 7 -8 24.2 4.4
-1 -7 8 12.8 4.5
-1 -7 8 22 3.9
-1 -7 8 19 3.9
-1 -7 8 22.8 4.2
0 7 -8 131.69 214.18
0 7 -8 15.4 4.1
0 -7 8 13.4 3.6
0 -7 8 7.2 3.9
0 -7 8 13.5 3.6
0 -7 8 6.2 3.4
-1 7 -8 13.1 3.9
-1 7 -8 -124.69 172.68
1 -7 8 14.9 4.4
1 -7 8 11.7 4.2
1 -7 8 16.3 3.6
1 -7 8 12.2 3.8
-2 7 -8 4.8 3.8
-2 7 -8 50.09 238.08
2 -7 8 1.2 3.6
2 -7 8 -0.2 3.8
2 -7 8 9.3 3.4
2 -7 8 3.7 4.1
-3 7 -8 147.29 264.17
6 6 -8 -1.7 4
6 6 -8 -297.27 217.18
-6 -6 8 -0.9 4.1
-6 -6 8 -0.2 4.8
-6 -6 8 5.1 3.4
5 6 -8 50.79 226.18
5 6 -8 3.1 3.1
5 6 -8 0.8 3.3
-5 -6 8 1.5 4.3
-5 -6 8 4.3 3.2
-5 -6 8 0.7 3.2
4 6 -8 3.6 3.5
4 6 -8 11 3.7
4 6 -8 81.29 203.48
-4 -6 8 5.7 3.5
-4 -6 8 -0.7 2.9
-4 -6 8 2.7 3.9
3 6 -8 24.2 185.48
3 6 -8 39.8 5.4
3 6 -8 35.5 5
-3 -6 8 34.8 4.6
-3 -6 8 28.6 5.1
-3 -6 8 45.9 5.1
-3 -6 8 41.3 5.8
-3 -6 8 39.9 4
2 6 -8 -138.39 161.88
2 6 -8 -4.4 2.8
2 6 -8 3.5 3.1
-2 -6 8 1 3.3
-2 -6 8 1.2 3.4
-2 -6 8 0.5 2.5
-2 -6 8 -0.5 2.5
1 6 -8 248.68 201.48
1 6 -8 114.89 7.8
1 6 -8 126.19 8.3
-1 -6 8 109.39 6.6
-1 -6 8 113.89 7.4
-1 -6 8 117.39 8.9
-1 -6 8 114.99 7.7
-1 -6 8 113.39 8.3
0 6 -8 63.99 6.2
0 6 -8 -94.09 186.88
0 -6 8 64.19 5.9
0 -6 8 59.69 6.5
0 -6 8 64.99 5.8
0 -6 8 51.79 4.7
-1 6 -8 143.99 184.98
-2 6 -8 55.59 194.38
-3 6 -8 81.09 217.58
-3 6 -8 38.2 4.9
3 -6 8 27.4 3.9
3 -6 8 29.3 4.7
3 -6 8 24.6 4.3
-4 6 -8 256.67 221.48
7 5 -8 103.39 251.47
6 5 -8 -65.49 220.68
6 5 -8 3 3.6
6 5 -8 7.4 5.1
6 5 -8 4.5 3.5
6 5 -8 0.9 3.4
-6 -5 8 3.7 3.7
-6 -5 8 12.4 3.7
-6 -5 8 5.5 4.4
5 5 -8 4.5 2.9
5 5 -8 -0.1 4.1
5 5 -8 -131.89 206.68
5 5 -8 6.1 3.3
5 5 -8 5.7 3.5
-5 -5 8 6.7 3.2
-5 -5 8 3.8 3.8
-5 -5 8 1.6 3.3
4 5 -8 13.8 3.3
4 5 -8 10 191.58
4 5 -8 18.6 3
4 5 -8 15.5 3.9
4 5 -8 1.1 4.4
-4 -5 8 24.5 3.6
-4 -5 8 19.8 4.4
3 5 -8 2.1 3
3 5 -8 -64.69 153.88
3 5 -8 5.9 2.8
-3 -5 8 9.5 2.8
-3 -5 8 5.6 3.1
-3 -5 8 8.1 3.2
-3 -5 8 4.8 1.9
2 5 -8 140.49 179.08
2 5 -8 11.6 3.1
2 5 -8 18.8 3.8
-2 -5 8 13.2 2.9
-2 -5 8 17.7 3.8
-2 -5 8 14.6 3.7
-2 -5 8 15.9 2.8
-2 -5 8 9.7 2.4
1 5 -8 -61.59 171.58
0 5 -8 -202.88 148.59
0 5 -8 13 3.3
0 5 -8 12 3
0 -5 8 11.9 2.5
0 -5 8 14.1 3.3
0 -5 8 11.9 3.2
0 -5 8 7.6 2.7
-1 5 -8 44.5 4.7
-1 5 -8 47.9 158.88
1 -5 8 41.7 4.7
1 -5 8 44.9 4.3
1 -5 8 42.1 5
-2 5 -8 -106.89 164.78
2 -5 8 12.3 2.7
2 -5 8 12.5 3.2
2 -5 8 11.1 3
-3 5 -8 10.7 3.2
-3 5 -8 -145.19 174.58
3 -5 8 8.3 3.1
3 -5 8 16 3.6
3 -5 8 8 3
-4 5 -8 12.2 3.5
-4 5 -8 -46.8 189.58
4 -5 8 7.5 2.9
4 -5 8 5.4 3.2
4 -5 8 12.3 3.6
-5 5 -8 -53.39 247.38
5 -5 8 9.8 3.5
5 -5 8 13 4.1
7 4 -8 -2.6 3.8
7 4 -8 -2.6 5.1
-7 -4 8 1.4 4.1
-7 -4 8 3.2 4.5
6 4 -8 -0.8 4.4
6 4 -8 3 3.3
6 4 -8 8.5 3.8
6 4 -8 -2.5 3.3
6 4 -8 76.99 225.88
-6 -4 8 3.9 4.1
-6 -4 8 7.1 3.7
-6 -4 8 3.7 3.4
5 4 -8 115.39 7.8
5 4 -8 108.59 8.3
5 4 -8 187.68 212.58
5 4 -8 100.99 7.2
-5 -4 8 116.19 9.1
-5 -4 8 113.39 7.9
4 4 -8 3.7 2.5
4 4 -8 1.5 3
4 4 -8 -31.3 173.98
4 4 -8 0.3 3.3
4 4 -8 6 2.4
-4 -4 8 6.4 2.4
-4 -4 8 3.1 3.5
3 4 -8 -9.5 149.19
3 4 -8 9.2 3.6
3 4 -8 7.3 3
3 4 -8 3.3 2.6
-3 -4 8 7 1.9
-3 -4 8 8 3
-3 -4 8 7.4 3.4
-3 -4 8 5.8 2.4
2 4 -8 78.49 149.99
1 4 -8 -41.2 151.78
1 4 -8 206.38 9.7
1 4 -8 168.78 11
1 4 -8 189.08 10.2
-1 -4 8 195.88 10.7
-1 -4 8 198.68 9.4
-1 -4 8 208.48 11.5
-1 -4 8 205.98 10
0 4 -8 -55.09 144.29
0 4 -8 9.7 2.7
0 4 -8 14.5 3
0 -4 8 13 3.2
0 -4 8 12.4 2.6
-1 4 -8 122.89 6.9
-1 4 -8 123.89 7.4
-1 4 -8 19.5 140.59
1 -4 8 119.29 7.5
1 -4 8 122.59 8
1 -4 8 123.69 7.3
1 -4 8 132.79 6.8
-2 4 -8 -42.9 150.98
-2 4 -8 5.3 2.5
2 -4 8 11.6 2.4
2 -4 8 9.1 2.7
2 -4 8 7.3 2.9
-3 4 -8 -81.19 167.58
-4 4 -8 -3.4 2.6
-4 4 -8 -110.49 172.78
4 -4 8 1 2.4
4 -4 8 1.6 2.2
4 -4 8 -0.9 2.4
-5 4 -8 -26.4 193.78
-5 4 -8 7.5 3
5 -4 8 5.9 3.1
5 -4 8 7.3 3.2
5 -4 8 5.3 2.6
-6 4 -8 195.78 257.57
7 3 -8 7.4 3.8
7 3 -8 2.5 3.7
7 3 -8 0.5 5
-7 -3 8 6.2 4.8
6 3 -8 6.9 3.4
6 3 -8 5.6 3.3
6 3 -8 -0.1 4
6 3 -8 9.6 3.5
-6 -3 8 10 4.2
-6 -3 8 10 3.6
-6 -3 8 6.3 3.2
5 3 -8 5.5 2.9
5 3 -8 0.4 2.7
5 3 -8 3 3.7
5 3 -8 8.3 3.1
-5 -3 8 5.8 2.9
-5 -3 8 3.2 3.6
4 3 -8 -49.5 184.08
4 3 -8 29.6 4
4 3 -8 33.3 4.8
4 3 -8 30.8 4.4
4 3 -8 24.5 3.4
-4 -3 8 29.8 3.8
-4 -3 8 23.8 4.4
3 3 -8 215.08 10
3 3 -8 213.88 10.5
3 3 -8 230.88 11.6
3 3 -8 0 170.78
3 3 -8 207.78 12.6
-3 -3 8 216.28 12.3
-3 -3 8 222.68 11.8
-3 -3 8 224.68 10.7
2 3 -8 40.8 4.5
2 3 -8 36.2 4.8
2 3 -8 45.1 4.4
2 3 -8 40.8 134.39
-2 -3 8 40.9 4.6
-2 -3 8 52.99 4.1
-2 -3 8 49 4.2
-2 -3 8 45.2 5
1 3 -8 75.39 143.49
0 3 -8 419.76 18.7
0 3 -8 380.56 20.9
0 3 -8 454.25 17.6
0 3 -8 163.78 153.58
0 -3 8 408.96 21
0 -3 8 436.76 19
0 -3 8 438.36 17.5
0 -3 8 448.26 18.5
0 -3 8 434.46 21.1
-1 3 -8 42.7 4
-1 3 -8 48.2 4.4
-1 3 -8 -19.1 141.19
1 -3 8 52.19 4
1 -3 8 44.7 4.1
1 -3 8 44.4 4.7
1 -3 8 48.9 4.5
1 -3 8 43.7 4.7
-2 3 -8 3.1 2.1
-2 3 -8 71.69 167.28
-2 3 -8 0.1 2
2 -3 8 4.9 2.3
2 -3 8 3.7 1.9
2 -3 8 6.4 2
2 -3 8 1.7 2.2
-3 3 -8 1.9 153.28
-3 3 -8 19.7 3
3 -3 8 16.3 2.8
3 -3 8 14.6 2.7
3 -3 8 17.1 2.9
-4 3 -8 3.9 2.3
-4 3 -8 -39.2 170.88
4 -3 8 0 2.3
4 -3 8 4.3 2.2
4 -3 8 1 2.4
-5 3 -8 56.49 5.1
-5 3 -8 -17.3 205.68
5 -3 8 53.69 5.6
5 -3 8 45.2 5.2
5 -3 8 51.19 4.7
-6 3 -8 -129.19 218.68
6 -3 8 2.6 3.4
6 -3 8 5.7 2.5
6 -3 8 7.7 3.5
7 2 -8 -0.1 3.6
7 2 -8 10.4 4
7 2 -8 -5.7 4.2
-7 -2 8 10.5 4.9
-7 -2 8 2.3 4
6 2 -8 16.1 3.8
6 2 -8 22.9 3.9
6 2 -8 15 4.5
-6 -2 8 20.3 4.9
5 2 -8 19.8 3.8
5 2 -8 21.2 3.9
5 2 -8 22 4.4
5 2 -8 24.9 3.7
-5 -2 8 23.1 4
-5 -2 8 28.8 5
4 2 -8 92.79 6
4 2 -8 86.89 7.4
4 2 -8 101.29 7
4 2 -8 96.09 6.3
-4 -2 8 91.99 5.7
-4 -2 8 88.39 6.3
-4 -2 8 80.49 7
3 2 -8 252.37 14.4
3 2 -8 258.47 11.6
3 2 -8 259.37 11.9
3 2 -8 -43 157.18
3 2 -8 283.37 12.9
-3 -2 8 258.17 11.6
-3 -2 8 257.67 13.9
-3 -2 8 253.27 12
-3 -2 8 254.27 13.1
2 2 -8 76.49 5.5
2 2 -8 71.79 4.4
2 2 -8 104.09 136.49
2 2 -8 79.89 5.1
2 2 -8 63.99 5.8
-2 -2 8 73.39 4.7
-2 -2 8 73.19 5.5
-2 -2 8 68.29 4.9
-2 -2 8 82.49 6.1
-2 -2 8 74.19 4.2
1 2 -8 29.9 3.6
1 2 -8 115.79 134.29
1 2 -8 35.9 4.2
1 2 -8 38.5 3.7
-1 -2 8 38.4 3.3
-1 -2 8 32.3 3.3
-1 -2 8 34.8 4.1
-1 -2 8 31.5 3.8
0 2 -8 36.6 4.2
0 2 -8 0.6 115.39
0 2 -8 53.89 4.3
0 2 -8 50.49 4.1
0 -2 8 46.7 4.5
0 -2 8 43.4 3.6
0 -2 8 53.69 4.5
0 -2 8 49.7 3.8
0 -2 8 52.49 4.7
-1 2 -8 -116.89 118.79
-2 2 -8 -33.1 124.99
-2 2 -8 103.89 6.9
-2 2 -8 110.99 5.9
-2 2 -8 114.59 6.4
2 -2 8 113.79 7.1
2 -2 8 108.89 6.6
2 -2 8 112.89 6.2
2 -2 8 111.49 6.3
2 -2 8 108.49 7.3
-3 2 -8 23.5 142.89
-3 2 -8 2.2 1.8
-3 2 -8 1.6 1.9
3 -2 8 1 1.7
3 -2 8 -0.8 1.8
3 -2 8 1.2 2.3
3 -2 8 0.5 1.9
3 -2 8 1.7 1.8
-4 2 -8 56.39 4.6
-4 2 -8 105.39 181.68
4 -2 8 55.19 5
4 -2 8 50.69 4.9
4 -2 8 52.89 4.7
-5 2 -8 61.09 4.9
-5 2 -8 -51.19 173.28
5 -2 8 50.99 4.8
5 -2 8 56.79 5.4
5 -2 8 54.69 5.4
-6 2 -8 -3.1 2.5
-6 2 -8 -113.69 191.48
6 -2 8 -1.1 2.2
6 -2 8 -2.6 2.7
6 -2 8 1.8 2.8
-7 2 -8 25.9 227.38
7 -2 8 2.9 3.3
7 -2 8 4.7 3.3
7 -2 8 5 2.7
7 1 -8 0.4 3.9
7 1 -8 -4.4 3.6
7 1 -8 1 3.6
-7 -1 8 -4.7 3.9
-7 -1 8 0.5 4.1
6 1 -8 3.8 3.6
6 1 -8 6.8 2.9
6 1 -8 6 3.6
-6 -1 8 -0.3 3.5
-6 -1 8 5.8 3.6
5 1 -8 29.5 4.1
5 1 -8 31.3 4.8
5 1 -8 28.1 4.1
5 1 -8 20.3 3.7
-5 -1 8 34.9 5.1
-5 -1 8 35.7 4.2
4 1 -8 23.1 3.3
4 1 -8 16 3.4
4 1 -8 18.7 3.1
4 1 -8 21.7 3.9
-4 -1 8 21.8 3.9
-4 -1 8 20.4 3.1
-4 -1 8 19.6 3
3 1 -8 131.09 8.7
3 1 -8 137.89 7.1
3 1 -8 136.49 7.8
3 1 -8 138.19 7.3
-3 -1 8 130.79 7.1
-3 -1 8 125.69 8.3
-3 -1 8 138.19 8.1
-3 -1 8 122.19 7.1
2 1 -8 44.3 4.2
2 1 -8 46.7 4.5
2 1 -8 45 4.7
-2 -1 8 51.09 3.5
-2 -1 8 54.29 4.6
-2 -1 8 45.7 4.9
-2 -1 8 50.19 4
-2 -1 8 54.29 3.9
1 1 -8 40.9 3.6
1 1 -8 10.9 114.79
1 1 -8 41.9 3.9
1 1 -8 35.7 4
-1 -1 8 38.9 2.9
-1 -1 8 42.2 3.6
-1 -1 8 39.1 3.9
-1 -1 8 40.8 3
-1 -1 8 42.3 4.3
0 1 -8 10.8 2.3
0 1 -8 -108.19 101.99
-1 1 -8 38.6 4
-1 1 -8 -11.5 110.79
-1 1 -8 39.7 3.5
-1 1 -8 43 3.7
1 -1 8 42.1 3.3
1 -1 8 34.3 3.8
1 -1 8 36.7 3.3
1 -1 8 38.6 4
1 -1 8 37.5 4.1
-2 1 -8 498.05 21.3
-2 1 -8 518.85 19.9
-2 1 -8 455.45 23.8
-2 1 -8 238.18 149.69
2 -1 8 534.25 21.1
2 -1 8 520.25 21.3
2 -1 8 483.85 24
2 -1 8 512.95 20.4
2 -1 8 506.45 24
-3 1 -8 55.49 4.2
-3 1 -8 173.58 158.58
-3 1 -8 59.59 4.9
-3 1 -8 62.69 4.5
3 -1 8 61.69 4.7
3 -1 8 58.69 4.5
3 -1 8 58.49 4.8
3 -1 8 55.49 4.9
3 -1 8 60.69 4.5
-4 1 -8 17.7 2.6
-4 1 -8 19.6 2.9
-4 1 -8 -29.7 146.09
4 -1 8 17.6 2.8
4 -1 8 15.2 2.7
4 -1 8 17.6 2.9
4 -1 8 21.1 2.7
-5 1 -8 -111.99 177.88
-6 1 -8 119.39 202.68
-7 1 -8 45.4 212.38
-7 1 -8 12.9 3.1
7 -1 8 7.8 3
7 -1 8 12.8 3.7
7 -1 8 8 3.4
-8 1 -8 162.18 254.77
7 0 -8 -0.8 3.5
7 0 -8 -0.2 3.7
7 0 -8 -0.7 3.8
-7 0 8 3 4.2
-7 0 8 -1.2 3.9
6 0 -8 -1.8 3.3
6 0 -8 2.5 3.3
6 0 -8 -1.5 2.8
-6 0 8 1.6 3.6
-6 0 8 -0.6 3.3
-6 0 8 1.6 3
5 0 -8 6.2 3.1
5 0 -8 3.6 2.8
5 0 -8 2.4 2.7
-5 0 8 3.4 2.7
-5 0 8 -0.4 2.8
-5 0 8 1.5 3
4 0 -8 87.09 6.1
4 0 -8 84.79 6.3
4 0 -8 86.49 6
4 0 -8 82.69 7
-4 0 8 92.69 6.3
-4 0 8 91.39 7
3 0 -8 65.79 5.3
3 0 -8 68.49 5.9
3 0 -8 59.29 5
-3 0 8 63.79 4.3
-3 0 8 71.49 5.8
-3 0 8 63.69 5
2 0 -8 147.39 7.7
2 0 -8 137.29 8.4
2 0 -8 139.29 7.2
2 0 -8 134.29 8.5
-2 0 8 138.09 8.3
-2 0 8 133.39 7.2
-2 0 8 143.09 8
-2 0 8 140.79 6.8
1 0 -8 19.5 3.2
1 0 -8 19.1 2.7
1 0 -8 21.8 2.8
-1 0 8 22.3 3.1
-1 0 8 20.8 2.2
-1 0 8 22.4 2.4
-1 0 8 23.2 3.2
-1 0 8 19.8 2.6
0 0 -8 18 2.4
0 0 -8 18.9 2.6
0 0 -8 20.2 2.9
0 0 8 18.7 2.4
0 0 8 16.2 2.6
0 0 8 18.6 2.8
0 0 8 16.7 2
-1 0 -8 -0.8 1.4
-1 0 -8 -1.2 1.6
-1 0 -8 -1.3 1.2
-1 0 -8 2.3 97.69
1 0 8 0.9 1.7
1 0 8 -0.9 1
1 0 8 1.5 1.9
1 0 8 2.5 1.4
1 0 8 0.3 1
-2 0 -8 96.89 5.5
-2 0 -8 147.39 141.29
-2 0 -8 104.79 6.4
-2 0 -8 92.69 5.8
2 0 8 96.69 5.4
2 0 8 104.59 6.1
2 0 8 98.89 6.5
2 0 8 106.59 6.5
2 0 8 100.79 5.6
-3 0 -8 0.3 1.7
-3 0 -8 -0.8 1.3
-3 0 -8 -202.18 121.69
-3 0 -8 2.8 1.7
3 0 8 -0.5 1.9
3 0 8 3 2.1
3 0 8 -1.4 2
3 0 8 2.6 1.3
3 0 8 1.3 1.5
3 0 8 2.9 1.6
-4 0 -8 -112.69 154.48
-4 0 -8 1.9 1.7
-4 0 -8 -1.8 1.6
4 0 8 -1.2 1.5
4 0 8 0.3 1.6
4 0 8 -0.8 1.9
4 0 8 0.9 1.5
4 0 8 -1.1 2.1
4 0 8 2.1 1.8
-5 0 -8 0 2
-5 0 -8 -136.19 168.08
-5 0 -8 1.3 1.7
5 0 8 -1.9 1.9
5 0 8 1.5 1.9
5 0 8 -2.1 1.9
5 0 8 -0.7 2.1
5 0 8 -1 2.1
-6 0 -8 120.79 211.18
-7 0 -8 -275.67 192.18
7 0 8 10.4 3.5
7 0 8 6.2 3.2
7 0 8 16.8 3.7
-8 0 -8 -64.79 231.58
-8 0 -8 4.5 3.5
8 0 8 9.3 3.9
8 0 8 -6.2 3.4
6 -1 -8 1.5 3.3
6 -1 -8 7.7 3.7
6 -1 -8 6 3.6
-6 1 8 10 3.8
-6 1 8 13.3 3.8
-6 1 8 7.4 3.8
5 -1 -8 -0.2 2.9
5 -1 -8 -4.2 2.7
5 -1 -8 4.2 2.8
-5 1 8 -2.3 2.9
-5 1 8 -1.2 2.6
-5 1 8 3.9 2.6
4 -1 -8 -0.8 2.1
4 -1 -8 -3.3 2.1
4 -1 -8 1.9 2.7
-4 1 8 -3.2 2.2
-4 1 8 -2.8 2
-4 1 8 -2.8 2.4
3 -1 -8 41.8 4.2
3 -1 -8 41.3 4.4
3 -1 -8 40.4 4.9
-3 1 8 44.3 4.3
-3 1 8 38.6 4.6
2 -1 -8 159.68 8.1
2 -1 -8 143.09 7.5
2 -1 -8 135.99 8.8
2 -1 -8 143.69 8.9
-2 1 8 149.49 7.8
-2 1 8 144.59 6.7
-2 1 8 150.98 8.5
-2 1 8 139.59 8
1 -1 -8 18.1 2.6
1 -1 -8 22 2.2
1 -1 -8 24.3 3.3
1 -1 -8 16.9 2.9
1 -1 -8 21.6 3.2
-1 1 8 21.6 2.7
-1 1 8 26.3 2.9
-1 1 8 18.4 1.9
-1 1 8 22.3 3
-1 1 8 24.3 3.1
0 -1 -8 283.57 14.1
0 -1 -8 269.77 12.5
0 -1 -8 268.37 11.7
0 1 8 270.87 11.4
0 1 8 270.97 12.6
0 1 8 268.77 13.9
0 1 8 282.47 11.9
-1 -1 -8 2.4 1.6
-1 -1 -8 1.5 1.7
-1 -1 -8 1.8 1.5
1 1 8 1.7 1.5
1 1 8 2.4 1.2
1 1 8 1.6 0.9
1 1 8 2.5 1.4
-2 -1 -8 38.7 115.99
-2 -1 -8 17.2 2.6
-2 -1 -8 14.9 2.4
-2 -1 -8 18.3 2.3
2 1 8 13.1 2.4
2 1 8 15.2 2.6
2 1 8 17.7 2.6
2 1 8 16.2 2.2
2 1 8 16.4 2
-3 -1 -8 68.19 4.7
-3 -1 -8 -22.4 122.29
-3 -1 -8 63.19 4.4
-3 -1 -8 70.79 5.2
3 1 8 63.19 5.3
3 1 8 66.39 4.3
3 1 8 62.69 5.2
3 1 8 68.79 4.1
3 1 8 63.99 4.8
3 1 8 66.69 4.6
-4 -1 -8 85.09 157.78
-4 -1 -8 331.37 15
-4 -1 -8 321.47 13.8
4 1 8 319.17 14.5
4 1 8 357.66 14.5
4 1 8 350.26 15
4 1 8 355.06 17.1
4 1 8 299.27 16.7
-5 -1 -8 54.39 4.2
-5 -1 -8 59.69 173.18
-5 -1 -8 51.69 4.8
5 1 8 48.4 4.8
5 1 8 56.99 4.8
5 1 8 52.99 4.7
-6 -1 -8 40.4 167.58
-7 -1 -8 -55.09 200.68
-7 -1 -8 4.3 3
7 1 8 3.1 2.6
7 1 8 4.1 3.2
-8 -1 -8 247.08 231.88
6 -2 -8 -1.5 3.5
6 -2 -8 -3 3.4
6 -2 -8 -0.3 3.8
-6 2 8 -0.8 3.7
-6 2 8 6.1 3.9
-6 2 8 -2.3 4
5 -2 -8 -0.7 2.7
5 -2 -8 -0.1 2.7
5 -2 -8 -3.2 3.1
-5 2 8 2 2.9
-5 2 8 -1.7 3
-5 2 8 -2.8 2.7
4 -2 -8 10.2 2.9
4 -2 -8 5.4 3
-4 2 8 6.2 3
-4 2 8 9.9 2.9
-4 2 8 9.8 3
3 -2 -8 7.1 2.5
3 -2 -8 13.2 2.8
3 -2 -8 15.3 3.2
-3 2 8 16.8 3.1
-3 2 8 12 2.5
-3 2 8 16.6 3.4
2 -2 -8 2.8 2.3
2 -2 -8 1.7 1.7
2 -2 -8 4.7 1.6
2 -2 -8 0.7 1.9
-2 2 8 1.4 1.7
-2 2 8 2.2 2.1
-2 2 8 0.4 1.7
1 -2 -8 23.6 3.1
1 -2 -8 26.6 3.4
1 -2 -8 21.7 2.9
1 -2 -8 25.2 2.5
1 -2 -8 24.1 3.4
-1 2 8 26.6 3.3
-1 2 8 27.6 3.3
-1 2 8 26.7 3.2
-1 2 8 22.3 3
0 -2 -8 501.05 23.8
0 -2 -8 487.15 19.7
0 -2 -8 522.25 21.1
0 -2 -8 465.25 23.7
0 -2 -8 520.35 20
0 2 8 500.05 23.7
0 2 8 486.05 21.1
0 2 8 492.05 19.9
0 2 8 487.15 19.6
-1 -2 -8 0.5 1.4
-1 -2 -8 0 1.6
-1 -2 -8 -1.2 1.4
-1 -2 -8 -2.3 1.7
1 2 8 -0.7 0.7
1 2 8 -0.1 1
1 2 8 -1.9 1.6
1 2 8 0.3 1.5
-2 -2 -8 48.6 3.6
-2 -2 -8 52.09 3.9
-2 -2 -8 47.6 4.4
-2 -2 -8 67.49 110.89
-2 -2 -8 46.8 4.1
2 2 8 53.79 4.4
2 2 8 46 3.1
2 2 8 50.79 4.2
2 2 8 48.4 3.7
-3 -2 -8 -146.59 106.29
-4 -2 -8 -126.19 126.39
-4 -2 -8 10.5 2.3
4 2 8 4.7 2.2
4 2 8 11.4 2.4
-5 -2 -8 -106.69 159.48
-6 -2 -8 -56.49 156.68
-6 -2 -8 1.2 2.5
-6 -2 -8 4.4 2.1
-6 -2 -8 5.3 2.1
6 2 8 5.6 2.4
6 2 8 10.6 2.9
6 2 8 2.1 2.3
-7 -2 -8 179.28 217.08
-8 -2 -8 -280.27 195.38
8 2 8 21.4 5
-9 -2 -8 1.3 3.9
-9 -2 -8 -0.4 3.1
9 2 8 9 3.9
9 2 8 5.4 4.5
9 2 8 -0.5 3.3
6 -3 -8 1.8 3.6
-6 3 8 -1.5 4.3
5 -3 -8 7.9 3.5
5 -3 -8 6 3.5
-5 3 8 6 3.9
-5 3 8 7.3 3.6
-5 3 8 6.4 3.6
4 -3 -8 33.1 4.1
4 -3 -8 29.2 4.5
-4 3 8 41.2 5.5
-4 3 8 36.9 4.1
-4 3 8 38.3 4.6
3 -3 -8 -1.7 2.3
3 -3 -8 2 2
-3 3 8 1.2 2
-3 3 8 -0.6 2
-3 3 8 0.3 2.1
2 -3 -8 0.4 2
2 -3 -8 -1.5 1.6
2 -3 -8 1.9 1.9
2 -3 -8 -1.9 2.1
-2 3 8 0.2 2
-2 3 8 1.9 2.2
-2 3 8 1.6 1.5
1 -3 -8 80.29 5.3
1 -3 -8 75.29 5.7
1 -3 -8 67.89 5.9
1 -3 -8 70.69 4.7
1 -3 -8 76.79 5
-1 3 8 81.69 5.5
-1 3 8 74.19 5.4
0 -3 -8 5.2 2.5
0 -3 -8 7.1 2.1
0 -3 -8 6.8 2.4
0 -3 -8 11 2.1
0 -3 -8 5.3 1.9
0 3 8 10.8 2.5
0 3 8 9.2 2.2
0 3 8 9.6 2.1
-1 -3 -8 235.48 10.8
-1 -3 -8 248.08 11.7
-1 -3 -8 254.77 13.1
-1 -3 -8 256.67 11.1
-1 -3 -8 244.08 13.9
1 3 8 231.28 11.7
1 3 8 246.68 13
1 3 8 246.48 10.1
1 3 8 258.27 10.9
-2 -3 -8 170.78 10.1
-2 -3 -8 189.88 9.2
-2 -3 -8 172.78 8.4
2 3 8 196.78 10.4
2 3 8 174.78 8.4
2 3 8 181.28 7.9
-3 -3 -8 70.99 4.5
-3 -3 -8 69.99 4.7
-3 -3 -8 72.89 5.1
-3 -3 -8 65.89 5.2
3 3 8 65.89 4.5
3 3 8 63.49 4.4
3 3 8 61.59 5.2
3 3 8 63.79 5.5
-4 -3 -8 -1.7 1.7
-4 -3 -8 2.3 1.7
-4 -3 -8 -0.3 1.7
-4 -3 -8 -1.5 1.4
4 3 8 -0.8 1.7
4 3 8 1.4 2
4 3 8 1.5 1.9
4 3 8 -1.7 1.7
4 3 8 0.8 1.4
-5 -3 -8 91.39 5.8
-5 -3 -8 98.09 7
5 3 8 83.39 6.2
5 3 8 90.79 6.4
5 3 8 86.29 6.8
5 3 8 92.49 6.1
-6 -3 -8 2.6 1.8
-6 -3 -8 -0.1 1.9
-6 -3 -8 0.7 2.5
6 3 8 -0.9 2.1
6 3 8 -1 2.2
6 3 8 0.5 2.5
6 3 8 -1.5 1.8
-7 -3 -8 5.2 2.4
-7 -3 -8 5.8 3
7 3 8 7.4 2.9
7 3 8 2.9 2.8
7 3 8 5.5 2.6
-8 -3 -8 13.2 3.2
-8 -3 -8 7.7 3.5
8 3 8 11.9 3.4
8 3 8 8.2 4
8 3 8 13 3.7
-9 -3 -8 2.6 3.2
-9 -3 -8 -0.1 3.9
9 3 8 -6.4 4.1
9 3 8 0.3 3.2
9 3 8 6.1 3.6
5 -4 -8 7.5 4
-5 4 8 13.9 5
-5 4 8 13.2 4.1
4 -4 -8 10.9 3.2
4 -4 -8 9 3.6
-4 4 8 8.1 3.8
-4 4 8 6.1 3.8
3 -4 -8 38.6 3.9
3 -4 -8 28.6 4.1
3 -4 -8 35.2 3.6
-3 4 8 33.1 4.8
-3 4 8 36.8 4.2
2 -4 -8 7.1 2.6
2 -4 -8 4 2.2
2 -4 -8 5 1.9
-2 4 8 4 2.4
-2 4 8 3.6 2.3
1 -4 -8 28.5 3.2
1 -4 -8 29.1 3.9
1 -4 -8 32.1 3.5
1 -4 -8 28.7 3.3
-1 4 8 31.8 4.1
-1 4 8 36.1 4
0 -4 -8 40.6 3.9
0 -4 -8 42.4 4.8
0 -4 -8 37.3 4.5
0 -4 -8 44.2 4.3
0 -4 -8 45 4
0 4 8 42.4 4.3
0 4 8 42.7 4.2
0 4 8 46.3 4.6
0 4 8 46.6 4
-1 -4 -8 138.49 7
-1 -4 -8 117.39 8
-1 -4 -8 142.39 7.5
-1 -4 -8 132.09 7.1
-1 -4 -8 133.29 8.5
1 4 8 134.09 8.2
1 4 8 132.49 6.7
-2 -4 -8 13.2 2.5
-2 -4 -8 13.6 2.7
-2 -4 -8 11.9 2.4
-2 -4 -8 13 2.4
2 4 8 11.7 2.7
2 4 8 11.3 2.6
2 4 8 12.5 2.1
2 4 8 11 1.6
-3 -4 -8 36.9 4.1
-3 -4 -8 25.1 3.2
-3 -4 -8 27.9 3.6
-3 -4 -8 32.8 3.3
3 4 8 31.9 3.2
3 4 8 31.4 3.5
3 4 8 29.1 3.9
-4 -4 -8 119.39 6.8
-4 -4 -8 121.49 8.2
4 4 8 129.29 8.5
4 4 8 139.19 7.1
4 4 8 133.09 7.8
4 4 8 135.49 7.4
-5 -4 -8 7.4 2.4
-5 -4 -8 12.1 1.9
-5 -4 -8 8.2 2.9
-5 -4 -8 11.3 2.8
-5 -4 -8 3.5 2.5
5 4 8 10.4 2.4
5 4 8 8.2 2.5
5 4 8 11.9 2.9
5 4 8 10 3.1
-6 -4 -8 70.09 5.4
-6 -4 -8 66.59 4.6
-6 -4 -8 60.09 5.9
6 4 8 60.49 5.9
6 4 8 62.19 6.2
6 4 8 71.29 6.5
6 4 8 69.29 5.5
-7 -4 -8 0.5 2.4
-7 -4 -8 2.5 3.1
-7 -4 -8 1.9 1.9
7 4 8 1.9 2.2
7 4 8 -2.1 2.7
7 4 8 -1.1 2.5
7 4 8 -0.9 2.6
-8 -4 -8 11.6 2.8
-8 -4 -8 6.9 3.7
8 4 8 3.6 2.9
8 4 8 15.1 4
8 4 8 5.6 3.4
-9 -4 -8 -1.8 2.8
-9 -4 -8 4.6 4.1
9 4 8 1.7 3.5
9 4 8 4.7 4.1
9 4 8 2 3.3
4 -5 -8 6.8 3.4
-4 5 8 3.5 4.4
-4 5 8 7.6 3.8
3 -5 -8 94.59 7.7
3 -5 -8 109.69 7
-3 5 8 123.19 7.7
-3 5 8 115.89 8.8
2 -5 -8 7.6 2.8
2 -5 -8 7.8 2.3
2 -5 -8 9.7 2.7
-2 5 8 7.6 3.1
-2 5 8 13.1 3
1 -5 -8 17.4 2.9
1 -5 -8 21 3.5
1 -5 -8 17.2 2.8
1 -5 -8 12.5 2.7
-1 5 8 23.4 3.4
-1 5 8 17.1 3.5
0 -5 -8 127.59 6.8
0 -5 -8 103.59 8
0 -5 -8 127.59 7.2
0 -5 -8 128.39 7
0 5 8 137.49 7.6
0 5 8 118.29 7.7
-1 -5 -8 333.77 14.7
-1 -5 -8 351.16 15.7
-1 -5 -8 345.67 15.2
-1 -5 -8 339.77 17.6
1 5 8 359.76 17.8
1 5 8 337.67 16
1 5 8 355.86 14.6
-2 -5 -8 94.49 6.8
-2 -5 -8 95.09 6.1
-2 -5 -8 95.29 6
-2 -5 -8 98.59 6.4
2 5 8 90.09 6.4
2 5 8 85.39 6.8
2 5 8 90.99 5.4
-3 -5 -8 49.7 4.8
-3 -5 -8 43.8 4.3
-3 -5 -8 53.79 5.3
-3 -5 -8 47 4.3
3 5 8 42.3 4.8
3 5 8 45.9 3.8
3 5 8 44.9 4.8
-4 -5 -8 51.39 5.1
-4 -5 -8 48.6 4.4
-4 -5 -8 53.49 4.9
-4 -5 -8 42.9 5
4 5 8 54.79 5.2
4 5 8 55.59 4.9
4 5 8 41 4
4 5 8 48.9 5.4
-5 -5 -8 31.4 4.1
-5 -5 -8 34.6 3.7
-5 -5 -8 31.8 4.5
-5 -5 -8 35.4 4.5
5 5 8 30.7 4.5
5 5 8 34.6 4.8
5 5 8 37.2 4.4
5 5 8 34.3 3.7
-6 -5 -8 109.89 6.8
-6 -5 -8 97.79 5.6
-6 -5 -8 112.79 7.3
-6 -5 -8 102.29 7.8
6 5 8 104.89 7.9
6 5 8 106.89 8.6
6 5 8 101.49 7.6
6 5 8 102.89 6.7
-7 -5 -8 -1.8 3.1
-7 -5 -8 -0.3 2.6
-7 -5 -8 2.4 2.4
-7 -5 -8 0.5 1.9
7 5 8 0.5 3
7 5 8 1.2 2.4
7 5 8 -3.6 3
7 5 8 -3.1 3
-8 -5 -8 4.3 4.1
-8 -5 -8 4.6 2.5
8 5 8 1.9 3.8
8 5 8 2.1 3.6
8 5 8 2.6 2.9
-9 -5 -8 6.7 3
-9 -5 -8 3.3 4.5
9 5 8 3.5 4
9 5 8 -1.2 2.9
9 5 8 2.2 4.3
4 -6 -8 10 3.6
3 -6 -8 1.3 3
3 -6 -8 3.9 3
-3 6 8 4.3 3.6
-3 6 8 9.5 4.1
2 -6 -8 0.7 2.8
2 -6 -8 4 3.1
2 -6 -8 6.2 2.8
-2 6 8 2.5 3
-2 6 8 8.6 3.5
1 -6 -8 73.29 5.6
1 -6 -8 68.19 5.5
1 -6 -8 60.59 6.1
-1 6 8 78.59 6.1
-1 6 8 78.99 6.8
0 -6 -8 -1.6 2.3
0 -6 -8 1 1.9
0 -6 -8 1.4 2.1
0 -6 -8 1.3 2.1
0 6 8 -2.1 2
-1 -6 -8 31.5 3.9
-1 -6 -8 38.2 4.4
-1 -6 -8 34 3.7
-1 -6 -8 34 3.7
1 6 8 32.5 4.1
1 6 8 27.2 3.2
-2 -6 -8 340.67 14.8
-2 -6 -8 344.67 15.4
-2 -6 -8 343.67 18
-2 -6 -8 347.97 16.1
2 6 8 347.77 14.4
2 6 8 332.57 16.1
-3 -6 -8 89.09 7.1
-3 -6 -8 83.59 5.8
-3 -6 -8 84.79 6.1
3 6 8 89.39 5.2
3 6 8 84.29 6.6
3 6 8 76.39 6.7
-4 -6 -8 6.1 2.9
-4 -6 -8 11.8 3.2
-4 -6 -8 9.3 3.2
-4 -6 -8 15.6 2.8
4 6 8 15.9 3.6
4 6 8 13.2 2.4
4 6 8 14.3 3.1
4 6 8 10.1 3.3
-5 -6 -8 18.7 3.1
-5 -6 -8 14.7 3.6
-5 -6 -8 14 3.6
-5 -6 -8 13.2 3.5
5 6 8 15.4 3.4
5 6 8 17.2 3.6
5 6 8 16.6 2.9
5 6 8 14.1 3.5
-6 -6 -8 60.59 6.1
-6 -6 -8 60.29 5.6
-6 -6 -8 60.29 6.6
6 6 8 65.49 5.5
6 6 8 56.49 6.7
6 6 8 65.59 6.5
6 6 8 62.39 6.6
-7 -6 -8 -3.7 2.9
-7 -6 -8 3.5 3
-7 -6 -8 0.6 2.7
7 6 8 -3.4 2.5
7 6 8 -0.8 3.1
7 6 8 5.6 3.8
7 6 8 1.8 3.2
-8 -6 -8 4.2 3.5
-8 -6 -8 3 3.2
-8 -6 -8 -1.1 3.7
8 6 8 0.1 3.4
8 6 8 2.1 3.4
8 6 8 -7 3.7
8 6 8 0.7 3
-9 -6 -8 -3.2 4.7
9 6 8 3.8 4.4
9 6 8 -1.6 4.4
9 6 8 -0.3 3.6
3 -7 -8 3.9 3.6
-3 7 8 10.3 4.7
-3 7 8 12.2 4.2
2 -7 -8 16.7 3.7
2 -7 -8 13.6 3.9
2 -7 -8 18.8 3.7
-2 7 8 23.3 5.1
-2 7 8 20.3 4.2
1 -7 -8 20.4 3.5
1 -7 -8 21.3 3.7
1 -7 -8 19.7 4.1
-1 7 8 26.5 4.8
-1 7 8 29.4 4.3
0 -7 -8 -0.8 2.5
0 -7 -8 4.5 2.9
0 -7 -8 1.8 2.5
0 7 8 -0.8 2.9
0 7 8 1.3 2.7
-1 -7 -8 11 3.4
-1 -7 -8 9.3 2.9
-1 -7 -8 9.8 2.9
1 7 8 16 3.4
1 7 8 15.1 3.6
-2 -7 -8 9.5 2.7
-2 -7 -8 4.5 2.5
-2 -7 -8 3.9 3
-2 -7 -8 7.1 3.1
2 7 8 2.7 1.9
2 7 8 1.3 2.5
-3 -7 -8 43.7 4.5
-3 -7 -8 45.8 5.5
-3 -7 -8 42.9 4.5
-3 -7 -8 36.4 4.7
3 7 8 31.8 3.2
3 7 8 38.8 4.8
-4 -7 -8 27.8 4.3
-4 -7 -8 30.5 4.9
-4 -7 -8 38.6 4.1
-4 -7 -8 35.7 4.3
4 7 8 32.8 4.4
4 7 8 32.3 3.2
4 7 8 29 4.4
-5 -7 -8 18.2 4.1
-5 -7 -8 17.7 4.4
-5 -7 -8 27.2 3.9
-5 -7 -8 20.6 4.2
5 7 8 14.4 3.5
5 7 8 24.1 3.9
5 7 8 23.8 3.1
-6 -7 -8 -7.3 3.1
-6 -7 -8 -1.1 2.6
-6 -7 -8 1.7 3.4
6 7 8 0.2 2.2
6 7 8 0 2.7
6 7 8 0.3 3.2
6 7 8 -3.3 3.5
-7 -7 -8 15.6 4.1
-7 -7 -8 8.4 4.4
-7 -7 -8 18.2 4.2
7 7 8 15.9 3.5
7 7 8 17.1 4.6
7 7 8 9.8 3.5
7 7 8 21.3 4.8
-8 -7 -8 5.1 3.8
-8 -7 -8 -1.7 3.4
-8 -7 -8 0.6 4.5
8 7 8 2.6 3.3
8 7 8 -2.2 3.3
8 7 8 0.7 4.4
8 7 8 3.5 4.5
-9 -7 -8 5.2 5.3
2 -8 -8 19.9 4.3
1 -8 -8 -0.4 3.3
1 -8 -8 -0.3 3.3
1 -8 -8 3.4 3.2
-1 8 8 1.9 3.5
-1 8 8 5.9 4.2
0 -8 -8 7.3 3.3
0 -8 -8 5.6 3.1
0 -8 -8 5.3 3.1
0 8 8 7.5 4
0 8 8 9.1 3.8
-1 -8 -8 75.89 7.2
-1 -8 -8 62.49 6.1
-1 -8 -8 65.59 6.2
1 8 8 60.49 6.5
1 8 8 64.79 7
-2 -8 -8 3.3 2.9
-2 -8 -8 2.9 2.8
-2 -8 -8 4.3 3.5
2 8 8 0.2 3
-3 -8 -8 -0.2 2.7
-3 -8 -8 1.4 2.7
-3 -8 -8 2.5 2.9
-3 -8 -8 -2 3.3
3 8 8 1.4 2.7
-4 -8 -8 11.4 3.2
-4 -8 -8 3.1 3.7
-4 -8 -8 0 3.6
-4 -8 -8 7.5 3.2
4 8 8 1.9 3.2
-5 -8 -8 21.4 4.1
-5 -8 -8 7.9 3.2
-5 -8 -8 8.3 4
-5 -8 -8 8.5 3.8
5 8 8 9.2 3.7
5 8 8 10.2 3.5
-6 -8 -8 -0.3 3.2
-6 -8 -8 -2.8 3.4
-6 -8 -8 -2.4 3.2
6 8 8 -3 3.2
6 8 8 2.8 3.3
-7 -8 -8 3.2 4.1
-7 -8 -8 -0.1 3.7
-7 -8 -8 -5.4 3.8
7 8 8 1.4 4.1
7 8 8 -0.3 3.1
-8 -8 -8 4.6 4.9
-8 -8 -8 -0.6 4.1
-8 -8 -8 -5 4.3
8 8 8 -0.4 4
8 8 8 5.1 4.6
0 -9 -8 5.8 3.8
0 -9 -8 7.1 3.7
0 -9 -8 7.2 3.9
0 9 8 11.5 4.1
0 9 8 6.4 4.8
-1 -9 -8 1.4 3.8
-1 -9 -8 -2.9 3.2
-1 -9 -8 6.4 3.5
1 9 8 -1.1 3.6
1 9 8 4.2 3.5
-2 -9 -8 15 3.7
-2 -9 -8 12.7 4
-2 -9 -8 12 4.2
2 9 8 15.4 4.2
2 9 8 13.7 4.5
-3 -9 -8 8.9 4.4
-3 -9 -8 10.1 3.7
-3 -9 -8 10.5 3.6
3 9 8 3.1 3.9
-4 -9 -8 2.3 3.5
-4 -9 -8 -7.3 4
-4 -9 -8 -3 3.8
-4 -9 -8 3.7 3.3
4 9 8 -2 3.1
-5 -9 -8 4.6 4.4
-5 -9 -8 4.6 4.3
-5 -9 -8 5.1 3.4
-5 -9 -8 0.9 3.9
5 9 8 3.2 3.7
-6 -9 -8 0.9 3.9
-6 -9 -8 0.9 4.4
-6 -9 -8 -9.8 3.3
6 9 8 4.4 3.9
6 9 8 0.8 3.5
-7 -9 -8 -4.4 4.2
-7 -9 -8 -1.6 4.1
-7 -9 -8 -7.3 4.1
7 9 8 -4 4.5
7 9 8 2.4 3.6
-2 -10 -8 -0.4 4.3
-2 -10 -8 -1.7 3.9
-2 -10 -8 -2.4 4
2 10 8 0.3 4.1
2 10 8 -4.5 4.4
-3 -10 -8 -0.5 3.5
-3 -10 -8 -3.2 3.9
-3 -10 -8 -7 4.4
3 10 8 -1.8 4.1
3 10 8 3.7 4.4
-4 -10 -8 -8.6 4.5
-4 -10 -8 -0.4 3.4
-4 -10 -8 -0.8 3.6
4 10 8 -2.9 3.9
-5 -10 -8 22.4 5.2
-5 -10 -8 16.5 4.7
-5 -10 -8 25.3 6.6
5 10 8 16.4 5.1
-6 -10 -8 13.2 4.6
-6 -10 -8 1 5
-6 -10 -8 6.5 4.5
6 10 8 8.4 4.8
6 10 8 5.4 4.8
3 8 -9 2.5 5.1
3 8 -9 -47 259.87
-3 -8 9 1.5 3.5
-3 -8 9 -1.6 4.2
-3 -8 9 6.1 6.1
-3 -8 9 -7.4 3.6
2 8 -9 -167.98 235.28
2 8 -9 2.8 4.8
-2 -8 9 0.9 5.9
-2 -8 9 15.5 4.4
-2 -8 9 1.1 4.1
-2 -8 9 7.8 3.9
1 8 -9 186.08 254.07
0 8 -9 -79.59 223.58
0 -8 9 1.6 4
0 -8 9 -2 3.6
5 7 -9 2 4.5
5 7 -9 -50.59 248.58
-5 -7 9 0.3 4.1
-5 -7 9 2.5 4
-5 -7 9 -1.1 5.2
4 7 -9 37.4 248.38
4 7 -9 -3.8 4.2
-4 -7 9 6 4.7
-4 -7 9 -1.3 3.7
-4 -7 9 -3.8 3.4
3 7 -9 31.3 5.1
3 7 -9 20.5 5
3 7 -9 223.68 240.98
-3 -7 9 12.7 5.8
-3 -7 9 33 5.1
-3 -7 9 18.5 4.5
-3 -7 9 29.3 3.9
-3 -7 9 21.6 5.3
2 7 -9 24.6 197.78
2 7 -9 18.2 4.8
-2 -7 9 8.4 3.7
-2 -7 9 9.8 5.4
-2 -7 9 6.5 3.6
-2 -7 9 5.1 3.8
1 7 -9 20.5 5.2
1 7 -9 -123.39 213.88
-1 -7 9 17 4
0 7 -9 -198.98 211.68
0 7 -9 -7.3 3.7
0 -7 9 3.3 3.5
0 -7 9 8.7 3.7
0 -7 9 -0.2 3.5
0 -7 9 -3.8 4
-1 7 -9 -1.1 3.9
-1 7 -9 -47.9 214.08
1 -7 9 1.6 3.8
1 -7 9 1.4 3.8
1 -7 9 4.9 3.4
1 -7 9 1.7 3.3
-2 7 -9 180.78 255.37
6 6 -9 1.2 4.4
6 6 -9 47.8 249.68
-6 -6 9 1.5 5
-6 -6 9 6 4.2
5 6 -9 164.58 240.78
4 6 -9 6.7 3.9
4 6 -9 13.1 4.2
4 6 -9 73.19 218.88
-4 -6 9 11.9 3.8
-4 -6 9 12.3 4.6
-4 -6 9 10.7 4.1
3 6 -9 16.7 4.6
3 6 -9 14.2 195.58
3 6 -9 19.6 4.4
-3 -6 9 15.9 4.8
-3 -6 9 10.5 4.7
-3 -6 9 7.2 3
-3 -6 9 11.4 3.6
2 6 -9 -3.2 3.2
2 6 -9 -2.3 2.9
2 6 -9 -62.69 198.88
-2 -6 9 0.9 2.8
-2 -6 9 -0.8 3.5
-2 -6 9 0.8 2.9
-2 -6 9 -1.6 3.6
1 6 -9 -51.69 198.38
1 6 -9 -3.7 2.7
1 6 -9 -4.3 3.1
-1 -6 9 -2.2 2.6
-1 -6 9 -2.5 2.3
-1 -6 9 -1.3 3.5
-1 -6 9 3.3 2.9
-1 -6 9 3.5 3.3
0 6 -9 -75.79 187.68
0 6 -9 1.7 3.1
0 -6 9 -2.9 3.5
0 -6 9 6.6 3.3
0 -6 9 1.1 2.3
0 -6 9 1.8 3.1
-1 6 -9 86.89 204.18
-2 6 -9 125.99 204.78
-3 6 -9 -3.6 211.98
-3 6 -9 7.6 4.2
3 -6 9 7.5 3.8
3 -6 9 5.8 3.8
6 5 -9 -3 3.8
6 5 -9 -254.87 272.47
6 5 -9 -1 3.8
-6 -5 9 6.9 4.1
-6 -5 9 6.2 3.9
-6 -5 9 -1.9 4.6
5 5 -9 25.3 4.8
5 5 -9 24.9 4.6
5 5 -9 99.99 220.08
-5 -5 9 24.8 4.5
-5 -5 9 23.6 5.6
-5 -5 9 24.4 4.7
4 5 -9 -138.19 190.78
4 5 -9 -1.4 2.9
4 5 -9 -1 3.3
-4 -5 9 -3.3 3.4
-4 -5 9 5.9 2.7
3 5 -9 3 3.5
3 5 -9 2.4 3.2
3 5 -9 66.09 179.48
-3 -5 9 7.2 3
-3 -5 9 4.6 3.5
-3 -5 9 4.3 2.4
-3 -5 9 3.4 3.9
2 5 -9 9.8 3.5
2 5 -9 -30.1 154.28
2 5 -9 7.5 3.5
-2 -5 9 14.7 3
-2 -5 9 12.8 3.1
-2 -5 9 17.5 4.2
-2 -5 9 13.1 2.8
-2 -5 9 8.9 3.8
1 5 -9 22.3 4
1 5 -9 18.3 3.9
1 5 -9 142.79 198.38
-1 -5 9 21.3 3.9
-1 -5 9 17.6 3.2
-1 -5 9 14.1 3.9
-1 -5 9 15.1 2.8
0 5 -9 194.68 183.38
-1 5 -9 49.5 5.2
-1 5 -9 20.1 180.78
1 -5 9 49.3 5.4
1 -5 9 50.89 4.8
1 -5 9 48.6 5.6
-2 5 -9 -10.2 208.88
-2 5 -9 0.3 2.9
2 -5 9 2.4 2.6
2 -5 9 0.3 3.1
2 -5 9 -1.6 2.8
-3 5 -9 1.8 3
-3 5 -9 -180.28 175.58
3 -5 9 -1.2 2.9
3 -5 9 2.1 2.6
3 -5 9 -0.5 3.2
-4 5 -9 102.19 238.28
6 4 -9 9.9 4.1
6 4 -9 5.1 3.8
6 4 -9 1.8 5.3
6 4 -9 6 4.2
-6 -4 9 6 4.1
-6 -4 9 8.9 4
-6 -4 9 10 5.1
5 4 -9 -1.4 2.8
5 4 -9 -4.1 2.9
5 4 -9 5.3 4.6
5 4 -9 6 3.4
-5 -4 9 0.2 4.3
-5 -4 9 -6.4 3.1
4 4 -9 72.19 201.58
3 4 -9 5.5 3.2
3 4 -9 6.2 4.1
3 4 -9 198.98 185.48
3 4 -9 17.6 3.5
-3 -4 9 10.1 3.4
-3 -4 9 18.3 2.5
-3 -4 9 14.9 4.2
-3 -4 9 11.3 2.8
2 4 -9 78.49 158.48
1 4 -9 175.48 171.38
1 4 -9 26.7 3.9
1 4 -9 31.1 4
-1 -4 9 28.2 3.5
-1 -4 9 28 4.3
-1 -4 9 19.9 4
-1 -4 9 27.1 3.5
0 4 -9 54.49 5.2
0 4 -9 -4.3 165.48
0 4 -9 40.5 4.6
0 -4 9 45.4 5.1
0 -4 9 42.9 4.9
0 -4 9 47.4 4.3
0 -4 9 44.6 4.5
-1 4 -9 51.69 4.8
-1 4 -9 60.39 5.3
-1 4 -9 53.49 177.28
1 -4 9 44.4 4.5
1 -4 9 47.8 5
1 -4 9 43.9 4.9
1 -4 9 53.59 5.4
-2 4 -9 85.69 208.88
-2 4 -9 9.9 3
2 -4 9 2.8 2.4
2 -4 9 3.7 2.7
2 -4 9 11.4 3.3
-3 4 -9 -297.07 170.78
-4 4 -9 77.99 232.48
-5 4 -9 96.59 244.58
-5 4 -9 17 4
5 -4 9 13.3 4.1
5 -4 9 13.6 3.7
5 -4 9 15 3.3
7 3 -9 1.3 5.3
-7 -3 9 -2.8 4.7
6 3 -9 20.6 4.2
6 3 -9 12.9 5.1
6 3 -9 20.5 4.3
-6 -3 9 17.1 5.1
-6 -3 9 23.7 4.5
5 3 -9 85.79 7.8
5 3 -9 82.59 7.2
5 3 -9 74.59 6.6
5 3 -9 64.79 7.8
-5 -3 9 88.99 8.4
-5 -3 9 89.09 6.8
4 3 -9 52.39 5.7
4 3 -9 57.49 6.6
4 3 -9 52.79 5
4 3 -9 50.99 5.3
-4 -3 9 44.6 5.9
-4 -3 9 57.89 5.4
3 3 -9 74.69 5
3 3 -9 65.69 7.1
3 3 -9 72.29 6.5
3 3 -9 76.19 5.9
3 3 -9 365.36 185.88
-3 -3 9 75.09 5.6
-3 -3 9 72.19 6.2
-3 -3 9 80.69 7.2
2 3 -9 113.89 162.48
2 3 -9 10.9 2.9
2 3 -9 13.7 3.2
2 3 -9 16 3.8
-2 -3 9 11.7 3.5
-2 -3 9 13.8 2.5
-2 -3 9 10.3 2.6
-2 -3 9 10.8 3.1
1 3 -9 58.29 5.2
1 3 -9 57.29 4.8
1 3 -9 44.9 5.3
1 3 -9 5.5 161.28
-1 -3 9 60.69 4.7
-1 -3 9 49 5.3
-1 -3 9 50.19 4.7
-1 -3 9 49.4 5.3
0 3 -9 58.69 138.49
-1 3 -9 52.29 4.9
-1 3 -9 54.89 5.1
-1 3 -9 -23.4 160.68
1 -3 9 53.99 4.5
1 -3 9 53.69 5.1
1 -3 9 49.4 4.9
1 -3 9 50.79 4.6
-2 3 -9 12.7 2.9
-2 3 -9 13.4 3
-2 3 -9 -3.9 156.78
2 -3 9 16 2.8
2 -3 9 13.3 3.1
2 -3 9 14.4 3.2
2 -3 9 13.6 2.8
-3 3 -9 175.78 9.3
-3 3 -9 -11.4 180.28
3 -3 9 160.58 9.2
3 -3 9 168.78 9.1
3 -3 9 173.38 10.1
-4 3 -9 140.29 193.38
-5 3 -9 28.1 4
-5 3 -9 118.19 223.88
5 -3 9 29 3.9
5 -3 9 22.3 4
5 -3 9 21.8 4.3
-6 3 -9 -321.67 192.78
-6 3 -9 -1.8 3.3
6 -3 9 7.7 3
6 -3 9 7.5 3.5
6 -3 9 -0.4 3.4
7 2 -9 2.3 5.5
-7 -2 9 8.1 5
6 2 -9 6.3 3.6
6 2 -9 2.7 4.7
6 2 -9 6.9 3.5
-6 -2 9 6.4 4.3
5 2 -9 -1.1 3.1
5 2 -9 -1.6 3
5 2 -9 1.1 3.6
5 2 -9 6.5 2.9
-5 -2 9 2.9 3.1
-5 -2 9 3.3 3.9
4 2 -9 53.69 5.7
4 2 -9 50.09 5.1
4 2 -9 42.7 5.9
4 2 -9 59.79 5.1
-4 -2 9 53.29 4.4
-4 -2 9 55.39 5.3
-4 -2 9 53.59 6.4
3 2 -9 124.69 7.6
3 2 -9 115.99 6.8
3 2 -9 119.49 8.9
3 2 -9 136.89 8.3
-3 -2 9 122.39 8.5
-3 -2 9 129.79 7.2
-3 -2 9 116.19 6.4
-3 -2 9 116.99 8.5
2 2 -9 244.18 154.78
2 2 -9 31.4 4.6
2 2 -9 26.5 4.1
2 2 -9 29.1 3.8
2 2 -9 25 2.8
-2 -2 9 29.8 3.4
-2 -2 9 25 3.4
-2 -2 9 22.5 3.6
-2 -2 9 28.8 4.3
1 2 -9 86.59 7
1 2 -9 99.59 6.7
1 2 -9 102.29 6.4
1 2 -9 -32.4 136.99
-1 -2 9 101.19 5.9
-1 -2 9 106.19 7.2
-1 -2 9 101.79 6.2
-1 -2 9 101.39 7.3
0 2 -9 -59.69 123.89
0 2 -9 33.1 4.1
0 2 -9 35.3 3.8
0 2 -9 33.9 4.3
0 -2 9 40.4 4.4
0 -2 9 33.6 3.6
0 -2 9 41.4 3.7
0 -2 9 36.7 4.3
-1 2 -9 16.1 2.9
-1 2 -9 17 3.2
-1 2 -9 -49.3 150.58
-1 2 -9 20 3.1
1 -2 9 16.8 3.3
1 -2 9 25.3 3
1 -2 9 20.3 3.3
1 -2 9 21.7 2.9
-2 2 -9 8.1 151.58
-2 2 -9 114.39 6.5
-2 2 -9 120.89 7
2 -2 9 113.69 6.6
2 -2 9 121.59 7.6
2 -2 9 111.09 7.2
2 -2 9 112.29 6.8
-3 2 -9 -180.38 140.99
-3 2 -9 1.3 2
-3 2 -9 4.6 2.1
3 -2 9 1.7 2.2
3 -2 9 0.6 2
3 -2 9 1 2.4
3 -2 9 4.3 2.1
-4 2 -9 3.9 2.9
-4 2 -9 -281.67 153.88
4 -2 9 7.2 2.8
4 -2 9 10.3 2.8
4 -2 9 6.5 2.6
-5 2 -9 -152.88 162.58
-6 2 -9 2.5 3.2
-6 2 -9 -139.09 197.68
6 -2 9 4.5 3.2
6 -2 9 -1.5 3.2
6 -2 9 9 3
-7 2 -9 -93.49 215.28
-7 2 -9 7.1 3.8
7 -2 9 0.6 3.8
7 -2 9 7.1 3.2
7 -2 9 4.4 3.9
6 1 -9 -1.1 3.4
6 1 -9 -2.7 3.7
6 1 -9 5 3.4
-6 -1 9 -4.8 3.5
-6 -1 9 0.6 3.9
5 1 -9 -1.8 2.8
5 1 -9 -2.1 2.7
5 1 -9 0.6 3.3
-5 -1 9 1.8 3.5
-5 -1 9 2.9 2.5
4 1 -9 55.69 5.5
4 1 -9 52.59 5.5
4 1 -9 58.39 6.5
4 1 -9 58.39 5.6
-4 -1 9 56.59 6.2
-4 -1 9 57.79 5.1
-4 -1 9 59.39 5
3 1 -9 -1.8 2.1
3 1 -9 -2 2.9
3 1 -9 -0.6 2.2
3 1 -9 -0.3 2.4
-3 -1 9 -1.4 1.7
-3 -1 9 0.4 2.7
-3 -1 9 3.2 2.1
2 1 -9 14 3
2 1 -9 13.4 3.4
2 1 -9 13.4 3.5
-2 -1 9 16 3.8
-2 -1 9 11.7 2.9
-2 -1 9 18.1 2.3
-2 -1 9 20.4 2.7
-2 -1 9 23.9 3.2
1 1 -9 19.7 3.3
1 1 -9 35.6 120.49
1 1 -9 21.8 3.1
1 1 -9 23.1 3.5
-1 -1 9 33.4 3.4
-1 -1 9 24.5 3.8
-1 -1 9 24.5 2.5
-1 -1 9 24.8 2.7
-1 -1 9 23.4 3.3
0 1 -9 92.79 132.49
-1 1 -9 -88.09 127.89
-1 1 -9 6.1 2.1
-1 1 -9 7.2 2.5
-1 1 -9 9.1 2.4
1 -1 9 7.6 2.7
1 -1 9 7.1 2.5
1 -1 9 6.1 1.9
1 -1 9 10.5 2.4
-2 1 -9 -60.99 145.39
-2 1 -9 41.9 4.2
-2 1 -9 38.4 4.5
-2 1 -9 41.2 3.9
2 -1 9 44.4 4.4
2 -1 9 33.4 3.5
2 -1 9 38.6 4.6
2 -1 9 42.8 4.3
2 -1 9 48.2 3.8
-3 1 -9 33.8 3.8
-3 1 -9 -34.7 151.98
-3 1 -9 29.1 3.4
3 -1 9 30 3.6
3 -1 9 44 4.5
3 -1 9 29.2 3.6
3 -1 9 31.4 3.8
-4 1 -9 20.8 3
-4 1 -9 -28.8 176.98
-4 1 -9 28.2 3.4
4 -1 9 22.4 3.3
4 -1 9 26.8 3.3
4 -1 9 20.5 3.2
4 -1 9 23.4 3.2
-5 1 -9 219.38 227.88
-6 1 -9 243.58 207.28
-7 1 -9 -66.29 227.48
6 0 -9 4.8 4
6 0 -9 10.2 4
6 0 -9 5.9 3.6
-6 0 9 7.4 4.4
-6 0 9 9.9 3.6
-6 0 9 9.6 4.3
5 0 -9 16.4 4.3
5 0 -9 26.7 4
5 0 -9 20.4 4.1
-5 0 9 19.4 4.1
-5 0 9 19.3 4.4
-5 0 9 23.2 4
4 0 -9 62.39 5.3
4 0 -9 42.6 4.7
4 0 -9 54.09 5.4
4 0 -9 48.2 5.9
-4 0 9 54.69 5.9
-4 0 9 49.8 4.6
-4 0 9 48 5.1
3 0 -9 31.2 3.9
3 0 -9 37 4.4
3 0 -9 29.9 4.3
-3 0 9 41.2 4.8
-3 0 9 35.3 4
-3 0 9 38.9 3.5
2 0 -9 149.29 8.2
2 0 -9 158.28 8.6
2 0 -9 154.88 9.6
-2 0 9 155.88 7.5
-2 0 9 153.18 7.9
-2 0 9 137.59 9.2
-2 0 9 144.49 8.8
1 0 -9 176.18 10.5
1 0 -9 186.88 9.4
1 0 -9 183.78 8.8
-1 0 9 177.58 9.6
-1 0 9 173.98 8.6
-1 0 9 184.98 10.4
-1 0 9 183.08 8.9
-1 0 9 167.28 8.2
0 0 -9 52.19 4.4
0 0 -9 57.39 4.6
0 0 -9 55.69 5
0 0 9 54.39 3.7
0 0 9 60.99 5
0 0 9 57.89 4.3
0 0 9 53.09 4.9
-1 0 -9 14.6 2.9
-1 0 -9 12.1 2.3
-1 0 -9 -16.5 127.29
-1 0 -9 16 2.5
1 0 9 11.3 2.1
1 0 9 12.5 2.5
1 0 9 17.6 3
1 0 9 12.3 2
-2 0 -9 4 1.9
-2 0 -9 2.5 1.7
-2 0 -9 -119.29 123.99
-2 0 -9 1.5 2
2 0 9 2.9 2.1
2 0 9 3 1.6
2 0 9 3.9 2.2
2 0 9 2.4 1.8
2 0 9 4.5 1.6
-3 0 -9 36.5 4.2
-3 0 -9 189.68 160.88
-3 0 -9 36.1 3.7
-3 0 -9 40.4 4.3
3 0 9 42.7 4.3
3 0 9 43 4.4
3 0 9 36.6 3.7
3 0 9 37.4 4.7
3 0 9 41.8 4
-4 0 -9 102.69 6.1
-4 0 -9 112.19 6.7
-4 0 -9 -45.6 157.68
4 0 9 103.79 6.5
4 0 9 104.59 6.8
4 0 9 99.99 5.8
4 0 9 115.09 6.6
4 0 9 102.39 7.3
-5 0 -9 -234.48 141.39
-5 0 -9 8.7 2.9
5 0 9 11.1 2.5
5 0 9 12.8 2.9
5 0 9 11.3 3
5 0 9 14.5 2.8
-6 0 -9 -133.29 179.88
-7 0 -9 -1.2 3
-7 0 -9 -173.98 207.08
7 0 9 2.3 3.5
7 0 9 2.1 3.3
7 0 9 0.4 3
-8 0 -9 3.5 3.8
-8 0 -9 -97.09 234.78
8 0 9 6.9 3.9
8 0 9 11 3.9
8 0 9 1.6 3.9
6 -1 -9 6.6 4
6 -1 -9 4.4 4
6 -1 -9 -0.5 3.7
-6 1 9 15.5 4.1
-6 1 9 7.5 3.7
-6 1 9 1.3 4.3
5 -1 -9 8.5 3
5 -1 -9 0.4 3.1
5 -1 -9 3 3.4
-5 1 9 1.1 3
-5 1 9 -3 3.1
-5 1 9 -0.1 3
4 -1 -9 41.5 4.8
4 -1 -9 39.7 5.1
-4 1 9 45.5 4.6
-4 1 9 45.4 5.3
-4 1 9 37.6 4.9
3 -1 -9 8.3 3.3
3 -1 -9 12.4 2.9
3 -1 -9 10 2.9
-3 1 9 12.5 3.4
-3 1 9 14.1 2.9
2 -1 -9 140.29 8.2
2 -1 -9 146.59 7.8
2 -1 -9 149.88 9.4
-2 1 9 148.39 8.7
-2 1 9 141.59 6.9
-2 1 9 146.69 8
1 -1 -9 36 4.3
1 -1 -9 38.1 4.2
1 -1 -9 31.7 3.6
-1 1 9 32.8 3.9
-1 1 9 30.3 2.7
-1 1 9 31.1 3.5
-1 1 9 25.4 3.6
-1 1 9 30.6 3.4
0 -1 -9 32.1 3.8
0 -1 -9 35.6 4.3
0 -1 -9 32.2 3.4
0 1 9 27.4 3.8
0 1 9 30.7 2.5
0 1 9 35 4
0 1 9 30.5 3.3
-1 -1 -9 74.39 5.2
-1 -1 -9 -40.6 116.29
-1 -1 -9 76.79 5.9
-1 -1 -9 73.49 5
1 1 9 73.49 5.6
1 1 9 81.49 5
1 1 9 75.39 4.2
1 1 9 72.29 5.7
-2 -1 -9 123.79 130.99
-2 -1 -9 83.79 5.5
-2 -1 -9 83.79 5.2
2 1 9 79.89 4.8
2 1 9 88.29 5.9
2 1 9 83.29 6
2 1 9 76.49 5.1
-3 -1 -9 42.5 4.3
-3 -1 -9 41.8 4.1
-3 -1 -9 39.9 3.8
-3 -1 -9 113.09 141.49
3 1 9 35.8 3.3
3 1 9 25.2 3.7
3 1 9 29.5 3.6
3 1 9 41.4 4.2
3 1 9 38.1 4.4
-4 -1 -9 129.19 7.7
-4 -1 -9 128.39 7
-4 -1 -9 163.98 161.48
4 1 9 128.49 8.6
4 1 9 127.89 7.5
4 1 9 137.29 7.4
4 1 9 134.49 7.7
4 1 9 134.69 7
-5 -1 -9 44 4.2
-5 -1 -9 50.39 5
-5 -1 -9 -11.9 178.78
5 1 9 42.3 4.6
5 1 9 51.69 4.9
5 1 9 58.89 5.8
5 1 9 53.89 5.2
5 1 9 49.2 4.7
-6 -1 -9 30.9 195.48
-6 -1 -9 30.6 4
6 1 9 22.9 4.1
6 1 9 28 3.9
6 1 9 24.2 3.9
-7 -1 -9 6.6 197.98
-7 -1 -9 8.7 3.1
7 1 9 10.2 3.4
7 1 9 -0.8 2.7
7 1 9 2.9 3.4
-8 -1 -9 1.5 3.8
-8 -1 -9 14.5 236.08
8 1 9 5.1 4.3
8 1 9 4.9 3.3
8 1 9 3.4 3.9
6 -2 -9 1.5 4.1
-6 2 9 0.1 4.4
5 -2 -9 2.8 3.2
5 -2 -9 3.1 3.2
5 -2 -9 0.1 3.8
-5 2 9 9.1 3.7
-5 2 9 -2.9 3.2
-5 2 9 -3.3 3.3
4 -2 -9 74.89 6.6
-4 2 9 77.89 7.2
-4 2 9 90.89 7.1
-4 2 9 87.89 6.3
3 -2 -9 1.2 2.7
3 -2 -9 -3.1 2.2
3 -2 -9 -1.3 2.3
-3 2 9 2.8 2.1
-3 2 9 0.4 2.2
-3 2 9 1 2.5
2 -2 -9 -0.6 2
2 -2 -9 1.4 2.5
2 -2 -9 -2.1 2
-2 2 9 2.3 2.3
-2 2 9 1.3 1.9
1 -2 -9 27.6 2.8
1 -2 -9 28.3 3.6
1 -2 -9 29.6 3.6
1 -2 -9 28.7 4
-1 2 9 33 3.6
-1 2 9 30.3 3.5
-1 2 9 24.5 3.7
-1 2 9 31.7 3.8
0 -2 -9 196.18 9.5
0 -2 -9 196.78 11.3
0 -2 -9 210.68 10.2
0 -2 -9 203.38 9.3
0 2 9 208.18 10.4
0 2 9 200.38 8.6
0 2 9 195.98 9.6
0 2 9 203.98 11.2
-1 -2 -9 26.5 3.4
-1 -2 -9 26.7 3.1
-1 -2 -9 27.4 3.7
1 2 9 23.2 3.5
1 2 9 26.6 3.5
1 2 9 29.3 3.1
1 2 9 24.7 2.2
-2 -2 -9 113.89 6.7
-2 -2 -9 112.49 6.2
-2 -2 -9 111.49 7.3
-2 -2 -9 -111.79 116.09
2 2 9 120.49 7.1
2 2 9 109.69 5.6
2 2 9 113.49 6.3
2 2 9 109.79 7.5
-3 -2 -9 101.89 137.59
-4 -2 -9 -162.18 137.79
-5 -2 -9 7.5 2.5
-5 -2 -9 7.9 2.5
-5 -2 -9 1 168.58
5 2 9 2.1 2.3
5 2 9 5.9 2.6
5 2 9 1 2.5
5 2 9 4.1 2.1
-6 -2 -9 90.89 187.98
-7 -2 -9 -0.9 3.1
-7 -2 -9 -133.99 198.68
7 2 9 12.3 3.8
7 2 9 5.1 3
7 2 9 5.8 3.3
-8 -2 -9 181.38 266.47
5 -3 -9 6.7 3.7
5 -3 -9 2.8 3.6
5 -3 -9 0.3 3.4
-5 3 9 6.1 3.8
-5 3 9 -3.4 3.9
4 -3 -9 34.2 5
4 -3 -9 31.2 4.3
-4 3 9 40.2 5.5
-4 3 9 41.2 5
3 -3 -9 15.3 3.2
3 -3 -9 13.9 3.4
-3 3 9 16.4 3.6
-3 3 9 14.8 3
-3 3 9 17.8 3.5
2 -3 -9 95.49 6.3
2 -3 -9 97.19 6.6
2 -3 -9 100.59 5.7
2 -3 -9 97.79 7.1
-2 3 9 96.79 7.1
-2 3 9 111.39 7.1
1 -3 -9 5 2.2
1 -3 -9 4.7 2.1
1 -3 -9 7.6 2.6
1 -3 -9 6.1 2
-1 3 9 7.2 2.4
-1 3 9 5 2.6
0 -3 -9 7.1 2.2
0 -3 -9 5.6 2.1
0 -3 -9 7.5 2.7
0 -3 -9 5.4 2.1
0 3 9 8.8 2.2
0 3 9 6.5 2.2
0 3 9 3.6 2.3
0 3 9 5.4 2.1
-1 -3 -9 83.39 5.4
-1 -3 -9 90.69 5.9
-1 -3 -9 82.99 6.5
-1 -3 -9 90.89 5.4
1 3 9 76.99 6.2
1 3 9 79.39 4
1 3 9 73.19 5.9
1 3 9 85.29 5.3
-2 -3 -9 106.59 6.7
-2 -3 -9 102.99 6.2
-2 -3 -9 99.19 7.2
-2 -3 -9 103.19 6
2 3 9 94.39 7
2 3 9 112.39 6.1
2 3 9 104.89 5.1
2 3 9 104.69 6.8
-3 -3 -9 44.3 4.6
-3 -3 -9 40.8 4.2
-3 -3 -9 51.99 4.3
-3 -3 -9 53.09 5.1
3 3 9 52.79 4.1
3 3 9 45 3.6
3 3 9 51.39 5.2
-4 -3 -9 60.39 5.7
-4 -3 -9 62.49 4.9
4 3 9 63.99 6.1
4 3 9 64.89 5.1
4 3 9 79.39 5.6
4 3 9 67.69 5.1
-5 -3 -9 -135.39 160.28
-5 -3 -9 3.7 2.3
-5 -3 -9 0.6 2.5
5 3 9 11.1 2.8
5 3 9 8.6 2.6
5 3 9 12.8 2.8
5 3 9 9.2 2.5
-6 -3 -9 269.47 222.58
-7 -3 -9 30.4 3.8
-7 -3 -9 18.4 3.8
7 3 9 30.1 4.8
7 3 9 31 4.6
7 3 9 30.8 4.5
-8 -3 -9 0.7 2.6
-8 -3 -9 3.6 3.3
8 3 9 3 3.2
8 3 9 3.7 3.4
8 3 9 4.6 3.8
-9 -3 -9 6.3 4.2
-9 -3 -9 8 3.4
9 3 9 3.5 4.3
9 3 9 4.3 3.8
5 -4 -9 3.2 4
4 -4 -9 2.1 3.4
4 -4 -9 13 3.6
-4 4 9 11.8 4.1
-4 4 9 12.7 4.4
3 -4 -9 15.9 3.8
3 -4 -9 18.3 3.4
-3 4 9 18.9 3.9
-3 4 9 19.4 3.7
2 -4 -9 27.4 3.2
2 -4 -9 32.3 4.3
2 -4 -9 29.7 3.9
-2 4 9 33.9 4.4
-2 4 9 32.2 4.5
1 -4 -9 3.4 2.6
1 -4 -9 1.7 2.3
1 -4 -9 5.1 2.2
1 -4 -9 7.4 2.6
-1 4 9 4.7 2.8
-1 4 9 6.6 2.6
0 -4 -9 65.79 5.4
0 -4 -9 62.69 4.8
0 -4 -9 61.49 5.8
0 -4 -9 70.19 5
0 4 9 66.29 4.9
0 4 9 57.79 5.2
0 4 9 67.59 5.5
-1 -4 -9 86.49 5.5
-1 -4 -9 87.39 6.6
-1 -4 -9 85.69 6
-1 -4 -9 73.09 5.6
1 4 9 71.99 6.1
1 4 9 84.09 5.3
1 4 9 87.59 6.1
-2 -4 -9 2.9 2
-2 -4 -9 -0.5 2.1
-2 -4 -9 -3.4 2.1
-2 -4 -9 1.2 2.1
2 4 9 1.9 1.5
2 4 9 0.8 1
2 4 9 -0.6 1.8
-3 -4 -9 11.9 2.6
-3 -4 -9 10.9 2.6
-3 -4 -9 13.8 3.1
-3 -4 -9 12.1 2.8
3 4 9 14.5 2.9
3 4 9 11.3 3
3 4 9 13.2 2.5
-4 -4 -9 22.9 3.2
-4 -4 -9 15 3.4
-4 -4 -9 21.6 3.1
-4 -4 -9 24.4 3.6
4 4 9 17.7 3.3
4 4 9 17.1 2.9
4 4 9 20.6 3
-5 -4 -9 4.5 2.6
-5 -4 -9 3.6 2.6
-5 -4 -9 5 2.4
5 4 9 2.9 2.8
5 4 9 5 2.8
5 4 9 5.8 2.2
5 4 9 1.9 2.4
-6 -4 -9 1.7 2.4
-6 -4 -9 0.5 2.8
6 4 9 1.7 2.4
6 4 9 1.2 2.9
6 4 9 1.2 2.6
6 4 9 0.4 2.9
-7 -4 -9 10.4 3
-7 -4 -9 9 3.6
-7 -4 -9 14 2.6
7 4 9 9.4 3.4
7 4 9 5.7 3
7 4 9 7.7 3.6
7 4 9 15 4
-8 -4 -9 0.5 3.7
-8 -4 -9 0.3 2.6
8 4 9 1.5 3.4
8 4 9 0.9 3.2
8 4 9 1.5 3.8
-9 -4 -9 1.9 3.1
-9 -4 -9 4.7 4.2
9 4 9 1.7 3.8
9 4 9 0.2 4.5
9 4 9 10.4 3.9
4 -5 -9 -1 3.4
-4 5 9 2.1 4.5
-4 5 9 0.4 4
3 -5 -9 13.1 3.7
3 -5 -9 13.6 3.5
-3 5 9 26 4.8
-3 5 9 21.9 4
2 -5 -9 22.6 4.1
2 -5 -9 17.9 3.3
2 -5 -9 26.7 3.4
-2 5 9 18.4 4.2
-2 5 9 19.9 3.9
1 -5 -9 36.5 4.3
1 -5 -9 29.5 4.6
1 -5 -9 38.3 4
-1 5 9 37 5
-1 5 9 37.3 4.4
0 -5 -9 4.5 2.1
0 -5 -9 1.1 2.7
0 -5 -9 -0.7 2.3
0 -5 -9 4.5 2.3
0 5 9 0.4 2.3
0 5 9 2.9 2.5
-1 -5 -9 238.98 11.3
-1 -5 -9 236.48 11.8
-1 -5 -9 223.58 10.8
-1 -5 -9 217.68 12.9
1 5 9 243.38 10.9
-2 -5 -9 3.8 2.2
-2 -5 -9 1.5 2.3
-2 -5 -9 -3 2.3
-2 -5 -9 3.8 2.7
2 5 9 1.3 2.6
2 5 9 3.5 1.9
2 5 9 0.9 2.2
-3 -5 -9 21.6 3.8
-3 -5 -9 21 3.2
-3 -5 -9 22.3 3.6
-3 -5 -9 24.6 3.9
3 5 9 29.1 3.2
3 5 9 26.3 3.9
3 5 9 20.1 3.5
-4 -5 -9 45 4.5
-4 -5 -9 42.7 5.1
-4 -5 -9 28.1 4
-4 -5 -9 45.5 4.7
4 5 9 40.2 5.3
4 5 9 39.5 4.4
4 5 9 33.1 4.3
4 5 9 45.1 4.2
-5 -5 -9 13.4 3.4
-5 -5 -9 22 3.6
-5 -5 -9 26.6 3.3
5 5 9 17.5 3.4
5 5 9 26.5 4.7
5 5 9 22.9 3.8
5 5 9 24.4 3.3
-6 -5 -9 22 4.3
-6 -5 -9 30.9 4.1
-6 -5 -9 36.2 4.8
6 5 9 37.2 4.7
6 5 9 30.1 5.1
6 5 9 31.8 4.6
6 5 9 31.8 4.1
-7 -5 -9 0.5 2.1
-7 -5 -9 5.3 3
-7 -5 -9 -1.8 3.3
7 5 9 1.5 3.2
7 5 9 2.7 3
7 5 9 -0.4 2.3
7 5 9 -5.6 3
-8 -5 -9 29.7 4.4
-8 -5 -9 21.7 4.9
8 5 9 35.4 6
8 5 9 30 5.6
8 5 9 34.6 5
-9 -5 -9 -1.8 4.3
9 5 9 6.8 4.2
9 5 9 8 3.7
9 5 9 0.5 4.3
3 -6 -9 41 4.9
3 -6 -9 35.5 5
-3 6 9 39.7 6.2
-3 6 9 45.4 5.5
2 -6 -9 -1.5 2.9
2 -6 -9 -1 3.2
2 -6 -9 -0.5 2.7
-2 6 9 6 3.1
-2 6 9 4.4 3.4
1 -6 -9 55.99 6.4
1 -6 -9 69.99 5.9
1 -6 -9 65.19 5.8
-1 6 9 84.19 6.8
-1 6 9 72.59 7.1
0 -6 -9 6.4 3.2
0 -6 -9 8.3 3
0 -6 -9 7 2.8
0 6 9 8.6 3.2
0 6 9 8 3.1
-1 -6 -9 17.3 3.3
-1 -6 -9 14.2 3
-1 -6 -9 13.6 3.2
-1 -6 -9 12.5 3.4
1 6 9 12.7 2.7
1 6 9 21.3 3.5
-2 -6 -9 6 2.6
-2 -6 -9 0 2.3
-2 -6 -9 2 2.7
-2 -6 -9 3.1 2.8
2 6 9 0.3 2
2 6 9 -0.9 2.4
-3 -6 -9 44 4.8
-3 -6 -9 44.3 5.4
-3 -6 -9 43.2 4.4
-3 -6 -9 41.6 4.7
3 6 9 42 5.1
3 6 9 47.6 4.1
-4 -6 -9 53.39 6
-4 -6 -9 46.6 4.7
-4 -6 -9 43.2 4.9
4 6 9 42.1 5
4 6 9 56.39 5.7
4 6 9 46.5 4.5
4 6 9 40.4 5.6
-5 -6 -9 -1 2.9
-5 -6 -9 3.6 2.7
-5 -6 -9 3.4 3.1
5 6 9 -1.2 2.1
5 6 9 -1.8 2.7
5 6 9 -1 2.9
5 6 9 0.9 2.8
-6 -6 -9 19.5 4.6
-6 -6 -9 19.8 4.1
-6 -6 -9 17.9 3.9
6 6 9 21.7 3.5
6 6 9 16.1 3.7
6 6 9 17.5 4.2
6 6 9 25.3 4.7
-7 -6 -9 8 3.9
-7 -6 -9 3.2 3.8
-7 -6 -9 7.4 3.5
7 6 9 4.9 3.6
7 6 9 5.6 3
7 6 9 6.6 3.8
7 6 9 3.8 3
-8 -6 -9 3 4
8 6 9 -6.4 3.9
8 6 9 0.3 4.2
8 6 9 -6 3.3
2 -7 -9 24.5 4.7
2 -7 -9 28.7 4.4
-2 7 9 32.3 5.1
-2 7 9 35.8 5.9
1 -7 -9 10 3.3
1 -7 -9 8.6 3.9
1 -7 -9 14.3 3.6
-1 7 9 19 4
-1 7 9 7.3 4.2
0 -7 -9 -1.6 3.2
0 -7 -9 -2.9 2.7
0 -7 -9 -2.3 2.7
0 7 9 -1 3
0 7 9 -0.5 3.3
-1 -7 -9 44.3 5
-1 -7 -9 57.99 5.7
-1 -7 -9 58.29 6
1 7 9 56.79 6.2
1 7 9 61.89 6.4
-2 -7 -9 1.2 2.9
-2 -7 -9 2.1 3.2
-2 -7 -9 4.3 2.8
-2 -7 -9 0.3 2.5
2 7 9 11 3.4
2 7 9 2.8 2.2
-3 -7 -9 17.5 3.4
-3 -7 -9 16.7 3.8
-3 -7 -9 18.6 3.6
-3 -7 -9 20.4 4.3
3 7 9 18.9 3.9
3 7 9 13.7 2.7
-4 -7 -9 18.3 3.5
-4 -7 -9 17.2 3.9
-4 -7 -9 8.3 3.5
-4 -7 -9 24 4.5
4 7 9 17.2 2.8
4 7 9 23 4.1
-5 -7 -9 5 3
-5 -7 -9 2.8 3.4
-5 -7 -9 1.9 3.8
-5 -7 -9 4.7 3.6
5 7 9 4.6 3.1
5 7 9 7.6 3.4
5 7 9 6.7 2.4
-6 -7 -9 -2.9 3.1
-6 -7 -9 1.6 2.8
-6 -7 -9 3.9 3.4
6 7 9 -0.4 2.8
6 7 9 0.7 3.2
6 7 9 0 2.5
-7 -7 -9 5.4 3.5
-7 -7 -9 1.2 3.9
-7 -7 -9 -1.4 3.6
7 7 9 4.2 2.8
7 7 9 1.7 3.5
7 7 9 -3.8 3.8
7 7 9 3.3 4.1
-8 -7 -9 -2 4.3
-8 -7 -9 -3.1 4.3
-8 -7 -9 1.1 3.6
8 7 9 0.8 3.3
8 7 9 0.1 3.4
8 7 9 -3.9 4.3
8 7 9 1.1 4.6
1 -8 -9 5.6 3.7
1 -8 -9 1.6 4
1 -8 -9 9.5 3.8
-1 8 9 5.9 4.2
-1 8 9 10.7 4.7
0 -8 -9 13.8 4.5
0 -8 -9 22 3.9
0 -8 -9 22.8 4
0 8 9 18.5 5
-1 -8 -9 45.1 5.5
-1 -8 -9 44.3 5.3
-1 -8 -9 36.3 4.8
1 8 9 46.6 5.8
1 8 9 35.7 5.7
-2 -8 -9 1.2 3
-2 -8 -9 1.5 3.8
-2 -8 -9 1.8 3.2
2 8 9 4.9 3.7
-3 -8 -9 19.5 4.3
-3 -8 -9 18.2 4.4
-3 -8 -9 23 3.8
-3 -8 -9 20.5 4.6
3 8 9 15.9 4.2
-4 -8 -9 -1.6 3.5
-4 -8 -9 3.4 3.5
-4 -8 -9 2 2.9
-4 -8 -9 4.6 3.1
4 8 9 4.4 3.3
-5 -8 -9 -0.1 2.9
-5 -8 -9 -9.7 3.3
-5 -8 -9 -0.3 4.1
-5 -8 -9 0.1 3.5
5 8 9 4.2 3.7
5 8 9 -3.3 2.9
-6 -8 -9 23 5.2
-6 -8 -9 22 5.1
-6 -8 -9 28.9 4.3
6 8 9 22.2 4.8
6 8 9 30.4 5.3
-7 -8 -9 10.4 4.1
-7 -8 -9 4.4 4.3
7 8 9 4 4.6
7 8 9 7.9 3.7
-8 -8 -9 23.4 5.2
-8 -8 -9 4.8 5.2
8 8 9 12 4.6
8 8 9 13.6 5.8
-1 -9 -9 8 3.9
-1 -9 -9 1.2 3.7
-1 -9 -9 11.7 4.2
1 9 9 5.7 4.3
1 9 9 4.2 4.5
-2 -9 -9 13.4 4.1
-2 -9 -9 10.3 3.9
-2 -9 -9 18.1 5.2
2 9 9 18.5 4.7
2 9 9 12.1 4.3
-3 -9 -9 17.5 3.9
-3 -9 -9 15.7 4.5
-3 -9 -9 20.2 5.3
3 9 9 26.4 5
-4 -9 -9 4.7 4.2
-4 -9 -9 2.6 3.9
-4 -9 -9 -1.4 4.1
-4 -9 -9 8.3 3.9
4 9 9 2.6 3.5
-5 -9 -9 12 4.1
-5 -9 -9 5.2 3.5
-5 -9 -9 -1.3 4
5 9 9 0.4 3.8
-6 -9 -9 -4.2 4.4
-6 -9 -9 2.8 3.5
-6 -9 -9 -6.7 4.1
6 9 9 -2.4 3.7
6 9 9 0.5 3.9
-7 -9 -9 1 4.7
-7 -9 -9 6 4.2
-7 -9 -9 5.5 5
7 9 9 1.1 4.4
7 9 9 -7 4.1
-3 -10 -9 11.7 5.3
-4 -10 -9 -4.1 4.9
-4 -10 -9 3.7 4.6
4 10 9 -0.6 4.4
4 7 -10 152.78 260.67
3 7 -10 6.2 4.6
3 7 -10 8.7 5
3 7 -10 -147.59 209.68
-3 -7 10 2.1 4.4
-3 -7 10 3.7 3.9
-3 -7 10 3.8 4.9
2 7 -10 -206.38 231.58
2 7 -10 18.6 5
-2 -7 10 2.4 3.8
-2 -7 10 14.3 4.6
-2 -7 10 12.7 3.9
-2 -7 10 -2.8 5.3
1 7 -10 88.19 9.2
1 7 -10 417.56 278.57
-1 -7 10 75.69 8.6
-1 -7 10 76.89 7.7
-1 -7 10 93.79 8.1
-1 -7 10 86.09 8.5
0 7 -10 181.38 262.07
-1 7 -10 -62.69 238.78
-1 7 -10 -10.4 4
1 -7 10 0.8 4.6
1 -7 10 -1 3.7
1 -7 10 4.9 4.3
5 6 -10 42.1 239.48
5 6 -10 5.8 4.6
5 6 -10 5.5 4.4
-5 -6 10 6.2 4.4
-5 -6 10 -2.6 5.1
4 6 -10 -0.8 224.48
4 6 -10 4.9 4.4
4 6 -10 5.5 4.4
-4 -6 10 7.4 3.6
-4 -6 10 5.1 4.1
-4 -6 10 -8.7 4.6
3 6 -10 260.67 224.38
2 6 -10 164.18 223.38
1 6 -10 -6 200.18
1 6 -10 32.9 5.2
-1 -6 10 35.1 4.8
-1 -6 10 32.9 5.9
-1 -6 10 37.1 4.9
-1 -6 10 27.1 3.9
0 6 -10 238.18 222.48
-1 6 -10 -199.28 200.68
1 -6 10 17.9 4.4
1 -6 10 16 3.6
-2 6 -10 -2.8 3.6
-2 6 -10 -239.78 206.98
2 -6 10 9.8 3.8
2 -6 10 3.5 3.1
2 -6 10 -2.3 3.8
-3 6 -10 -116.19 219.68
5 5 -10 10.5 4.1
5 5 -10 9.6 4.3
-5 -5 10 8.9 4.6
-5 -5 10 18.7 5.5
-5 -5 10 4.3 4.2
4 5 -10 -1.9 3.4
4 5 -10 -35.7 203.88
4 5 -10 -2.3 3.9
-4 -5 10 1 3.1
-4 -5 10 -2.7 4.1
3 5 -10 -142.59 186.38
3 5 -10 -1.4 3.5
3 5 -10 2.1 3.7
-3 -5 10 8.1 3.3
-3 -5 10 8.2 4.6
2 5 -10 13.7 4.1
2 5 -10 17.4 196.58
2 5 -10 11.8 3.9
-2 -5 10 20.2 3.3
-2 -5 10 17 5
-2 -5 10 22.2 3.5
-2 -5 10 17 4.5
-2 -5 10 26.6 3.9
1 5 -10 17 4.2
1 5 -10 11.6 3.7
1 5 -10 -90.69 172.08
-1 -5 10 11.6 3.1
-1 -5 10 11.6 3.7
-1 -5 10 9 4
-1 -5 10 10.9 3.2
0 5 -10 42.5 208.48
0 5 -10 7.2 3.5
0 5 -10 3.1 3.1
0 -5 10 2.6 2.8
0 -5 10 0.8 3.6
0 -5 10 2.4 2.5
-1 5 -10 -48.4 201.98
-1 5 -10 19.5 4
1 -5 10 16.8 3.8
1 -5 10 15.8 4.2
-2 5 -10 77.79 222.48
-3 5 -10 144.29 224.18
-4 5 -10 58.39 248.58
6 4 -10 6.5 4.3
-6 -4 10 -1.9 4.4
-6 -4 10 10.2 5.3
5 4 -10 1.9 3.6
5 4 -10 2.9 3.5
-5 -4 10 -0.2 4.6
-5 -4 10 -3.8 3.6
4 4 -10 -0.8 3.2
4 4 -10 -3.5 3.1
-4 -4 10 6.9 3.2
-4 -4 10 1 3.9
3 4 -10 -50.79 193.88
3 4 -10 16.8 3.5
3 4 -10 15.8 4.3
-3 -4 10 13.9 4.6
2 4 -10 104.09 189.58
1 4 -10 15.4 3.6
1 4 -10 16.4 3.8
1 4 -10 26 174.18
-1 -4 10 17.3 3.1
-1 -4 10 21.7 3.3
-1 -4 10 14.5 3.8
-1 -4 10 15 4
0 4 -10 13.5 3.4
0 4 -10 37.1 162.18
0 4 -10 11.5 3.4
0 -4 10 15.8 3
0 -4 10 16.1 4
0 -4 10 23.1 3.5
0 -4 10 21 4
-1 4 -10 52.39 5.2
-1 4 -10 2.2 168.88
-1 4 -10 58.99 5.6
1 -4 10 56.89 5
1 -4 10 51.89 6.1
1 -4 10 50.09 5.7
1 -4 10 49.7 5.2
-2 4 -10 -51.09 205.38
-2 4 -10 2.9 2.9
2 -4 10 -3.1 3.1
2 -4 10 3.8 2.4
2 -4 10 1.7 2.5
-3 4 -10 -100.89 197.68
-3 4 -10 13.6 3.5
3 -4 10 15.2 3.5
3 -4 10 7.6 3.2
-4 4 -10 11.2 3.8
-4 4 -10 108.69 217.68
4 -4 10 0.7 3.2
4 -4 10 8.2 3.6
4 -4 10 14.5 3.7
-5 4 -10 -2.5 3.7
-5 4 -10 29.9 244.38
5 -4 10 3.6 3.3
5 -4 10 -0.3 3.3
5 -4 10 -1.7 3.7
6 3 -10 -5.9 3.7
6 3 -10 0.5 3.8
6 3 -10 -1.2 4.7
-6 -3 10 2.2 5
5 3 -10 48.4 6.1
5 3 -10 42.3 5.9
5 3 -10 35.6 6.5
5 3 -10 36 4.8
-5 -3 10 52.69 5.4
-5 -3 10 33.8 5.7
4 3 -10 13 3.6
4 3 -10 9.4 2.9
4 3 -10 12.2 4.4
4 3 -10 16.1 4.2
-4 -3 10 10.6 3.5
-4 -3 10 7 4.2
3 3 -10 9.6 3.2
3 3 -10 10.1 3.7
3 3 -10 2.6 3.7
3 3 -10 8.9 2.3
-3 -3 10 10.3 3
-3 -3 10 11 4.5
2 3 -10 0.3 2.5
2 3 -10 -9.2 170.48
2 3 -10 -1.3 2.3
2 3 -10 -1.3 3.1
-2 -3 10 -2.8 2
-2 -3 10 0.4 3.3
-2 -3 10 -1.3 2.6
-2 -3 10 1.5 2.2
1 3 -10 -77.59 154.98
-1 -3 10 13.8 3.4
0 3 -10 9.8 2.9
0 3 -10 13.8 3
0 3 -10 -233.18 138.29
0 -3 10 11.5 2.8
0 -3 10 11.8 2.8
0 -3 10 10.6 3.2
0 -3 10 9.7 3.3
-1 3 -10 54.99 5.4
-1 3 -10 9.5 174.28
-1 3 -10 46.5 4.9
1 -3 10 53.89 5.3
1 -3 10 40.4 4.5
1 -3 10 50.39 4.7
1 -3 10 50.79 5.4
-2 3 -10 -173.18 162.28
-3 3 -10 -96.59 175.88
-4 3 -10 -2 2.7
-4 3 -10 -37.4 185.28
4 -3 10 -3.1 2.7
4 -3 10 -1.4 2.7
4 -3 10 2.8 2.5
-5 3 -10 194.08 244.78
-6 3 -10 -98.79 243.98
-6 3 -10 0.3 3.8
6 -3 10 -6.3 3.8
6 -3 10 -0.9 3.6
6 -3 10 -0.1 3.4
6 2 -10 3.8 3.9
6 2 -10 4 3.8
-6 -2 10 12.5 5.1
5 2 -10 4.4 3.1
5 2 -10 -0.1 3.7
5 2 -10 -2.7 3.5
5 2 -10 7.5 4.2
-5 -2 10 3 4.2
-5 -2 10 -1.2 3.1
4 2 -10 4.2 2.5
4 2 -10 2.2 3
4 2 -10 0.9 3.4
4 2 -10 -1.1 3.9
-4 -2 10 1.5 2.9
-4 -2 10 0.9 3.6
3 2 -10 1.4 2.4
3 2 -10 0.1 3.2
3 2 -10 -0.7 2.2
3 2 -10 0.4 2.9
-3 -2 10 -0.7 3.6
-3 -2 10 0.4 2.2
2 2 -10 0.2 2.6
2 2 -10 -0.4 2.8
2 2 -10 2.4 2.4
2 2 -10 -3.2 1.8
-2 -2 10 -1.7 2.8
-2 -2 10 -0.7 2
-2 -2 10 -1 2.1
-2 -2 10 0.3 2.1
1 2 -10 141.49 8.6
1 2 -10 300.67 167.78
1 2 -10 128.39 8
-1 -2 10 142.39 9
-1 -2 10 141.19 7.9
-1 -2 10 132.09 9.2
-1 -2 10 139.29 7.6
0 2 -10 129.19 8.1
0 2 -10 137.29 7.8
0 2 -10 -29.7 156.68
0 -2 10 143.69 7.7
0 -2 10 139.39 8.6
0 -2 10 130.99 8.7
0 -2 10 125.39 7.3
-1 2 -10 91.39 162.48
-2 2 -10 21 3.5
-2 2 -10 23.8 3.3
-2 2 -10 101.99 159.88
2 -2 10 19.4 3.6
2 -2 10 22.7 3.6
2 -2 10 22.4 3.2
2 -2 10 18.5 3.3
-3 2 -10 180.88 174.98
-4 2 -10 -51.99 194.38
4 -2 10 14 3.3
4 -2 10 15.6 3.3
4 -2 10 9.2 3.3
-5 2 -10 -29.8 216.68
-5 2 -10 23.7 4
5 -2 10 28.2 4
5 -2 10 17.1 3.6
5 -2 10 17.2 3.7
-6 2 -10 0.1 3.4
-6 2 -10 -77.79 240.38
6 -2 10 2.5 3.3
6 -2 10 -2.7 3.2
6 -2 10 -2.1 3
6 1 -10 5.6 3.9
6 1 -10 3.1 4.8
6 1 -10 -1.9 4.1
-6 -1 10 -0.3 4.7
-6 -1 10 -10.3 3.8
5 1 -10 2.9 3
5 1 -10 2.2 4.4
5 1 -10 1 3.3
-5 -1 10 6.3 4.1
4 1 -10 29.5 4
4 1 -10 32.7 5.1
4 1 -10 31.7 4.3
4 1 -10 28.3 4.5
-4 -1 10 30.3 3.7
-4 -1 10 28.2 5
-4 -1 10 25.1 3.5
3 1 -10 21.4 3.1
3 1 -10 16.5 3.6
3 1 -10 15.7 3.5
3 1 -10 11.8 4.1
-3 -1 10 18.1 2.9
-3 -1 10 21.4 4.5
-3 -1 10 13.3 2.7
2 1 -10 32 4.5
2 1 -10 36.6 4.3
2 1 -10 31.5 4.7
-2 -1 10 37.1 5.2
-2 -1 10 25.2 3.7
-2 -1 10 39.8 4
-2 -1 10 45.2 3.6
-2 -1 10 46.5 4.5
1 1 -10 57.19 5.4
1 1 -10 63.49 5.6
-1 -1 10 71.09 5.3
-1 -1 10 64.89 5.6
-1 -1 10 63.59 4.5
-1 -1 10 62.59 6.3
-1 -1 10 55.49 4.1
0 1 -10 13.7 3.3
0 1 -10 18.1 3.2
0 1 -10 19.6 3.2
0 1 -10 -51.49 142.19
0 -1 10 16.6 2.9
0 -1 10 22.7 2.8
0 -1 10 16 3.8
0 -1 10 18.9 3.5
-1 1 -10 48.5 5.3
-1 1 -10 -16.1 145.59
-1 1 -10 55.19 5
-1 1 -10 41.5 4.7
1 -1 10 60.29 5.6
1 -1 10 58.49 5.5
1 -1 10 61.09 4.3
1 -1 10 52.09 4.6
-2 1 -10 21.3 140.89
-2 1 -10 52.79 5
-2 1 -10 53.69 5
2 -1 10 53.49 4.5
2 -1 10 59.89 5.4
2 -1 10 58.59 4.8
2 -1 10 54.59 5.4
-3 1 -10 92.79 178.48
-3 1 -10 7.8 2.8
-3 1 -10 9.5 2.9
3 -1 10 13.4 3
3 -1 10 9.6 3
3 -1 10 8.3 2.5
3 -1 10 11.6 2.6
-4 1 -10 91.19 6.5
-4 1 -10 -24.5 182.68
4 -1 10 93.29 6.6
4 -1 10 90.79 6.5
4 -1 10 84.19 6.9
-5 1 -10 5.3 2.5
-5 1 -10 -229.08 171.28
5 -1 10 4.4 2.7
5 -1 10 6.4 3
5 -1 10 5 2.9
-6 1 -10 122.79 214.98
-7 1 -10 253.27 261.57
6 0 -10 -3.9 4
6 0 -10 4.8 4.1
6 0 -10 8.1 4.4
-6 0 10 1.6 3.9
-6 0 10 -0.6 4.2
-6 0 10 3 4.3
5 0 -10 3 3.6
5 0 -10 0.9 3.4
5 0 -10 7.4 3.5
-5 0 10 -3.8 3.2
-5 0 10 -0.8 4
-5 0 10 -4.1 3
4 0 -10 3.7 2.7
4 0 -10 0.6 3.6
4 0 -10 1.7 2.7
4 0 -10 -2.3 2.5
-4 0 10 0.9 2.6
-4 0 10 1.5 3.2
3 0 -10 6.9 3
3 0 -10 11.9 3.8
3 0 -10 11.5 3.3
-3 0 10 11.6 2.7
-3 0 10 9.2 3.8
-3 0 10 10.7 2.3
2 0 -10 99.79 7.1
2 0 -10 92.49 7.7
2 0 -10 87.49 6.4
-2 0 10 89.89 5.9
-2 0 10 93.09 7.4
-2 0 10 86.29 5.4
1 0 -10 34 4.1
1 0 -10 34.3 4.5
1 0 -10 38.1 4.1
-1 0 10 30.4 4.4
-1 0 10 27.4 3.2
-1 0 10 32.3 4.3
-1 0 10 32 3.3
-1 0 10 31.9 3.8
0 0 -10 48.3 4.7
0 0 -10 47.1 4.9
0 0 -10 43.3 5.1
0 0 10 44.2 4.4
0 0 10 46.9 5.1
0 0 10 59.09 5.4
0 0 10 49.1 3.7
-1 0 -10 34.9 4.1
-1 0 -10 42.8 4.8
-1 0 -10 64.59 148.09
-1 0 -10 41.1 4.2
1 0 10 44.7 4.1
1 0 10 42.2 4.5
1 0 10 43 4.9
1 0 10 39.4 3.5
-2 0 -10 -15.8 154.18
-2 0 -10 33.7 3.8
-2 0 -10 30.1 4.1
-2 0 -10 32.5 3.7
2 0 10 39.8 3.5
2 0 10 30.8 4
2 0 10 30.4 3.9
2 0 10 34.3 3.7
-3 0 -10 127.19 7.3
-3 0 -10 119.89 7.1
-3 0 -10 76.69 185.28
3 0 10 120.89 7.8
3 0 10 118.59 7.1
3 0 10 121.29 8.1
3 0 10 112.39 7
-4 0 -10 194.08 199.98
-4 0 -10 253.07 11.6
-4 0 -10 243.28 12.3
4 0 10 247.88 13.6
4 0 10 256.87 12.4
4 0 10 248.38 12.1
4 0 10 235.38 11.9
-5 0 -10 3.1 2.5
-5 0 -10 -46.4 188.68
5 0 10 4.5 2.3
5 0 10 0.9 2.1
5 0 10 -1.1 2.7
5 0 10 2.9 2.3
-6 0 -10 24.6 3.8
-6 0 -10 104.19 209.48
6 0 10 19.9 4.1
6 0 10 17.8 3.4
6 0 10 23.4 4.3
-7 0 -10 31.7 4.6
-7 0 -10 -40.3 219.48
7 0 10 21.1 5
7 0 10 29 4.8
7 0 10 25.2 4.8
5 -1 -10 1.8 3.9
5 -1 -10 6.9 3.8
5 -1 -10 8.2 3.4
-5 1 10 7.8 4.1
-5 1 10 14.3 3.7
-5 1 10 2.9 3.4
4 -1 -10 2.2 3.3
4 -1 -10 2.9 3
4 -1 -10 -2.3 2.6
-4 1 10 -3.5 2.7
-4 1 10 0.9 3.2
-4 1 10 -2.1 2.9
3 -1 -10 -0.7 2.3
3 -1 -10 -0.1 2.3
3 -1 -10 1.1 2.9
-3 1 10 -2.6 2.9
-3 1 10 -0.3 2.1
2 -1 -10 45.5 4.8
2 -1 -10 58.29 5.1
2 -1 -10 40.6 5.1
-2 1 10 40.9 4.5
-2 1 10 48.5 5.3
1 -1 -10 190.28 10
1 -1 -10 191.68 11.3
1 -1 -10 181.88 9.4
-1 1 10 175.88 10.8
-1 1 10 187.68 9.6
-1 1 10 184.58 9.5
-1 1 10 184.68 8.5
-1 1 10 186.58 10.3
0 -1 -10 312.57 16.6
0 -1 -10 308.57 14.7
0 -1 -10 312.07 13.8
0 1 10 303.97 13.3
0 1 10 314.77 13.9
0 1 10 311.87 16.4
0 1 10 327.17 15
-1 -1 -10 4.7 2.4
-1 -1 -10 8.1 2.7
-1 -1 -10 -64.29 120.69
-1 -1 -10 3.7 2.2
1 1 10 8.6 2.3
1 1 10 4 1.6
1 1 10 5.4 2.1
1 1 10 8.1 2.8
-2 -1 -10 81.39 161.88
-2 -1 -10 123.09 7.4
-2 -1 -10 125.49 8.2
-2 -1 -10 128.29 7.1
2 1 10 121.49 6.4
2 1 10 118.39 7
2 1 10 124.99 7.9
2 1 10 125.59 8.2
-3 -1 -10 10.4 2.6
-3 -1 -10 13.3 2.8
-3 -1 -10 -133.49 141.69
3 1 10 12.6 3.1
3 1 10 10.3 3.1
3 1 10 7.9 2.2
-4 -1 -10 2.2 2.3
-4 -1 -10 -16.4 164.58
-4 -1 -10 5.1 2.5
4 1 10 5.8 1.9
4 1 10 2.3 2.8
4 1 10 3.2 2.7
4 1 10 6.7 2.5
4 1 10 6.7 2.3
-5 -1 -10 16.4 3.2
-5 -1 -10 14.8 3.5
-5 -1 -10 141.79 201.98
5 1 10 14.9 2.8
5 1 10 21.6 3.8
5 1 10 17.8 3.4
5 1 10 21.2 3.4
5 1 10 17 3.1
-6 -1 -10 162.38 230.58
-6 -1 -10 30.3 4.4
6 1 10 30.8 4.5
6 1 10 34 5.1
6 1 10 33.2 4.7
6 1 10 33.6 4.3
-7 -1 -10 3.9 3.2
-7 -1 -10 9.9 230.78
7 1 10 -1.3 3
7 1 10 -1.5 3.1
7 1 10 -1.5 3.6
-8 -1 -10 -349.17 189.58
-8 -1 -10 21.1 4.7
8 1 10 12.1 4.4
8 1 10 13.6 4.9
8 1 10 15 4.9
5 -2 -10 0.5 4.2
5 -2 -10 0.4 3.3
5 -2 -10 5.7 3.9
-5 2 10 9.9 4.2
-5 2 10 0.5 3.9
4 -2 -10 41 5.2
4 -2 -10 38.8 5.4
-4 2 10 50.19 5.8
-4 2 10 31.5 5.3
3 -2 -10 1.6 2.8
3 -2 -10 0.4 3.2
-3 2 10 8.8 3
-3 2 10 7.7 2.8
-3 2 10 6.2 3.8
2 -2 -10 6.1 2.8
2 -2 -10 7.9 2.9
2 -2 -10 10.2 3
-2 2 10 10.3 2.6
-2 2 10 15.7 3.4
1 -2 -10 0.3 2.7
1 -2 -10 -1.6 2.2
1 -2 -10 -1.9 2.1
-1 2 10 -3.6 1.8
-1 2 10 1.3 2.4
-1 2 10 0.3 1.9
0 -2 -10 4 2.6
0 -2 -10 7.8 3.1
0 -2 -10 6.4 2.5
0 2 10 8.3 2.7
0 2 10 11.8 2.5
0 2 10 8.7 2.4
0 2 10 6.9 1.3
0 2 10 4.4 2.9
-1 -2 -10 39.7 4.8
-1 -2 -10 35.8 4.3
-1 -2 -10 42.6 4.3
1 2 10 39.3 4.8
1 2 10 36.4 4.5
1 2 10 42.3 4.1
1 2 10 40.1 2.9
-2 -2 -10 186.08 9.2
-2 -2 -10 181.48 9.9
-2 -2 -10 188.48 11
-2 -2 -10 20.6 149.19
2 2 10 194.38 11.1
2 2 10 182.28 8.7
2 2 10 195.78 10.3
2 2 10 198.58 9.5
-3 -2 -10 9.2 2.5
-3 -2 -10 -184.08 147.09
-3 -2 -10 9.8 2.8
-3 -2 -10 10.1 3
3 2 10 10.6 3
3 2 10 13.7 3.2
-4 -2 -10 35.2 180.68
-4 -2 -10 87.59 6.5
-4 -2 -10 91.69 6.2
4 2 10 94.19 6.2
4 2 10 94.59 5.8
4 2 10 86.89 5.8
4 2 10 88.49 6.8
4 2 10 86.59 7.4
-5 -2 -10 -152.58 171.38
-6 -2 -10 9.8 3.4
-6 -2 -10 95.59 205.98
6 2 10 4.9 3.5
6 2 10 13.5 3.2
6 2 10 4.9 2.9
-7 -2 -10 6.4 3
-7 -2 -10 60.39 215.58
7 2 10 -2 3
7 2 10 -2.9 3.1
7 2 10 -0.4 3.2
-8 -2 -10 -279.17 216.68
-8 -2 -10 1.8 3.6
8 2 10 11.6 4.4
8 2 10 5.4 3.9
8 2 10 5.9 4
5 -3 -10 1.6 3.8
4 -3 -10 8 4.1
4 -3 -10 16.3 3.9
-4 3 10 12.3 4.4
-4 3 10 19.1 4.5
3 -3 -10 -2.5 3.2
3 -3 -10 3.8 2.9
-3 3 10 -0.1 2.7
-3 3 10 0.7 3.1
2 -3 -10 44.2 4.1
2 -3 -10 37.5 4.5
2 -3 -10 38 5.1
2 -3 -10 43.9 4.8
-2 3 10 39 4.9
-2 3 10 48.9 5.1
1 -3 -10 2.9 2
1 -3 -10 3.2 2.2
1 -3 -10 -1.2 2.2
1 -3 -10 -0.3 2.7
-1 3 10 2.6 2.7
-1 3 10 -0.1 2.1
0 -3 -10 2.4 1.8
0 -3 -10 -0.6 2.1
0 -3 -10 -1 2
0 -3 -10 1.6 2.7
0 3 10 2.9 2.3
0 3 10 -3.5 1.9
0 3 10 -1 1.9
-1 -3 -10 2.3 2.4
-1 -3 -10 6.8 2.4
-1 -3 -10 8 3.1
-1 -3 -10 5.6 2.3
1 3 10 6.8 1.2
1 3 10 6.7 2.5
1 3 10 5.4 2.1
1 3 10 6.9 3
-2 -3 -10 89.99 6.1
-2 -3 -10 90.09 6.5
-2 -3 -10 88.49 7
-2 -3 -10 82.49 5.9
2 3 10 104.19 6
2 3 10 91.29 6.9
2 3 10 83.69 4.7
2 3 10 93.79 6.9
-3 -3 -10 49 4.5
-3 -3 -10 42.2 5
-3 -3 -10 37.2 4.5
3 3 10 41.8 3.6
3 3 10 50.19 5.6
3 3 10 39.6 4.1
3 3 10 50.29 5.1
-4 -3 -10 52.39 5.4
-4 -3 -10 56.69 4.9
4 3 10 50.69 4.8
4 3 10 56.79 4.9
4 3 10 53.49 4.7
4 3 10 60.29 5.9
4 3 10 53.39 6.2
-5 -3 -10 7.1 2.9
-5 -3 -10 21.7 188.18
-5 -3 -10 17.1 3.2
5 3 10 15.8 3.1
5 3 10 14 3.9
5 3 10 18.8 3.6
5 3 10 16.7 3.2
-6 -3 -10 4.1 2.8
-6 -3 -10 2 3.3
-6 -3 -10 -197.88 194.98
6 3 10 10.7 3.3
6 3 10 8.9 2.9
6 3 10 3.7 2.7
-7 -3 -10 2.9 3.2
7 3 10 1.9 3.2
7 3 10 1.1 2.7
-8 -3 -10 -0.3 3.7
8 3 10 -5 3.3
8 3 10 -5.5 3.6
8 3 10 -1.5 3.2
4 -4 -10 -2.9 3.5
4 -4 -10 7.3 3.5
-4 4 10 2.4 4.3
-4 4 10 -1 3.7
3 -4 -10 12.7 3.6
3 -4 -10 7.4 3.6
-3 4 10 15.5 4
-3 4 10 13.9 3.8
2 -4 -10 22.1 3.2
2 -4 -10 18.7 3.8
2 -4 -10 29.1 4.4
-2 4 10 26.4 4.5
-2 4 10 26.6 4.5
1 -4 -10 57.79 4.9
1 -4 -10 62.39 5.7
1 -4 -10 65.89 6.4
1 -4 -10 52.69 5.4
-1 4 10 55.59 5.9
-1 4 10 51.89 5.7
0 -4 -10 94.39 7.6
0 -4 -10 103.59 6.5
0 -4 -10 90.79 6.2
0 -4 -10 97.19 6.8
0 4 10 88.89 6.8
0 4 10 95.39 6.3
0 4 10 102.09 7.2
-1 -4 -10 15.9 3.2
-1 -4 -10 15.7 3.1
-1 -4 -10 15.4 3.6
-1 -4 -10 13.1 2.9
1 4 10 12.6 2.7
1 4 10 13.7 3.3
-2 -4 -10 -1.2 2.2
-2 -4 -10 0.5 2.5
-2 -4 -10 2.7 2.6
-2 -4 -10 5 2.3
2 4 10 2.2 2.2
2 4 10 1.1 1.9
2 4 10 3.1 2.8
2 4 10 2.1 1.1
-3 -4 -10 46.8 5.6
-3 -4 -10 57.89 5
-3 -4 -10 56.79 5.1
-3 -4 -10 46 4.9
3 4 10 43.7 3.4
3 4 10 44 5.4
3 4 10 54.79 4.6
-4 -4 -10 12.5 3.2
-4 -4 -10 16.4 3.2
-4 -4 -10 7.3 3.2
-4 -4 -10 10.3 3.3
4 4 10 12.8 2.7
4 4 10 11.3 2.5
4 4 10 13.6 3.1
4 4 10 14.1 3.7
-5 -4 -10 32 4.8
-5 -4 -10 48.5 4.9
5 4 10 40.7 4.7
5 4 10 56.19 5.2
5 4 10 46.8 4.7
-6 -4 -10 1.8 2.6
-6 -4 -10 0 3.1
6 4 10 -0.4 2.7
6 4 10 0 2.8
6 4 10 2.4 2.6
6 4 10 3.4 2.3
-7 -4 -10 4.3 3.6
7 4 10 -2.4 3.6
7 4 10 6.2 3.6
7 4 10 5.6 2.8
-8 -4 -10 0.4 3.6
8 4 10 -3.7 3.4
8 4 10 -1.7 3.6
8 4 10 -3 3.8
3 -5 -10 7.1 3.1
3 -5 -10 1.5 3.6
-3 5 10 7.3 3.4
-3 5 10 6.5 4.1
2 -5 -10 -2.1 3.1
2 -5 -10 -6.7 2.9
-2 5 10 2.5 3.5
-2 5 10 1.3 3.2
1 -5 -10 10.7 3.7
1 -5 -10 15.1 3.4
1 -5 -10 17.7 3.3
-1 5 10 22.1 4.1
-1 5 10 12.3 3.8
0 -5 -10 46.7 4.6
0 -5 -10 36.4 5.3
0 -5 -10 52.39 5.5
0 -5 -10 41.7 4.5
0 5 10 45 5.4
0 5 10 55.89 5.7
-1 -5 -10 60.69 5.5
-1 -5 -10 64.99 5.8
-1 -5 -10 60.99 5.6
-1 -5 -10 60.99 6.8
1 5 10 65.99 5.5
1 5 10 57.09 5.9
-2 -5 -10 13.7 3
-2 -5 -10 12.9 3.5
-2 -5 -10 11.3 3
-2 -5 -10 6.1 3.2
2 5 10 11.5 2.8
-3 -5 -10 35.4 4.2
-3 -5 -10 39 4.5
-3 -5 -10 31.7 4.3
-3 -5 -10 28.4 4.4
3 5 10 32.5 3.7
3 5 10 35.3 3
3 5 10 24.1 3.9
3 5 10 33 4.6
-4 -5 -10 20.6 3.5
-4 -5 -10 11.4 3.5
-4 -5 -10 20.1 3.7
-4 -5 -10 20.4 4.1
4 5 10 18.7 3.1
4 5 10 17.2 3.6
4 5 10 17.7 4
-5 -5 -10 36.5 4.5
-5 -5 -10 18.9 4.3
-5 -5 -10 29.4 4.1
5 5 10 28.5 3.8
5 5 10 25.2 4.3
5 5 10 31.8 4.3
5 5 10 29.3 4.9
-6 -5 -10 15.2 3.4
-6 -5 -10 8.9 3.7
-6 -5 -10 12.2 3.9
6 5 10 15.4 3.4
6 5 10 11 3.6
6 5 10 16.2 4.5
6 5 10 8.3 3.5
-7 -5 -10 4.8 3.5
-7 -5 -10 3.8 3.2
7 5 10 -1 2.8
7 5 10 -2.5 3.3
7 5 10 -3.7 3.2
7 5 10 1 3
-8 -5 -10 7.3 4.4
8 5 10 5.6 3.4
8 5 10 6.8 4.4
8 5 10 -4.9 4
2 -6 -10 12.8 3.7
2 -6 -10 5.5 3.5
-2 6 10 12.3 4.1
-2 6 10 1.9 3.7
1 -6 -10 36.6 4.3
1 -6 -10 31.5 4.8
1 -6 -10 33.6 4.5
-1 6 10 38.3 5.6
-1 6 10 39.4 5.1
0 -6 -10 3.8 3
0 -6 -10 5.6 3.6
0 -6 -10 10.2 3.2
0 6 10 8.3 3.5
0 6 10 11.5 3.8
-1 -6 -10 4.7 3
-1 -6 -10 5.1 2.7
-1 -6 -10 11.7 3.9
-1 -6 -10 8.3 3.1
1 6 10 15.3 3.4
1 6 10 8.1 3.8
1 6 10 4.6 2.6
-2 -6 -10 -3.4 2.4
-2 -6 -10 -0.2 2.6
-2 -6 -10 -1.8 2.5
-2 -6 -10 -3.8 2.9
2 6 10 -5.9 2.1
2 6 10 3.7 2.5
-3 -6 -10 31.8 4.8
-3 -6 -10 27.8 4.6
-3 -6 -10 18 3.9
-3 -6 -10 25 3.8
3 6 10 25.5 4.3
3 6 10 21.2 3.3
-4 -6 -10 45 5.4
-4 -6 -10 31.1 4.6
-4 -6 -10 31.2 4.2
-4 -6 -10 39.5 4.9
4 6 10 38.2 4
4 6 10 30.7 4.5
-5 -6 -10 -1.6 2.4
-5 -6 -10 2.7 3.5
-5 -6 -10 0.4 3.3
5 6 10 0.6 2.8
5 6 10 1.2 2.4
5 6 10 -1.2 3.2
5 6 10 4.2 2.9
-6 -6 -10 8.7 3.3
-6 -6 -10 2.1 3.2
-6 -6 -10 0.6 3.3
6 6 10 -1.6 3.3
6 6 10 2.8 3.1
6 6 10 -2.1 2.9
6 6 10 3.4 2.9
-7 -6 -10 5.3 4
-7 -6 -10 4.1 3.8
-7 -6 -10 9.2 3.2
7 6 10 -1.6 3
7 6 10 -7.8 3.3
7 6 10 2.2 3.2
7 6 10 2.6 4.3
-8 -6 -10 16 4.9
8 6 10 31.6 5.8
8 6 10 22.8 5.6
8 6 10 29 5
1 -7 -10 6.8 3.5
1 -7 -10 3.6 3.5
1 -7 -10 8 4
-1 7 10 5.8 3.9
-1 7 10 6.6 4.6
0 -7 -10 3.7 3.8
0 -7 -10 9.5 3.5
0 -7 -10 11.6 3.6
0 7 10 10.7 4.2
0 7 10 9.1 4
-1 -7 -10 38.2 4.6
-1 -7 -10 26.1 5.4
-1 -7 -10 25.2 4
1 7 10 32.7 5.3
-2 -7 -10 -1.3 3.2
-2 -7 -10 -8.9 2.8
-2 -7 -10 -0.1 3
-2 -7 -10 -0.1 2.9
2 7 10 -1.1 3.1
2 7 10 -1.8 2.4
-3 -7 -10 0.9 2.9
-3 -7 -10 3.1 3.2
-3 -7 -10 1.1 3.4
-3 -7 -10 3.3 3.5
3 7 10 1.3 3
3 7 10 1.6 2.4
-4 -7 -10 11.2 4
-4 -7 -10 11.2 4.1
-4 -7 -10 16.3 3.8
-4 -7 -10 5.9 3.7
4 7 10 13.8 4
4 7 10 11.5 2.5
-5 -7 -10 19.4 4.1
-5 -7 -10 23 3.9
-5 -7 -10 17.5 4.2
5 7 10 23.8 4.5
5 7 10 19.5 4.4
5 7 10 17.2 3.3
-6 -7 -10 10.9 3.9
-6 -7 -10 4.7 4.3
-6 -7 -10 9.2 4
6 7 10 5.6 3.8
6 7 10 7.2 3.8
6 7 10 12.1 3.4
-7 -7 -10 -0.4 3.6
-7 -7 -10 1.1 4.2
-7 -7 -10 9.4 3.8
7 7 10 1.5 4.3
7 7 10 0.9 3.3
7 7 10 0 3.7
-8 -7 -10 4.8 5
-8 -7 -10 9.3 4.5
-8 -7 -10 15.6 4.8
8 7 10 6.7 5
8 7 10 6.6 4.1
8 7 10 12.6 4.9
0 -8 -10 9.5 4.1
0 -8 -10 10.2 3.6
0 -8 -10 7.4 4.2
0 8 10 8.2 4.5
0 8 10 8.9 4.8
-1 -8 -10 0 4
-1 -8 -10 5.1 3.7
-1 -8 -10 3.9 3.3
1 8 10 5.2 3.9
-2 -8 -10 0.7 3
-2 -8 -10 -0.9 3.7
-2 -8 -10 3.8 3.3
2 8 10 -3.2 3.8
2 8 10 3.2 3.6
-3 -8 -10 41.3 5.3
-3 -8 -10 35.2 5.8
-3 -8 -10 32.2 5
-3 -8 -10 25.9 4.9
3 8 10 26.9 5
-4 -8 -10 -0.2 3.3
-4 -8 -10 -3.4 3.7
-4 -8 -10 0.2 3.9
-4 -8 -10 5.1 4.4
4 8 10 3.3 3.4
-5 -8 -10 18.4 4.9
-5 -8 -10 24.2 4.3
-5 -8 -10 15.1 4.5
5 8 10 14.8 4.6
-6 -8 -10 7.7 4.2
-6 -8 -10 8.7 4.4
-6 -8 -10 8.4 3.8
6 8 10 11.3 4.1
6 8 10 10.9 4.2
-7 -8 -10 24.5 5.7
-7 -8 -10 13.9 5.5
-7 -8 -10 23.9 5.3
7 8 10 19.6 5
7 8 10 25 5.4
-2 -9 -10 4.2 4.1
-2 -9 -10 8.9 4.1
-2 -9 -10 0.7 4.4
2 9 10 -0.9 4.3
2 9 10 0.4 4.1
-3 -9 -10 15.2 4.8
-3 -9 -10 10 5.3
-3 -9 -10 7.7 4
3 9 10 11.8 4.7
-4 -9 -10 7.6 4.4
-4 -9 -10 13.6 4.4
-4 -9 -10 14.2 5.4
4 9 10 5.3 4.3
-5 -9 -10 16.3 4.5
-5 -9 -10 8.7 4.9
-5 -9 -10 7.7 4.6
5 9 10 9.4 4.6
-6 -9 -10 2.7 3.9
-6 -9 -10 5.2 4.9
-6 -9 -10 -6.4 4.8
6 9 10 -1.7 4.1
-4 -6 11 9.1 6.2
3 6 -11 -243.18 229.18
3 6 -11 -6.7 4.5
3 6 -11 4.9 4.3
-3 -6 11 5.5 3.5
-3 -6 11 2.3 5
2 6 -11 -1 4.2
2 6 -11 -79.89 238.18
2 6 -11 -9.5 4.3
-2 -6 11 0.5 5.1
-2 -6 11 2.3 3.6
-2 -6 11 -4.5 3.3
1 6 -11 -36.9 210.68
1 6 -11 61.29 7
-1 -6 11 46.8 5.1
-1 -6 11 50.59 7.5
-1 -6 11 51.79 6
-1 -6 11 63.39 6.4
0 6 -11 0.1 4.5
0 6 -11 -81.49 212.48
0 -6 11 -1 5
0 -6 11 0 3.3
0 -6 11 -0.8 3.1
-1 6 -11 20.5 4.9
-1 6 -11 -110.69 225.68
1 -6 11 11.4 3.8
1 -6 11 18.6 4.5
4 5 -11 -4.1 4.3
4 5 -11 0.6 4
-4 -5 11 -0.5 3.9
-4 -5 11 0.9 5
3 5 -11 7.6 4.5
3 5 -11 39.6 216.78
3 5 -11 9.7 4.5
-3 -5 11 16.1 5.4
-3 -5 11 6.7 3.5
2 5 -11 -4.2 3.5
2 5 -11 -2 3.5
2 5 -11 -2.1 217.68
-2 -5 11 0.7 2.8
-2 -5 11 -1.2 4.2
-2 -5 11 5.6 2.6
-2 -5 11 -3.1 3
-2 -5 11 -3.1 4.2
1 5 -11 254.27 224.68
0 5 -11 -106.39 172.88
0 5 -11 2.2 3.5
0 -5 11 -2.3 4.2
0 -5 11 -1.7 2.9
0 -5 11 5.2 2.8
-1 5 -11 4.9 3.6
-1 5 -11 -93.09 202.08
1 -5 11 1.9 3.7
1 -5 11 5.6 3.5
1 -5 11 7.4 3.3
-2 5 -11 -23.5 213.48
-2 5 -11 2.4 3.7
2 -5 11 -2 2.8
2 -5 11 1.3 3.5
2 -5 11 -2.4 3.7
-3 5 -11 285.87 270.17
5 4 -11 20.9 5.7
5 4 -11 23.2 5
-5 -4 11 22.1 6.6
-5 -4 11 20.2 5
4 4 -11 -1.2 3.5
4 4 -11 -1.5 3.9
-4 -4 11 0.3 4.4
-4 -4 11 5 3.6
3 4 -11 41.6 6.1
3 4 -11 158.88 243.88
3 4 -11 37.8 5.1
-3 -4 11 37.2 6.4
-3 -4 11 46.5 5
2 4 -11 44.2 207.38
2 4 -11 9.8 3.7
2 4 -11 14 4.4
-2 -4 11 14.2 4.3
-2 -4 11 7.2 4.4
-2 -4 11 8 3.1
-2 -4 11 6.5 2.9
1 4 -11 -0.8 2.9
1 4 -11 -1.8 3.2
1 4 -11 -135.19 201.08
-1 -4 11 -1.6 3.5
-1 -4 11 -0.3 2.7
-1 -4 11 1.9 2.5
-1 -4 11 1.9 3.9
0 4 -11 20.2 4
0 4 -11 53.69 186.18
0 4 -11 13.5 3.8
0 -4 11 14.1 4.3
0 -4 11 15.5 4.1
0 -4 11 11.4 3
0 -4 11 17 3.5
-1 4 -11 -12.4 219.78
-1 4 -11 4.8 3.1
1 -4 11 0.3 3
1 -4 11 -1.6 2.4
1 -4 11 3.4 3.4
-2 4 -11 325.57 238.98
-3 4 -11 109.79 219.58
-3 4 -11 22.6 4.4
3 -4 11 18 4.4
3 -4 11 19.1 4
3 -4 11 20.6 4.6
-4 4 -11 -0.9 3.7
-4 4 -11 -142.89 212.68
4 -4 11 -0.3 3.5
4 -4 11 3.4 3.3
4 -4 11 2.9 3.8
5 3 -11 19.4 5.2
5 3 -11 10.5 5.7
5 3 -11 9.4 4.8
-5 -3 11 19 4.7
-5 -3 11 22 5.9
4 3 -11 14.7 4.5
4 3 -11 14.6 4.1
-4 -3 11 10 5.1
-4 -3 11 14.4 3.8
3 3 -11 11.5 3.8
3 3 -11 9.5 4
-3 -3 11 7.4 4.5
-3 -3 11 8.6 3.4
2 3 -11 0.6 3.3
2 3 -11 -145.49 175.58
2 3 -11 8.1 3.1
-2 -3 11 2 2.6
-2 -3 11 2.1 2.6
-2 -3 11 5.5 3.5
-2 -3 11 0.4 3.9
1 3 -11 121.39 8.7
1 3 -11 139.19 8.2
1 3 -11 -99.89 173.48
-1 -3 11 127.49 9.4
-1 -3 11 135.79 7.9
-1 -3 11 110.89 7.6
-1 -3 11 126.09 9.1
0 3 -11 2.9 3
0 3 -11 -125.19 176.38
0 3 -11 0.3 2.8
0 -3 11 -0.3 2.2
0 -3 11 -3.1 2.2
0 -3 11 2.3 3.2
0 -3 11 -4.5 3
-1 3 -11 7.6 186.18
-1 3 -11 3.7 3.1
-1 3 -11 4.6 3.2
1 -3 11 5.5 3.3
1 -3 11 4.8 3.1
1 -3 11 1.5 2.4
1 -3 11 4.3 2.3
-2 3 -11 -0.2 2.7
-2 3 -11 64.09 185.68
2 -3 11 5.1 2.6
2 -3 11 9 3.3
2 -3 11 2.3 2.6
-3 3 -11 8.3 3.3
-3 3 -11 -25.1 192.78
3 -3 11 4.9 2.7
3 -3 11 1.4 3.5
3 -3 11 3.1 2.9
-4 3 -11 171.18 274.27
-5 3 -11 45.1 5.6
-5 3 -11 9.8 257.17
5 -3 11 51.39 6
5 -3 11 33.3 5.3
5 -3 11 41.1 5.5
5 2 -11 27.1 5.3
5 2 -11 28.6 6.2
5 2 -11 27.1 4.7
-5 -2 11 27.3 6.3
4 2 -11 38.7 5.9
4 2 -11 30.4 4.9
4 2 -11 33.6 4.3
4 2 -11 20.1 5.5
-4 -2 11 34.3 5.9
-4 -2 11 30.7 4.4
3 2 -11 4.3 3.1
3 2 -11 2.8 3.2
3 2 -11 3.6 2.5
3 2 -11 1.4 3.4
-3 -2 11 -0.1 3.5
-3 -2 11 1.7 2.7
2 2 -11 2.9 2.9
2 2 -11 8.7 2.8
2 2 -11 1.2 3.1
-2 -2 11 1.1 2.3
-2 -2 11 -2 2.2
-2 -2 11 1.7 3.5
1 2 -11 -220.28 166.18
0 2 -11 58.09 183.88
0 2 -11 20 3.7
0 2 -11 12.1 3.2
0 -2 11 13.8 2.9
0 -2 11 13.8 3.1
0 -2 11 13.5 3.9
0 -2 11 15.3 3.4
-1 2 -11 -82.49 177.78
-1 2 -11 1.8 2.6
-1 2 -11 3.6 2.5
1 -2 11 1.1 3.2
1 -2 11 9.8 3.3
1 -2 11 0 2
1 -2 11 8.6 2.3
-2 2 -11 -1.6 2.7
-2 2 -11 0.9 2.4
-2 2 -11 23.9 175.58
2 -2 11 1.3 2.9
2 -2 11 0.6 2
2 -2 11 0.1 2.2
2 -2 11 -3.1 2.6
-3 2 -11 -140.99 182.18
-4 2 -11 5.3 3.1
-4 2 -11 64.19 201.68
4 -2 11 12.3 3.5
4 -2 11 10.5 3.1
4 -2 11 11.4 3.3
-5 2 -11 -182.88 221.28
-5 2 -11 19.3 4
5 -2 11 18.4 3.9
5 -2 11 16.4 4
5 -2 11 18 4.3
-6 2 -11 3.5 3.9
-6 2 -11 -58.99 240.88
6 -2 11 1.1 3.8
6 -2 11 1.7 3.9
6 -2 11 -4.6 3.4
5 1 -11 18.8 4.4
5 1 -11 14.6 4.1
5 1 -11 12.2 5
-5 -1 11 15.4 5.4
4 1 -11 -2.1 3
4 1 -11 -1.7 3.2
4 1 -11 1.9 3.6
4 1 -11 1.3 4.2
-4 -1 11 -1.7 3.9
3 1 -11 5.4 3.7
3 1 -11 5.8 3.1
3 1 -11 4.1 2.5
3 1 -11 2.7 4
-3 -1 11 8.1 4
-3 -1 11 4.3 2.5
2 1 -11 1.2 2.6
2 1 -11 7.6 2.4
2 1 -11 1.1 2.8
2 1 -11 5.3 3.9
-2 -1 11 1.1 1.7
-2 -1 11 3.6 2.3
-2 -1 11 8 2.5
-2 -1 11 3.5 3.7
1 1 -11 7.3 2.8
1 1 -11 8.5 4
1 1 -11 8.1 2.8
-1 -1 11 10.6 3.7
-1 -1 11 9.1 2.8
-1 -1 11 7.4 2.1
-1 -1 11 13.6 3.4
-1 -1 11 9.5 2.4
0 1 -11 -119.99 153.38
0 1 -11 14.8 3.8
-1 1 -11 89.59 6.7
-1 1 -11 75.59 177.48
-1 1 -11 99.09 6.5
1 -1 11 84.89 5.9
1 -1 11 92.39 6.1
1 -1 11 91.49 7.7
1 -1 11 86.49 7.5
-2 1 -11 -108.79 177.48
2 -1 11 17.8 3.9
-3 1 -11 1 3
-3 1 -11 -1.4 2.7
-3 1 -11 -93.09 175.78
3 -1 11 0.3 3
3 -1 11 1.7 2.7
3 -1 11 1.5 2.2
3 -1 11 7.5 2.3
-4 1 -11 -65.19 194.18
-4 1 -11 16.8 3.8
4 -1 11 17 3.5
-5 1 -11 187.18 226.98
-6 1 -11 -1.7 3.3
-6 1 -11 -103.59 191.88
6 -1 11 -0.1 3.7
6 -1 11 -2.4 2.8
6 -1 11 -1.4 3.4
5 0 -11 6.4 5.1
5 0 -11 4.8 4
5 0 -11 6.4 3.8
-5 0 11 -1.5 4
-5 0 11 7.7 4.8
4 0 -11 6.1 4.5
4 0 -11 9.1 3.5
4 0 -11 17.7 3.7
-4 0 11 7.6 3.4
-4 0 11 11.7 4.5
3 0 -11 13.9 4.1
3 0 -11 9.3 4.1
3 0 -11 9.3 3.5
-3 0 11 11.2 4.3
-3 0 11 9 2.9
2 0 -11 61.99 6.1
2 0 -11 65.89 6.8
2 0 -11 63.19 6.3
-2 0 11 68.79 5.2
-2 0 11 69.19 4.9
-2 0 11 67.59 7.2
1 0 -11 2.3 2.5
1 0 -11 -0.7 2.6
1 0 -11 0.6 3
-1 0 11 3 2.5
-1 0 11 2.4 2.3
-1 0 11 -2.6 2.9
-1 0 11 1.6 1.8
-1 0 11 1.8 1.8
0 0 -11 17.8 4
0 0 -11 21.6 3.6
0 0 -11 14.2 3.4
0 0 11 15.7 2.5
0 0 11 24.9 3.4
0 0 11 13.9 2.4
0 0 11 17.9 3.8
0 0 11 18.1 4
-1 0 -11 141.59 171.58
-2 0 -11 -338.87 139.79
-3 0 -11 -179.38 159.38
-4 0 -11 2.8 2.6
-4 0 -11 7.2 2.8
-4 0 -11 -212.38 173.28
4 0 11 1.4 2.2
4 0 11 2.9 2.8
4 0 11 3.9 2.4
4 0 11 2.6 3
-5 0 -11 155.48 205.78
-6 0 -11 58.99 231.88
-6 0 -11 8.7 3.7
6 0 11 11.3 3.5
6 0 11 11.9 3.7
6 0 11 9.1 3.6
-7 0 -11 208.48 265.37
5 -1 -11 2.7 3.7
5 -1 -11 2.4 4.1
5 -1 -11 0.1 4.2
-5 1 11 -4 4.3
-5 1 11 -5.6 3.5
4 -1 -11 10.6 3.7
4 -1 -11 16.2 3.8
4 -1 -11 14.8 4.4
-4 1 11 13.2 4
-4 1 11 12.5 4.5
3 -1 -11 12.2 3.6
3 -1 -11 13.1 3.3
3 -1 -11 11.6 3.9
-3 1 11 16.2 4.3
-3 1 11 13.8 3.2
2 -1 -11 2.7 2.6
2 -1 -11 -5.3 3.1
2 -1 -11 0.6 2.6
-2 1 11 4.5 2.2
-2 1 11 1.7 3
1 -1 -11 7.4 3
1 -1 -11 13.3 3.6
1 -1 -11 8.6 3
-1 1 11 6.1 2
-1 1 11 7.5 2.6
-1 1 11 8.7 3
-1 1 11 8.8 3.4
0 -1 -11 162.68 11
0 -1 -11 183.48 9.4
0 -1 -11 192.08 10.1
0 1 11 169.98 9.1
0 1 11 184.18 11
0 1 11 171.08 10.5
0 1 11 178.48 8.4
0 1 11 174.18 9.5
-1 -1 -11 29.9 4.2
-1 -1 -11 24.5 3.6
-1 -1 -11 28.4 4.5
1 1 11 29.5 3.1
1 1 11 28.2 3.7
1 1 11 24.7 4.2
1 1 11 33.7 4.7
-2 -1 -11 37 4.5
-2 -1 -11 50.09 4.9
-2 -1 -11 51.29 5.5
-2 -1 -11 107.69 162.38
2 1 11 42.5 5.2
2 1 11 49.9 4.1
2 1 11 55.59 5.8
2 1 11 52.19 5
-3 -1 -11 -154.98 150.48
-4 -1 -11 -90.19 173.38
-5 -1 -11 -0.9 2.9
-5 -1 -11 -0.2 2.9
-5 -1 -11 -9.6 187.98
5 1 11 -0.6 1.9
5 1 11 -0.6 3.1
5 1 11 -0.2 2.4
5 1 11 -1.1 2.1
-6 -1 -11 9.8 3.2
-6 -1 -11 -214.08 204.18
6 1 11 11.7 3.9
6 1 11 6.4 3
6 1 11 11.8 3.2
-7 -1 -11 -200.08 221.68
-7 -1 -11 2 3.4
7 1 11 -0.5 3.1
7 1 11 4.2 4
7 1 11 3.1 3.1
4 -2 -11 2.5 3.8
4 -2 -11 -3.5 3.6
-4 2 11 -0.5 3.9
-4 2 11 -4.9 3.5
3 -2 -11 -1.1 3
3 -2 -11 -7.7 3.3
-3 2 11 -1.2 2.8
-3 2 11 -0.8 3.5
2 -2 -11 29.7 5
2 -2 -11 25.2 4.1
2 -2 -11 31.1 4.1
-2 2 11 28.6 4.1
-2 2 11 31.9 5.2
1 -2 -11 -1.2 3.1
1 -2 -11 -4.5 2.5
1 -2 -11 -0.8 2.6
-1 2 11 -1.5 2
-1 2 11 1.1 2.2
-1 2 11 -3.4 2.7
0 -2 -11 68.99 6.1
0 -2 -11 70.39 6.6
0 -2 -11 61.89 5.6
0 2 11 68.29 5.4
0 2 11 65.99 5.7
0 2 11 71.69 6.6
-1 -2 -11 33.1 4.9
-1 -2 -11 40.5 4.6
-1 -2 -11 41.1 4.7
1 2 11 31.5 4.5
1 2 11 40.8 5.2
1 2 11 36.1 3.2
1 2 11 35.7 4.1
-2 -2 -11 85.19 6.2
-2 -2 -11 78.29 6.6
2 2 11 88.29 5.2
2 2 11 90.79 7.3
2 2 11 92.49 6.2
2 2 11 92.49 7.3
-3 -2 -11 -181.38 158.58
-4 -2 -11 39.4 4.4
-4 -2 -11 36.4 4.6
-4 -2 -11 -66.79 192.48
4 2 11 41.4 4.6
4 2 11 43.5 4.5
4 2 11 35.8 4.8
4 2 11 44.2 5.9
-5 -2 -11 -0.2 2.9
-5 -2 -11 14 187.88
-5 -2 -11 0.5 2.7
5 2 11 -0.5 2.1
5 2 11 -1.6 3.1
5 2 11 0.1 2.4
5 2 11 2.5 3.1
5 2 11 1.6 2.4
-6 -2 -11 -160.58 205.38
-6 -2 -11 5.7 3.2
6 2 11 1.5 2.7
6 2 11 4.1 2.8
6 2 11 0.3 2.7
6 2 11 -0.2 3.6
-7 -2 -11 158.18 257.07
-8 -2 -11 17.4 4.3
4 -3 -11 3.1 4
4 -3 -11 -3.1 3.9
-4 3 11 -1.3 4.1
-4 3 11 3.2 4.2
3 -3 -11 -1.5 3.3
3 -3 -11 2.7 3.5
-3 3 11 -0.4 3.7
-3 3 11 3.8 3.4
2 -3 -11 101.89 8.6
2 -3 -11 99.19 7.7
-2 3 11 144.39 9
-2 3 11 115.79 8.2
1 -3 -11 10.2 3.4
1 -3 -11 9.6 3.1
1 -3 -11 6.5 3.3
-1 3 11 13.8 3.6
-1 3 11 8.5 3.1
0 -3 -11 18.8 3.5
0 -3 -11 23.9 3.9
0 -3 -11 20.1 3.2
0 -3 -11 19.1 4.1
0 3 11 20.7 3.6
0 3 11 17.3 3.3
0 3 11 18.3 4.1
-1 -3 -11 5.1 3.4
-1 -3 -11 5.3 2.6
-1 -3 -11 3.5 2.6
-1 -3 -11 10 2.6
1 3 11 14.4 3
1 3 11 1.3 2.9
-2 -3 -11 49.4 6
-2 -3 -11 43 5.1
-2 -3 -11 54.19 5.1
2 3 11 50.79 3.5
2 3 11 65.59 5
2 3 11 57.29 6
2 3 11 50.09 5.6
-3 -3 -11 2.9 2.8
-3 -3 -11 3.3 2.4
-3 -3 -11 5.4 3
3 3 11 2.9 2.8
3 3 11 3.1 1.6
3 3 11 5 3.2
3 3 11 4.2 2.2
-4 -3 -11 73.89 6.2
-4 -3 -11 72.09 6.6
4 3 11 77.79 7
4 3 11 73.39 5.4
4 3 11 83.89 6.1
4 3 11 81.59 7.3
-5 -3 -11 3.8 2.7
-5 -3 -11 56.59 224.28
-5 -3 -11 3.5 2.8
5 3 11 -3.8 2.2
5 3 11 0.2 3.4
5 3 11 1 2.2
5 3 11 2.9 2.3
5 3 11 0.6 2.9
-6 -3 -11 10.9 3.5
-6 -3 -11 18.1 3.6
6 3 11 16.2 3.6
6 3 11 15.6 4.8
6 3 11 21 4.4
6 3 11 11.7 3.1
-7 -3 -11 1.9 3.4
7 3 11 1.2 4
7 3 11 5.2 3.4
7 3 11 1.3 3.1
-8 -3 -11 4.6 4
8 3 11 -8.8 4.3
8 3 11 1.6 3.3
8 3 11 -1.8 4.5
3 -4 -11 10.1 4
3 -4 -11 14.1 3.7
-3 4 11 1.8 4.2
-3 4 11 8.8 4.1
2 -4 -11 21.5 4.1
2 -4 -11 18.5 4.2
-2 4 11 28.2 4.9
-2 4 11 33.6 5.1
1 -4 -11 20.4 3.4
1 -4 -11 17.2 4.4
1 -4 -11 16 3.5
-1 4 11 20.2 4.5
-1 4 11 18.3 3.8
0 -4 -11 144.39 9
0 -4 -11 147.19 10.2
0 -4 -11 147.89 8.4
0 -4 -11 151.88 8.7
0 4 11 160.88 9.7
0 4 11 156.88 8.8
0 4 11 141.49 9.2
-1 -4 -11 8.6 3.4
-1 -4 -11 5.9 3.1
-1 -4 -11 7.1 2.7
-1 -4 -11 12 2.9
1 4 11 5 2.6
1 4 11 6.7 3.5
-2 -4 -11 -2.4 2.3
-2 -4 -11 5 3.1
-2 -4 -11 0.5 2.4
-2 -4 -11 0.2 2.3
2 4 11 -5.6 1.9
2 4 11 -1.8 2.7
-3 -4 -11 126.49 7.4
-3 -4 -11 112.09 7.6
-3 -4 -11 114.29 9
-3 -4 -11 119.79 8.2
3 4 11 122.79 8.6
3 4 11 118.69 7.5
3 4 11 125.29 9.1
3 4 11 112.09 6.2
-4 -4 -11 88.69 6.4
-4 -4 -11 72.99 6.8
-4 -4 -11 85.99 6.8
4 4 11 82.29 8
4 4 11 84.69 6.3
4 4 11 92.19 7.6
4 4 11 86.89 5.6
-5 -4 -11 16.6 3.8
-5 -4 -11 21.1 3.9
5 4 11 16.8 4.5
5 4 11 25 3.6
5 4 11 13.5 3.1
5 4 11 11.4 4.2
-6 -4 -11 5.4 3.3
-6 -4 -11 7.2 3.3
6 4 11 7 4.2
6 4 11 7.3 3
6 4 11 11.5 3.5
-7 -4 -11 6.3 4
7 4 11 16 3.9
7 4 11 21.6 4.7
-8 -4 -11 -4.2 4.1
8 4 11 7.1 3.7
8 4 11 0 4.2
3 -5 -11 8.1 4.1
3 -5 -11 12.5 4.1
-3 5 11 12.6 4.4
2 -5 -11 0.3 3.5
2 -5 -11 0.8 3.5
-2 5 11 0.5 3.7
-2 5 11 6.1 3.7
1 -5 -11 51.69 5.6
1 -5 -11 47.4 4.8
-1 5 11 67.09 6.8
-1 5 11 53.09 6.3
0 -5 -11 107.59 8.9
0 -5 -11 103.29 7.8
0 -5 -11 112.19 7.4
0 -5 -11 110.49 7.6
0 5 11 115.49 8.7
0 5 11 106.49 8
-1 -5 -11 10.1 4
-1 -5 -11 4.2 3.2
-1 -5 -11 4.7 3
-1 -5 -11 9.7 3.1
1 5 11 7 3.7
1 5 11 8 3.1
-2 -5 -11 -0.1 2.8
-2 -5 -11 6.3 2.7
-2 -5 -11 5.2 3.6
-2 -5 -11 -1.3 2.7
2 5 11 7.1 3.3
2 5 11 0.9 2.3
-3 -5 -11 38.8 4.9
-3 -5 -11 43.7 5
-3 -5 -11 42 4.9
-3 -5 -11 42 5.5
3 5 11 42.3 5.7
3 5 11 40.6 4.3
-4 -5 -11 6.7 3
-4 -5 -11 -1.4 2.7
-4 -5 -11 0.6 2.9
4 5 11 3.4 2.3
4 5 11 2.1 2.6
4 5 11 2 3.4
-5 -5 -11 25.7 4.4
-5 -5 -11 17.3 3.9
-5 -5 -11 26.5 4.6
5 5 11 22.1 4.1
5 5 11 23.7 3.8
5 5 11 23 4.8
5 5 11 26.2 4.2
-6 -5 -11 5.6 3.9
-6 -5 -11 13 3.7
6 5 11 7.8 3.2
6 5 11 10 3.4
6 5 11 9.9 3.5
-7 -5 -11 0.1 3.2
-7 -5 -11 -1.3 3.9
7 5 11 -4 2.9
7 5 11 2 3.4
7 5 11 3.8 4
7 5 11 -4.7 3.6
-8 -5 -11 -5.5 4.2
8 5 11 0.8 4.5
8 5 11 -2.3 4
8 5 11 -1.3 3.3
2 -6 -11 5.2 3.8
2 -6 -11 3.3 3.9
-2 6 11 7.9 4.2
-2 6 11 13.2 4.8
1 -6 -11 12.1 3.9
1 -6 -11 8.6 4.2
1 -6 -11 11.8 4
-1 6 11 13.6 5
-1 6 11 8.9 3.9
0 -6 -11 -0.6 2.9
0 -6 -11 0 3.2
0 -6 -11 -3.2 3.8
0 6 11 0 3.9
0 6 11 -2.7 3.3
-1 -6 -11 108.69 8
-1 -6 -11 101.89 8.4
-1 -6 -11 97.79 9.6
1 6 11 118.69 8.6
1 6 11 128.69 9.1
1 6 11 124.39 7.9
-2 -6 -11 0 3.1
-2 -6 -11 2.1 3
-2 -6 -11 -3 3.5
-2 -6 -11 -1.6 2.8
2 6 11 0.1 2.6
2 6 11 2.9 3.6
-3 -6 -11 6.9 3.2
-3 -6 -11 7.4 4.1
-3 -6 -11 8.5 3.3
-3 -6 -11 12.8 3.5
3 6 11 5.9 2.7
3 6 11 10 3.6
-4 -6 -11 1.5 3
-4 -6 -11 9.1 3.3
-4 -6 -11 6 3.6
4 6 11 7 3.2
4 6 11 3.1 2.8
-5 -6 -11 44.6 5.3
-5 -6 -11 54.89 5.9
-5 -6 -11 30 5.2
5 6 11 36.7 5.5
5 6 11 42.3 4.8
-6 -6 -11 -4.7 4
-6 -6 -11 0.1 3.7
-6 -6 -11 -2.1 3.4
6 6 11 -0.9 3
6 6 11 2.8 3.3
6 6 11 -4 3.4
-7 -6 -11 -4.5 3.7
-7 -6 -11 3.3 4.4
7 6 11 -0.1 3.5
7 6 11 -3 3.7
7 6 11 -1.3 3.4
7 6 11 -3.4 3.4
1 -7 -11 15 4.7
-1 7 11 18 4.7
0 -7 -11 -4.8 3.7
0 -7 -11 7.2 4.3
0 -7 -11 8.3 3.7
0 7 11 9.1 4.5
0 7 11 15.3 4.6
-1 -7 -11 16.3 4.4
-1 -7 -11 15.8 4.1
-1 -7 -11 15.4 4.9
1 7 11 20.2 4.9
1 7 11 5.6 4.4
-2 -7 -11 -4.5 3.5
-2 -7 -11 -4.5 4
-2 -7 -11 -1.8 3.1
-2 -7 -11 -1.1 3.5
2 7 11 2 2.8
-3 -7 -11 2.4 3.4
-3 -7 -11 2 3.2
-3 -7 -11 -0.1 3.7
-3 -7 -11 3.6 4.1
3 7 11 1.9 3.3
3 7 11 5.8 2.7
-4 -7 -11 0.7 3.6
-4 -7 -11 4.5 4.2
-4 -7 -11 5 3.6
-4 -7 -11 5.3 3.2
4 7 11 2.6 3.4
4 7 11 -1 2.5
-5 -7 -11 0.7 4
-5 -7 -11 1.6 3.4
-5 -7 -11 4.7 4.1
5 7 11 7.7 3.1
5 7 11 4.5 3.8
-6 -7 -11 11.7 4.7
-6 -7 -11 16.4 4.5
-6 -7 -11 7.8 4.3
6 7 11 11.8 4.1
6 7 11 8.5 4.1
6 7 11 8.5 3.5
-7 -7 -11 8.8 4.6
-7 -7 -11 13.2 5.1
-7 -7 -11 3.6 5
7 7 11 7.5 3.7
7 7 11 4.4 4.6
7 7 11 1.2 3.9
-1 -8 -11 0.8 3.7
-1 -8 -11 -0.3 4.5
-1 -8 -11 0.2 3.9
1 8 11 6.7 4.5
1 8 11 2.8 4.2
-2 -8 -11 -2.8 4
-2 -8 -11 0.4 4.4
-2 -8 -11 1.1 3.4
2 8 11 10 4.2
-3 -8 -11 4.4 4.3
-3 -8 -11 14.8 5.1
-3 -8 -11 2.9 3.7
3 8 11 9.5 4.4
-4 -8 -11 3.3 3.8
-4 -8 -11 5.2 4.7
-4 -8 -11 2.5 3.9
-4 -8 -11 -5 4
4 8 11 -1.3 3.9
-5 -8 -11 3.5 4.5
-5 -8 -11 4.2 4.4
-5 -8 -11 6.2 3.8
5 8 11 1.3 4.1
-6 -8 -11 1.6 4.1
-6 -8 -11 0.7 4.8
-6 -8 -11 -3.3 4.5
6 8 11 1.7 4
3 5 -12 -7.8 4.3
3 5 -12 64.09 274.67
3 5 -12 0 4.1
-3 -5 12 9 4.2
-3 -5 12 0.5 5
2 5 -12 -2.3 3.9
2 5 -12 -71.09 213.88
2 5 -12 2 4.2
-2 -5 12 -2 3.4
-2 -5 12 6 4.9
1 5 -12 -57.39 193.18
1 5 -12 -3.5 4
1 5 -12 -3.6 3.8
-1 -5 12 5.5 3.3
-1 -5 12 -5.6 3.1
-1 -5 12 5.1 4.4
0 5 -12 206.38 242.78
-1 5 -12 -3.8 253.87
-1 5 -12 41.8 6
1 -5 12 30.5 4.9
1 -5 12 36.9 6.5
1 -5 12 38.2 5.4
-2 5 -12 -1.6 4
-2 5 -12 -203.68 219.28
2 -5 12 2.2 4.5
2 -5 12 5.6 3.2
2 -5 12 -1.8 3.7
4 4 -12 -0.5 4.2
4 4 -12 -1.9 4.7
-4 -4 12 2.6 5
-4 -4 12 3 4.3
3 4 -12 8.8 4.3
3 4 -12 7.5 4.3
-3 -4 12 7 5.3
-3 -4 12 10.5 4.1
2 4 -12 -51.29 201.68
2 4 -12 0.5 3.8
2 4 -12 1.5 3.7
-2 -4 12 -2.1 3.2
-2 -4 12 4 2.5
-2 -4 12 1.7 4.7
1 4 -12 8.6 203.38
1 4 -12 2.1 3.8
1 4 -12 5.3 3.7
-1 -4 12 -0.7 4.5
-1 -4 12 1.8 3.3
-1 -4 12 -0.8 4.2
-1 -4 12 1 3
0 4 -12 164.18 231.98
-1 4 -12 117.99 215.18
-2 4 -12 -63.09 206.98
-2 4 -12 8.1 4
2 -4 12 7.7 4.5
2 -4 12 7.7 3.2
2 -4 12 10.8 3.9
-3 4 -12 227.28 248.58
-3 4 -12 21.6 4.9
3 -4 12 32.3 5.2
3 -4 12 34.3 4.7
3 -4 12 22 5.4
4 3 -12 3.9 4
4 3 -12 8 4.7
-4 -3 12 3.9 4.2
-4 -3 12 2.3 5.2
3 3 -12 -1.2 3.4
3 3 -12 3.4 4.3
-3 -3 12 -4.3 4.3
-3 -3 12 -1.8 3.3
2 3 -12 1.7 3.6
2 3 -12 1.6 3.4
-2 -3 12 1.3 3.1
-2 -3 12 5 4.5
-2 -3 12 4.3 2.9
1 3 -12 5.6 3.4
1 3 -12 0.2 3.6
1 3 -12 29.5 199.08
-1 -3 12 1 4.1
-1 -3 12 2.8 3.4
-1 -3 12 -0.5 2.7
-1 -3 12 0.3 2.7
0 3 -12 -269.57 192.68
0 3 -12 3.4 3.3
0 3 -12 -1.1 3
0 -3 12 -1.4 2.7
0 -3 12 0.1 3.6
0 -3 12 6.2 3.9
0 -3 12 4.9 2.5
-1 3 -12 -164.08 184.18
-1 3 -12 -1.2 3.1
-1 3 -12 4.4 3.6
1 -3 12 2.7 4
1 -3 12 0.2 2.8
1 -3 12 3.7 2.8
1 -3 12 2.7 3.5
-2 3 -12 5.9 3.8
-2 3 -12 -129.19 221.98
2 -3 12 7.2 3.3
2 -3 12 11.2 3.4
2 -3 12 7.8 3.7
-3 3 -12 161.08 219.68
-4 3 -12 10 4
-4 3 -12 -84.89 246.78
4 -3 12 4.5 3.4
4 -3 12 -0.5 4.1
4 -3 12 2.7 3.6
4 2 -12 27.1 4.8
4 2 -12 16.7 5.3
4 2 -12 7.2 5.4
-4 -2 12 14.1 6.1
3 2 -12 7.2 3.7
3 2 -12 9.1 4.2
-3 -2 12 9.2 3.5
-3 -2 12 5.4 4.6
2 2 -12 20.8 3.8
2 2 -12 14.6 4.3
-2 -2 12 21.7 3.7
-2 -2 12 22 3.7
-2 -2 12 13.6 4.6
1 2 -12 12.3 3.9
1 2 -12 7.5 3.3
-1 -2 12 12.6 3.6
-1 -2 12 14 4.4
-1 -2 12 15.1 3.8
-1 -2 12 14.6 3.2
0 2 -12 76.19 201.68
-1 2 -12 -287.37 172.88
-2 2 -12 17.5 204.08
-2 2 -12 4.9 3.5
-2 2 -12 8.6 3.4
2 -2 12 11.5 3
2 -2 12 8.4 3.7
2 -2 12 7.5 3.9
2 -2 12 7.6 3.1
-3 2 -12 -100.09 208.58
-3 2 -12 0.4 2.9
3 -2 12 0.9 2.7
3 -2 12 2.5 2.8
3 -2 12 11.7 3.8
-4 2 -12 -149.49 220.38
-4 2 -12 0.8 3.4
4 -2 12 1.8 3.1
4 -2 12 10.4 3.6
4 -2 12 12.1 4.2
-5 2 -12 260.77 282.27
4 1 -12 1 4
4 1 -12 -0.6 3.7
4 1 -12 7.3 5.1
-4 -1 12 8 5.3
3 1 -12 4.7 3.1
3 1 -12 4.5 4.3
3 1 -12 6.2 3.5
3 1 -12 0.7 3.6
-3 -1 12 5.8 4.4
2 1 -12 37.3 5.4
2 1 -12 23.3 5.1
2 1 -12 31 3.9
2 1 -12 29.5 4.7
-2 -1 12 31.3 3.8
-2 -1 12 32.9 4.4
-2 -1 12 34.5 5.8
1 1 -12 6.7 2.9
1 1 -12 2.2 3.4
-1 -1 12 12.1 3.8
-1 -1 12 6 2.5
-1 -1 12 5.1 2.8
0 1 -12 0.7 2.9
0 1 -12 -0.2 2.9
0 -1 12 -0.6 3.1
0 -1 12 -2.1 2.1
0 -1 12 -2.2 3.3
0 -1 12 1.7 2.5
-1 1 -12 43.5 5.1
-1 1 -12 41.1 5
-1 1 -12 247.08 198.78
1 -1 12 41.2 5.7
1 -1 12 35.6 4.6
1 -1 12 37 5.4
1 -1 12 31.9 4.1
-2 1 -12 113.49 7.9
-2 1 -12 117.69 8.2
-2 1 -12 150.18 218.58
2 -1 12 119.59 9.2
2 -1 12 112.59 7.5
2 -1 12 106.79 7.6
2 -1 12 103.99 8.7
-3 1 -12 29.6 4.5
-3 1 -12 25.1 4.2
-3 1 -12 -17.5 214.18
3 -1 12 21.7 4.6
3 -1 12 34.7 4.5
3 -1 12 18.4 4.4
3 -1 12 24.8 3.8
-4 1 -12 1.1 3.2
-4 1 -12 -53.19 196.08
4 -1 12 5.6 3
4 -1 12 2.8 3.3
4 -1 12 1.3 2.4
-5 1 -12 -143.89 212.78
-5 1 -12 -2.7 3.4
5 -1 12 -4 2.8
5 -1 12 3.4 3.5
5 -1 12 -3.4 3.2
-6 1 -12 -82.09 232.78
4 0 -12 7.1 3.5
4 0 -12 -0.2 4.8
4 0 -12 3.5 3.8
-4 0 12 2.9 4.4
3 0 -12 8.2 3.1
3 0 -12 7 4
3 0 -12 5.8 3.6
3 0 -12 6.9 4.2
-3 0 12 5 4.4
2 0 -12 3.2 3.7
2 0 -12 2.9 3.7
2 0 -12 6.8 3.1
-2 0 12 0.2 3.8
-2 0 12 4 2.3
1 0 -12 37.7 5.2
1 0 -12 39.4 5.7
1 0 -12 42.6 5
-1 0 12 46.8 4.5
-1 0 12 50.79 5.4
-1 0 12 50.69 4.6
-1 0 12 49.99 6.2
0 0 -12 23.7 4
0 0 -12 25.5 4.9
0 0 -12 27.8 4.2
0 0 12 20 3.6
0 0 12 20.7 4.1
0 0 12 20.7 3.2
0 0 12 24.1 3.1
0 0 12 21.1 4.4
-1 0 -12 1.9 3
-1 0 -12 -0.7 2.7
1 0 12 -2.7 2.2
1 0 12 -3.3 3.1
1 0 12 -3.4 1.9
1 0 12 2.6 2.9
-2 0 -12 34 5
-2 0 -12 40.9 5.2
-2 0 -12 94.49 197.58
2 0 12 46.5 5.3
2 0 12 32.4 5.1
2 0 12 35.7 4
2 0 12 39.1 4.5
-3 0 -12 29.3 4.4
-3 0 -12 -68.09 199.88
-3 0 -12 32.3 4.5
3 0 12 41.1 4.6
3 0 12 32 4.9
3 0 12 35.9 5.2
3 0 12 30.3 3.9
-4 0 -12 13.1 3.9
-4 0 -12 -45.2 215.18
4 0 12 8.4 2.8
4 0 12 12.6 3.8
-5 0 -12 1.7 3.1
-5 0 -12 -172.98 188.08
5 0 12 0.5 2.6
5 0 12 3 3.3
5 0 12 -0.4 2.8
-6 0 -12 -16.7 236.98
-6 0 -12 10.8 3.5
6 0 12 5 3.4
6 0 12 6.1 3.9
6 0 12 2.7 3.7
4 -1 -12 6.3 3.9
4 -1 -12 5.1 5
4 -1 -12 11.8 4.2
-4 1 12 4.6 4.9
-4 1 12 7.3 3.6
3 -1 -12 8.7 3.8
3 -1 -12 3.4 4.4
-3 1 12 7.2 4.2
-3 1 12 15.1 3.6
2 -1 -12 -2.8 3.6
2 -1 -12 -0.4 3.1
2 -1 -12 0 3.4
-2 1 12 3.4 2.6
-2 1 12 -2.8 3.8
1 -1 -12 1.4 3.5
1 -1 -12 1.5 2.9
1 -1 -12 -1.2 3
-1 1 12 -1.1 3.6
-1 1 12 -0.5 2.8
-1 1 12 2.7 2.2
0 -1 -12 33.3 4.5
0 -1 -12 33 5
0 -1 -12 36.4 4.6
0 1 12 27.7 4.2
0 1 12 31.3 4
0 1 12 30.4 4.7
-1 -1 -12 51.69 5.4
-1 -1 -12 40.9 5.7
-1 -1 -12 38.9 5
1 1 12 36 3.7
1 1 12 34.5 5.2
1 1 12 44.4 4.9
1 1 12 44.6 5.7
-2 -1 -12 9.3 3.2
-2 -1 -12 11.2 3.4
2 1 12 12.3 3.9
2 1 12 7.5 2.4
2 1 12 10.2 3.3
2 1 12 8.2 2.7
-3 -1 -12 28.2 4.4
-3 -1 -12 30.6 4.7
-3 -1 -12 131.19 195.68
3 1 12 34 5.3
3 1 12 42.7 4.3
3 1 12 40.2 4.6
3 1 12 42.8 5.7
-4 -1 -12 30.8 4.6
-4 -1 -12 41.9 5.3
-4 -1 -12 -69.69 203.68
4 1 12 38 4.6
4 1 12 41.1 4.7
4 1 12 43 5.6
4 1 12 33.1 5.4
-5 -1 -12 1.8 3.2
-5 -1 -12 -347.97 192.78
5 1 12 6.5 3.1
5 1 12 4.6 3.6
5 1 12 1.3 2.7
-6 -1 -12 16.6 4
-6 -1 -12 -290.07 224.18
6 1 12 9.5 4.6
6 1 12 10.6 3.6
6 1 12 9.1 3.8
-7 -1 -12 -156.58 239.88
-7 -1 -12 2.1 3.9
7 1 12 2.3 3.5
7 1 12 4.1 4.1
7 1 12 3.2 4.7
4 -2 -12 3.2 4.3
4 -2 -12 0.8 5
-4 2 12 7.9 5.3
3 -2 -12 3.8 3.7
3 -2 -12 -0.4 4.3
-3 2 12 -4.9 4
-3 2 12 -3.7 2.9
2 -2 -12 16.7 4.4
2 -2 -12 18 4.2
2 -2 -12 16.1 3.7
-2 2 12 23.4 4
-2 2 12 13.7 4.5
1 -2 -12 5.8 3.7
1 -2 -12 2.2 2.9
1 -2 -12 5.7 3.2
-1 2 12 7.4 3
-1 2 12 17.3 4
-1 2 12 8.8 3.2
0 -2 -12 7.7 3.3
0 -2 -12 10.7 3.3
0 -2 -12 8 3.6
0 2 12 5.6 2.8
0 2 12 2.9 2.7
0 2 12 8.9 3.9
-1 -2 -12 23.7 4
-1 -2 -12 16.8 3.8
-1 -2 -12 19.9 4.3
1 2 12 28.1 4.8
1 2 12 19.9 3.6
-2 -2 -12 71.59 6.3
-2 -2 -12 69.59 6.6
2 2 12 68.39 4.8
2 2 12 72.69 5.8
2 2 12 70.69 7.1
2 2 12 78.89 7.3
-3 -2 -12 -3.2 2.6
-3 -2 -12 113.09 185.48
-3 -2 -12 -2 2.9
3 2 12 9 2.6
3 2 12 2.4 1.9
3 2 12 4.9 3.6
3 2 12 1.5 3.2
-4 -2 -12 -229.78 167.68
-4 -2 -12 16.8 3.8
4 2 12 19 4.6
4 2 12 20.4 4.4
-5 -2 -12 5.6 3.5
-5 -2 -12 0.7 3
-5 -2 -12 -172.48 178.38
5 2 12 -1.6 2.4
5 2 12 -2.6 2.6
5 2 12 -2.4 3.8
5 2 12 4 3.4
-6 -2 -12 0.8 3.5
-6 -2 -12 -11.8 226.38
6 2 12 1.8 2.9
6 2 12 1.3 3.1
6 2 12 4.5 4.1
-7 -2 -12 79.39 282.87
3 -3 -12 4.4 4.4
3 -3 -12 7.6 4.2
-3 3 12 9.2 4.9
-3 3 12 4.3 4.1
2 -3 -12 -1.2 2.8
2 -3 -12 1.3 4.1
-2 3 12 3.3 3.1
-2 3 12 -0.2 3.8
1 -3 -12 8.8 4.1
1 -3 -12 7 3.2
1 -3 -12 0.4 3.1
-1 3 12 -0.2 2.9
-1 3 12 6.4 4.1
0 -3 -12 17.3 4.4
0 -3 -12 20.5 4
0 -3 -12 19.2 4.3
0 3 12 15.7 3.4
0 3 12 18.7 4.5
0 3 12 14.7 3.6
-1 -3 -12 -0.1 2.4
-1 -3 -12 3 3.1
-1 -3 -12 3.3 2.9
1 3 12 1.8 2.3
1 3 12 0.2 3.6
-2 -3 -12 11.5 3.8
-2 -3 -12 7.4 3.2
-2 -3 -12 7.5 3.6
2 3 12 10.8 3.8
2 3 12 8.6 3.1
-3 -3 -12 4.9 2.8
-3 -3 -12 2.1 2.9
3 3 12 5.1 2.7
3 3 12 0.9 3.2
3 3 12 3.9 2
3 3 12 1.1 3.2
-4 -3 -12 47.1 5.6
-4 -3 -12 60.19 5.7
4 3 12 44.1 6.1
4 3 12 50.59 6.2
4 3 12 45.6 5.2
4 3 12 56.39 4.9
-5 -3 -12 4.5 3.2
-5 -3 -12 1.5 3.3
5 3 12 4.6 2.7
5 3 12 8.2 2.7
5 3 12 5.7 3.9
5 3 12 2.9 3.9
-6 -3 -12 17.6 4.4
6 3 12 18.3 5.4
6 3 12 17.2 3.8
6 3 12 25.6 4
6 3 12 20.4 4.1
-7 -3 -12 0.3 3.7
7 3 12 -2 3
7 3 12 -2.3 3.6
7 3 12 -9.8 3.3
7 3 12 2.2 5
3 -4 -12 11.8 4.8
2 -4 -12 18.6 4.5
2 -4 -12 18 5
-2 4 12 27.2 4.8
-2 4 12 23.7 4.8
1 -4 -12 28 4.6
1 -4 -12 30.8 4.1
1 -4 -12 23.1 5.1
-1 4 12 28.7 4.7
-1 4 12 31.6 5.4
0 -4 -12 2.5 3.2
0 -4 -12 1.2 3.1
0 -4 -12 7.4 3.3
0 -4 -12 6.6 3.9
0 4 12 4.3 3
0 4 12 5 3.1
0 4 12 5.3 4
-1 -4 -12 -1.5 2.8
-1 -4 -12 0 2.9
-1 -4 -12 -1.5 3.5
-1 -4 -12 -4.4 2.6
1 4 12 1.8 2.4
1 4 12 4.5 3.3
-2 -4 -12 5.1 2.8
-2 -4 -12 5.1 3.2
-2 -4 -12 4.2 2.9
-2 -4 -12 3.3 3.6
2 4 12 1.1 2.5
2 4 12 5.6 3.8
-3 -4 -12 4.5 2.9
-3 -4 -12 5.9 3.2
3 4 12 6.8 2.7
3 4 12 6.2 3.7
-4 -4 -12 10.9 3.6
-4 -4 -12 10.5 3.8
4 4 12 13.3 3.2
4 4 12 11.2 2.6
4 4 12 15.6 4.1
4 4 12 15.5 4.4
-5 -4 -12 9.2 3.6
-5 -4 -12 7.6 3.7
5 4 12 6.4 4
5 4 12 1.3 4.2
5 4 12 4.3 2.7
5 4 12 1.7 2.8
-6 -4 -12 28.5 4.8
-6 -4 -12 44.3 5.2
6 4 12 33 4.7
6 4 12 27.6 5.1
6 4 12 29.5 4.8
6 4 12 27.4 6.1
6 4 12 29 4.5
-7 -4 -12 -2.2 3.9
7 4 12 -3.5 4.9
7 4 12 4 4
7 4 12 -0.9 3.1
2 -5 -12 2 4.1
2 -5 -12 -2.8 4.2
-2 5 12 5.5 4.2
-2 5 12 6.8 4
1 -5 -12 11.8 5
1 -5 -12 15.3 4.2
-1 5 12 14.1 4.4
-1 5 12 15.3 4.6
0 -5 -12 36.4 6.1
0 -5 -12 38.1 5.1
0 -5 -12 47.3 5
0 5 12 44.4 6.1
0 5 12 50.19 6
-1 -5 -12 4.8 3.4
-1 -5 -12 6.1 4.2
-1 -5 -12 4.6 3.1
-1 -5 -12 -1.9 3
1 5 12 5.4 3.1
1 5 12 2.6 3.7
1 5 12 1.1 3.1
-2 -5 -12 14.5 3.5
-2 -5 -12 14.1 3.5
-2 -5 -12 11.7 3.6
-2 -5 -12 9.2 4.1
2 5 12 12.9 4.5
2 5 12 16.2 3.3
-3 -5 -12 5.5 3.3
-3 -5 -12 1.5 3.8
-3 -5 -12 -0.6 3.2
-3 -5 -12 0 2.8
3 5 12 5.6 3.8
3 5 12 -2.2 2.4
-4 -5 -12 11.6 3.8
-4 -5 -12 9.4 3.3
-4 -5 -12 4.1 3.6
4 5 12 0.6 2.7
4 5 12 8.8 4
-5 -5 -12 2.9 3.6
-5 -5 -12 9.5 3.7
5 5 12 3.5 4.1
5 5 12 2.2 4.3
5 5 12 6.9 3.2
-6 -5 -12 -7.1 3.5
-6 -5 -12 2.8 3.8
6 5 12 3.6 3.2
6 5 12 -3.9 4.3
6 5 12 -1.6 2.9
-7 -5 -12 15.8 4.9
7 5 12 20.5 4.8
7 5 12 25.1 4.7
7 5 12 19 6
1 -6 -12 3.4 4.2
1 -6 -12 4.4 3.9
-1 6 12 8.3 4.5
-1 6 12 5.3 4.3
0 -6 -12 -1.6 4.4
0 -6 -12 -0.2 3.7
0 -6 -12 -5.1 3.2
0 6 12 5.2 4.4
0 6 12 -0.9 3.8
-1 -6 -12 9.5 5
-1 -6 -12 19.5 4
-1 -6 -12 11.6 3.9
1 6 12 13.9 5.1
1 6 12 14.6 3.9
1 6 12 15.1 4.5
-2 -6 -12 2.8 3.4
-2 -6 -12 0.3 4.4
-2 -6 -12 8 3.4
-2 -6 -12 -1.3 3.1
2 6 12 4.1 3.1
2 6 12 3.3 3.9
-3 -6 -12 4.6 4
-3 -6 -12 4.8 3.8
-3 -6 -12 11.4 3.7
-3 -6 -12 9.5 4.3
3 6 12 12.4 4.7
3 6 12 8.3 3.2
-4 -6 -12 -0.6 3.1
-4 -6 -12 2.2 3.6
-4 -6 -12 3.3 3.3
4 6 12 4.6 2.7
-5 -6 -12 4.4 4
-5 -6 -12 2.6 4
-5 -6 -12 12.7 4
5 6 12 11 3.3
5 6 12 9.1 3.5
-6 -6 -12 6.9 4
-6 -6 -12 5.5 4.4
-6 -6 -12 7.3 4.3
6 6 12 2.2 3.5
6 6 12 5.3 3.4
6 6 12 3.7 3.5
-7 -6 -12 4.1 4.4
-7 -6 -12 0.8 4.7
7 6 12 3 3.8
7 6 12 11.5 4.9
7 6 12 9.7 4.4
0 -7 -12 6.4 5.4
-1 -7 -12 20.8 5.7
-1 -7 -12 17.1 4.7
-1 -7 -12 23.5 4.5
1 7 12 12.4 5
1 7 12 28.5 5.9
-2 -7 -12 4 3.7
-2 -7 -12 -0.3 4.8
-2 -7 -12 2.1 3.5
2 7 12 -4.6 3.1
2 7 12 -0.2 3.9
-3 -7 -12 44.9 5.8
-3 -7 -12 35.9 5.8
-3 -7 -12 49.4 5.8
-3 -7 -12 28.8 6
3 7 12 34.1 4.8
-4 -7 -12 2.1 3.6
-4 -7 -12 -5.1 4.2
-4 -7 -12 -3 3.6
4 7 12 6.1 3.8
4 7 12 -4.6 3.1
-5 -7 -12 6.8 3.6
-5 -7 -12 0.3 4.1
-5 -7 -12 4.3 4.4
5 7 12 -0.5 3.8
5 7 12 0 3.4
-6 -7 -12 11.7 5.2
-6 -7 -12 13.1 4.6
-6 -7 -12 10.8 4.8
6 7 12 7.8 4.2
6 7 12 12.4 4.2
-2 -8 -12 4.6 5.4
-3 -8 -12 0.8 4.4
-3 -8 -12 -1.3 3.9
-3 -8 -12 2.2 5.1
-4 -8 -12 3.7 4.5
-4 -8 -12 4.7 4.1
-4 -8 -12 4.1 4.6
4 8 12 7.5 4.7
-5 -8 -12 10.3 5.1
2 4 -13 3 4.6
2 4 -13 12.5 4.8
-2 -4 13 8.8 4.3
-2 -4 13 3 5.6
1 4 -13 13.6 5
1 4 -13 58.89 237.18
1 4 -13 12 4.4
-1 -4 13 18.1 4.5
-1 -4 13 6.7 5.2
-1 -4 13 8.4 3.8
0 4 -13 142.99 249.97
-1 4 -13 -65.59 244.78
-1 4 -13 1.9 4.3
1 -4 13 13.3 3.8
1 -4 13 3.5 3.6
1 -4 13 11 5.4
-2 4 -13 -94.59 240.08
-2 4 -13 2.2 4
2 -4 13 -1 4.8
2 -4 13 -1.7 3.2
2 -4 13 -2.8 3.7
3 3 -13 -6.8 4.2
3 3 -13 -2.1 3.5
-3 -3 13 -4.6 4.9
2 3 -13 -0.8 4.1
2 3 -13 0.6 4.1
-2 -3 13 5.3 3
-2 -3 13 -0.8 3.6
-2 -3 13 -6.8 4.5
1 3 -13 19.6 4.7
1 3 -13 16.7 4.6
-1 -3 13 12.6 5.3
-1 -3 13 14.3 4.1
-1 -3 13 12.6 3.8
0 3 -13 -280.67 201.88
0 3 -13 3.5 3.4
0 3 -13 -2.6 3.3
0 -3 13 -5.3 2.9
0 -3 13 -1.3 3.1
0 -3 13 3.5 4.5
0 -3 13 -1.8 4
-1 3 -13 50.39 223.98
-1 3 -13 3.4 3.7
1 -3 13 12.4 3.8
1 -3 13 7.8 4.9
1 -3 13 4.6 3.3
-2 3 -13 -225.58 225.38
-2 3 -13 6.7 4.1
2 -3 13 7.7 3.7
2 -3 13 13.2 4.8
2 -3 13 6.5 3.1
-3 3 -13 8.1 4
-3 3 -13 39.7 250.27
3 -3 13 -0.1 3.5
3 -3 13 -1.7 4
3 -3 13 8.2 3.6
3 2 -13 2.2 3.9
3 2 -13 0.7 4.3
2 2 -13 16.6 4
2 2 -13 2.1 4.1
-2 -2 13 11.8 4.9
-2 -2 13 15.5 3.8
1 2 -13 2.4 3.5
1 2 -13 -3.7 3.3
-1 -2 13 1.3 3
-1 -2 13 -2.5 3.1
-1 -2 13 2.7 4.4
0 2 -13 -4.8 3.3
0 2 -13 -3.1 3.5
0 -2 13 0 2.8
0 -2 13 0.4 4.2
0 -2 13 -1.5 3.8
0 -2 13 -1.7 2.9
-1 2 -13 20.2 4.4
-1 2 -13 -94.19 218.28
-1 2 -13 21.4 4.4
1 -2 13 15.1 4.8
1 -2 13 16 3.9
1 -2 13 17 3.9
-2 2 -13 -70.39 240.28
-2 2 -13 1.1 3.5
2 -2 13 4.5 3.2
2 -2 13 -5.2 4.3
2 -2 13 3.2 2.7
-3 2 -13 -91.39 212.88
-3 2 -13 -3.7 3.5
3 -2 13 -3.9 4.2
3 -2 13 2.2 3.1
3 -2 13 -3 2.9
-4 2 -13 124.39 268.97
3 1 -13 25.7 4.9
3 1 -13 27.7 5.8
-3 -1 13 38.4 7
2 1 -13 38.5 5.4
2 1 -13 26.3 5
-2 -1 13 33.9 5.9
1 1 -13 -1.1 3.3
1 1 -13 8.4 3.3
-1 -1 13 -1.3 2.6
-1 -1 13 -4.3 2.7
-1 -1 13 2.9 4.3
0 1 -13 12.8 4.1
0 1 -13 13.5 4.2
0 -1 13 10.8 4.6
0 -1 13 6.2 3.8
0 -1 13 15.2 3.4
-1 1 -13 132.89 9.4
-1 1 -13 143.19 9.1
1 -1 13 133.99 10.5
1 -1 13 127.59 10
1 -1 13 127.69 8.6
1 -1 13 121.89 8.2
-2 1 -13 11.8 3.9
-2 1 -13 8.7 3.6
-2 1 -13 -65.89 221.28
2 -1 13 14.8 3.5
2 -1 13 12.9 4.6
2 -1 13 17.2 3.5
2 -1 13 19.7 4.8
-3 1 -13 26.1 4.8
-3 1 -13 184.28 245.58
3 -1 13 14.9 3.8
3 -1 13 28.1 5.1
3 -1 13 16 3.7
-4 1 -13 -36.6 223.88
-4 1 -13 -3.1 3.4
4 -1 13 0 3.1
4 -1 13 -5.3 4
4 -1 13 0.8 3.6
-5 1 -13 317.87 250.77
3 0 -13 16.7 5.6
3 0 -13 9.9 4.4
3 0 -13 18.8 4.3
-3 0 13 14 5.8
2 0 -13 2.3 3.4
2 0 -13 0.1 4.2
2 0 -13 -2.1 3.6
-2 0 13 3.5 4.4
1 0 -13 22.5 4.5
1 0 -13 15.7 4.1
-1 0 13 22.1 4.1
-1 0 13 20.8 5.4
0 0 -13 27.1 4.7
0 0 -13 28.2 4.7
0 0 13 23.9 5.1
0 0 13 23.8 4.4
0 0 13 30.3 3.8
-1 0 -13 3.2 3.6
-1 0 -13 1.1 3.1
1 0 13 -2.3 2.7
1 0 13 0.4 2.4
1 0 13 -3.3 4.2
1 0 13 8 3.7
-2 0 -13 80.99 7.9
-2 0 -13 95.59 8.1
2 0 13 72.29 7.6
2 0 13 87.29 8.5
2 0 13 89.79 6.5
2 0 13 91.99 7
-3 0 -13 -23.7 212.18
-3 0 -13 108.69 8.8
-3 0 -13 102.69 8.6
3 0 13 114.79 8.9
3 0 13 121.99 7.9
3 0 13 107.69 7.4
3 0 13 111.79 9.6
-4 0 -13 185.78 234.98
-5 0 -13 0.4 3.8
-5 0 -13 -249.78 222.78
5 0 13 3.2 4.2
5 0 13 6.8 3.3
5 0 13 1.4 3.5
3 -1 -13 15 5.2
3 -1 -13 -0.2 4.5
-3 1 13 3.1 4.8
2 -1 -13 7.8 4.8
2 -1 -13 13.8 4.8
2 -1 -13 14.6 4.4
-2 1 13 12 5.1
1 -1 -13 27.3 5.3
1 -1 -13 42 5
1 -1 -13 31 5.5
-1 1 13 36.1 5
-1 1 13 32.5 5.9
-1 1 13 26.6 4.1
0 -1 -13 5.1 3.5
0 -1 -13 5.2 3.4
0 1 13 3 3.2
0 1 13 -0.4 3.7
0 1 13 3.8 2.5
-1 -1 -13 8.8 3.7
-1 -1 -13 3.7 3.3
1 1 13 6.6 3.2
1 1 13 9.2 4.3
-2 -1 -13 45.2 5.6
-2 -1 -13 38.9 5.3
2 1 13 39.9 5.7
2 1 13 40.6 5.8
2 1 13 47.1 5.2
2 1 13 30.4 3.8
-3 -1 -13 -5.3 3.4
-3 -1 -13 -183.68 205.08
-3 -1 -13 2.2 3.4
3 1 13 2.8 2.9
3 1 13 0.1 2.2
3 1 13 -1.3 3.6
3 1 13 0.1 3.8
-4 -1 -13 169.98 243.58
-5 -1 -13 -60.59 227.88
-5 -1 -13 5.5 3.7
5 1 13 6.4 3.2
5 1 13 2.3 4
5 1 13 5.1 3.4
-6 -1 -13 -2.9 3.9
-6 -1 -13 -139.09 246.48
6 1 13 -4.8 3.3
6 1 13 1.4 3.5
6 1 13 -7.8 4.1
3 -2 -13 8.2 4.9
3 -2 -13 14.5 4.6
-3 2 13 9 5.3
-3 2 13 13.7 4.3
2 -2 -13 8.9 3.9
2 -2 -13 3.2 4.9
-2 2 13 5.7 4.5
-2 2 13 14.8 3.9
1 -2 -13 4.8 3.7
1 -2 -13 6.6 4.3
1 -2 -13 5.7 3.9
-1 2 13 9.2 3.4
-1 2 13 3.7 3.1
-1 2 13 4.7 4.2
0 -2 -13 7.2 3.5
0 -2 -13 9 3.8
0 -2 -13 10.2 4.4
0 2 13 5 3.3
0 2 13 9.9 3.1
0 2 13 6.8 4.2
-1 -2 -13 1.1 3.3
-1 -2 -13 10.4 3.6
1 2 13 6.8 3
1 2 13 6.8 3.8
-2 -2 -13 76.29 6.9
-2 -2 -13 74.59 6.8
2 2 13 67.19 7.2
2 2 13 67.99 6.5
-3 -2 -13 33.8 5
-3 -2 -13 31.7 5
3 2 13 38.4 5.8
3 2 13 34.5 3.9
3 2 13 37.6 4.8
3 2 13 40.8 6.1
-4 -2 -13 33.2 5.6
-4 -2 -13 86.29 216.18
-4 -2 -13 28.5 4.9
4 2 13 42.5 5
4 2 13 30.2 4.1
4 2 13 22.2 5.2
4 2 13 29.6 5.5
-5 -2 -13 -429.56 185.98
-5 -2 -13 0.5 3.5
5 2 13 3.1 4.4
5 2 13 2.3 3
5 2 13 -2 2.8
-6 -2 -13 9.6 4.3
-6 -2 -13 -206.88 243.58
6 2 13 -3.7 4.6
6 2 13 0.2 3.7
6 2 13 2.8 3.8
2 -3 -13 -3.3 4.8
2 -3 -13 0.8 3.6
-2 3 13 10.6 3.7
-2 3 13 -2.6 4.9
1 -3 -13 2.2 4.4
1 -3 -13 0.9 3.4
-1 3 13 10.6 3.7
-1 3 13 8.8 4.3
0 -3 -13 36 5.1
0 -3 -13 39.2 5.6
0 -3 -13 29.7 5.5
0 3 13 52.39 6.4
0 3 13 46.8 5
0 3 13 44.5 5.4
-1 -3 -13 1.2 3.7
-1 -3 -13 -3.6 3
-1 -3 -13 2.2 3.3
1 3 13 2.5 4.2
1 3 13 -3.5 2.8
-2 -3 -13 8.8 3.2
-2 -3 -13 2.7 3.3
2 3 13 6.5 4.2
2 3 13 3.6 3
-3 -3 -13 15.7 4.5
-3 -3 -13 20.1 4.5
3 3 13 23.4 3.9
3 3 13 21.1 4.8
-4 -3 -13 16.6 4
-4 -3 -13 25.7 4.9
4 3 13 17.2 3.4
4 3 13 22.7 5.1
4 3 13 25.7 5.6
4 3 13 25.6 4
-5 -3 -13 0.2 3.7
-5 -3 -13 0.2 3.4
5 3 13 3.2 3.3
5 3 13 0 2.8
5 3 13 -1.5 4.2
5 3 13 -4.5 3.9
-6 -3 -13 -2.6 3.8
6 3 13 3.9 3.2
6 3 13 2 3.3
6 3 13 6.4 5
2 -4 -13 5.8 5
1 -4 -13 28.5 5.3
1 -4 -13 29.8 5.8
-1 4 13 34.5 5.6
-1 4 13 32.4 6
0 -4 -13 25.2 4.7
0 -4 -13 23.1 4.6
0 -4 -13 23.2 5.1
0 4 13 28.6 4.6
0 4 13 25.5 5.2
0 4 13 17.5 4.1
-1 -4 -13 8.2 4.4
-1 -4 -13 1.4 3.4
-1 -4 -13 2.5 3.4
1 4 13 8.4 3.2
1 4 13 0.5 4.4
1 4 13 -2.2 2.7
-2 -4 -13 38.2 5.3
-2 -4 -13 27.7 4.6
2 4 13 26.5 4.3
2 4 13 39.1 6.1
-3 -4 -13 -0.6 3.3
-3 -4 -13 -1.4 2.7
3 4 13 0.1 3.9
3 4 13 3.2 2.9
-4 -4 -13 1.6 3.5
-4 -4 -13 0.9 3.4
4 4 13 -1.8 4
4 4 13 0.3 2.8
-5 -4 -13 3.6 4
-5 -4 -13 2.2 4.1
5 4 13 6.7 4.4
5 4 13 4.8 3.5
5 4 13 9.4 4.7
-6 -4 -13 32.8 5.4
-6 -4 -13 14.7 4.9
6 4 13 21.1 4.2
6 4 13 21.8 4.2
6 4 13 24.8 6.1
1 -5 -13 6.2 4.9
1 -5 -13 -9.9 4
-1 5 13 -0.2 3.9
-1 5 13 6.4 5.1
0 -5 -13 0.7 3.5
0 -5 -13 3.1 4.6
0 -5 -13 0.5 3.9
0 5 13 -0.2 4.6
0 5 13 0.4 3.6
-1 -5 -13 1.8 3.7
-1 -5 -13 10.7 4
-1 -5 -13 5.4 4.5
-1 -5 -13 3.2 4
1 5 13 8.8 4.5
1 5 13 11.4 3.9
1 5 13 2.4 3.4
-2 -5 -13 29.9 5.5
-2 -5 -13 34.4 6.2
-2 -5 -13 42.4 5.1
-2 -5 -13 43.3 5.5
2 5 13 28.2 4.8
2 5 13 36.9 6.2
-3 -5 -13 13.6 4.1
-3 -5 -13 2.7 3.5
-3 -5 -13 6.8 3.4
3 5 13 6.7 4.5
3 5 13 6.1 3.3
-4 -5 -13 9.6 4.3
-4 -5 -13 17.4 4.1
4 5 13 17.3 5
4 5 13 10.9 3.7
-5 -5 -13 17.8 4.1
-5 -5 -13 6.5 4.1
5 5 13 8.2 4.8
5 5 13 7.5 3.5
-6 -5 -13 10.8 4.2
-6 -5 -13 3.8 3.9
6 5 13 8.4 5.3
6 5 13 4.2 3.7
0 -6 -13 -7.4 4.5
-1 -6 -13 2.1 4.7
-1 -6 -13 5.9 4.2
-1 -6 -13 10.9 4.2
1 6 13 3.2 4.3
1 6 13 3 4.9
1 6 13 15.7 4
-2 -6 -13 11 4.7
-2 -6 -13 24.5 4.8
-2 -6 -13 16 5.5
-2 -6 -13 23.2 4.8
2 6 13 9.1 4.2
2 6 13 20.2 5.4
-3 -6 -13 12 3.9
-3 -6 -13 20.1 4.3
-3 -6 -13 9.4 4.2
3 6 13 14.1 5.3
3 6 13 6.7 3.9
-4 -6 -13 -3.9 4.1
-4 -6 -13 6.1 3.6
-4 -6 -13 -2.5 4.3
4 6 13 -0.9 3.2
4 6 13 6.4 4.8
-5 -6 -13 2.3 4.1
-5 -6 -13 10 4.2
-5 -6 -13 4.5 4.4
5 6 13 12.2 5.1
5 6 13 -1.5 3.8
-6 -6 -13 11 4.9
-6 -6 -13 1.1 4.5
6 6 13 1.8 5
6 6 13 -0.6 4
-2 -7 -13 4.2 5.3
2 7 13 10.6 4.8
2 7 13 0.8 4.9
-3 -7 -13 28.1 5.1
-3 -7 -13 18.5 5.5
-3 -7 -13 14.6 5.2
3 7 13 24.3 6.1
3 7 13 18 4.5
-4 -7 -13 3.8 4.4
-4 -7 -13 5.3 4.6
-4 -7 -13 1.8 3.8
4 7 13 0.3 3.7
4 7 13 7.6 5
1 3 -14 0.2 4.6
-1 -3 14 -3 5.6
0 3 -14 7.7 4.4
0 3 -14 8.2 4.3
0 -3 14 1.1 3.9
0 -3 14 1.6 3.5
0 -3 14 -4.1 5.2
-1 3 -14 -223.48 228.28
-1 3 -14 4.5 4.2
1 -3 14 3 3.7
1 -3 14 -3.2 5.1
1 -3 14 2.6 3.7
2 2 -14 10.2 4.5
-2 -2 14 14.9 5.8
1 2 -14 5.1 4
1 2 -14 -1.7 4.1
-1 -2 14 2.8 3.5
-1 -2 14 4.3 5.2
0 2 -14 -7.1 4.3
0 2 -14 1.7 4.2
0 -2 14 -1.3 5.4
0 -2 14 -2.4 3.6
0 -2 14 -2.6 3.3
-1 2 -14 3.5 4
-1 2 -14 7.6 4.5
1 -2 14 1.6 3.3
1 -2 14 3.2 4.7
1 -2 14 -1.4 3.3
1 -2 14 -1.4 4.8
-2 2 -14 226.48 258.07
-3 2 -14 118.29 271.57
2 1 -14 5.5 4.2
2 1 -14 -0.7 4.6
-2 -1 14 7.7 5.4
1 1 -14 5.3 4.2
1 1 -14 -2.7 3.9
-1 -1 14 1.5 5
-1 -1 14 0.1 3.3
0 1 -14 10 4.3
0 1 -14 14.2 4.4
0 -1 14 12.3 3.9
0 -1 14 11.3 5.1
-1 1 -14 4.1 4.4
-1 1 -14 11.9 4.4
1 -1 14 7.7 3.3
1 -1 14 8.8 3.7
1 -1 14 13.4 5
1 -1 14 2.6 5.1
-2 1 -14 0.5 4.1
-2 1 -14 7.6 3.7
2 -1 14 -1.3 3.3
2 -1 14 -3.9 4.6
2 -1 14 -1.9 3.2
2 -1 14 1.5 4.7
-3 1 -14 261.57 260.17
-4 1 -14 -119.19 252.37
-4 1 -14 10.6 4.5
4 -1 14 5.2 3.7
4 -1 14 12.5 5.2
4 -1 14 10.1 3.8
2 0 -14 3.1 4.4
2 0 -14 3.1 4.5
-2 0 14 9.2 5.7
1 0 -14 1.7 4.1
1 0 -14 4.8 4.2
-1 0 14 0.2 4.5
-1 0 14 -0.6 3.4
0 0 -14 21.2 4.3
0 0 -14 23 4.9
0 0 14 10.9 5.3
0 0 14 22 4.4
-1 0 -14 4.9 3.9
-1 0 -14 3.8 3.8
1 0 14 -2.5 3.1
1 0 14 1.3 4.4
-2 0 -14 22.8 5.3
-2 0 -14 19 4.8
2 0 14 16.6 4
2 0 14 16.3 3.8
2 0 14 24.8 5.5
2 0 14 21.6 5.7
-3 0 -14 6 4.3
-3 0 -14 8.5 4.1
-3 0 -14 -136.09 212.08
3 0 14 8.1 4.8
3 0 14 4.1 3.4
3 0 14 5.7 3.3
-4 0 -14 25.2 226.68
-4 0 -14 0.3 4.2
4 0 14 7.8 5.3
4 0 14 10.8 3.3
4 0 14 2.2 3.4
2 -1 -14 2.3 4.1
-2 1 14 3.2 5.1
1 -1 -14 18.4 4.3
1 -1 -14 8.7 4.4
-1 1 14 18.5 4.5
-1 1 14 10.9 5.7
0 -1 -14 -4.1 3.3
0 -1 -14 -3.2 3.6
0 1 14 -1.6 4.5
0 1 14 -2.8 3.4
-1 -1 -14 6.7 4.1
-1 -1 -14 8.2 4.2
1 1 14 8.7 4.9
1 1 14 11.5 3.7
-2 -1 -14 29.5 5.6
-2 -1 -14 36.4 5.6
2 1 14 39.8 5.9
2 1 14 38.1 5.4
-3 -1 -14 -4.3 3.7
-3 -1 -14 -2 4.1
3 1 14 3.2 3.3
3 1 14 3.1 4.4
3 1 14 -1.8 4.2
3 1 14 -3.2 2.7
-4 -1 -14 -312.37 226.48
-4 -1 -14 6 3.8
4 1 14 11.6 3.7
4 1 14 11.7 4.9
4 1 14 9.8 3.4
-5 -1 -14 -153.18 255.17
-5 -1 -14 1.5 4.4
5 1 14 5.9 5.2
5 1 14 8.3 3.8
5 1 14 5 3.7
2 -2 -14 4.7 5.5
1 -2 -14 6 5.2
1 -2 -14 5.4 4
1 -2 -14 10.4 4.6
-1 2 14 -1.1 5
-1 2 14 13.4 3.4
-1 2 14 11.4 4
0 -2 -14 10.4 4.4
0 -2 -14 6.5 4
0 2 14 8.3 4
0 2 14 4.4 3.4
0 2 14 10.8 4.8
-1 -2 -14 2 3.7
-1 -2 -14 2.8 3.8
1 2 14 5.7 4.4
1 2 14 -4.9 3.4
1 2 14 10.1 3.1
-2 -2 -14 4.2 4
-2 -2 -14 10.3 4.2
2 2 14 16 5.1
2 2 14 7 3.7
-3 -2 -14 14.5 4.7
-3 -2 -14 4.3 4.1
3 2 14 13 3.5
3 2 14 9.5 5.2
-4 -2 -14 12.8 4.2
-4 -2 -14 12.5 4.8
4 2 14 18.7 5.3
4 2 14 10.7 3.5
4 2 14 17 5
4 2 14 13.1 3.2
-5 -2 -14 1.7 4.2
-5 -2 -14 -215.08 241.78
5 2 14 4.9 4.8
5 2 14 -1.8 3.6
5 2 14 -1.2 3.4
1 -3 -14 2 4.7
1 -3 -14 2.6 4.3
-1 3 14 3.4 3.7
-1 3 14 2.1 4.9
0 -3 -14 3.8 5.2
0 -3 -14 11.5 4.7
0 -3 -14 18.1 4.6
0 3 14 13 4.1
0 3 14 13.2 4.2
0 3 14 6.9 4.9
-1 -3 -14 -0.1 3.8
-1 -3 -14 12.6 4
1 3 14 7.2 3.5
1 3 14 12.5 3.6
1 3 14 1.7 4.6
-2 -3 -14 -0.5 3.7
-2 -3 -14 0.6 3.7
2 3 14 -3 3.2
2 3 14 0.1 4.7
-3 -3 -14 -0.3 3.6
-3 -3 -14 2.3 3.5
3 3 14 5.9 3.4
3 3 14 5 4.8
-4 -3 -14 20.7 5.4
-4 -3 -14 20.9 5
4 3 14 13.4 4.2
4 3 14 12.5 5.3
-5 -3 -14 10 4.5
-5 -3 -14 8.1 4.7
5 3 14 18.9 5.6
5 3 14 11.9 4.2
0 -4 -14 15.7 5.4
0 -4 -14 10.4 4.5
0 4 14 10.2 4.3
0 4 14 18.9 5.6
0 4 14 12.9 4
-1 -4 -14 -1.5 3.7
-1 -4 -14 -4.6 3.8
1 4 14 -0.2 3.6
1 4 14 -6.4 3.3
1 4 14 -2.5 4.8
-2 -4 -14 39 6.2
-2 -4 -14 39.2 5.4
2 4 14 41.7 5.1
2 4 14 41.5 6.6
-3 -4 -14 9.7 4.4
-3 -4 -14 3.8 4.3
3 4 14 9.4 4.8
3 4 14 4.8 3.6
-4 -4 -14 -0.6 3.7
-4 -4 -14 5.1 4.1
4 4 14 -0.8 3.3
4 4 14 -0.6 4.8
-5 -4 -14 4.2 4.5
-5 -4 -14 0.8 3.9
5 4 14 4.9 3.3
5 4 14 1.4 4.7
-1 -5 -14 5 4.9
-1 -5 -14 -0.6 3.8
1 5 14 -8.9 3.7
1 5 14 -1.1 4
1 5 14 -3 4.9
-2 -5 -14 14.4 4.7
-2 -5 -14 10.1 4.3
2 5 14 12.4 5.5
2 5 14 12.1 4.5
-3 -5 -14 -3.3 4
-3 -5 -14 5 3.7
3 5 14 -2.8 4.8
3 5 14 -2.9 3.5
-4 -5 -14 11.3 4.4
-4 -5 -14 6.4 4.2
4 5 14 14.6 5.6
4 5 14 6.3 3.6
-5 -5 -14 -5.2 4.1
-5 -5 -14 -1.9 4
5 5 14 -1.7 4.9
5 5 14 -5.1 3.8
-1 1 -15 21.9 5.7
1 -1 15 28.7 6
0 0 -15 6.2 4.6
0 0 -15 -0.4 4.7
0 0 15 -0.3 5.6
-1 0 -15 13.5 4.9
-1 0 -15 17.7 4.9
1 0 15 16 4.3
1 0 15 2.8 5.3
-2 0 -15 5.5 4.5
-2 0 -15 11.6 4.5
2 0 15 10.6 6
2 0 15 2.1 4.1
0 -1 -15 -1.8 4.3
0 -1 -15 -3.6 4
0 1 15 5.3 5.5
0 1 15 -0.7 3.9
-1 -1 -15 13.6 4.6
-1 -1 -15 10.2 4.7
1 1 15 2.7 5.5
1 1 15 4 4.2
-2 -1 -15 5 4.7
-2 -1 -15 -1 3.8
2 1 15 -1 3.8
2 1 15 4.1 5
-3 -1 -15 5.1 4.5
-3 -1 -15 -6 4.6
3 1 15 4.9 3.5
0 -2 -15 0.1 4
0 2 15 -7 5.3
-1 -2 -15 5.2 4.2
-1 -2 -15 5 4.4
1 2 15 5.1 4
1 2 15 5.2 4.4
-2 -2 -15 -4.5 4.4
-2 -2 -15 7.5 4.6
2 2 15 1.5 5.1
2 2 15 -2.3 3.5
-3 -2 -15 4.9 4.5
-3 -2 -15 -2.4 4.5
3 2 15 1.3 5.4
3 2 15 -4.2 3.8
-1 -3 -15 -8 4.1
1 3 15 -7 3.5
1 3 15 -1.4 4.9
-2 -3 -15 3.3 4.1
-2 -3 -15 6.3 4.8
2 3 15 8.6 3.7
2 3 15 3.8 5.4
-3 -3 -15 -0.2 4
-3 -3 -15 -0.3 4.6
3 3 15 3.2 5.4
3 3 15 -8.8 3.7
