#------------------------------------------------------------------------------
#$Date: 2019-11-10 07:44:51 +0200 (Sun, 10 Nov 2019) $
#$Revision: 225900 $
#$URL: file:///home/coder/svn-repositories/cod/cif/4/51/57/4515775.cif $
#------------------------------------------------------------------------------
#
# This file is available in the Crystallography Open Database (COD),
# http://www.crystallography.net/
#
# All data on this site have been placed in the public domain by the
# contributors.
#
data_4515775
loop_
_publ_author_name
'Hota, Pradip Kumar'
'Sau, Samaresh Chandra'
'Mandal, Swadhin K.'
_publ_section_title
;
 Metal-Free Catalytic Formylation of Amides Using CO2 under Ambient
 Conditions
;
_journal_issue                   12
_journal_name_full               'ACS Catalysis'
_journal_page_first              11999
_journal_paper_doi               10.1021/acscatal.8b04023
_journal_volume                  8
_journal_year                    2018
_chemical_formula_moiety         'C8 H7 N O2'
_chemical_formula_sum            'C8 H7 N O2'
_chemical_formula_weight         149.15
_space_group_crystal_system      monoclinic
_space_group_IT_number           14
_space_group_name_Hall           '-P 2ybc'
_space_group_name_H-M_alt        'P 1 21/c 1'
_atom_sites_solution_hydrogens   geom
_atom_sites_solution_primary     direct
_atom_sites_solution_secondary   difmap
_audit_creation_date             2016-08-10
_audit_creation_method
;
Olex2 1.2
(compiled 2016.02.19 svn.r3266 for OlexSys, GUI svn.r5155)
;
_cell_angle_alpha                90.00
_cell_angle_beta                 110.064(4)
_cell_angle_gamma                90.00
_cell_formula_units_Z            4
_cell_length_a                   11.6456(7)
_cell_length_b                   5.1414(3)
_cell_length_c                   13.0095(7)
_cell_measurement_reflns_used    2601
_cell_measurement_temperature    296(2)
_cell_measurement_theta_max      22.291
_cell_measurement_theta_min      3.213
_cell_volume                     731.67(8)
_computing_cell_refinement       'SAINT v8.34A (Bruker, 2013)'
_computing_data_reduction        'SAINT v8.34A (Bruker, 2013)'
_computing_molecular_graphics    'Olex2 (Dolomanov et al., 2009)'
_computing_publication_material  'Olex2 (Dolomanov et al., 2009)'
_computing_structure_refinement  'ShelXL (Sheldrick, 2015)'
_computing_structure_solution    'SHELXS-97 (Sheldrick, 1990)'
_diffrn_ambient_temperature      296.15
_diffrn_measured_fraction_theta_full 0.998
_diffrn_measured_fraction_theta_max 0.998
_diffrn_measurement_device_type  'Bruker APEX-II CCD'
_diffrn_measurement_method       '\f and \w scans'
_diffrn_radiation_monochromator  graphite
_diffrn_radiation_type           MoK\a
_diffrn_radiation_wavelength     0.71073
_diffrn_reflns_av_R_equivalents  0.1093
_diffrn_reflns_av_unetI/netI     0.0525
_diffrn_reflns_limit_h_max       15
_diffrn_reflns_limit_h_min       -15
_diffrn_reflns_limit_k_max       6
_diffrn_reflns_limit_k_min       -6
_diffrn_reflns_limit_l_max       17
_diffrn_reflns_limit_l_min       -17
_diffrn_reflns_number            12306
_diffrn_reflns_theta_full        27.82
_diffrn_reflns_theta_max         27.82
_diffrn_reflns_theta_min         1.86
_diffrn_source                   'fine-focus sealed tube'
_diffrn_standards_number         0
_exptl_absorpt_coefficient_mu    0.099
_exptl_absorpt_correction_type   none
_exptl_crystal_density_diffrn    1.354
_exptl_crystal_density_method    'not measured'
_exptl_crystal_F_000             312
_refine_diff_density_max         0.141
_refine_diff_density_min         -0.181
_refine_diff_density_rms         0.041
_refine_ls_extinction_method     none
_refine_ls_goodness_of_fit_ref   0.897
_refine_ls_hydrogen_treatment    mixed
_refine_ls_matrix_type           full
_refine_ls_number_parameters     104
_refine_ls_number_reflns         1734
_refine_ls_number_restraints     0
_refine_ls_restrained_S_all      0.897
_refine_ls_R_factor_all          0.0775
_refine_ls_R_factor_gt           0.0450
_refine_ls_shift/su_max          0.000
_refine_ls_shift/su_mean         0.000
_refine_ls_structure_factor_coef Fsqd
_refine_ls_weighting_details
'calc w=1/[\s^2^(Fo^2^)+(0.0729P)^2^+0.0000P] where P=(Fo^2^+2Fc^2^)/3'
_refine_ls_weighting_scheme      calc
_refine_ls_wR_factor_gt          0.1169
_refine_ls_wR_factor_ref         0.1319
_reflns_number_gt                967
_reflns_number_total             1734
_reflns_threshold_expression     >2sigma(I)
_iucr_refine_instructions_details
;
TITL PKH_1 in P2(1)/c
CELL 0.71073 11.6456 5.1414 13.0095 90 110.064 90
ZERR 4 0.0007 0.0003 0.0007 0 0.004 0
LATT 1
SYMM -X,0.5+Y,0.5-Z
SFAC C H N O
UNIT 32 28 4 8
 
L.S. 4
PLAN  -10 0 0
TEMP 23
HTAB
BOND $H
CONF
fmap 2
acta
REM <olex2.extras>
REM <HklSrc "%.\\PKH_1.hkl">
REM </olex2.extras>
 
WGHT    0.072900
FVAR       0.83111
N1    3    0.125738    0.828671    0.450182    11.00000    0.05879    0.05991 =
         0.05338    0.00764    0.02760    0.00611
O2    4   -0.007223    1.158138    0.377872    11.00000    0.07305    0.09105 =
         0.08026    0.02579    0.03682    0.02676
O3    4    0.262276    0.707298    0.372077    11.00000    0.10903    0.08836 =
         0.07297    0.01118    0.05912    0.02434
C0AA  1    0.372756    0.096725    0.686721    11.00000    0.07309    0.06246 =
         0.06707    0.00345    0.01501    0.01082
AFIX  43
H0AA  2    0.406129   -0.032691    0.738286    11.00000   -1.20000
AFIX   0
C2    1    0.277780    0.245071    0.693026    11.00000    0.09655    0.08147 =
         0.07585    0.02202    0.04613    0.02593
AFIX  43
H2    2    0.246865    0.216514    0.749161    11.00000   -1.20000
AFIX   0
C3    1    0.418081    0.139191    0.604902    11.00000    0.05543    0.07044 =
         0.07578   -0.00967    0.01857    0.01212
AFIX  43
H3    2    0.483494    0.040347    0.601341    11.00000   -1.20000
AFIX   0
C1    1    0.227862    0.436076    0.616782    11.00000    0.08300    0.07082 =
         0.07559    0.01676    0.04600    0.02641
AFIX  43
H1A   2    0.163898    0.537103    0.622110    11.00000   -1.20000
AFIX   0
C1AA  1    0.271987    0.478961    0.532407    11.00000    0.05266    0.04694 =
         0.05038   -0.00735    0.02000   -0.00257
C2AA  1    0.221909    0.675628    0.445493    11.00000    0.06093    0.05333 =
         0.05401   -0.00678    0.02771   -0.00091
C4    1    0.071519    1.009377    0.373432    11.00000    0.06593    0.06855 =
         0.05857    0.00923    0.02792    0.00297
AFIX  43
H4    2    0.096473    1.020226    0.312893    11.00000   -1.20000
AFIX   0
C5    1    0.367838    0.327705    0.527114    11.00000    0.05524    0.06501 =
         0.06279   -0.00892    0.02514    0.00132
AFIX  43
H5    2    0.398653    0.353233    0.470721    11.00000   -1.20000
AFIX   0
H1    2    0.098571    0.813205    0.504215    11.00000    0.06423
HKLF 4
 
REM  PKH_1 in P2(1)/c
REM R1 =  0.0450 for    967 Fo > 4sig(Fo)  and  0.0775 for all   1734 data
REM    104 parameters refined using      0 restraints
 
END  
     
WGHT      0.0729      0.0000 
REM Highest difference peak  0.141,  deepest hole -0.181,  1-sigma level  0.041
Q1    1   0.2016  0.5829  0.3548  11.00000  0.05    0.14
Q2    1   0.2819  0.3544  0.7984  11.00000  0.05    0.12
Q3    1   0.1551  0.6084  0.2829  11.00000  0.05    0.12
Q4    1   0.4428 -0.1197  0.5978  11.00000  0.05    0.11
Q5    1   0.3537  0.2957  0.4203  11.00000  0.05    0.10
Q6    1   0.1830  0.8002  0.2808  11.00000  0.05    0.09
Q7    1   0.0818  0.8366  0.2750  11.00000  0.05    0.09
Q8    1   0.1026  0.4878  0.5761  11.00000  0.05    0.09
Q9    1   0.2037  0.6424  0.6591  11.00000  0.05    0.09
Q10   1   0.1441  1.1067  0.3155  11.00000  0.05    0.09

  REM The information below was added by Olex2.
  REM
  REM R1 = 0.0450 for 967 Fo > 4sig(Fo) and 0.0775 for all 13282 data
  REM n/a parameters refined using n/a restraints
  REM Highest difference peak 0.14, deepest hole -0.18
  REM Mean Shift 0, Max Shift 0.000.
  
  REM +++ Tabular Listing of Refinement Information +++
  REM R1_all = 0.0775
  REM R1_gt = 0.0450
  REM wR_ref = 0.1319
  REM GOOF = 0.897
  REM Shift_max = 0.000
  REM Shift_mean = 0
  REM Reflections_all = 13282
  REM Reflections_gt = 967
  REM Parameters = n/a
  REM Hole = -0.18
  REM Peak = 0.14
  REM Flack = n/a
  
  
;
_cod_data_source_file            cs8b04023_si_002.cif
_cod_data_source_block           pkh_1
_cod_original_cell_volume        731.67(7)
_cod_database_code               4515775
_olex2_refinement_description
;
1. Fixed Uiso
 At 1.2 times of:
  All C(H) groups
2.a Aromatic/amide H refined with riding coordinates:
 C0AA(H0AA), C2(H2), C3(H3), C1(H1A), C4(H4), C5(H5)
;
_olex2_submission_special_instructions 'No special instructions were received'
loop_
_space_group_symop_id
_space_group_symop_operation_xyz
1 'x, y, z'
2 '-x, y+1/2, -z+1/2'
3 '-x, -y, -z'
4 'x, -y-1/2, z-1/2'
loop_
_atom_site_label
_atom_site_type_symbol
_atom_site_fract_x
_atom_site_fract_y
_atom_site_fract_z
_atom_site_U_iso_or_equiv
_atom_site_adp_type
_atom_site_occupancy
_atom_site_calc_flag
_atom_site_refinement_flags_posn
N1 N 0.12574(10) 0.8287(2) 0.45018(10) 0.0552(4) Uani 1 d .
O2 O -0.00722(10) 1.1581(2) 0.37787(9) 0.0787(4) Uani 1 d .
O3 O 0.26228(11) 0.7073(2) 0.37208(9) 0.0829(4) Uani 1 d .
C0AA C 0.37276(14) 0.0967(3) 0.68672(13) 0.0699(5) Uani 1 d .
H0AA H 0.4061 -0.0327 0.7383 0.084 Uiso 1 calc R
C2 C 0.27778(16) 0.2451(3) 0.69303(14) 0.0803(5) Uani 1 d .
H2 H 0.2469 0.2165 0.7492 0.096 Uiso 1 calc R
C3 C 0.41808(13) 0.1392(3) 0.60490(13) 0.0682(5) Uani 1 d .
H3 H 0.4835 0.0403 0.6013 0.082 Uiso 1 calc R
C1 C 0.22786(15) 0.4361(3) 0.61678(13) 0.0716(5) Uani 1 d .
H1A H 0.1639 0.5371 0.6221 0.086 Uiso 1 calc R
C1AA C 0.27199(11) 0.4790(2) 0.53241(10) 0.0494(4) Uani 1 d .
C2AA C 0.22191(12) 0.6756(3) 0.44549(11) 0.0540(4) Uani 1 d .
C4 C 0.07152(14) 1.0094(3) 0.37343(12) 0.0627(4) Uani 1 d .
H4 H 0.0965 1.0202 0.3129 0.075 Uiso 1 calc R
C5 C 0.36784(12) 0.3277(3) 0.52711(12) 0.0597(4) Uani 1 d .
H5 H 0.3987 0.3532 0.4707 0.072 Uiso 1 calc R
H1 H 0.0986(13) 0.813(3) 0.5042(13) 0.064(4) Uiso 1 d .
loop_
_atom_site_aniso_label
_atom_site_aniso_U_11
_atom_site_aniso_U_22
_atom_site_aniso_U_33
_atom_site_aniso_U_23
_atom_site_aniso_U_13
_atom_site_aniso_U_12
N1 0.0588(7) 0.0599(8) 0.0534(7) 0.0076(6) 0.0276(6) 0.0061(6)
O2 0.0730(7) 0.0910(9) 0.0803(8) 0.0258(6) 0.0368(6) 0.0268(6)
O3 0.1090(9) 0.0884(9) 0.0730(7) 0.0112(6) 0.0591(7) 0.0243(7)
C0AA 0.0731(11) 0.0625(10) 0.0671(10) 0.0035(8) 0.0150(8) 0.0108(8)
C2 0.0966(12) 0.0815(12) 0.0759(11) 0.0220(9) 0.0461(10) 0.0259(11)
C3 0.0554(9) 0.0704(11) 0.0758(11) -0.0097(9) 0.0186(8) 0.0121(7)
C1 0.0830(11) 0.0708(11) 0.0756(11) 0.0168(9) 0.0460(9) 0.0264(9)
C1AA 0.0527(8) 0.0469(8) 0.0504(8) -0.0073(6) 0.0200(6) -0.0026(6)
C2AA 0.0609(9) 0.0533(9) 0.0540(8) -0.0068(7) 0.0277(7) -0.0009(7)
C4 0.0659(10) 0.0686(10) 0.0586(9) 0.0092(8) 0.0279(8) 0.0030(8)
C5 0.0552(8) 0.0650(10) 0.0628(9) -0.0089(8) 0.0251(7) 0.0013(7)
loop_
_atom_type_symbol
_atom_type_description
_atom_type_scat_dispersion_real
_atom_type_scat_dispersion_imag
_atom_type_scat_source
C C 0.0033 0.0016 'International Tables Vol C Tables 4.2.6.8 and 6.1.1.4'
H H 0.0000 0.0000 'International Tables Vol C Tables 4.2.6.8 and 6.1.1.4'
N N 0.0061 0.0033 'International Tables Vol C Tables 4.2.6.8 and 6.1.1.4'
O O 0.0106 0.0060 'International Tables Vol C Tables 4.2.6.8 and 6.1.1.4'
loop_
_geom_angle_atom_site_label_1
_geom_angle_atom_site_label_2
_geom_angle_atom_site_label_3
_geom_angle
C2AA N1 H1 120.5(10)
C4 N1 C2AA 122.49(13)
C4 N1 H1 117.0(10)
C2 C0AA H0AA 120.1
C3 C0AA H0AA 120.1
C3 C0AA C2 119.77(15)
C0AA C2 H2 119.8
C0AA C2 C1 120.33(15)
C1 C2 H2 119.8
C0AA C3 H3 119.8
C0AA C3 C5 120.48(14)
C5 C3 H3 119.8
C2 C1 H1A 119.8
C2 C1 C1AA 120.48(14)
C1AA C1 H1A 119.8
C1 C1AA C2AA 124.08(13)
C1 C1AA C5 118.52(14)
C5 C1AA C2AA 117.39(12)
N1 C2AA C1AA 117.82(12)
O3 C2AA N1 119.73(14)
O3 C2AA C1AA 122.45(13)
N1 C4 H4 117.7
O2 C4 N1 124.66(14)
O2 C4 H4 117.7
C3 C5 C1AA 120.40(14)
C3 C5 H5 119.8
C1AA C5 H5 119.8
loop_
_geom_bond_atom_site_label_1
_geom_bond_atom_site_label_2
_geom_bond_distance
N1 C2AA 1.3871(17)
N1 C4 1.3514(19)
N1 H1 0.868(16)
O2 C4 1.2106(17)
O3 C2AA 1.2115(16)
C0AA H0AA 0.9300
C0AA C2 1.369(2)
C0AA C3 1.358(2)
C2 H2 0.9300
C2 C1 1.375(2)
C3 H3 0.9300
C3 C5 1.378(2)
C1 H1A 0.9300
C1 C1AA 1.3801(19)
C1AA C2AA 1.4794(19)
C1AA C5 1.3814(18)
C4 H4 0.9300
C5 H5 0.9300
loop_
_geom_torsion_atom_site_label_1
_geom_torsion_atom_site_label_2
_geom_torsion_atom_site_label_3
_geom_torsion_atom_site_label_4
_geom_torsion
C0AA C2 C1 C1AA 0.6(3)
C0AA C3 C5 C1AA 1.1(2)
C2 C0AA C3 C5 -1.1(2)
C2 C1 C1AA C2AA 178.49(15)
C2 C1 C1AA C5 -0.6(2)
C3 C0AA C2 C1 0.2(3)
C1 C1AA C2AA N1 0.9(2)
C1 C1AA C2AA O3 -179.51(15)
C1 C1AA C5 C3 -0.2(2)
C2AA N1 C4 O2 -175.08(14)
C2AA C1AA C5 C3 -179.41(11)
C4 N1 C2AA O3 2.1(2)
C4 N1 C2AA C1AA -178.34(12)
C5 C1AA C2AA N1 -179.92(12)
C5 C1AA C2AA O3 -0.4(2)
loop_
_refln_index_h
_refln_index_k
_refln_index_l
_refln_F_squared_meas
_refln_F_squared_sigma
0 0 -1 0.12 0.09
0 0 -1 1.07 0.26
0 0 1 1.68 0.32
0 0 1 1.17 0.27
0 0 -2 1491.54 10.31
0 0 -2 0.25 0.17
0 0 -2 1399.39 10.35
0 0 2 1872.06 12.07
0 0 2 1580.06 10.55
0 0 2 1483.11 10.7
0 0 2 1360.85 10.26
0 0 2 1896.61 10.36
0 0 -3 0.18 0.37
0 0 -3 0.42 0.46
0 0 -3 0.05 0.18
0 0 -3 0.2 0.38
0 0 3 -0.12 0.42
0 0 3 -0.19 0.32
0 0 3 -0.24 0.3
0 0 3 -0.07 0.34
0 0 3 0.07 0.34
0 0 -4 1616.5 14.03
0 0 -4 1334.61 14
0 0 -4 0.01 0.31
0 0 -4 1296.56 14.15
0 0 4 1735.61 16.61
0 0 4 1660.73 15.4
0 0 4 1424.22 14.91
0 0 4 1268.32 14.13
0 0 4 1917.36 14.85
0 0 -5 0.14 0.56
0 0 -5 -0.14 0.47
0 0 -5 0.01 0.35
0 0 -5 0.25 0.56
0 0 5 0.05 0.54
0 0 5 0.1 0.58
0 0 5 -0.33 0.43
0 0 5 -0.06 0.47
0 0 5 0.49 0.59
0 0 -6 5.5 1.43
0 0 -6 3.83 1.3
0 0 -6 2.62 1.09
0 0 -6 4.3 1.39
0 0 6 5.44 1.45
0 0 6 5.88 1.53
0 0 6 4.16 1.34
0 0 6 6.43 1.42
0 0 -7 0.14 0.67
0 0 -7 0.86 0.9
0 0 -7 0.01 0.59
0 0 7 -0.01 0.79
0 0 7 -0.25 0.59
0 0 7 -0.02 0.64
0 0 7 -0.38 0.54
0 0 -8 52.98 3.8
0 0 -8 47.53 4.03
0 0 -8 46.4 4.03
0 0 8 57.62 3.05
0 0 8 59.8 4.35
0 0 8 49.35 4.14
0 0 8 68.39 4.17
0 0 -9 0.17 0.96
0 0 -9 0.4 1.02
0 0 -9 -0.5 0.89
0 0 9 0.68 1.1
0 0 9 0.34 1.04
0 0 9 0.29 0.9
0 0 9 0.35 0.88
0 0 -10 2.46 1.63
0 0 -10 2.33 1.76
0 0 -10 1.7 1.41
0 0 10 2.17 1.52
0 0 10 2.29 1.48
0 0 10 2.29 1.63
0 0 10 3.21 1.61
0 0 -11 0.12 1.57
0 0 -11 -1.13 1.38
0 0 11 0.2 1.43
0 0 11 -0.18 1.13
0 0 11 0.26 1.2
0 0 11 -0.09 1.31
0 0 -12 165.66 9.63
0 0 12 183.97 10.26
0 0 12 171.26 9.2
0 0 12 129.7 8.63
0 0 -13 1.34 1.94
0 0 13 0.12 1.59
0 0 13 -0.13 1.46
0 0 14 22.73 5.43
0 0 14 20.21 4.58
0 0 -15 -0.78 1.94
0 0 15 -0.88 1.97
0 0 15 -0.41 1.82
0 0 -16 0.93 2.71
0 0 16 3.73 3.27
0 0 16 3.68 2.77
0 -1 0 0.52 0.34
0 -1 0 0.32 0.33
0 -1 0 0.11 0.14
0 -1 0 0.23 0.16
0 1 0 0.36 0.31
0 -1 -1 5.1 0.89
0 -1 -1 3.77 0.83
0 -1 -1 4.76 0.56
0 -1 -1 4.15 0.65
0 -1 -1 4.68 0.7
0 -1 1 5.55 0.87
0 -1 1 5.39 0.82
0 1 1 5.03 0.87
0 1 1 4.27 0.64
0 1 1 3.61 0.6
0 1 1 5.05 0.96
0 -1 -2 2796.05 17.83
0 -1 -2 2464.63 17.57
0 -1 -2 2606.57 15.17
0 -1 -2 2602.4 16.46
0 -1 -2 2361.09 15.61
0 -1 2 3204.88 18.07
0 -1 2 3162.29 15.17
0 -1 2 2517.66 11.44
0 -1 2 2264.53 10.85
0 1 -2 2683.68 11.01
0 1 -2 2399.96 10.35
0 1 2 3122.84 19.15
0 1 2 2674.07 15.93
0 1 2 2634.19 16.34
0 1 2 2219.06 15.11
0 1 2 2826.17 18.83
0 -1 -3 1027.84 12.53
0 -1 -3 1069.98 11.7
0 -1 -3 1098.35 12.59
0 -1 -3 966.57 11.74
0 -1 3 1215.7 12.39
0 -1 3 1270.46 8.43
0 -1 3 1084.51 9.98
0 -1 3 934.48 9.28
0 -1 3 1202.35 9.38
0 1 -3 1138.69 9.53
0 1 -3 1112.95 9.77
0 1 -3 1041.53 9.41
0 1 3 1363.84 14.41
0 1 3 1184.22 12.6
0 1 3 1114.68 12.55
0 1 3 1191.37 13.46
0 -1 -4 170.84 5.61
0 -1 -4 181.27 5.53
0 -1 -4 175.8 5.74
0 -1 -4 154.95 5.34
0 -1 4 200.44 5.74
0 -1 4 212.12 4.53
0 -1 4 173.6 4.81
0 -1 4 162.29 4.67
0 -1 4 212.69 4.41
0 1 -4 188.73 4.79
0 1 -4 187.25 4.88
0 1 -4 158.04 4.46
0 1 4 227.2 6.62
0 1 4 181.41 5.65
0 1 4 168.92 5.56
0 1 4 0.02 0.3
0 1 4 210.41 6.21
0 -1 -5 33.66 2.79
0 -1 -5 33.46 2.77
0 -1 -5 36.9 3.02
0 -1 5 40.06 2.93
0 -1 5 40.82 2.42
0 -1 5 33.06 2.47
0 -1 5 41.69 2.24
0 1 -5 34.78 2.45
0 1 -5 38.23 2.61
0 1 -5 33.51 2.43
0 1 5 42.12 3.27
0 1 5 36.85 2.89
0 1 5 36.36 2.94
0 1 5 30.03 2.68
0 1 5 40.98 3.04
0 -1 -6 342.71 9.21
0 -1 -6 353.18 9.43
0 -1 -6 364.57 9.96
0 -1 6 421.33 10.15
0 -1 6 424.88 8.54
0 -1 6 294.62 8.02
0 -1 6 442.93 7.83
0 1 -6 356.56 8.57
0 1 -6 353.96 8.59
0 1 -6 311.6 7.98
0 1 6 445.07 11.07
0 1 6 385.26 9.95
0 1 6 293.68 8.9
0 1 6 444.54 10.39
0 -1 -7 2.73 1.37
0 -1 -7 0.74 0.88
0 -1 -7 0.83 0.94
0 -1 7 1.24 1.08
0 -1 7 1.3 0.85
0 -1 7 -0.16 0.42
0 -1 7 1.9 0.87
0 1 -7 1.72 1.04
0 1 -7 1.27 0.94
0 1 -7 1.39 1.01
0 1 7 1.19 1.12
0 1 7 0.7 0.93
0 1 7 1.47 0.99
0 1 7 1.05 1.07
0 -1 -8 33.45 3.42
0 -1 -8 33.02 3.57
0 -1 -8 22.66 3.45
0 -1 8 40.59 3.88
0 -1 8 37.72 3.17
0 -1 8 27.26 3.01
0 -1 8 37.53 2.81
0 1 -8 26.49 3.04
0 1 -8 32.91 3.26
0 1 -8 23.31 2.83
0 1 8 43.42 4.24
0 1 8 39.65 3.86
0 1 8 30.04 3.53
0 1 8 41.71 3.75
0 -1 -9 2.17 1.5
0 -1 -9 3.29 1.7
0 -1 -9 3.02 1.73
0 -1 9 2.3 1.45
0 -1 9 2.02 1.25
0 -1 9 2.62 1.3
0 -1 9 4.09 1.7
0 1 -9 5.49 1.71
0 1 -9 3.11 1.58
0 1 -9 3.86 1.65
0 1 9 1.86 1.48
0 1 9 3.7 1.86
0 1 9 3 1.73
0 1 9 2.89 1.51
0 -1 -10 2.22 1.75
0 -1 -10 1.5 1.47
0 -1 -10 1.12 1.59
0 -1 10 0.9 1.27
0 -1 10 1.32 1.18
0 -1 10 0.9 1.19
0 1 -10 -0.3 1.35
0 1 -10 0.37 1.17
0 1 10 0.97 1.48
0 1 10 1.39 1.16
0 1 10 3.31 1.83
0 1 10 0.84 1.21
0 1 10 1.65 1.54
0 -1 -11 1.94 1.91
0 -1 -11 3.46 2.05
0 -1 11 5 2.36
0 -1 11 5.79 2.07
0 1 -11 3.92 2.13
0 1 11 8.18 2.86
0 1 11 4.12 2.14
0 1 11 7.7 2.71
0 1 11 5.55 2.25
0 -1 -12 0.21 1.63
0 -1 12 0.31 1.53
0 -1 12 2.06 1.7
0 1 -12 2.66 2.18
0 1 12 0.43 1.58
0 1 12 -0.05 1.2
0 1 12 1.82 1.58
0 -1 -13 2.28 2.04
0 -1 -13 0.26 1.69
0 -1 13 0.19 1.72
0 -1 13 0.67 1.44
0 1 -13 0.57 1.76
0 1 13 0.9 1.67
0 1 13 0.17 1.45
0 -1 -14 6.06 3.23
0 -1 14 12.75 4.14
0 1 -14 8.17 3.34
0 1 14 10.54 3.68
0 1 14 12.48 3.79
0 -1 -15 2.36 2.69
0 -1 15 2.61 2.4
0 1 15 4.3 3.01
0 1 15 2.03 2.68
0 -2 0 202.84 5.48
0 -2 0 192.95 5.74
0 -2 0 203.7 3.29
0 -2 0 186.29 3.15
0 2 0 207.08 5.56
0 2 0 210.05 5.94
0 -2 -1 30.51 2.26
0 -2 -1 31.78 2.52
0 -2 -1 32.08 1.76
0 -2 -1 28.05 1.66
0 -2 1 30.39 2.21
0 -2 1 31.97 2.3
0 2 1 30.89 2.32
0 2 1 34.02 1.67
0 2 1 30.96 2.52
0 -2 -2 12.8 1.92
0 -2 -2 15.87 2.41
0 -2 -2 17.13 1.24
0 -2 -2 12.3 1.41
0 -2 -2 13.16 1.42
0 -2 2 13.69 1.63
0 -2 2 14.05 1.57
0 -2 2 13.55 0.65
0 -2 2 11.07 0.59
0 2 2 15.15 1.82
0 2 2 13.78 1.43
0 2 2 10.24 1.22
0 2 2 15.06 2.26
0 -2 -3 210.89 6.6
0 -2 -3 193.32 6.77
0 -2 -3 213.41 5.3
0 -2 -3 215.78 6.17
0 -2 3 244.65 6.73
0 -2 3 242.23 5.94
0 -2 3 212.53 3.8
0 -2 3 183.42 3.52
0 2 -3 223.7 4.92
0 2 3 244.48 7.25
0 2 3 220.57 6
0 2 3 206.1 5.84
0 2 3 180.47 5.49
0 2 3 222.14 7.26
0 -2 -4 1.25 0.91
0 -2 -4 1.54 1.13
0 -2 -4 0.18 0.64
0 -2 -4 0.11 0.66
0 -2 4 1.18 0.57
0 -2 4 0.74 0.47
0 2 -4 1.23 0.58
0 2 -4 1.24 0.55
0 2 -4 0.74 0.43
0 2 -4 1.12 0.46
0 2 4 1.25 0.99
0 2 4 1.44 0.92
0 2 4 1.2 0.85
0 2 4 0.3 0.59
0 2 4 1.73 1.1
0 -2 -5 14.19 2.55
0 -2 -5 14.82 2.81
0 -2 -5 13.02 2.16
0 -2 -5 4.92 1.51
0 -2 5 14.2 1.58
0 2 -5 15.71 1.65
0 2 -5 15.93 1.51
0 2 -5 15.42 1.46
0 2 5 19.18 2.96
0 2 5 17.4 2.58
0 2 5 18.9 2.76
0 2 5 12.07 2.19
0 2 5 15.79 2.6
0 -2 -6 13.18 2.58
0 -2 -6 17.13 3.18
0 -2 -6 13.39 2.45
0 -2 -6 17.32 2.85
0 -2 6 13.76 1.39
0 -2 6 13.03 1.99
0 2 -6 14.2 2.08
0 2 -6 16.41 1.82
0 2 -6 14.46 1.67
0 2 6 18.61 2.99
0 2 6 19.89 3.05
0 2 6 10.82 2.17
0 2 6 14.54 2.64
0 -2 -7 28.24 3.42
0 -2 -7 20.78 3.5
0 -2 -7 28.6 3.13
0 -2 -7 28.03 3.4
0 -2 7 27.52 3.95
0 2 -7 30.31 2.83
0 2 -7 32.9 2.74
0 2 7 39.3 4.05
0 2 7 32.4 3.47
0 2 7 0.84 0.87
0 2 7 32.61 3.59
0 -2 -8 34.89 3.99
0 -2 -8 29.87 3.71
0 -2 -8 27.24 3.92
0 -2 -8 33.24 3.85
0 -2 8 33.98 3.7
0 2 -8 29.91 3.15
0 2 -8 34.12 3.1
0 2 8 32.65 4.01
0 2 8 41 4.19
0 2 8 -0.12 0.76
0 2 8 40.45 4.24
0 -2 -9 84.89 6.41
0 -2 -9 82.53 6.16
0 -2 -9 77.36 5.72
0 -2 -9 83.55 6.29
0 -2 9 87.51 6.04
0 2 -9 78.91 5.29
0 2 -9 82.17 5.04
0 2 9 95.37 6.88
0 2 9 84.24 6.16
0 2 9 62.2 5.45
0 2 9 102.64 6.79
0 -2 -10 0.02 1.32
0 -2 -10 0.72 1.37
0 -2 -10 -0.59 1.18
0 -2 -10 -0.31 1.45
0 -2 10 1.21 1.28
0 2 -10 0.06 1.34
0 2 -10 0.42 1.21
0 2 10 0.27 1.51
0 2 10 0.04 1.42
0 2 10 0.84 1.47
0 -2 -11 7.06 2.8
0 -2 -11 4.49 2.6
0 -2 -11 5.32 2.41
0 -2 11 7.02 2.56
0 2 -11 5.71 2.42
0 2 11 8.6 3.13
0 2 11 8.7 2.62
0 2 11 9.36 3.19
0 2 11 8.31 2.89
0 -2 -12 -0.54 1.4
0 -2 -12 -0.32 1.81
0 -2 -12 -0.65 1.51
0 -2 12 0.51 1.48
0 2 -12 -1.65 1.59
0 2 12 -0.49 1.83
0 2 12 0.63 1.96
0 2 12 -0.04 1.46
0 -2 -13 0.53 1.83
0 -2 -13 2.96 2.59
0 -2 -13 2.67 2.25
0 -2 13 3.02 2.37
0 2 13 1.69 2.24
0 2 13 4.51 2.74
0 2 13 3.59 2.31
0 -2 -14 -0.52 1.8
0 -2 -14 -0.42 2.31
0 -2 -14 -0.28 2.04
0 -2 14 0.84 2.01
0 2 14 0.36 2.42
0 2 14 2.96 2.52
0 2 14 -0.4 1.93
0 -2 -15 -0.47 2
0 -2 -15 0.03 2.33
0 -2 15 1.26 2.17
0 2 15 -0.63 2.58
0 2 15 0.08 1.92
0 -3 0 0.5 0.69
0 -3 0 -0.35 0.73
0 -3 0 0.11 0.33
0 -3 0 0.35 0.35
0 3 0 0.22 0.61
0 3 0 -0.26 0.61
0 -3 -1 26.22 2.6
0 -3 -1 24.94 2.8
0 -3 -1 28.06 1.92
0 -3 1 29.61 2.73
0 -3 1 28.84 2.81
0 -3 1 28.25 1.01
0 3 -1 30.3 2.72
0 3 -1 30.36 2.83
0 3 1 27.31 2.77
0 3 1 29.35 1.88
0 3 1 28.47 3.02
0 -3 -2 0.93 0.88
0 -3 -2 -0.58 0.7
0 -3 -2 0.22 0.52
0 -3 2 -0.27 0.57
0 -3 2 0.1 0.66
0 3 2 -0.34 0.63
0 3 2 0.01 0.54
0 3 2 0.11 0.95
0 -3 -3 0.02 0.68
0 -3 -3 0.07 0.86
0 -3 -3 -0.25 0.4
0 -3 -3 -0.16 0.56
0 -3 3 -0.22 0.69
0 -3 3 0.31 0.73
0 3 -3 -0.63 0.54
0 3 3 0.67 0.9
0 3 3 -0.2 0.62
0 3 3 -0.17 0.45
0 3 3 -0.44 0.74
0 -3 -4 2.25 1.21
0 -3 -4 2.62 1.5
0 -3 -4 3.64 1.06
0 -3 -4 2.4 1.12
0 -3 4 2.12 1.21
0 -3 4 3.81 1.29
0 3 -4 2.8 1.04
0 3 4 3.46 1.49
0 3 4 3.38 1.31
0 3 4 3.22 1.11
0 3 4 2.41 1.42
0 -3 -5 4.08 1.76
0 -3 -5 4.35 1.93
0 -3 -5 3.96 1.29
0 -3 -5 0.17 0.73
0 3 5 3.46 1.63
0 3 5 4.88 1.68
0 3 5 2.69 1.23
0 3 5 3.3 1.6
0 -3 -6 0.23 0.97
0 -3 -6 0.6 1.19
0 -3 -6 1.1 1.01
0 -3 -6 0.23 0.91
0 3 6 0.48 1.09
0 3 6 0.08 0.96
0 3 6 0.16 0.79
0 3 6 0.6 1.03
0 -3 -7 2.96 1.77
0 -3 -7 4.13 2.09
0 -3 -7 5.63 1.85
0 -3 -7 7.55 2.29
0 3 7 2.76 1.74
0 3 7 5.46 2.03
0 3 7 4.11 1.72
0 3 7 5.62 2.28
0 -3 -8 0.66 1.37
0 -3 -8 1.7 1.75
0 -3 -8 1.04 1.27
0 -3 -8 -0.07 1.37
0 3 8 0.79 1.54
0 3 8 -0.01 1.31
0 3 8 1.37 1.21
0 3 8 -0.64 1.18
0 -3 -9 -0.1 1.26
0 -3 -9 1.66 1.74
0 -3 -9 -0.89 1.09
0 3 9 1.37 1.8
0 3 9 -1.39 1.42
0 3 9 -0.02 1.27
0 -3 -10 0.24 1.35
0 -3 -10 1.24 1.82
0 -3 -10 -0.09 1.46
0 3 10 0.04 1.64
0 3 10 0.58 1.39
0 3 10 -0.41 1.6
0 3 10 -0.32 1.41
0 -3 -11 0.86 1.76
0 -3 -11 0.61 2.03
0 -3 -11 0.02 1.71
0 3 11 3.01 2.26
0 3 11 1.59 1.71
0 3 11 1.55 2.39
0 3 11 2.12 2.05
0 -3 -12 4.96 2.85
0 -3 -12 5.34 3.1
0 -3 -12 1.88 2.11
0 3 12 5.42 3.25
0 3 12 5.75 2.71
0 3 12 4.47 2.91
0 3 12 2.47 2.5
0 -3 -13 7.93 3.53
0 -3 -13 -0.31 2.31
0 -3 -13 5.84 2.94
0 3 13 7.57 3.73
0 3 13 7.37 3.74
0 3 13 6 2.9
0 -3 -14 0.2 2.14
0 -3 -14 -0.33 2.65
0 -3 -14 2.42 2.33
0 3 14 0.34 2.67
0 3 14 1.69 2.9
0 3 14 0.23 2.24
0 -4 0 -0.12 0.98
0 -4 0 0.37 0.94
0 4 0 -0.51 0.89
0 4 0 0.49 1.1
0 -4 -1 5.94 1.92
0 -4 -1 5.78 2.12
0 -4 1 5.26 1.77
0 -4 1 6.21 2.11
0 4 -1 6.09 1.94
0 4 -1 5.01 1.91
0 4 1 8.34 2.24
0 4 1 7.14 2.38
0 -4 -2 4.56 1.79
0 -4 -2 2.99 1.67
0 -4 2 3.33 1.53
0 -4 2 0.71 1.14
0 4 -2 1.75 1.33
0 4 -2 2.07 1.33
0 4 -2 1.93 1.24
0 4 2 3.24 1.67
0 4 2 4.13 1.82
0 -4 -3 -0.05 0.89
0 -4 -3 -0.3 0.9
0 -4 3 -1.12 0.82
0 -4 3 0.24 0.97
0 4 -3 -0.51 0.87
0 4 -3 -0.23 0.87
0 4 -3 0.09 0.91
0 4 3 0.32 1.09
0 4 3 0.63 1.11
0 -4 -4 0.46 1.1
0 -4 -4 -0.48 1.02
0 -4 4 0.55 1.23
0 -4 4 -0.5 0.9
0 4 4 0.55 1.23
0 4 4 1.88 1.51
0 -4 -5 3.73 1.89
0 -4 -5 1.02 1.33
0 -4 5 2.27 1.61
0 4 5 2.78 1.72
0 4 5 2.93 1.82
0 -4 -6 0.58 1.26
0 -4 -6 1.13 1.58
0 4 6 1.21 1.7
0 4 6 3.27 1.73
0 4 6 1.04 1.48
0 -4 -7 1.03 1.38
0 -4 -7 0.32 1.6
0 4 7 0.23 1.55
0 4 7 0.76 1.5
0 4 7 -0.04 1.49
0 -4 -8 0.83 1.59
0 -4 -8 0.38 1.61
0 4 8 0.61 1.79
0 4 8 0.75 1.61
0 4 8 1.27 1.97
0 -4 -9 0.17 1.55
0 -4 -9 1.18 1.84
0 4 9 -0.03 1.81
0 4 9 -0.01 1.64
0 4 9 0.13 1.64
0 4 9 -1.09 1.59
0 -4 -10 0.24 1.71
0 -4 -10 1.69 2.07
0 4 10 2.74 2.37
0 4 10 -0.21 1.7
0 4 10 0.62 2.13
0 4 10 1.37 2.3
0 -4 -11 0.74 1.88
0 -4 -11 -0.43 2.06
0 4 11 -0.45 2.01
0 4 11 -1.14 1.7
0 4 11 -1.67 2.16
0 4 11 0.1 1.67
0 -4 -12 0.51 1.97
0 -4 -12 1.31 2.46
0 4 12 1 2.64
0 4 12 2.76 2.65
0 4 12 2.88 2.87
0 4 12 0.23 2.43
0 -5 0 -1.03 1.75
0 -5 0 0.42 1.4
0 5 0 0.05 1.72
0 5 0 0.16 1.48
0 5 0 1.32 1.6
0 -5 -1 7.21 2.51
0 -5 -1 7.5 2.67
0 -5 1 9.33 2.82
0 5 -1 11.35 3.01
0 5 -1 11.32 3.08
0 5 1 9.31 2.72
0 5 1 6.67 2.67
0 5 1 10.22 3.03
0 -5 -2 2.43 1.62
0 -5 -2 0.18 1.37
0 -5 2 0.02 1.35
0 5 -2 0.06 1.34
0 5 -2 0.35 1.29
0 5 2 0.74 1.6
0 5 2 -0.58 1.51
0 5 2 1.02 1.7
0 -5 -3 1.37 1.57
0 -5 -3 2.43 2.06
0 5 3 0.27 1.42
0 5 3 0.61 1.56
0 5 3 0.48 1.23
0 -5 -4 16.03 3.63
0 -5 -4 13.13 3.63
0 5 4 15.05 3.55
0 5 4 18.3 4.37
0 5 4 11.82 3.49
0 -5 -5 5.97 2.46
0 -5 -5 6.49 2.93
0 5 5 11.41 3.33
0 5 5 5.98 2.86
0 5 5 10.32 3.43
0 -5 -6 5.31 2.55
0 -5 -6 2.86 2.22
0 5 6 4.3 2.54
0 5 6 8.31 3.22
0 5 6 3.68 2.47
0 -5 -7 -0.02 1.42
0 -5 -7 0.59 1.66
0 5 7 0.94 1.97
0 5 7 1.16 1.99
0 5 7 -1.01 1.76
0 -5 -8 -0.23 1.62
0 -5 -8 0.18 1.8
0 5 8 0.66 2
0 5 8 1.48 2.14
0 5 8 0.81 2.17
0 -5 -9 1.11 2.15
0 -5 -9 2.41 2.44
0 5 9 0.7 2.4
0 5 9 1.81 2.36
0 5 9 0.37 2.09
0 -5 -10 1.02 2.23
0 -5 -10 -1.25 1.49
0 5 10 2.21 2.8
0 5 10 1.98 2.56
0 5 10 -0.41 1.87
0 -6 0 18.33 4.64
0 6 0 21.87 4.63
0 6 0 13.89 3.63
0 -6 -1 0.67 2
0 6 1 1.69 1.99
0 6 1 3.65 2.3
0 -6 -2 16.21 4.42
0 6 2 17.98 4.61
0 6 2 23.82 5.13
0 -6 -3 7.24 3.09
0 6 3 4.05 2.84
0 6 3 5.17 2.64
0 -6 -4 0.54 1.71
0 6 4 0.77 1.91
0 6 4 0.7 1.93
0 -6 -5 0.75 2.14
0 6 5 0.05 1.86
0 6 5 -0.67 1.71
0 -6 -6 -0.27 1.76
0 6 6 2.43 2.79
0 6 6 0.95 2.17
0 -6 -7 -0.27 2.07
0 6 7 0.43 2.5
0 6 7 0.26 2.35
-1 0 16 6.82 3.85
-1 0 16 8.13 3.37
1 0 -16 6.6 3.65
-1 0 15 -0.39 1.54
-1 0 15 -1.43 1.46
1 0 -15 -0.43 1.82
-1 0 14 33.25 5.81
-1 0 14 25.92 4.95
1 0 -14 23.41 5.04
-1 0 13 0.66 1.74
-1 0 13 0.61 1.47
1 0 -13 0.66 1.96
-1 0 12 48.2 5.37
-1 0 12 40.68 4.7
-1 0 12 28.4 4.82
1 0 -12 36.25 5.22
1 0 -12 36.69 5.58
-1 0 11 1.12 1.36
-1 0 11 -0.42 1.2
-1 0 11 -0.3 1.03
1 0 -11 0.84 1.48
1 0 -11 0.24 1.47
1 0 -11 0.12 1.2
-1 0 10 32.49 3.94
-1 0 10 27.61 3.45
-1 0 10 21.92 3.75
-1 0 10 32.61 3.14
1 0 -10 29.17 4.24
1 0 -10 25.59 4.12
1 0 -10 17.34 3.29
-1 0 9 0.26 0.93
-1 0 9 0.34 0.96
-1 0 9 -0.53 0.63
-1 0 9 0.6 0.81
1 0 -9 -0.59 0.87
1 0 -9 1.69 1.35
1 0 -9 -0.44 0.82
-1 0 8 32.6 3.41
-1 0 8 25.42 2.83
-1 0 8 23.11 3.35
-1 0 8 34.77 2.82
1 0 -8 26.87 2.91
1 0 -8 23.67 2.92
1 0 -8 17.83 2.82
-1 0 7 0.12 0.79
-1 0 7 -0.25 0.62
-1 0 7 -0.01 0.53
-1 0 7 0.4 0.59
1 0 -7 0 0.76
1 0 -7 -0.31 0.72
1 0 -7 0.95 0.87
-1 0 6 79.92 4.3
-1 0 6 67.88 3.84
-1 0 6 33.58 2.83
-1 0 6 78.57 3.46
1 0 -6 62.72 3.77
1 0 -6 50.82 3.47
-1 0 5 0.14 0.46
-1 0 5 0 0.43
-1 0 5 0.45 0.53
-1 0 5 0.11 0.48
-1 0 5 0.07 0.42
1 0 -5 0.59 0.61
1 0 -5 -0.06 0.37
1 0 -5 -0.26 0.41
-1 0 4 2593.68 18.97
-1 0 4 2144.54 16.98
-1 0 4 1830.53 16.37
-1 0 4 1516.65 14.98
-1 0 4 2431.13 14.67
1 0 -4 1968.99 16.47
1 0 -4 -0.11 0.22
1 0 -4 1696.01 15.69
-1 0 3 1.02 0.51
-1 0 3 1.15 0.55
-1 0 3 1.34 0.54
-1 0 3 1.55 0.6
-1 0 3 1.18 0.43
1 0 -3 1.1 0.45
1 0 -3 0.64 0.43
1 0 -3 0 0.24
1 0 -3 0.8 0.5
-1 0 2 261.07 4.05
-1 0 2 235.04 4.03
-1 0 2 235.99 4.21
1 0 -2 219.38 4.29
1 0 -2 230.18 4
1 0 -2 0.05 0.15
-1 0 1 4.34 0.5
1 0 -1 0.65 0.23
-1 0 0 132.51 2.43
1 0 0 122.83 2.35
-1 0 -1 0.7 0.34
-1 0 -1 1.02 0.37
1 0 1 1.47 0.44
1 0 1 1.1 0.36
1 0 1 0.49 0.27
1 0 1 1.08 0.38
-1 0 -2 2.87 0.56
-1 0 -2 2.15 0.66
-1 0 -2 0.31 0.28
-1 0 -2 2.16 0.64
1 0 2 3.03 0.79
1 0 2 3.7 0.64
1 0 2 2.88 0.71
1 0 2 2.07 0.61
1 0 2 4.82 0.91
-1 0 -3 -0.08 0.31
-1 0 -3 0.29 0.44
-1 0 -3 -0.07 0.23
-1 0 -3 0.01 0.36
1 0 3 0.07 0.41
1 0 3 0.14 0.31
1 0 3 1.69 0.67
1 0 3 0.37 0.49
1 0 3 0.15 0.37
1 0 3 0.3 0.45
-1 0 -4 15.59 1.46
-1 0 -4 16.06 1.79
-1 0 -4 0.05 0.3
-1 0 -4 11.5 1.71
1 0 4 18.42 1.97
1 0 4 17.6 1.36
1 0 4 18.15 1.79
1 0 4 14.65 1.73
1 0 4 13.27 1.62
1 0 4 19.95 1.87
-1 0 -5 -0.24 0.49
-1 0 -5 0.06 0.58
-1 0 -5 0.33 0.5
-1 0 -5 0.72 0.81
1 0 5 0.11 0.55
1 0 5 0.52 0.49
1 0 5 0.37 0.51
1 0 5 0.3 0.52
1 0 5 -0.09 0.56
-1 0 -6 170.4 5.57
-1 0 -6 157.49 6.31
-1 0 -6 146.24 6.2
1 0 6 206.51 7.56
1 0 6 199.97 5.1
1 0 6 188.51 6.73
1 0 6 158.07 6.52
1 0 6 224.66 6.97
-1 0 -7 0.18 0.79
-1 0 -7 -0.16 0.72
-1 0 -7 -0.1 0.68
1 0 7 -0.13 0.85
1 0 7 -0.13 0.56
1 0 7 0.11 0.79
1 0 7 -0.2 0.72
1 0 7 -0.17 0.67
-1 0 -8 70.87 4.27
-1 0 -8 55.17 4.53
-1 0 -8 1.32 1.08
1 0 8 81.36 5.65
1 0 8 73.1 3.59
1 0 8 73.16 4.95
1 0 8 58.37 4.67
1 0 8 80.83 4.86
-1 0 -9 0.39 1.05
-1 0 -9 0.47 1.09
-1 0 -9 1.16 1.19
1 0 9 -0.38 0.89
1 0 9 -0.84 0.84
1 0 9 0.65 1.11
1 0 9 -0.53 0.83
-1 0 -10 45.48 4.11
-1 0 -10 42.99 4.73
-1 0 -10 47.48 4.88
1 0 10 54.17 5.38
1 0 10 44.94 4.44
1 0 10 28 4.4
1 0 10 58.95 4.77
1 0 11 0.41 1.58
1 0 11 0.41 1.35
1 0 11 -0.13 1.37
1 0 11 0.39 1.31
-1 0 -12 142.37 9.08
1 0 12 181.63 10.63
1 0 12 144.41 8.7
1 0 12 131.73 9.72
-1 0 -13 0.51 1.9
1 0 13 -0.23 1.8
1 0 13 -0.56 1.45
-1 0 -14 3.69 2.86
1 0 14 1.7 2.17
1 0 14 1.55 2.17
-1 0 -15 1.58 2.57
1 0 15 -1.44 1.87
1 0 15 1.83 2.18
-1 -1 16 0.1 2.12
-1 1 16 1.47 2.98
-1 1 16 0.62 2.2
1 -1 -16 0.23 2.43
1 1 -16 3.56 3.33
-1 -1 15 -0.15 1.93
-1 1 15 1.91 2.55
-1 1 15 -0.71 1.95
1 1 -15 -0.71 2.37
-1 -1 14 0.06 1.74
-1 -1 14 2.19 2.24
-1 1 14 3.69 2.73
-1 1 14 2.56 2.4
1 -1 -14 1.22 2.45
1 -1 -14 0.9 2.31
1 1 -14 1.98 2.71
-1 -1 13 2.69 1.92
-1 -1 13 2.64 1.91
-1 1 13 2.65 2.32
-1 1 13 0.42 1.51
1 -1 -13 0.65 1.86
1 -1 -13 1.22 1.97
1 1 -13 1.54 2.03
-1 -1 12 50.28 5.4
-1 -1 12 53.43 4.85
-1 1 12 61.01 6.19
-1 1 12 47.88 5.33
-1 1 12 60.27 5.3
1 -1 -12 47.06 5.1
1 -1 -12 51.26 5.64
1 1 -12 52.41 5.56
-1 -1 11 120.68 7.58
-1 -1 11 121.27 6.69
-1 1 11 122.66 8.14
-1 1 11 105.76 7.18
-1 1 11 73.76 6.22
-1 1 11 124.02 7.07
1 -1 -11 97.24 6.77
1 -1 -11 90.38 6.74
1 -1 -11 101.14 7.31
1 1 -11 111.16 6.58
1 1 -11 97.91 6.71
1 1 -11 97.56 7.89
-1 -1 10 220.65 9.49
-1 -1 10 216.72 8.3
-1 -1 10 169.54 8.22
-1 1 10 233.41 10.41
-1 1 10 206.09 9.34
-1 1 10 173.01 8.89
-1 1 10 229.14 9.06
1 -1 -10 196.7 8.97
1 -1 -10 182.29 8.85
1 -1 -10 188.58 9.26
1 1 -10 180.27 8.42
1 1 -10 206.61 8.84
-1 -1 9 57.9 4.67
-1 -1 9 53.25 3.94
-1 -1 9 40.85 3.92
-1 1 9 55.13 4.94
-1 1 9 50.06 4.53
-1 1 9 38.12 3.99
-1 1 9 58.43 4.44
1 -1 -9 46.04 4.28
1 -1 -9 42.76 4.26
1 -1 -9 46.19 4.41
1 1 -9 43.6 4.04
1 1 -9 49.64 4.19
-1 -1 8 45.24 3.83
-1 -1 8 44.69 3.34
-1 -1 8 30.2 3.14
-1 -1 8 44.43 2.65
-1 1 8 48.5 4.34
-1 1 8 38.87 3.71
-1 1 8 31.25 3.42
-1 1 8 43.61 3.68
1 -1 -8 39.53 3.77
1 -1 -8 36.7 3.61
1 -1 -8 37.43 3.86
1 1 -8 34.28 3.28
1 1 -8 37.65 3.35
1 1 -8 30.79 3.08
-1 -1 7 49.94 3.68
-1 -1 7 49.3 3.19
-1 -1 7 29.57 2.83
-1 -1 7 55.66 2.65
-1 1 7 54.03 4.22
-1 1 7 41.92 3.61
-1 1 7 35.84 3.38
-1 1 7 52.74 3.76
1 -1 -7 49.42 3.89
1 -1 -7 44.83 3.68
1 -1 -7 43.47 3.74
1 1 -7 38.31 3.12
1 1 -7 43.82 3.33
1 1 -7 41.11 3.19
-1 -1 6 30.74 2.67
-1 -1 6 30.45 2.3
-1 -1 6 22.12 2.23
-1 -1 6 33.25 1.82
-1 1 6 31.22 3
-1 1 6 28.56 2.75
-1 1 6 24 2.59
-1 1 6 30.07 2.72
1 -1 -6 29.45 2.86
1 -1 -6 25.65 2.59
1 -1 -6 24.57 2.66
1 1 -6 25.41 2.34
1 1 -6 25.9 2.36
1 1 -6 21.42 2.14
-1 -1 5 122.29 4.59
-1 -1 5 121.7 3.93
-1 -1 5 100.96 4.14
-1 -1 5 95.66 3.99
-1 -1 5 127.4 2.92
-1 1 5 132.45 5.47
-1 1 5 117.72 4.95
-1 1 5 112.95 4.95
-1 1 5 94.91 4.54
-1 1 5 122.08 4.92
1 -1 -5 113.7 4.99
1 -1 -5 110.45 4.73
1 -1 -5 0.14 0.46
1 1 -5 109.47 4.12
1 1 -5 108.69 4.16
1 1 -5 94.19 3.85
-1 -1 4 42.94 2.42
-1 -1 4 41.72 1.97
-1 -1 4 35.63 2.15
-1 -1 4 32.89 2.07
-1 1 4 40.29 2.65
-1 1 4 33.16 2.44
-1 1 4 -0.07 0.31
-1 1 4 40.47 2.68
1 -1 -4 34.88 2.58
1 -1 -4 31.62 2.34
1 -1 -4 34.06 2.51
1 -1 -4 31.28 2.42
1 1 -4 37.65 2.11
1 1 -4 38.06 2.17
-1 -1 3 254.02 6.07
-1 -1 3 241.41 4.72
-1 -1 3 233.5 3.48
-1 -1 3 210.09 4.27
-1 -1 3 188.86 4.06
-1 1 3 235.55 5.96
-1 1 3 218.36 5.28
-1 1 3 205.94 5.26
-1 1 3 119.03 4.02
-1 1 3 216.81 5.6
1 -1 -3 209.34 5.62
1 -1 -3 200.69 4.94
1 -1 -3 223.4 5.53
1 -1 -3 190.22 5.09
1 1 -3 278.77 4.08
1 1 -3 217.45 4.05
1 1 -3 208.88 4.13
1 1 -3 183.86 3.85
-1 -1 2 54.17 2.58
-1 -1 2 56.08 2.45
-1 -1 2 50.31 1.69
-1 1 2 55.27 2.66
-1 1 2 55.65 2.29
-1 1 2 47.94 2.19
1 -1 -2 53.14 2.2
1 -1 -2 48.35 2.47
1 -1 -2 45.54 2.01
1 -1 -2 46.76 2.2
1 -1 -2 43.78 2.13
1 1 -2 64.29 2.14
1 1 -2 53.47 1.64
1 1 -2 38.5 1.39
-1 -1 1 252.08 5.08
-1 -1 1 270.5 5.2
-1 -1 1 261.25 3.25
-1 1 1 269.3 5.33
-1 1 1 276.12 4.18
1 -1 -1 259.28 3.84
1 -1 -1 259.59 3.48
1 -1 -1 279.11 4.31
1 1 -1 303.6 5.06
1 1 -1 260.65 3
1 1 -1 274 4.12
-1 -1 0 -0.37 0.3
-1 -1 0 -0.06 0.33
-1 -1 0 0.09 0.23
-1 1 0 0.39 0.23
1 -1 0 0.08 0.29
1 -1 0 0.19 0.21
1 1 0 -0.07 0.23
1 1 0 -0.25 0.33
1 1 0 -0.03 0.21
1 1 0 0.42 0.37
-1 -1 -1 289.51 5.82
-1 -1 -1 282.55 5.79
-1 -1 -1 307.56 4.75
-1 -1 -1 296.65 5.16
-1 1 -1 316.75 3.84
1 -1 1 364.26 4.74
1 -1 1 316.35 4.08
1 1 1 369.54 5.69
1 1 1 334.37 6.32
1 1 1 351.78 5.34
1 1 1 269.58 4.87
1 1 1 358.81 6.43
-1 -1 -2 1966.71 16.71
-1 -1 -2 1755.89 15.54
-1 -1 -2 1827.39 14.2
-1 -1 -2 1695.48 14.66
-1 -1 -2 1731.07 14.73
-1 1 -2 1921.34 11.5
-1 1 -2 1928.15 12.09
-1 1 -2 1866.18 11.81
1 -1 2 2170.23 10.08
1 -1 2 1844.28 12.22
1 -1 2 2126.52 14.82
1 1 2 2450.21 17.41
1 1 2 2064.62 16.89
1 1 2 2238.63 16.17
1 1 2 1665.17 14.39
1 1 2 2235.93 17.9
-1 -1 -3 384.54 8.21
-1 -1 -3 344.89 7.47
-1 -1 -3 364.3 7.36
-1 -1 -3 376.37 7.93
-1 -1 -3 320.43 7.26
-1 1 -3 364.63 6.2
-1 1 -3 369.3 6.42
-1 1 -3 324.07 5.98
1 -1 3 398.2 8.07
1 -1 3 431.43 6
1 -1 3 350 6.41
1 -1 3 431.71 7.15
1 1 3 465.6 8.74
1 1 3 398.06 7.94
1 1 3 404.01 7.94
1 1 3 0.01 0.31
1 1 3 433.91 8.7
-1 -1 -4 298.48 7.98
-1 -1 -4 271.88 7.19
-1 -1 -4 268.61 7.12
-1 -1 -4 256.5 7.41
-1 1 -4 274.26 6.3
-1 1 -4 272.81 6.4
-1 1 -4 260.79 6.2
1 -1 4 307.02 7.8
1 -1 4 318.85 6.15
1 -1 4 277.54 6.57
1 -1 4 244.79 6.19
1 -1 4 328.9 6.74
1 1 4 371.75 8.76
1 1 4 301.66 7.36
1 1 4 286.8 7.47
1 1 4 258.17 7.23
1 1 4 52.95 3.34
1 1 4 336.16 8.31
-1 -1 -5 13.76 2.25
-1 -1 -5 18.67 2.31
-1 -1 -5 11.84 2.06
-1 1 -5 16.01 1.89
-1 1 -5 16.52 1.9
-1 1 -5 12.5 1.89
1 -1 5 20.03 2.83
1 -1 5 16.75 1.75
1 -1 5 11.31 1.76
1 -1 5 17.31 1.81
1 1 5 19.59 2.84
1 1 5 14.16 2.12
1 1 5 12.07 2.08
1 1 5 11.32 2.09
1 1 5 18.66 2.27
-1 -1 -6 282.4 8.41
-1 -1 -6 283.33 8.77
-1 -1 -6 319.75 9.7
-1 1 -6 304.02 8.34
-1 1 -6 289.76 8.18
-1 1 -6 261.94 7.7
1 -1 6 341.92 9.79
1 -1 6 343.49 8.11
1 -1 6 285.6 8.3
1 -1 6 358.11 8.17
1 1 6 377.76 10.6
1 1 6 322.68 8.48
1 1 6 320.21 9.42
1 1 6 272.78 8.93
1 1 6 377.36 10.1
-1 -1 -7 72.42 4.62
-1 -1 -7 70.43 4.85
-1 -1 -7 71.1 4.98
-1 1 -7 79.13 3.72
-1 1 -7 68.45 4.43
-1 1 -7 65.89 4.29
-1 1 -7 58.2 4.04
1 -1 7 87.44 5.43
1 -1 7 84.37 4.47
1 -1 7 65.61 4.41
1 -1 7 81.8 4.27
1 1 7 93.17 5.74
1 1 7 85.57 4.65
1 1 7 83.63 5.22
1 1 7 60.49 4.59
1 1 7 89.9 5.35
-1 -1 -8 0.9 1.12
-1 -1 -8 1.7 1.4
-1 -1 -8 2.11 1.38
-1 1 -8 1.81 1.09
-1 1 -8 2.27 1.52
-1 1 -8 2.09 1.21
1 -1 8 3 1.52
1 -1 8 3.02 1.33
1 -1 8 2.54 1.25
1 -1 8 2.81 1.26
1 1 8 2.25 1.57
1 1 8 1.8 1.1
1 1 8 1.9 1.37
1 1 8 0.8 1.06
1 1 8 1.89 1.25
-1 -1 -9 61.77 4.88
-1 -1 -9 60.56 5.21
-1 -1 -9 56.84 5.13
-1 1 -9 59.82 4.87
-1 1 -9 55.23 4.66
1 -1 9 75.06 5.81
1 -1 9 60.82 4.46
1 -1 9 48.97 4.49
1 -1 9 72.36 4.57
1 1 9 75.72 6
1 1 9 67.92 4.54
1 1 9 62.61 5.18
1 1 9 50.5 4.9
1 1 9 70.01 5.36
-1 -1 -10 15.68 3.38
-1 -1 -10 15.27 3.4
-1 -1 -10 11.87 3.12
-1 1 -10 18.87 3.62
-1 1 -10 16.28 3.36
1 -1 10 18.24 3.68
1 -1 10 16.06 3.05
1 1 10 22.32 4.08
1 1 10 18.17 3.77
1 1 10 16.42 3.7
1 1 10 19.61 3.62
-1 -1 -11 -0.02 1.47
-1 -1 -11 0.74 1.54
-1 1 -11 0.49 1.76
1 -1 11 0.62 1.43
1 -1 11 0.68 1.25
1 1 11 1.24 1.63
1 1 11 0.19 1.51
1 1 11 2.47 1.7
-1 -1 -12 1.93 1.93
-1 -1 -12 1.38 1.93
1 -1 12 4.58 2.57
1 -1 12 3.61 1.93
1 1 12 5.19 2.65
1 1 12 2.63 2.18
1 1 12 5.44 2.45
-1 -1 -13 0.88 2.14
1 -1 13 -0.39 1.52
1 -1 13 0.7 1.58
1 1 13 0.37 1.66
1 1 13 0.4 1.97
1 1 13 -0.64 1.59
-1 -1 -14 2.97 2.69
-1 1 -14 3.01 2.63
1 -1 14 3.5 2.47
1 1 14 3.98 2.84
1 1 14 4.31 2.76
-1 -1 -15 0.36 2.61
-1 1 -15 0.18 2.47
1 -1 15 1.34 2.31
1 1 15 -0.39 2.33
1 1 15 -0.07 2.26
-1 -2 15 0.58 2.17
-1 2 15 -0.46 2.08
-1 2 15 0.19 2.18
1 -2 -15 -0.41 2.03
1 -2 -15 -1.06 2.11
1 -2 -15 0.38 2.27
-1 -2 14 2.09 2.14
-1 2 14 -0.73 1.97
-1 2 14 0.41 2.16
-1 2 14 0.72 1.98
1 -2 -14 0.36 1.98
1 -2 -14 0.72 2.17
1 -2 -14 -0.81 1.87
-1 -2 13 0.18 1.56
-1 2 13 -0.1 1.79
-1 2 13 0.3 1.97
-1 2 13 0.28 1.68
1 -2 -13 -0.18 1.85
1 -2 -13 -0.7 1.6
1 2 -13 -0.33 2.21
-1 -2 12 8.04 2.82
-1 2 12 5.64 2.71
-1 2 12 6.9 2.88
-1 2 12 3.26 2.21
1 -2 -12 5.42 2.63
1 2 -12 5.82 2.58
-1 -2 11 18.45 3.72
-1 2 11 10.32 3.23
-1 2 11 16.6 3.91
-1 2 11 18.39 3.97
1 -2 -11 13.09 3.58
1 -2 -11 7.98 3.06
1 2 -11 16.75 3.59
-1 -2 10 22.05 3.98
-1 2 10 28.63 4.89
-1 2 10 26.98 4.55
-1 2 10 17.75 3.64
-1 2 10 26.09 4.25
1 -2 -10 23.86 4.61
1 -2 -10 16.96 3.41
1 -2 -10 20.05 3.84
1 2 -10 18.89 3.45
1 2 -10 24.4 3.51
-1 -2 9 14.32 2.96
-1 2 9 18.01 3.63
-1 2 9 12.96 3
-1 2 9 13.32 3.03
-1 2 9 12.66 2.99
1 -2 -9 14.74 3.52
1 -2 -9 10.96 2.63
1 -2 -9 8.67 2.48
1 2 -9 10.71 2.33
1 2 -9 9.96 2.19
-1 -2 8 81.03 5.11
-1 2 8 97.68 6.47
-1 2 8 80.19 5.53
-1 2 8 -0.2 0.7
-1 2 8 87.5 5.82
1 -2 -8 66.45 5.24
1 -2 -8 72.74 5.13
1 -2 -8 70.92 5.4
1 2 -8 75.15 4.58
1 2 -8 74.51 4.3
-1 -2 7 108.25 5.47
-1 -2 7 96.21 4.7
-1 2 7 130.47 6.97
-1 2 7 108.82 6.04
-1 2 7 0.18 0.59
-1 2 7 116.47 6.39
1 -2 -7 117.24 6.33
1 -2 -7 102.96 6.11
1 -2 -7 100.35 5.53
1 -2 -7 116.14 6.31
1 2 -7 112.06 4.97
1 2 -7 108.02 4.63
-1 -2 6 0.09 0.49
-1 2 6 0.54 0.87
-1 2 6 0.66 0.93
-1 2 6 0.46 0.91
-1 2 6 0.36 0.69
-1 2 6 1.06 0.99
1 -2 -6 0.86 0.95
1 -2 -6 -0.15 0.79
1 -2 -6 0.31 0.83
1 -2 -6 0.37 0.79
1 2 -6 0.46 0.63
1 2 -6 0.85 0.63
1 2 -6 0.24 0.5
-1 -2 5 259.86 6.03
-1 2 5 336.88 9.76
-1 2 5 321.43 8.71
-1 2 5 284.92 8.22
-1 2 5 268.03 8.03
-1 2 5 314.33 9.46
1 -2 -5 315.88 8.86
1 -2 -5 290.83 9.16
1 -2 -5 295.73 7.84
1 -2 -5 1.35 0.73
1 2 -5 386.01 5.61
1 2 -5 287.57 6.06
1 2 -5 303.77 5.82
1 2 -5 247.82 5.21
-1 -2 4 172.31 6.3
-1 -2 4 145.37 3.83
-1 -2 4 116.48 3.43
-1 2 4 170.65 6.57
-1 2 4 149.11 5.42
-1 2 4 147.82 5.41
-1 2 4 117.93 4.86
-1 2 4 149.51 6.25
1 -2 -4 145.96 5.55
1 -2 -4 139.42 6.03
1 -2 -4 141.69 4.85
1 -2 -4 153.56 5.67
1 2 -4 181 4.39
1 2 -4 145.73 3.53
1 2 -4 152.24 3.22
1 2 -4 127.11 2.91
-1 -2 3 82.85 4.15
-1 -2 3 84.57 3.91
-1 -2 3 78.27 2.28
-1 2 3 82.92 4.34
-1 2 3 83.88 3.62
-1 2 3 77.54 3.51
-1 2 3 73.32 4.19
1 -2 -3 73.96 3.64
1 -2 -3 72.05 4.09
1 -2 -3 73.54 3.01
1 -2 -3 68.45 3.42
1 2 -3 87.18 3.36
-1 -2 2 245.79 6.76
-1 -2 2 253.89 6.7
-1 -2 2 243.12 3.16
-1 2 2 257.56 7.15
-1 2 2 247.15 5.3
-1 2 2 226.08 5.09
-1 2 2 241.61 7.17
1 -2 -2 236.7 5.89
1 -2 -2 227.27 6.72
1 -2 -2 235.54 4.02
1 -2 -2 246.75 5.6
1 -2 -2 219.97 5.27
1 2 -2 267.26 6.27
1 2 -2 238.01 5.44
-1 -2 1 222.84 6.3
-1 -2 1 223.75 6.39
-1 -2 1 220.02 3.27
-1 2 1 244.04 6.68
-1 2 1 225.17 4.09
-1 2 1 222.24 4.04
1 -2 -1 219.81 5.27
1 -2 -1 207.58 6
1 -2 -1 229.66 4.57
1 -2 -1 197.44 4.23
1 2 -1 232 5.2
1 2 -1 242.74 6.36
1 2 -1 236.08 5.84
-1 -2 0 0.75 0.67
-1 -2 0 0.77 0.7
-1 -2 0 0.42 0.36
-1 2 0 0.11 0.53
-1 2 0 0.52 0.2
1 -2 0 0.29 0.48
1 -2 0 0.35 0.49
1 -2 0 0.56 0.3
1 2 0 1.02 0.61
1 2 0 0.41 0.6
1 2 0 0.54 0.28
1 2 0 0.96 0.68
-1 -2 -1 378.81 8.49
-1 -2 -1 349.43 8.51
-1 -2 -1 394.64 4.25
-1 -2 -1 364.33 6.5
-1 -2 -1 359.97 6.42
1 -2 1 427.74 7.23
1 -2 1 376.83 7.05
1 -2 1 385.59 4.28
1 2 1 442.09 8.11
1 2 1 431.11 6.61
1 2 1 326.4 5.79
1 2 1 425.73 9.06
-1 -2 -2 391.49 9.07
-1 -2 -2 391.19 9.42
-1 -2 -2 430.32 6.74
-1 -2 -2 414.99 8.02
-1 -2 -2 387.39 7.68
1 -2 2 497.84 8.38
1 -2 2 428.64 7.13
1 -2 2 398.89 5.05
1 2 2 489.93 9.35
1 2 2 464.67 8.12
1 2 2 345.62 7.08
1 2 2 461.46 10.08
-1 -2 -3 558.35 11.49
-1 -2 -3 530.12 11.51
-1 -2 -3 574.82 9.35
-1 -2 -3 548.56 10.36
-1 2 -3 565.05 6.72
-1 2 -3 573.2 6.02
-1 2 -3 575.82 5.99
1 -2 3 671.74 8.69
1 -2 3 525.45 7.11
1 2 3 687.52 12.1
1 2 3 659 10.97
1 2 3 491.7 9.57
1 2 3 647.94 12.7
-1 -2 -4 367.65 9.95
-1 -2 -4 348.41 9.82
-1 -2 -4 366.51 8.48
-1 -2 -4 359.75 9.25
-1 2 -4 368.37 6.66
-1 2 -4 374.87 6.29
-1 2 -4 343.45 5.98
1 -2 4 320.01 6.56
1 2 4 449.68 10.63
1 2 4 423.57 9.77
1 2 4 333.08 8.74
1 2 4 404.12 10.65
-1 -2 -5 119.67 6.13
-1 -2 -5 109.37 5.81
-1 -2 -5 118.49 5.39
-1 -2 -5 130.03 6.09
-1 2 -5 111.44 4.31
-1 2 -5 124.2 4.31
-1 2 -5 109.68 4.01
1 -2 5 107.45 4.36
1 2 5 152.84 6.77
1 2 5 129.15 5.94
1 2 5 105.01 5.39
1 2 5 142.57 6.73
-1 -2 -6 17.95 3.2
-1 -2 -6 15.57 3.1
-1 -2 -6 15.65 2.72
-1 -2 -6 11.92 2.44
-1 2 -6 12.89 2.15
-1 2 -6 14.46 2.06
1 -2 6 19.62 1.44
1 -2 6 14.29 2.2
1 -2 6 20.06 2.13
1 2 6 22.19 3.36
1 2 6 20.85 3.27
1 2 6 18.61 3.06
1 2 6 6.88 1.89
1 2 6 22.69 3.46
-1 -2 -7 59.56 4.93
-1 -2 -7 51.22 4.51
-1 -2 -7 52.45 4.33
-1 -2 -7 54.68 4.64
-1 2 -7 52.9 3.81
-1 2 -7 58.19 3.77
1 -2 7 60.76 3.72
1 2 7 80.43 5.72
1 2 7 59.07 4.68
1 2 7 69.68 5.15
1 2 7 0.17 0.67
1 2 7 70.26 5.35
-1 -2 -8 0.29 1.07
-1 -2 -8 0.66 1.11
-1 -2 -8 -0.1 0.99
-1 -2 -8 -1.13 1.08
-1 2 -8 0.75 1.13
-1 2 -8 0.08 0.87
1 2 8 -0.28 1.15
1 2 8 0.42 0.93
1 2 8 -0.11 1.07
1 2 8 0.38 0.95
1 2 8 -1.38 0.89
-1 -2 -9 1.31 1.46
-1 -2 -9 0.97 1.65
-1 -2 -9 0.38 1.22
-1 -2 -9 1.19 1.46
-1 2 -9 0.57 1.42
-1 2 -9 1.06 1.17
1 -2 9 1.19 1.26
1 2 9 0.38 1.53
1 2 9 1.15 1.23
1 2 9 1.8 1.54
1 2 9 1.1 1.36
1 2 9 1.94 1.67
-1 -2 -10 6.74 2.56
-1 -2 -10 5.02 2.31
-1 -2 -10 5.9 2.35
-1 -2 -10 6.4 2.56
-1 2 -10 5.55 2.34
-1 2 -10 3.62 1.74
1 -2 10 7.32 2.75
1 2 10 10.7 3.5
1 2 10 5.24 2.06
1 2 10 6.02 2.48
1 2 10 10.72 3.17
-1 -2 -11 -0.69 1.36
-1 -2 -11 0.02 1.64
-1 -2 -11 -0.23 1.48
-1 2 -11 1.25 1.72
1 -2 11 0.06 1.39
1 2 11 0.6 1.71
1 2 11 -0.13 1.13
1 2 11 1.33 1.8
1 2 11 1.42 1.77
-1 -2 -12 -0.05 1.39
-1 -2 -12 -1.23 1.68
-1 -2 -12 -0.5 1.55
-1 2 -12 -0.5 1.85
1 -2 12 0.22 1.57
1 2 12 0.37 1.72
1 2 12 -1.34 1.59
1 2 12 0.28 1.72
-1 -2 -13 0.36 1.68
-1 -2 -13 -1.15 2.06
-1 -2 -13 -1.48 1.88
1 -2 13 -0.43 1.74
1 2 13 0.24 1.89
1 2 13 -0.24 1.91
1 2 13 -0.13 1.78
-1 -2 -14 1.51 2.11
-1 -2 -14 1.65 2.78
1 -2 14 0.65 1.99
1 2 14 5.03 3.12
1 2 14 0.34 2.23
1 2 14 4.42 2.68
-1 3 14 3.16 3.16
-1 3 14 1.22 2.82
-1 3 14 4.69 3.06
1 -3 -14 2.25 2.54
1 -3 -14 4.68 3.26
1 -3 -14 2.65 2.46
-1 3 13 4.21 2.88
-1 3 13 4.16 2.57
-1 3 13 3.25 3.12
-1 3 13 2.3 2.46
1 -3 -13 2.91 2.33
1 -3 -13 2.08 2.4
1 -3 -13 4.77 2.42
-1 3 12 -0.13 2.09
-1 3 12 1.27 2.15
-1 3 12 0.58 1.85
1 -3 -12 1.69 1.85
1 -3 -12 1.77 2.21
1 -3 -12 2.16 1.99
-1 3 11 0.18 1.71
-1 3 11 -0.18 1.65
-1 3 11 -2.04 1.49
1 -3 -11 -0.31 1.34
1 -3 -11 1.7 1.94
1 -3 -11 0.16 1.34
-1 3 10 1.85 1.91
-1 3 10 0.01 1.57
-1 3 10 0.98 1.64
1 -3 -10 0.09 1.21
1 -3 -10 -0.23 1.52
1 -3 -10 0.47 1.29
-1 3 9 1.37 1.63
-1 3 9 3.19 1.87
-1 3 9 2.24 1.88
1 -3 -9 1.59 1.66
1 -3 -9 2.35 1.97
1 -3 -9 3.09 1.76
-1 3 8 21.92 4.13
-1 3 8 16.91 3.48
-1 3 8 10.43 2.61
-1 3 8 12.31 3.05
1 -3 -8 15.87 3.51
1 -3 -8 13.84 3.47
1 -3 -8 13.23 2.78
1 -3 -8 12.32 2.98
-1 3 7 2.62 1.75
-1 3 7 4.6 1.87
-1 3 7 3.4 1.54
-1 3 7 1.34 1.5
1 -3 -7 0.24 1.2
1 -3 -7 1.22 1.37
1 -3 -7 2.5 1.29
1 -3 -7 3.34 1.61
-1 3 6 10.16 2.61
-1 3 6 6.61 1.95
-1 3 6 6.5 1.87
-1 3 6 6.56 2.04
1 -3 -6 8.96 2.33
1 -3 -6 8.66 2.61
1 -3 -6 8.99 2
1 -3 -6 6.81 1.99
-1 -3 5 12.24 2.56
-1 3 5 11.16 2.64
-1 3 5 9.62 2.13
-1 3 5 8.23 2.2
1 -3 -5 8.83 2.17
1 -3 -5 9.49 2.63
1 -3 -5 9.19 1.74
1 -3 -5 3.04 1.35
-1 -3 4 127.92 6.21
-1 -3 4 126.2 5.75
-1 -3 4 107.93 2.78
-1 3 4 136.47 6.76
-1 3 4 122.03 5.33
-1 3 4 119.43 6.57
1 -3 -4 115.22 5.67
1 -3 -4 104.9 6.11
1 -3 -4 116.25 4.04
1 -3 -4 118.66 5.38
1 3 -4 135.21 5.15
1 3 -4 118.49 4.63
-1 -3 3 273.24 8.7
-1 -3 3 260 8.22
-1 3 3 269.94 9.05
-1 3 3 265.94 7.05
-1 3 3 238.89 6.41
-1 3 3 247.89 9.07
1 -3 -3 235.2 7.58
1 -3 -3 222.27 8.41
1 -3 -3 243.09 3.98
1 -3 -3 263.25 7.23
1 3 -3 271.79 7.66
1 3 -3 253.4 7.03
-1 -3 2 126.6 5.84
-1 -3 2 127.27 5.84
-1 -3 2 117.03 1.95
-1 3 2 125.73 6.01
-1 3 2 125.84 4.3
-1 3 2 134.78 6.5
1 -3 -2 116.09 5.08
1 -3 -2 105.73 5.55
1 -3 -2 126.39 4.48
1 3 -2 123.93 4.93
1 3 -2 130.93 5.63
1 3 -2 128.17 5.28
-1 -3 1 310.6 8.98
-1 -3 1 299.86 9.08
-1 -3 1 300.29 4.41
-1 -3 1 296.56 4.38
-1 3 1 309.99 9.09
-1 3 1 316.6 5.73
-1 3 1 306.71 9.42
1 -3 -1 305.69 7.89
1 -3 -1 300.2 8.9
1 -3 -1 308.61 6.02
1 3 -1 318.45 7.89
1 3 -1 330.12 9.25
1 3 -1 321.59 8.7
-1 -3 0 160.66 6.51
-1 -3 0 163.14 6.88
-1 -3 0 170.84 4.22
-1 -3 0 157.69 4.04
-1 3 0 170.67 6.69
1 -3 0 175.29 5.88
1 -3 0 156.99 6.18
1 -3 0 177.32 3.78
1 -3 0 149.9 3.49
1 3 0 173.72 6.01
1 3 0 178.78 7.11
1 3 0 177.71 3.98
1 3 0 176.65 6.78
-1 -3 -1 20.1 3.02
-1 -3 -1 19.04 3.05
-1 -3 -1 18.8 1.75
-1 3 -1 16.36 2.53
1 -3 1 16.18 1.99
1 -3 1 18.77 2.18
1 -3 1 19.72 1.05
1 3 1 21.41 2.39
1 3 1 20.32 3.07
1 3 1 19.56 1.76
1 3 1 15.35 1.33
1 3 1 19.9 2.97
-1 -3 -2 0.36 0.81
-1 -3 -2 0.11 0.82
-1 -3 -2 -0.1 0.54
1 -3 2 -0.08 0.65
1 -3 2 0.38 0.71
1 -3 2 0.24 0.25
1 3 2 0.12 0.73
1 3 2 0.32 0.64
1 3 2 0.04 0.43
1 3 2 0.58 0.79
-1 -3 -3 7.66 1.97
-1 -3 -3 7.18 2.25
-1 -3 -3 9.55 1.39
-1 -3 -3 7.62 1.67
1 -3 3 11.08 2.05
1 -3 3 8.65 1.73
1 3 3 8.59 2.04
1 3 3 6.48 1.53
1 3 3 6.73 1.49
1 3 3 8.49 2.17
-1 -3 -4 32.45 3.5
-1 -3 -4 31.93 3.56
-1 -3 -4 35.5 2.62
-1 -3 -4 36.75 3.33
1 -3 4 40.81 2.91
1 3 4 41.63 3.8
1 3 4 36.66 3.31
1 3 4 31.43 2.9
1 3 4 34.25 3.78
-1 -3 -5 29.77 3.55
-1 -3 -5 32.51 3.81
-1 -3 -5 31.01 2.83
-1 -3 -5 35.26 3.57
1 3 5 33.24 3.69
1 3 5 32.26 3.78
1 3 5 33.56 3.47
1 3 5 27.33 2.98
1 3 5 38.96 4.2
-1 -3 -6 -0.13 1.04
-1 -3 -6 0.38 1.21
-1 -3 -6 0.46 0.96
-1 -3 -6 0.9 1.15
-1 3 -6 0.78 0.7
1 3 6 -0.06 1.16
1 3 6 2.2 1.59
1 3 6 1.16 1.36
1 3 6 -0.23 0.77
1 3 6 0.49 1.35
-1 -3 -7 3.25 1.75
-1 -3 -7 0.34 1.42
-1 -3 -7 1.05 1.17
-1 -3 -7 2.86 1.85
-1 3 -7 1.93 1.2
1 3 7 3.94 2.04
1 3 7 2.51 1.69
1 3 7 1.5 1.55
1 3 7 2.92 1.64
1 3 7 1.01 1.42
-1 -3 -8 3.34 1.94
-1 -3 -8 3.95 2.14
-1 -3 -8 2.12 1.54
1 3 8 4.4 2.26
1 3 8 4.86 2.16
1 3 8 3 2.01
1 3 8 5.69 2.66
-1 -3 -9 7.12 2.8
-1 -3 -9 9.93 3.37
-1 -3 -9 4.64 2.1
1 3 9 8.02 2.96
1 3 9 8.59 2.77
1 3 9 11.73 3.31
1 3 9 8.74 2.93
-1 -3 -10 0.22 1.77
-1 -3 -10 -0.25 1.35
-1 -3 -10 -0.95 1.21
1 3 10 0.49 1.73
1 3 10 0.25 1.36
1 3 10 0.54 1.88
1 3 10 0.07 1.7
-1 -3 -11 4.15 2.54
-1 -3 -11 2.31 2.21
-1 -3 -11 6.18 2.66
1 3 11 4.23 2.7
1 3 11 5.8 2.95
1 3 11 4.96 2.66
1 3 11 6.57 3.03
-1 -3 -12 0.71 2.19
-1 -3 -12 2.88 2.64
-1 -3 -12 1.1 1.84
1 3 12 4.16 2.91
1 3 12 2.61 2.3
1 3 12 3.49 2.86
1 3 12 1.77 1.97
-1 -3 -13 2.03 2.49
-1 -3 -13 -0.24 2.61
-1 -3 -13 -0.76 1.82
1 3 13 0.15 2.38
1 3 13 -0.36 2.3
1 3 13 0.27 2.14
-1 4 13 -1.71 2.43
-1 4 13 1.8 2.35
-1 4 13 -1.16 2.35
-1 4 13 0.09 2.2
1 -4 -13 -0.24 2.03
1 -4 -13 0.42 2.09
-1 4 12 -1.65 2.23
-1 4 12 -0.87 1.85
-1 4 12 -0.28 2.38
-1 4 12 -0.79 2.02
1 -4 -12 0.32 1.97
1 -4 -12 0.24 1.99
-1 4 11 1.54 2.5
-1 4 11 2.14 2.82
-1 4 11 2.56 2.38
1 -4 -11 2.21 1.97
1 -4 -11 0.41 2.51
-1 4 10 4.47 2.84
-1 4 10 5.54 2.77
-1 4 10 5.18 2.9
1 -4 -10 2.59 2.14
1 -4 -10 1.45 2.16
-1 4 9 -1.09 1.43
-1 4 9 1.79 1.95
-1 4 9 0.34 1.69
1 -4 -9 0.13 1.28
1 -4 -9 -0.46 1.25
-1 4 8 16.25 3.92
-1 4 8 14.63 3.55
-1 4 8 11.82 3.46
1 -4 -8 8.57 2.84
1 -4 -8 13.95 4
-1 4 7 8.42 2.89
-1 4 7 7.78 2.61
-1 4 7 8.66 2.92
1 -4 -7 7.73 2.53
1 -4 -7 5.07 2.43
-1 -4 6 50.54 4.91
-1 4 6 44.14 4.96
-1 4 6 51.65 5.48
-1 4 6 47.72 5.25
1 -4 -6 40.55 4.4
1 -4 -6 38.66 4.69
-1 -4 5 61.6 5.14
-1 -4 5 57.95 4.58
-1 4 5 62.01 5.53
-1 4 5 50.3 5.15
1 -4 -5 47.41 4.44
1 -4 -5 44.4 4.86
-1 -4 4 -0.16 1.05
-1 -4 4 -0.56 0.77
-1 4 4 0.18 1.15
-1 4 4 -0.23 1.19
1 -4 -4 -0.06 0.86
1 -4 -4 0.4 1.31
-1 -4 3 11.38 2.65
-1 -4 3 8.52 2.24
-1 4 3 11.86 2.79
-1 4 3 8.71 2.49
1 -4 -3 11.72 2.56
1 -4 -3 7.4 2.45
1 4 -3 11.74 2.44
1 4 -3 9.33 2.27
1 4 -3 9.7 2.16
-1 -4 2 6.62 2.08
-1 -4 2 7.29 2.15
-1 4 2 7.79 2.27
-1 4 2 5.01 2.01
1 -4 -2 4.52 1.71
1 -4 -2 7.03 2.22
1 4 -2 7.21 1.92
1 4 -2 11 2.53
1 4 -2 7.16 2.06
-1 -4 1 11.17 2.57
-1 -4 1 7.36 2.25
-1 4 1 11.55 2.63
-1 4 1 11.04 2.76
1 -4 -1 14.1 2.63
1 -4 -1 8.82 2.48
1 4 -1 9.25 2.1
1 4 -1 11.66 2.67
1 4 -1 9.04 2.22
-1 -4 0 4.83 1.82
-1 -4 0 5.85 2.16
-1 4 0 7.11 2.16
-1 4 0 7 2.12
1 -4 0 5.69 1.88
1 -4 0 6.76 2.23
1 4 0 6.15 1.85
1 4 0 6.61 2.14
1 4 0 5.76 1.89
-1 -4 -1 18.75 3.34
-1 -4 -1 22.25 3.84
-1 4 -1 20.41 3.39
-1 4 -1 26.64 3.91
1 -4 1 28.22 2.99
1 -4 1 23.43 3.54
1 4 1 27.71 3.25
1 4 1 25.86 4.12
1 4 1 28.79 3.55
-1 -4 -2 0.57 1.05
-1 -4 -2 0.12 1.15
-1 4 -2 1.24 1.33
1 -4 2 2.14 1.19
1 -4 2 0.63 1.07
1 4 2 1.8 1.29
1 4 2 0.45 1.45
1 4 2 0.11 1.07
-1 -4 -3 5.64 2.06
-1 -4 -3 6.76 2.5
1 -4 3 5.53 1.91
1 -4 3 6.63 1.99
1 4 3 9.62 2.4
1 4 3 6.49 2.43
1 4 3 8.72 2.45
-1 -4 -4 9.13 2.63
-1 -4 -4 9.94 2.88
1 -4 4 14.18 2.77
1 4 4 13.46 3
1 4 4 5.1 2.25
1 4 4 10.88 2.18
1 4 4 13.52 3.19
-1 -4 -5 7.22 2.62
-1 -4 -5 4.36 2.24
1 4 5 8.14 2.58
1 4 5 7.54 2.71
1 4 5 3.78 1.46
1 4 5 6.87 2.72
-1 -4 -6 25.84 4.69
-1 -4 -6 27.77 4.97
1 4 6 39.68 4.7
1 4 6 29.65 4.95
1 4 6 33.41 4.04
1 4 6 23.59 3.64
1 4 6 31.14 5.13
-1 -4 -7 15.52 3.77
-1 -4 -7 17.83 4.22
1 4 7 22.51 4.37
1 4 7 22.08 4.66
1 4 7 19.77 4.03
1 4 7 17.02 3.92
-1 -4 -8 3.18 2.15
-1 -4 -8 3.26 2.25
1 4 8 4.64 2.59
1 4 8 -0.19 1.65
1 4 8 2.8 2.18
1 4 8 4.51 2.63
-1 -4 -9 0.76 1.58
-1 -4 -9 -0.25 1.46
1 4 9 1.38 1.93
1 4 9 0.66 1.93
1 4 9 -0.5 1.7
1 4 9 1.96 2.07
-1 -4 -10 0.45 1.69
-1 -4 -10 0.61 2.15
1 4 10 3 2.67
1 4 10 1.17 2.01
1 4 10 2.19 2.42
1 4 10 0.27 1.73
-1 -4 -11 0.15 1.93
-1 -4 -11 0.74 2.26
1 4 11 1.35 2.64
1 4 11 0.53 2.33
1 4 11 3.16 2.9
1 4 11 1.17 2.6
-1 -4 -12 0.27 2.12
-1 -4 -12 0.14 2.52
1 4 12 1.07 2.63
1 4 12 1.49 2.37
1 4 12 1.46 2.85
1 4 12 0.9 2.42
-1 5 11 0.35 2.86
-1 5 11 2.45 3
-1 5 11 4.3 3.08
1 -5 -11 3.02 2.65
1 -5 -11 1.39 2.24
-1 5 10 8.2 3.72
-1 5 10 3.95 3.12
-1 5 10 6.31 3.51
1 -5 -10 3.2 2.64
1 -5 -10 4.44 2.84
-1 5 9 0.91 2.37
-1 5 9 0.28 1.82
1 -5 -9 -1.18 1.37
1 -5 -9 0.74 1.9
-1 5 8 0.71 1.99
-1 5 8 1.62 2.39
1 -5 -8 3.95 2.56
1 -5 -8 0.63 1.82
-1 5 7 4.93 2.71
-1 5 7 4.95 2.81
1 -5 -7 1.73 2.09
-1 -5 6 5.13 2.66
-1 5 6 5.93 2.59
-1 5 6 4.17 2.51
1 -5 -6 4.31 2.68
-1 -5 5 1.09 1.74
-1 5 5 3.15 2.23
-1 5 5 4.21 2.22
1 -5 -5 1.42 1.69
-1 -5 4 0.15 1.33
-1 -5 4 -0.88 1.98
-1 5 4 -0.47 1.49
-1 5 4 -0.67 1.33
1 -5 -4 0.16 1.47
-1 -5 3 1.28 1.51
-1 -5 3 -0.31 1.18
-1 5 3 1.8 1.88
-1 5 3 1.28 1.83
1 -5 -3 1.39 1.55
-1 -5 2 0.12 1.29
-1 -5 2 0.34 1.19
-1 5 2 -0.8 1.37
-1 5 2 -1.25 1.28
1 -5 -2 -0.78 1.14
1 5 -2 -0.5 1.18
-1 -5 1 14.85 3.44
-1 -5 1 12.17 3.36
-1 5 1 15.92 3.51
-1 5 1 11.96 3.18
1 -5 -1 17.43 3.79
1 5 -1 10.59 3.02
1 5 -1 12.57 2.95
-1 -5 0 23.25 4.2
-1 -5 0 25.65 4.76
-1 5 0 27.73 4.43
-1 5 0 29.05 4.61
1 -5 0 20.95 3.97
1 5 0 28.71 4.91
1 5 0 23.89 4.24
-1 -5 -1 19.71 3.92
-1 -5 -1 20.58 4.32
-1 5 -1 20.66 3.8
-1 5 -1 28.02 4.56
1 -5 1 24.19 4.19
1 5 1 22.41 4.44
1 5 1 27.79 4.75
-1 -5 -2 5.75 2.32
-1 -5 -2 4.74 2.18
-1 5 -2 6.62 2.51
-1 5 -2 5.77 2.19
1 5 2 8.07 2.97
1 5 2 5.54 2.45
-1 -5 -3 2.72 2.07
-1 -5 -3 2.55 2.11
-1 5 -3 0.96 2.92
1 5 3 0.29 1.77
1 5 3 3.01 2.28
1 5 3 4.53 2.38
-1 -5 -4 -0.01 1.22
-1 -5 -4 -0.46 1.24
1 5 4 -0.58 1.52
1 5 4 0.34 1.67
1 5 4 0.39 1.51
-1 -5 -5 0.96 1.67
-1 -5 -5 0.3 1.54
1 5 5 0.73 1.79
1 5 5 1.19 1.82
1 5 5 0.79 1.84
-1 -5 -6 3.59 2.31
-1 -5 -6 3.1 2.65
1 5 6 4.14 2.42
1 5 6 3.68 2.65
1 5 6 2.6 2.42
-1 -5 -7 4.68 2.57
-1 -5 -7 2.32 2.29
1 5 7 3.64 2.72
1 5 7 4.72 2.63
1 5 7 6.48 3.19
-1 -5 -8 4.98 2.83
-1 -5 -8 4.37 3
1 5 8 5.13 2.96
1 5 8 6.26 2.92
1 5 8 8.73 3.41
-1 -5 -9 1.69 2.18
-1 -5 -9 3.74 2.64
1 5 9 4.49 2.97
1 5 9 4.22 3.12
1 5 9 3.78 2.98
-1 -5 -10 0.14 1.99
-1 -5 -10 -1.08 2.16
1 5 10 0.92 2.49
1 5 10 0.49 2.34
1 5 10 -0.96 2.34
-1 6 7 0.13 2.33
-1 6 7 -0.71 2.22
-1 6 7 -1 1.92
1 -6 -7 0.05 2.21
-1 6 6 -1.47 1.84
-1 6 6 -0.69 2.26
-1 6 6 0.41 2.11
1 -6 -6 -0.21 1.79
-1 6 5 -0.86 2.25
-1 6 5 -1.23 1.69
-1 6 5 1.43 2.34
1 -6 -5 0.67 1.89
-1 6 4 1.19 2.17
-1 6 4 1 2.01
1 -6 -4 0.66 2.12
-1 6 3 0.76 2.05
-1 6 3 2.39 2.38
1 -6 -3 -0.01 1.8
-1 -6 2 5.88 4.18
-1 6 2 6.37 2.99
-1 6 2 8.85 3.46
1 -6 -2 6.72 3.07
-1 -6 1 1.73 2.04
-1 6 1 0.27 2.1
-1 6 1 2.7 2.34
1 -6 -1 2.5 2.27
1 6 -1 0.99 2.03
-1 -6 0 1.62 2.21
-1 6 0 5.81 2.67
-1 6 0 2.08 2.13
1 6 0 3.57 2.52
-1 -6 -1 -0.13 1.61
1 6 1 0.43 2.14
1 6 1 0.28 1.75
-1 -6 -2 3.88 2.56
1 6 2 1.89 2.29
1 6 2 1.09 2.06
-1 -6 -3 -0.3 1.74
1 6 3 -0.48 1.95
1 6 3 -0.18 1.81
-1 -6 -4 2.17 2.42
1 6 4 -0.23 2.25
1 6 4 1.84 2.48
-1 -6 -5 0.43 2.03
1 6 5 0.48 2.39
1 6 5 -1.04 1.8
-1 -6 -6 0.27 2.13
1 6 6 0.88 2.54
1 6 6 -1.22 2.15
-2 0 16 -0.87 1.84
-2 0 16 0.96 2.17
2 0 -16 1.04 2.59
-2 0 15 -1.18 1.39
-2 0 15 -0.63 1.54
2 0 -15 -0.17 2.08
-2 0 14 18.05 4.44
-2 0 14 19.18 4.26
2 0 -14 18.25 4.41
2 0 -14 11.97 3.73
-2 0 13 1 1.67
-2 0 13 0.29 1.57
-2 0 13 0.82 1.44
2 0 -13 0.77 1.85
2 0 -13 -0.14 1.87
-2 0 12 2.66 1.8
-2 0 12 5.73 2.39
-2 0 12 1.87 1.63
2 0 -12 2.56 2.04
2 0 -12 0.84 1.58
-2 0 11 -0.25 1.03
-2 0 11 -0.01 1.01
-2 0 11 -0.57 0.86
2 0 -11 -0.34 1.26
2 0 -11 -0.54 1.35
2 0 -11 -0.54 1.22
-2 0 10 7.87 2.51
-2 0 10 4.29 1.84
-2 0 10 3.29 1.66
-2 0 10 6.16 1.76
2 0 -10 5.73 2.14
2 0 -10 5.4 2.03
2 0 -10 0.85 1.19
-2 0 9 0.24 0.9
-2 0 9 0.21 0.89
-2 0 9 0.46 1.01
-2 0 9 0.04 0.6
2 0 -9 0.3 1.05
2 0 -9 0 0.66
-2 0 8 0.74 0.97
-2 0 8 0.27 0.72
-2 0 8 -0.18 0.64
-2 0 8 -0.13 0.52
2 0 -8 -0.16 0.74
2 0 -8 -0.04 0.76
-2 0 7 -0.38 0.61
-2 0 7 -0.38 0.6
-2 0 7 0.27 0.61
-2 0 7 0.01 0.48
2 0 -7 -0.14 0.78
2 0 -7 -0.19 0.57
-2 0 6 1228.63 15.9
-2 0 6 1054.05 14.72
-2 0 6 440.43 10
-2 0 6 1144.58 12.02
2 0 -6 971.06 14.42
2 0 -6 817.39 13.43
-2 0 5 0.13 0.53
-2 0 5 -0.07 0.42
-2 0 5 -0.3 0.49
-2 0 5 0.21 0.57
-2 0 5 0.19 0.39
2 0 -5 0.22 0.45
2 0 -5 -0.14 0.49
2 0 -5 0.08 0.36
2 0 -5 0.05 0.47
-2 0 4 904.96 10.72
-2 0 4 721.49 10.04
-2 0 4 761.7 10.73
-2 0 4 801.39 8.03
2 0 -4 813.62 9.42
2 0 -4 755.59 10.38
2 0 -4 0.54 0.39
2 0 -4 692.38 10.2
-2 0 3 1.04 0.49
-2 0 3 0.33 0.39
-2 0 3 0.04 0.36
2 0 -3 0.81 0.47
2 0 -3 1 0.6
2 0 -3 0.14 0.31
-2 0 2 4202.81 18.26
-2 0 2 3750.2 15.62
-2 0 2 3385.7 17.35
-2 0 2 3542.05 18.44
2 0 -2 4240.38 19.38
2 0 -2 3378.82 17.4
2 0 -2 2647.73 15.99
-2 0 1 1.26 0.39
-2 0 1 0.67 0.38
-2 0 1 1.13 0.44
2 0 -1 1.27 0.49
2 0 -1 0.52 0.34
2 0 -1 0.56 0.33
2 0 -1 0.73 0.34
-2 0 0 1558.23 9.62
-2 0 0 1996.37 10.83
-2 0 0 1652.4 11.7
2 0 0 2214.41 13.65
2 0 0 1936.92 12.64
2 0 0 1764.78 12.57
2 0 0 2026.71 13.29
-2 0 -1 0.29 0.37
-2 0 -1 0.02 0.29
-2 0 -1 0.19 0.42
-2 0 -1 -0.07 0.39
2 0 1 -0.25 0.34
2 0 1 0.32 0.41
2 0 1 0.58 0.45
2 0 1 0.29 0.42
2 0 1 0.66 0.46
-2 0 -2 991.18 8.32
-2 0 -2 1064.62 11.7
-2 0 -2 1034.58 11.87
2 0 2 1274.95 13.17
2 0 2 1419.13 11.76
2 0 2 1112.01 11.87
2 0 2 958.62 11.51
2 0 2 1350.44 13.52
-2 0 -3 1.02 0.54
-2 0 -3 -0.46 0.47
-2 0 -3 -0.1 0.3
-2 0 -3 -0.22 0.43
2 0 3 -0.2 0.46
2 0 3 0.27 0.41
2 0 3 0.02 0.47
2 0 3 0.32 0.49
2 0 3 -0.13 0.46
-2 0 -4 5.25 1.08
-2 0 -4 4.26 1.16
-2 0 -4 0.96 0.69
-2 0 -4 4.74 1.28
2 0 4 5.16 1.35
2 0 4 7.59 1.27
2 0 4 5.97 1.48
2 0 4 0.27 0.49
2 0 4 5.79 1.43
-2 0 -5 -0.2 0.48
-2 0 -5 0.39 0.65
-2 0 -5 0.36 0.72
-2 0 -5 -0.37 0.6
2 0 5 -0.58 0.51
2 0 5 0.13 0.49
2 0 5 0.24 0.6
2 0 5 0.37 0.68
2 0 5 -0.05 0.59
-2 0 -6 142.16 5.05
-2 0 -6 133.27 6.13
-2 0 -6 144.7 6.53
2 0 6 168.24 7.2
2 0 6 178.69 5.26
2 0 6 166.21 6.68
2 0 6 118.26 5.94
2 0 6 196.44 7.13
-2 0 -7 -0.02 0.76
-2 0 -7 -0.73 0.72
-2 0 -7 -0.22 0.92
2 0 7 1.07 1.09
2 0 7 0.42 0.66
2 0 7 0.16 0.81
2 0 7 0.09 0.77
2 0 7 0.39 0.86
-2 0 -8 136.38 5.81
-2 0 -8 134.19 7.18
-2 0 -8 1.09 0.97
2 0 8 172.46 8.45
2 0 8 157.2 7.45
2 0 8 131.33 7.18
2 0 8 170.65 7.51
-2 0 -9 -0.12 1.14
-2 0 -9 0.05 1.18
-2 0 -9 0.87 1.31
2 0 9 0.55 1.19
2 0 9 0.66 1.09
2 0 9 -0.02 0.98
2 0 9 -0.48 0.96
-2 0 -10 21 4.13
2 0 10 27.19 4.65
2 0 10 24.61 4.22
2 0 10 20.61 3.95
2 0 10 28.44 4.34
-2 0 -11 0.91 1.75
2 0 11 0.47 1.72
2 0 11 -0.46 1.09
2 0 11 1.39 1.64
2 0 11 -0.18 1.23
-2 0 -12 20.86 4.71
2 0 12 17.29 4.31
2 0 12 22.33 4.57
-2 0 -13 -0.01 1.8
2 0 13 1.12 2.1
2 0 13 -0.32 1.57
-2 0 -14 -0.92 2.21
2 0 14 1.65 2.63
2 0 14 0.39 1.97
-2 0 -15 -1.46 2.58
2 0 15 0.58 2.49
2 0 15 -1.26 2
-2 -1 16 0.95 2.18
-2 1 16 1.19 2.4
-2 1 16 0.28 2.2
2 -1 -16 0.94 2.54
2 1 -16 0.09 2.67
-2 -1 15 10.31 3.72
-2 1 15 5.23 3.11
-2 1 15 4.23 2.52
2 -1 -15 6.45 3.13
2 -1 -15 3.45 2.59
2 1 -15 6.22 3.12
-2 -1 14 8.74 3.26
-2 -1 14 11.75 3.26
-2 1 14 9.77 3.49
-2 1 14 10 3.39
2 -1 -14 6.84 3.09
2 -1 -14 7.71 3.14
2 1 -14 10.44 3.62
-2 -1 13 13.09 3.52
-2 -1 13 11.11 3.02
-2 1 13 7.12 3.05
-2 1 13 8.2 2.96
2 -1 -13 9.08 3.13
2 -1 -13 5.11 2.52
2 1 -13 11.6 3.52
-2 -1 12 5.31 2.39
-2 -1 12 8.16 2.43
-2 1 12 6.94 2.91
-2 1 12 6.92 2.81
-2 1 12 7.41 2.41
2 -1 -12 5.46 2.52
2 -1 -12 6.89 2.85
2 1 -12 5.12 2.38
-2 -1 11 82.53 6.13
-2 -1 11 65.74 4.97
-2 1 11 71.84 6.12
-2 1 11 64.7 5.64
-2 1 11 49.03 5.1
-2 1 11 69.31 5.22
2 -1 -11 64.71 5.7
2 -1 -11 52.76 5.22
2 -1 -11 59.56 5.76
2 1 -11 67.78 5.71
2 1 -11 61.32 5.28
-2 -1 10 86.61 5.81
-2 -1 10 78.24 5.03
-2 -1 10 60.98 4.99
-2 1 10 89.79 6.5
-2 1 10 77.23 5.75
-2 1 10 56.67 5.17
-2 1 10 88.57 5.53
2 -1 -10 74.96 5.72
2 -1 -10 66.69 5.43
2 -1 -10 75.67 5.94
2 1 -10 75.71 5.52
2 1 -10 71.59 5.29
-2 -1 9 87.09 5.43
-2 -1 9 71.68 4.49
-2 -1 9 64.08 4.69
-2 1 9 89.99 6.06
-2 1 9 71.48 5.29
-2 1 9 63.95 5.09
-2 1 9 86.97 5.2
2 -1 -9 84.58 5.71
2 -1 -9 75.06 5.34
2 -1 -9 74.34 5.49
2 1 -9 74.54 5.02
2 1 -9 65.28 4.69
-2 -1 8 158.93 6.63
-2 -1 8 140.89 5.77
-2 -1 8 115.48 5.8
-2 1 8 171.72 7.67
-2 1 8 133.92 6.6
-2 1 8 116.73 6.33
-2 1 8 155.02 6.52
2 -1 -8 145.94 7
2 -1 -8 116.79 6.16
2 -1 -8 133.88 6.82
2 1 -8 121.72 5.87
2 1 -8 128.14 6
2 1 -8 109.62 5.5
-2 -1 7 250.14 7.55
-2 -1 7 219.95 6.57
-2 -1 7 169.88 6.46
-2 -1 7 249.94 4.31
-2 1 7 251.64 8.64
-2 1 7 212.6 7.77
-2 1 7 183.91 7.38
-2 1 7 233.97 7.5
2 -1 -7 224.31 8.13
2 -1 -7 204.17 7.55
2 -1 -7 212.52 8
2 1 -7 198.71 6.84
2 1 -7 210.94 7.05
2 1 -7 174.47 6.37
-2 -1 6 106.1 4.45
-2 -1 6 96.15 3.98
-2 -1 6 74.56 3.95
-2 1 6 102.83 5.2
-2 1 6 95.2 4.83
-2 1 6 77.13 4.46
-2 1 6 98.92 4.64
2 -1 -6 87.81 4.79
2 -1 -6 90.77 4.67
2 -1 -6 88.63 4.81
2 1 -6 98.94 3.01
2 1 -6 79.42 3.97
2 1 -6 85.79 4.14
2 1 -6 68.16 3.68
-2 -1 5 67.49 3.13
-2 -1 5 56.9 2.76
-2 -1 5 48.66 3.11
-2 1 5 63.54 3.8
-2 1 5 56.65 3.44
-2 1 5 55.59 3.47
-2 1 5 40.92 3
-2 1 5 54.56 3.28
2 -1 -5 55.93 3.57
2 -1 -5 51.53 3.24
2 -1 -5 0.15 0.41
2 1 -5 67.42 2.49
2 1 -5 51.56 2.91
2 1 -5 56.66 3.06
2 1 -5 43.76 2.68
-2 -1 4 139.94 5.14
-2 -1 4 150.92 3.89
-2 -1 4 131.68 3.63
-2 -1 4 120.28 3.99
-2 1 4 131.41 4.95
-2 1 4 116.85 4.44
-2 1 4 117.18 4.53
-2 1 4 126.69 4.63
2 -1 -4 131.56 4.99
2 -1 -4 122.22 4.46
2 -1 -4 119.09 4.63
2 -1 -4 101.86 4.25
2 1 -4 157.89 3.83
2 1 -4 121.87 3.86
2 1 -4 128.52 4.06
2 1 -4 101.92 3.58
-2 -1 3 520.75 9.08
-2 -1 3 561.46 5.76
-2 -1 3 518.15 6.17
-2 -1 3 499.25 7.18
-2 1 3 509.15 8.96
-2 1 3 502.99 8.2
-2 1 3 495.72 8.33
2 -1 -3 516.94 8.94
2 -1 -3 464.72 7.67
2 -1 -3 467.87 8.2
2 -1 -3 426.25 7.78
2 1 -3 635.65 7.87
2 1 -3 504.78 6.84
2 1 -3 485.46 6.93
2 1 -3 402.83 6.27
-2 -1 2 727.87 10.02
-2 -1 2 845.67 10.64
-2 -1 2 747.22 6.63
-2 -1 2 739.8 7.95
-2 1 2 732.42 10.06
-2 1 2 713.61 8.65
-2 1 2 744.95 9.09
2 -1 -2 696.05 9.81
2 -1 -2 779.86 9.78
2 -1 -2 723.37 8.37
2 -1 -2 762.9 9.34
2 1 -2 911.97 9.84
2 1 -2 802.6 7.76
2 1 -2 725.93 7.72
2 1 -2 878.24 8.15
-2 -1 1 457.68 7.69
-2 -1 1 486.81 7.93
-2 -1 1 483.87 5.49
-2 -1 1 468.5 6.29
-2 1 1 475 7.84
-2 1 1 471.62 6.3
-2 1 1 473.68 6.54
2 -1 -1 476.12 7.62
2 -1 -1 499.65 6.77
2 -1 -1 500.86 6.1
2 -1 -1 481.22 6.72
2 1 -1 577.03 8.25
2 1 -1 522.47 6.25
2 1 -1 462.8 6.16
2 1 -1 596.71 7.03
-2 -1 0 2375.19 17.71
-2 -1 0 2475.77 17.97
-2 -1 0 2534.11 14.37
-2 -1 0 2471.39 15.69
-2 1 0 2465.17 13.74
-2 1 0 2670.18 14.86
2 -1 0 2747.83 17.13
2 -1 0 2587.8 12.58
2 -1 0 2675.26 13.05
2 -1 0 2427.89 14.54
2 1 0 3155.64 13.75
2 1 0 3033.37 19.94
2 1 0 2756.28 15.81
2 1 0 2380.7 15.3
2 1 0 3083.39 18.56
-2 -1 -1 4695.48 26.3
-2 -1 -1 4499.66 25.08
-2 -1 -1 4837.4 23
-2 -1 -1 4664.58 24.2
-2 1 -1 4784.28 20.33
-2 1 -1 4789.99 21.02
2 -1 1 5574.71 31.48
2 -1 1 5154.23 25.25
2 -1 1 4708.08 21.44
2 -1 1 5176.75 26.38
2 1 1 6076.3 29.34
2 1 1 5858.27 29.3
2 1 1 5598.37 25.6
2 1 1 4611.01 23.97
2 1 1 6253.07 29.73
-2 -1 -2 3486.77 24.47
-2 -1 -2 3294.89 22.62
-2 -1 -2 3628.95 22.67
-2 -1 -2 3248.77 22.61
-2 1 -2 3525.35 19.64
-2 1 -2 3411.89 19.77
2 -1 2 4169.11 18.64
2 -1 2 4025.38 19.11
2 -1 2 3509.14 20.63
2 -1 2 3882.87 23.84
2 1 2 4231.59 24.32
2 1 2 4098.35 25.88
2 1 2 4005.44 24.41
2 1 2 4442.47 27.62
-2 -1 -3 1.46 0.88
-2 -1 -3 1.68 0.84
-2 -1 -3 1.35 0.73
-2 -1 -3 1.23 0.77
-2 -1 -3 1.87 0.89
-2 1 -3 2 0.78
-2 1 -3 1.77 0.81
-2 1 -3 1.03 0.65
2 -1 3 2.32 0.59
2 -1 3 2.43 0.76
2 -1 3 1.43 0.65
2 -1 3 1.73 0.83
2 1 3 2.13 0.9
2 1 3 2.36 1.01
2 1 3 2.21 0.93
2 1 3 0.1 0.33
2 1 3 2.64 1.02
-2 -1 -4 82.02 4.51
-2 -1 -4 76.23 3.98
-2 -1 -4 77.88 4.16
-2 -1 -4 73.17 4.26
-2 1 -4 75.79 3.73
-2 1 -4 77.36 3.81
-2 1 -4 70.31 3.6
2 -1 4 93.13 4.77
2 -1 4 96.04 2.64
2 -1 4 88.41 3.69
2 -1 4 81.32 3.96
2 -1 4 95.24 4.25
2 1 4 105.85 4.98
2 1 4 87.61 4.28
2 1 4 89.84 4.54
2 1 4 79.3 4.35
2 1 4 105.82 5.09
-2 -1 -5 351 9.93
-2 -1 -5 313.06 8.45
-2 -1 -5 332.61 9.25
-2 -1 -5 335.68 9.67
-2 1 -5 334.68 5.25
-2 1 -5 336.28 8.61
-2 1 -5 300.15 8.05
2 -1 5 371.93 10.13
2 -1 5 425.76 5.39
2 -1 5 392.9 8.5
2 -1 5 303.96 8.35
2 -1 5 392.18 9.06
2 1 5 432.35 10.86
2 1 5 396 9.39
2 1 5 370.92 9.87
2 1 5 326.07 9.48
2 1 5 437.05 10.88
-2 -1 -6 6.47 1.85
-2 -1 -6 3.28 1.35
-2 -1 -6 5.69 1.77
-2 -1 -6 4.9 1.7
-2 1 -6 4.46 1.07
-2 1 -6 5.39 1.53
-2 1 -6 3.9 1.3
2 -1 6 6.52 1.99
2 -1 6 4.24 1.32
2 -1 6 1.04 0.88
2 -1 6 6.33 1.68
2 1 6 6.06 1.79
2 1 6 5.63 1.56
2 1 6 5.5 1.82
2 1 6 4.38 1.54
2 1 6 6.81 1.99
-2 -1 -7 10.2 2.61
-2 -1 -7 12.4 2.51
-2 -1 -7 9.98 2.38
-2 -1 -7 9.13 2.29
-2 1 -7 9.3 2.16
-2 1 -7 8.13 1.96
2 -1 7 15.71 3.16
2 -1 7 14.07 2.42
2 -1 7 9.28 2.2
2 -1 7 14.59 2.55
2 1 7 13.6 2.92
2 1 7 12.65 2.33
2 1 7 11.45 2.47
2 1 7 12.69 2.69
2 1 7 19.12 3.28
-2 -1 -8 20.73 3.45
-2 -1 -8 16.73 3.31
-2 -1 -8 17.56 3.39
-2 1 -8 16.26 3.02
2 -1 8 21.81 3.73
2 -1 8 25.82 3
2 -1 8 20.09 3.34
2 -1 8 23.94 2.91
2 1 8 20.14 3.7
2 1 8 20.99 3.06
2 1 8 18.43 3.35
2 1 8 14.2 3.04
2 1 8 27.79 4.07
-2 -1 -9 4.15 1.86
-2 -1 -9 0.84 1.34
-2 -1 -9 2.09 1.73
-2 1 -9 0.9 1.46
-2 1 -9 1.18 1.44
2 -1 9 3.12 1.93
2 -1 9 1.48 1.32
2 -1 9 2.67 1.52
2 -1 9 1.74 1.45
2 1 9 1.42 1.39
2 1 9 3.83 1.64
2 1 9 2.96 1.89
2 1 9 1.92 1.51
2 1 9 5.3 2.02
-2 -1 -10 5.9 2.25
-2 -1 -10 4.4 2.05
-2 1 -10 6 2.47
2 -1 10 4.5 2.26
2 -1 10 4.83 1.98
2 1 10 6.24 2.46
2 1 10 4.65 2.28
2 1 10 3.86 1.99
2 1 10 4.72 2.3
-2 -1 -11 6.99 2.87
-2 1 -11 5.73 2.7
2 -1 11 10.97 3.37
2 -1 11 11.86 3.14
2 1 11 11.01 3.32
2 1 11 15.2 3.76
2 1 11 12.06 3.27
-2 -1 -12 3.87 2.75
-2 -1 -12 3.27 2.61
-2 1 -12 4.76 2.62
2 -1 12 2.39 2.04
2 -1 12 3.56 2.07
2 1 12 9.27 3.4
2 1 12 6.2 2.87
2 1 12 5.78 2.63
-2 -1 -13 10.01 3.45
-2 -1 -13 9.84 4.01
-2 1 -13 6.84 3.14
2 -1 13 19.1 5.04
2 -1 13 18.11 4.72
2 1 13 13.56 4.33
2 1 13 14.09 4.03
2 1 13 13.12 3.63
-2 -1 -14 6.15 3.31
-2 -1 -14 9.81 3.75
-2 1 -14 8.63 3.89
2 -1 14 20.64 5.52
2 1 14 18.48 5.21
2 1 14 17.34 4.68
-2 2 15 0.74 2.24
-2 2 15 1.24 2.18
2 -2 -15 0.8 2.27
-2 -2 14 2.97 2.86
-2 2 14 8.01 3.51
-2 2 14 9.04 3.72
2 -2 -14 4.17 2.75
2 -2 -14 2.85 2.27
-2 -2 13 8.51 3.07
-2 2 13 7.63 3.12
-2 2 13 6.97 3.11
-2 2 13 6.14 2.79
2 -2 -13 4.4 2.65
2 -2 -13 6.85 2.73
2 2 -13 6.13 2.9
-2 -2 12 3.07 2.01
-2 2 12 3.58 2.3
-2 2 12 2.86 2.24
-2 2 12 3.68 2.22
2 -2 -12 -0.57 1.68
2 -2 -12 0.26 1.55
2 2 -12 1.39 1.95
-2 -2 11 3.1 1.7
-2 2 11 2.78 1.99
-2 2 11 3.68 2.16
-2 2 11 1.91 1.57
2 -2 -11 1.61 1.97
2 -2 -11 2.39 1.77
2 -2 -11 2.35 2.12
2 2 -11 3.21 1.9
2 2 -11 1.67 1.42
-2 -2 10 7.84 2.36
-2 2 10 11.14 3.25
-2 2 10 7.22 2.46
-2 2 10 5.77 2.26
-2 2 10 7.91 2.71
2 -2 -10 3.86 2.18
2 -2 -10 5.01 2.02
2 -2 -10 7.12 2.47
2 2 -10 7.33 2.25
2 2 -10 6.63 2.05
-2 -2 9 -0.54 0.88
-2 2 9 -0.5 1.09
-2 2 9 -0.26 1.18
-2 2 9 -0.72 0.74
-2 2 9 0.64 1.24
2 -2 -9 1.09 1.47
2 -2 -9 -0.41 0.88
2 -2 -9 0.01 1.14
2 2 -9 0.26 1.08
2 2 -9 -0.4 0.9
-2 -2 8 -0.13 0.77
-2 2 8 1.04 1.32
-2 2 8 -0.76 0.77
-2 2 8 -0.2 0.64
-2 2 8 0.71 1.21
2 -2 -8 0.95 1.23
2 -2 -8 0.06 0.94
2 -2 -8 0.37 1.1
2 2 -8 0.18 0.91
2 2 -8 0.38 0.86
-2 -2 7 5.7 1.55
-2 -2 7 6.42 1.05
-2 -2 7 5.04 1.39
-2 2 7 5.46 2
-2 2 7 6.48 1.93
-2 2 7 0.3 0.71
-2 2 7 5.44 1.82
2 -2 -7 4.29 1.66
2 -2 -7 6.56 1.87
2 -2 -7 6.49 1.91
2 2 -7 4.55 1.4
2 2 -7 6 1.41
-2 -2 6 128.39 2.34
-2 2 6 138.8 6.74
-2 2 6 120.59 5.81
-2 2 6 113.18 5.65
-2 2 6 119.3 6.09
2 -2 -6 116.8 6.18
2 -2 -6 103.3 5.1
2 -2 -6 116.1 5.82
2 2 -6 156.28 4.04
2 2 -6 114.24 4.48
2 2 -6 123.14 4.4
2 2 -6 88.79 3.71
-2 -2 5 6.41 1.81
-2 2 5 5.44 1.61
-2 2 5 6.53 1.64
-2 2 5 6.82 1.62
-2 2 5 4.22 1.53
2 -2 -5 3.99 1.27
2 -2 -5 5.33 1.63
2 -2 -5 2.88 1.06
2 -2 -5 0.9 0.79
2 2 -5 5.98 1.14
2 2 -5 3.94 0.98
2 2 -5 5.94 1.12
2 2 -5 2.94 0.82
-2 -2 4 11.85 2.18
-2 -2 4 12.35 1.3
-2 2 4 14.44 2.48
-2 2 4 13.49 2.04
-2 2 4 7.83 1.51
-2 2 4 12.45 2.26
2 -2 -4 11.05 1.8
2 -2 -4 8.38 1.84
2 -2 -4 10.42 1.69
2 -2 -4 9.15 1.73
2 2 -4 16.38 1.68
2 2 -4 11.98 1.25
2 2 -4 12.48 1.12
2 2 -4 9.13 0.97
2 2 -4 11.83 1.04
-2 -2 3 1.24 0.97
-2 -2 3 2.48 1.1
-2 -2 3 1.59 0.55
-2 2 3 1.34 0.93
-2 2 3 1.16 0.71
-2 2 3 1.22 0.69
2 -2 -3 1.5 0.71
2 -2 -3 2.04 0.99
2 -2 -3 1.27 0.6
2 -2 -3 1.43 0.77
2 2 -3 2.05 0.87
2 2 -3 1.37 0.8
2 2 -3 1.82 0.48
2 2 -3 1.06 0.37
2 2 -3 1.7 0.62
-2 -2 2 186.38 6.31
-2 -2 2 204.69 6.51
-2 -2 2 198.93 4.08
-2 2 2 197.77 6.59
-2 2 2 190 4.87
-2 2 2 181.8 4.76
2 -2 -2 186.11 4.63
2 -2 -2 187.74 6
2 -2 -2 200 3.98
2 -2 -2 197 5.21
2 2 -2 196.46 4.06
2 2 -2 229.18 6.33
2 2 -2 193.97 3.31
2 2 -2 216.31 5.21
-2 -2 1 181.75 6.16
-2 -2 1 185.05 6.26
-2 -2 1 187 4.19
-2 2 1 203.21 6.53
-2 2 1 195.11 4.34
-2 2 1 194.03 4.28
2 -2 -1 184.78 4.15
2 -2 -1 180.3 5.41
2 -2 -1 197 4.67
2 2 -1 208.17 4.37
2 2 -1 213.01 6.4
2 2 -1 215.11 4.09
2 2 -1 174.36 3.61
2 2 -1 208.07 5.64
-2 -2 0 90.16 4.42
-2 -2 0 91.65 4.5
-2 -2 0 99.16 2.01
-2 -2 0 94.05 3.35
-2 2 0 93.16 2.72
-2 2 0 98.82 2.69
2 -2 0 96.39 2.91
2 -2 0 85.36 3.43
2 -2 0 99.79 3.08
2 2 0 112.4 3.6
2 2 0 103.98 4.71
2 2 0 101.59 3.29
2 2 0 84.49 2.99
2 2 0 109.11 4.47
-2 -2 -1 24.59 2.47
-2 -2 -1 19.6 2.31
-2 -2 -1 23.28 1.56
-2 -2 -1 21.14 1.87
-2 2 -1 24.81 1.46
-2 2 -1 24.66 1.34
2 -2 1 26.75 1.72
2 -2 1 23.89 1.71
2 -2 1 20.92 1.47
2 2 1 26.68 2.08
2 2 1 27.4 2.62
2 2 1 25.67 1.99
2 2 1 20.55 1.77
2 2 1 26.71 2.46
-2 -2 -2 106.46 5.14
-2 -2 -2 100.54 5.04
-2 -2 -2 113.02 4.02
-2 -2 -2 116.56 4.73
-2 2 -2 108.38 3.21
-2 2 -2 112.04 3.09
-2 2 -2 110.34 3.04
2 -2 2 111.15 3.21
2 -2 2 104.31 3.4
2 2 2 137.64 5.05
2 2 2 124.4 5.61
2 2 2 125.48 4.73
2 2 2 97.34 4.19
2 2 2 131.4 5.66
-2 -2 -3 356.06 9.82
-2 -2 -3 352.87 9.76
-2 -2 -3 365.87 8.17
-2 -2 -3 377.76 9.25
-2 2 -3 351.69 6.56
-2 2 -3 371.86 6.44
-2 2 -3 367.4 6.35
2 -2 3 350.7 6.91
2 2 3 461.81 10.09
2 2 3 399.08 10.42
2 2 3 385.19 9.06
2 2 3 337.59 8.56
2 2 3 446.91 11.02
-2 -2 -4 154.74 6.88
-2 -2 -4 148.88 6.63
-2 -2 -4 161.98 6.07
-2 -2 -4 145.63 6.3
-2 2 -4 166.15 4.94
-2 2 -4 162.53 4.83
2 -2 4 178.16 2.49
2 -2 4 152.86 5.13
2 2 4 201.9 7.32
2 2 4 174.45 7.18
2 2 4 170.69 6.63
2 2 4 149.76 6.27
2 2 4 195.48 7.75
-2 -2 -5 78.66 5.25
-2 -2 -5 74.8 5
-2 -2 -5 82.04 4.75
-2 -2 -5 90.83 5.44
-2 2 -5 78.71 3.83
-2 2 -5 81.25 4
2 -2 5 93.26 2.91
2 -2 5 69.17 3.87
2 -2 5 86.67 4.54
2 2 5 106.22 5.81
2 2 5 96.8 5.64
2 2 5 96.56 5.47
2 2 5 71.59 4.73
2 2 5 101.81 5.94
-2 -2 -6 35.94 3.9
-2 -2 -6 31.63 3.56
-2 -2 -6 39.15 3.67
-2 -2 -6 29.81 3.55
-2 2 -6 33.01 2.84
2 -2 6 36.66 2.25
2 -2 6 33.42 3.81
2 -2 6 35.16 3.12
2 2 6 47.07 4.29
2 2 6 41.01 3.86
2 2 6 38.2 3.74
2 2 6 -0.1 0.61
2 2 6 40.73 4.09
-2 -2 -7 19.2 3.52
-2 -2 -7 16.13 3.2
-2 -2 -7 20.03 3.37
-2 -2 -7 14.87 3.06
-2 2 -7 18.78 2.78
2 -2 7 21.05 2.6
2 2 7 25.18 4.06
2 2 7 16.99 3.09
2 2 7 18.28 3.33
2 2 7 -0.1 0.7
2 2 7 24.35 3.93
-2 -2 -8 5.1 2.11
-2 -2 -8 5.49 2.25
-2 -2 -8 6.75 2.16
-2 -2 -8 5.73 2.15
-2 2 -8 4.97 1.73
2 -2 8 7.43 2.28
2 2 8 9.86 2.86
2 2 8 6.52 2.18
2 2 8 5.61 2.21
2 2 8 7.01 2.42
2 2 8 10.3 2.72
-2 -2 -9 -0.66 1.04
-2 -2 -9 0.34 1.46
-2 -2 -9 0.13 1.29
-2 -2 -9 1.41 1.59
-2 2 -9 0.02 1.19
2 2 9 0.54 1.53
2 2 9 1.35 1.32
2 2 9 1.24 1.47
2 2 9 1.72 1.53
-2 -2 -10 0.36 1.33
-2 -2 -10 -0.11 1.5
-2 -2 -10 0.19 1.41
-2 2 -10 0.57 1.48
2 2 10 0.67 1.5
2 2 10 0.66 1.42
2 2 10 0.03 1.63
2 2 10 0.41 1.39
-2 -2 -11 0.41 1.68
-2 -2 -11 2.21 2.12
-2 -2 -11 0.83 1.88
-2 2 -11 -0.1 1.65
2 2 11 0.32 1.77
2 2 11 -0.32 1.89
2 2 11 1.73 1.81
-2 -2 -12 0.06 1.67
-2 -2 -12 0.17 1.98
-2 -2 -12 -0.12 1.85
-2 2 -12 0.18 1.9
2 2 12 -0.63 1.8
2 2 12 0.98 2.13
2 2 12 1.03 1.84
-2 -2 -13 -0.26 1.77
-2 -2 -13 -0.52 1.72
2 2 13 1.23 2.42
2 2 13 -0.16 1.96
2 2 13 -0.47 1.87
-2 -2 -14 1.41 2.34
-2 -2 -14 2.11 2.57
2 2 14 4.23 3.2
2 2 14 1.48 2.64
2 2 14 1.9 2.65
-2 3 14 1.49 2.52
-2 3 14 -0.41 1.94
-2 3 14 2.32 2.6
2 -3 -14 0.68 1.87
2 -3 -14 0.55 2.31
2 -3 -14 1.57 2.04
-2 3 13 1.22 2.47
-2 3 13 -0.39 2.09
-2 3 13 -1.73 1.59
2 -3 -13 -0.09 1.49
2 -3 -13 -1.34 1.61
2 -3 -13 0.03 1.54
-2 3 12 2.83 2.41
-2 3 12 0.59 1.85
-2 3 12 1.24 1.99
2 -3 -12 1.58 1.78
2 -3 -12 0.75 1.86
2 -3 -12 -0.14 1.46
-2 3 11 -1.38 1.21
-2 3 11 -1.62 1.41
-2 3 11 0 1.43
2 -3 -11 0.16 1.22
2 -3 -11 -0.05 1.62
2 -3 -11 -0.36 1.28
-2 3 10 -0.66 1.5
-2 3 10 -0.28 1.62
-2 3 10 -1.02 1.39
2 -3 -10 1.31 1.31
2 -3 -10 0.1 1.51
2 -3 -10 0.16 1.26
-2 3 9 15.94 3.63
-2 3 9 15.4 3.57
-2 3 9 15.08 3.61
2 -3 -9 14.95 3.39
2 -3 -9 8.58 2.89
-2 3 8 6.23 2.4
-2 3 8 3.61 1.94
-2 3 8 4.26 2.15
2 -3 -8 4.67 1.95
2 -3 -8 2.6 1.79
2 -3 -8 4.68 2.19
2 3 -8 6.76 1.79
-2 3 7 3.8 1.81
-2 3 7 4.26 1.74
-2 3 7 5.15 2.17
2 -3 -7 1.27 1.28
2 -3 -7 2.98 1.84
2 -3 -7 4.94 1.9
2 3 -7 5.47 1.18
-2 -3 6 16.33 3.25
-2 3 6 12.37 2.85
-2 3 6 11.71 2.46
-2 3 6 12.55 2.84
2 -3 -6 15.77 2.98
2 -3 -6 19.8 3.77
2 -3 -6 12.51 2.23
2 -3 -6 12 2.47
-2 -3 5 149.22 7.22
-2 3 5 149.24 7.51
-2 3 5 138.64 6.17
-2 3 5 145.61 7.55
2 -3 -5 131.95 6.06
2 -3 -5 123.85 6.86
2 -3 -5 132.92 5.03
2 -3 -5 126.41 6.02
2 3 -5 172.02 5.84
-2 -3 4 41.8 3.8
-2 -3 4 41.97 3.62
-2 3 4 37.65 3.79
-2 3 4 39.79 3.17
-2 3 4 31.51 3.57
2 -3 -4 34.54 3
2 -3 -4 29.17 3.27
2 -3 -4 34.04 2.23
2 -3 -4 35.02 3.07
2 3 -4 48.37 3.37
2 3 -4 35.55 2.52
-2 -3 3 67.98 4.67
-2 -3 3 73.34 4.7
-2 -3 3 67.88 2.36
-2 3 3 77.76 5.09
-2 3 3 67.3 3.67
-2 3 3 65.22 4.2
-2 3 3 64.88 4.78
2 -3 -3 64.95 3.76
2 -3 -3 64.15 4.52
2 -3 -3 69.83 3.82
2 3 -3 67.11 3.36
2 3 -3 74.37 4.3
2 3 -3 72.2 3.73
-2 -3 2 0.04 0.77
-2 -3 2 -0.02 0.88
-2 -3 2 -0.02 0.36
-2 3 2 -0.47 0.78
-2 3 2 0.32 0.58
-2 3 2 -0.28 0.4
2 -3 -2 -0.21 0.61
2 -3 -2 -0.1 0.74
2 -3 -2 -0.21 0.46
2 3 -2 0.15 0.57
2 3 -2 -0.14 0.78
2 3 -2 -0.27 0.65
-2 -3 1 40.33 3.55
-2 -3 1 44.62 3.82
-2 3 1 43.4 3.7
-2 3 1 38.19 2.23
-2 3 1 37.79 1.76
2 -3 -1 38.94 2.61
2 -3 -1 35.92 3.07
2 -3 -1 37.22 2.28
2 3 -1 42.36 2.76
2 3 -1 47.59 3.8
2 3 -1 38.99 3.04
2 3 -1 43.95 3.34
-2 -3 0 22.11 2.73
-2 -3 0 21.23 3.22
-2 3 0 23.38 2.81
2 -3 0 22.48 2.03
2 -3 0 17.26 2.11
2 -3 0 22.98 1.63
2 3 0 22.14 2.18
2 3 0 26.03 2.99
2 3 0 23.34 1.86
2 3 0 18.88 1.41
2 3 0 21.41 2.55
-2 -3 -1 28.15 3.09
-2 -3 -1 29.71 3.31
-2 -3 -1 33.28 2.53
2 -3 1 35.6 2.53
2 -3 1 29.83 2.58
2 -3 1 31.71 1.78
2 3 1 35.86 2.87
2 3 1 32.86 3.39
2 3 1 40.25 2.71
2 3 1 26.23 2
2 3 1 40.41 3.55
-2 -3 -2 15.25 2.85
-2 -3 -2 17.92 3.33
-2 -3 -2 15.51 1.32
-2 -3 -2 13.43 2.17
2 -3 2 15.76 1.88
2 -3 2 14.97 1.77
2 3 2 16.83 2.51
2 3 2 16.48 2.92
2 3 2 17.71 2.12
2 3 2 14.51 1.78
2 3 2 16.25 2.85
-2 -3 -3 4 1.68
-2 -3 -3 2.88 1.46
-2 -3 -3 4.11 1.13
-2 -3 -3 3.78 1.36
2 -3 3 5.73 1.35
2 3 3 5.68 1.73
2 3 3 2.62 1.39
2 3 3 2.58 1.16
2 3 3 2.04 1.01
2 3 3 5.7 1.95
-2 -3 -4 1.42 1.29
-2 -3 -4 0.24 1.07
-2 -3 -4 2.19 1.03
-2 -3 -4 0.58 0.85
-2 3 -4 1.55 0.42
2 3 4 1.45 1.3
2 3 4 2.02 1.45
2 3 4 1.57 1.14
2 3 4 1.72 1.05
2 3 4 0.6 1.19
-2 -3 -5 8.57 2.55
-2 -3 -5 10.96 2.91
-2 -3 -5 7.99 1.95
-2 -3 -5 10.77 2.46
-2 3 -5 11.45 1.24
2 3 5 13.02 2.85
2 3 5 12.71 2.95
2 3 5 14.22 2.84
2 3 5 9.32 2.14
2 3 5 15.88 3.44
-2 -3 -6 2.42 1.61
-2 -3 -6 0.94 1.5
-2 -3 -6 0.29 0.95
-2 -3 -6 3.52 1.85
-2 3 -6 1.37 0.78
2 3 6 2.55 1.7
2 3 6 4.84 2.13
2 3 6 1.91 1.52
2 3 6 1.54 1.29
2 3 6 1.27 1.58
-2 -3 -7 -0.01 1.17
-2 -3 -7 0.24 1.35
-2 -3 -7 0.33 1.04
-2 -3 -7 0.74 2.02
-2 3 -7 0.53 0.81
2 3 7 -0.39 1.15
2 3 7 0.94 1.53
2 3 7 0.07 1.27
2 3 7 0.49 1.21
2 3 7 0.46 1.35
-2 -3 -8 1.83 1.64
-2 -3 -8 1.15 1.58
-2 -3 -8 0.93 1.35
2 3 8 3.48 2.12
2 3 8 3.87 2.17
2 3 8 1.69 1.62
2 3 8 3.01 2.06
-2 -3 -9 3.42 2.13
-2 -3 -9 2.8 1.93
-2 -3 -9 2.23 1.77
2 3 9 3.27 2.11
2 3 9 2.81 1.98
2 3 9 2.24 1.98
2 3 9 3.53 2.33
-2 -3 -10 2.29 2.13
-2 -3 -10 5.24 2.8
-2 -3 -10 2.85 1.98
2 3 10 3.81 2.48
2 3 10 5.8 2.73
2 3 10 6.12 3.01
2 3 10 4.31 2.56
-2 -3 -11 0.32 1.88
-2 -3 -11 2.02 2.42
-2 -3 -11 1.65 1.96
2 3 11 2.52 2.41
2 3 11 -0.51 1.68
2 3 11 0.24 1.86
2 3 11 1.99 2.11
-2 -3 -12 -0.69 1.92
-2 -3 -12 1.37 2.39
-2 -3 -12 -0.36 1.74
2 3 12 1.35 2.4
2 3 12 0.03 2.27
2 3 12 0.19 2.02
-2 -3 -13 1.17 2.34
-2 -3 -13 -0.75 2.39
-2 -3 -13 1.63 2.17
2 3 13 0.43 2.57
2 3 13 0.65 2.77
2 3 13 -0.21 2.04
-2 4 13 3.75 3.3
-2 4 13 1.41 3.07
-2 4 13 3.45 2.76
2 -4 -13 2.61 2.42
2 -4 -13 1.13 2.43
-2 4 12 9.96 4.25
-2 4 12 10.81 4.22
-2 4 12 11.91 4.19
2 -4 -12 5.01 2.89
2 -4 -12 6.29 3.63
-2 4 11 9.75 3.94
-2 4 11 15.19 4.62
-2 4 11 12.42 4.09
2 -4 -11 9.9 3.37
2 -4 -11 6.7 3.47
-2 4 10 1.79 2.45
-2 4 10 3.4 2.49
-2 4 10 1.11 1.96
2 -4 -10 3.59 2.2
2 -4 -10 1.21 2.16
-2 4 9 -1.09 1.55
-2 4 9 0.88 1.77
-2 4 9 -0.46 1.61
2 -4 -9 0.39 1.49
2 -4 -9 -0.22 1.51
-2 4 8 1.38 1.92
-2 4 8 2.45 1.96
-2 4 8 0.37 1.41
2 -4 -8 -0.27 1.35
2 -4 -8 1.35 1.81
-2 -4 7 -0.15 1.4
-2 4 7 -0.62 1.46
-2 4 7 0.72 1.34
-2 4 7 0.33 1.38
2 -4 -7 0.56 1.24
2 -4 -7 1.46 1.75
-2 -4 6 0.16 1.23
-2 4 6 0.42 1.54
-2 4 6 -0.12 1.07
2 -4 -6 0.13 1.08
2 -4 -6 -0.55 1.09
-2 -4 5 2.29 1.58
-2 -4 5 1.64 1.4
-2 4 5 3.37 1.92
-2 4 5 1.24 1.53
2 -4 -5 2.51 1.48
2 -4 -5 3.33 1.95
-2 -4 4 6.75 2.2
-2 -4 4 4.52 1.9
-2 4 4 4.34 1.96
-2 4 4 1.29 1.33
2 -4 -4 4.15 1.63
2 -4 -4 5.47 2.17
2 4 -4 6.54 2
-2 -4 3 0.68 1.31
-2 -4 3 0.5 1.26
-2 4 3 1.25 1.46
-2 4 3 2.39 1.5
2 -4 -3 1.95 1.21
2 -4 -3 0.29 1.1
2 4 -3 1.98 1.42
2 4 -3 1.8 1.25
-2 -4 2 2.02 1.5
-2 -4 2 1.07 1.24
-2 4 2 0.58 1.32
-2 4 2 2.4 1.55
2 -4 -2 2.33 1.31
2 -4 -2 2.14 1.44
2 4 -2 1.51 1.29
2 4 -2 1.94 1.25
-2 -4 1 0.27 1
-2 -4 1 0.01 1.06
-2 4 1 -0.2 1.08
-2 4 1 -0.19 0.93
2 -4 -1 0.04 0.88
2 4 -1 -0.7 1.04
2 4 -1 -0.21 1
-2 -4 0 54.43 4.76
-2 -4 0 52.62 4.84
-2 4 0 57.69 4.86
2 -4 0 47.87 4.07
2 4 0 56.98 4.05
2 4 0 58.23 5.11
2 4 0 60.54 4.87
-2 -4 -1 -0.13 0.87
-2 -4 -1 -0.03 1.17
-2 4 -1 -0.2 0.99
2 -4 1 -0.13 0.93
2 4 1 0.15 1
2 4 1 -0.75 1.09
2 4 1 0.59 1.19
-2 -4 -2 4.35 1.91
-2 -4 -2 3.84 1.92
-2 4 -2 4.82 1.99
2 4 2 3.05 1.52
2 4 2 1.19 1.49
2 4 2 2.7 1.07
2 4 2 5.32 2.25
-2 -4 -3 1.13 1.48
-2 -4 -3 1.37 1.53
2 4 3 0.75 1.34
2 4 3 2.34 1.7
2 4 3 1.74 1.1
2 4 3 0.45 1.22
-2 -4 -4 0.59 1.28
-2 -4 -4 0.15 1.25
2 4 4 0.43 1.27
2 4 4 0.02 1.3
2 4 4 0.45 0.91
2 4 4 -0.83 1.13
-2 -4 -5 12.32 3.23
-2 -4 -5 14.15 3.77
2 4 5 15.64 3.33
2 4 5 12.63 3.35
2 4 5 17.37 4.1
2 4 5 11.07 2.46
2 4 5 15.31 3.68
-2 -4 -6 8.17 2.86
-2 -4 -6 6.06 2.6
2 4 6 9.71 2.92
2 4 6 11.42 3.33
2 4 6 9.58 2.8
2 4 6 10.51 3.23
-2 -4 -7 1.53 1.69
-2 -4 -7 0.98 1.97
2 4 7 4.82 2.48
2 4 7 0.04 1.83
2 4 7 4.71 2.51
2 4 7 2.19 1.97
-2 -4 -8 -0.25 1.44
-2 -4 -8 -0.17 1.7
2 4 8 -0.47 1.72
2 4 8 -0.08 1.65
2 4 8 1.56 1.85
2 4 8 1.28 1.93
-2 -4 -9 -0.39 1.48
-2 -4 -9 -0.43 1.65
2 4 9 1 1.94
2 4 9 -1.77 1.28
2 4 9 0.78 1.93
2 4 9 -0.86 1.8
-2 -4 -10 -0.34 1.62
-2 -4 -10 -0.06 2.09
2 4 10 -0.8 1.98
2 4 10 0.11 1.87
2 4 10 -0.09 2.33
2 4 10 -1.79 1.74
-2 -4 -11 0.59 2.11
-2 -4 -11 -1.31 1.96
2 4 11 0.36 2.58
2 4 11 -1.86 1.79
2 4 11 0.65 2.55
2 4 11 1.68 2.34
-2 5 11 -0.82 2.52
-2 5 11 1.5 2.7
2 -5 -11 0.94 2.24
-2 5 10 2.45 2.78
-2 5 10 0.8 2.29
2 -5 -10 -0.16 1.63
-2 5 9 -1.46 1.91
-2 5 9 1.87 2.16
2 -5 -9 1.01 1.79
-2 5 8 0.11 2.05
-2 5 8 -1.15 1.46
2 -5 -8 -0.52 1.57
-2 -5 7 3.61 2.32
-2 5 7 4.08 2.67
-2 5 7 4.75 2.71
2 -5 -7 2.93 2
-2 -5 6 0.95 1.82
-2 5 6 3.01 2.18
-2 5 6 3.31 2.31
2 -5 -6 1.03 1.45
-2 -5 5 0.88 1.67
-2 -5 5 0.01 1.39
-2 5 5 0.41 1.78
-2 5 5 0.44 1.4
2 -5 -5 0.79 1.48
-2 -5 4 0.93 1.59
-2 -5 4 1.55 1.73
-2 5 4 -0.27 1.62
-2 5 4 0.49 1.81
2 -5 -4 1.37 1.61
-2 -5 3 -0.87 1.29
-2 -5 3 0.38 1.37
-2 5 3 -0.24 1.56
-2 5 3 0.76 1.51
2 -5 -3 -0.14 1.23
2 5 -3 0.19 1.44
-2 -5 2 31.97 5.2
-2 -5 2 23.12 4.25
-2 5 2 28.75 4.79
-2 5 2 27.99 4.93
2 -5 -2 26.45 4.72
2 5 -2 31 4.87
-2 -5 1 28.44 4.85
-2 -5 1 23.68 4.39
-2 5 1 36.19 5.34
-2 5 1 26.6 4.73
2 -5 -1 28.26 4.64
2 5 -1 31.3 5.05
2 5 -1 34.21 4.21
-2 -5 0 20.09 4.08
-2 -5 0 21.94 4.49
-2 5 0 21.14 4.06
-2 5 0 16.09 3.6
2 -5 0 17.58 3.76
2 5 0 22.7 4.36
2 5 0 25.76 4.39
-2 -5 -1 11.21 3.17
-2 -5 -1 7.73 3.01
-2 5 -1 12.17 3.25
-2 5 -1 10.23 3.04
2 5 1 13.47 3.58
2 5 1 8.3 2.83
-2 -5 -2 2.07 1.79
-2 -5 -2 2.71 2.15
-2 5 -2 2.89 2.14
2 5 2 1.97 2.09
2 5 2 2.9 2.04
-2 -5 -3 3.06 2.05
-2 -5 -3 5.23 2.62
-2 5 -3 0.27 1.45
2 5 3 2.95 2.26
2 5 3 2.76 1.99
-2 -5 -4 0.08 1.51
-2 -5 -4 0.02 1.43
-2 5 -4 -0.12 1.54
2 5 4 0.17 1.65
2 5 4 0.01 1.55
-2 -5 -5 -0.04 1.69
-2 -5 -5 -1.01 1.44
2 5 5 -0.09 1.83
2 5 5 2.44 2.27
-2 -5 -6 1.01 1.82
-2 -5 -6 1.68 1.91
2 5 6 1.13 1.85
2 5 6 0.85 1.91
-2 -5 -7 0.83 1.67
-2 -5 -7 0.03 1.92
2 5 7 -0.07 1.94
2 5 7 2.67 2.41
2 5 7 0.69 1.97
-2 -5 -8 0.17 1.75
-2 -5 -8 0.73 2.13
2 5 8 -0.14 2.06
2 5 8 3.18 2.57
2 5 8 0.05 2.21
-2 -5 -9 1.73 2.42
-2 -5 -9 -0.73 2.2
2 5 9 0.48 2.57
2 5 9 0.94 2.19
2 5 9 0.06 2.3
-2 6 7 -0.72 2.23
-2 6 7 -0.6 2.16
2 -6 -7 -0.64 1.84
-2 6 6 -0.6 2.03
-2 6 6 -0.65 1.94
2 -6 -6 0.3 2.12
-2 6 5 0.54 2.44
-2 6 5 0.88 2.04
2 -6 -5 2.71 2.3
-2 6 4 32.79 5.83
-2 6 4 33.88 6.49
2 -6 -4 21.13 4.85
-2 -6 3 1.57 2.01
-2 6 3 0.95 2.25
-2 6 3 1.96 2.14
2 -6 -3 2.83 2.31
-2 -6 2 15.24 4.17
-2 6 2 13.22 3.83
-2 6 2 10.34 3.5
2 -6 -2 11.06 3.54
-2 -6 1 0.52 1.71
-2 6 1 0.58 1.81
2 6 -1 -0.87 1.66
-2 -6 0 -0.55 2.86
-2 -6 0 1.07 1.98
-2 6 0 1.84 1.93
2 6 0 -0.66 1.7
-2 -6 -1 3.68 2.45
-2 -6 -1 2.75 2.29
2 6 1 5.01 2.81
2 6 1 4.48 2.46
-2 -6 -2 -0.71 1.68
-2 -6 -2 -0.47 1.74
2 6 2 -0.49 1.93
2 6 2 -0.17 1.82
-2 -6 -3 1.81 1.86
-2 -6 -3 -0.03 1.79
2 6 3 0.85 2.05
2 6 3 1.64 2.53
-2 -6 -4 0.45 1.76
-2 -6 -4 -0.38 1.92
2 6 4 -1.19 2.12
2 6 4 1.29 2.57
-2 -6 -5 0.01 1.8
-2 -6 -5 -0.86 1.81
2 6 5 -0.57 2.28
2 6 5 -0.39 2.11
-2 -6 -6 -0.44 1.62
-2 -6 -6 1.01 2.34
2 6 6 -0.84 2
2 6 6 -0.6 2.51
-3 0 16 -0.04 1.92
-3 0 16 0.28 1.82
3 0 -16 -1.66 1.85
-3 0 15 0.47 1.87
-3 0 15 0.32 1.62
3 0 -15 1.39 2.16
3 0 -15 -0.4 2.19
-3 0 14 1.5 1.81
-3 0 14 0.1 1.57
3 0 -14 2.68 2.29
3 0 -14 -1.38 1.78
-3 0 13 0.02 1.43
-3 0 13 -0.75 1.35
-3 0 13 0.96 1.59
3 0 -13 0.78 1.82
3 0 -13 -0.64 1.65
-3 0 12 19.11 3.82
-3 0 12 13.55 3.1
-3 0 12 11.18 3.06
3 0 -12 14.62 3.58
3 0 -12 12.49 3.45
-3 0 11 -0.1 1.17
-3 0 11 -0.42 0.98
-3 0 11 0.15 1.04
3 0 -11 -0.31 1.29
3 0 -11 0.35 1.3
3 0 -11 0.46 1.3
-3 0 10 33.86 3.8
-3 0 10 29.63 3.49
-3 0 10 19.95 3.39
3 0 -10 25.44 3.9
3 0 -10 3.07 1.45
-3 0 9 -0.39 0.68
-3 0 9 -0.36 0.67
-3 0 9 0.31 0.84
-3 0 9 -0.04 0.69
3 0 -9 0.47 1.05
3 0 -9 -0.27 0.82
-3 0 8 41.65 3.59
-3 0 8 37.55 3.4
-3 0 8 37.62 2.61
3 0 -8 29.48 3.13
3 0 -8 34.28 3.37
-3 0 7 0.07 0.72
-3 0 7 -0.35 0.56
-3 0 7 0.52 0.63
3 0 -7 -0.08 0.58
3 0 -7 0.21 0.77
3 0 -7 0.21 0.69
-3 0 6 6.58 1.5
-3 0 6 8.53 1.81
-3 0 6 6.43 1.18
3 0 -6 6.01 1.34
3 0 -6 4.21 1.32
3 0 -6 5.99 1.54
3 0 -6 4.43 1.36
-3 0 5 -0.25 0.43
-3 0 5 -0.13 0.4
-3 0 5 -0.07 0.53
3 0 -5 -0.21 0.48
3 0 -5 0.07 0.51
3 0 -5 0.07 0.45
3 0 -5 0.32 0.51
-3 0 4 53.45 2.63
-3 0 4 44.39 2.72
-3 0 4 48.2 2.9
3 0 -4 54.36 2.85
3 0 -4 45.4 2.77
3 0 -4 -0.01 0.33
-3 0 3 0.02 0.44
-3 0 3 -0.09 0.33
-3 0 3 0.03 0.41
-3 0 3 -0.16 0.36
3 0 -3 -0.02 0.47
3 0 -3 -0.17 0.32
3 0 -3 0 0.35
-3 0 2 41.56 2.04
-3 0 2 39.39 1.89
-3 0 2 39.32 2.23
-3 0 2 43.93 2.46
3 0 -2 46.65 2.51
3 0 -2 37.65 2.19
3 0 -2 36.56 2.24
3 0 -2 39.68 2.04
-3 0 1 0.29 0.39
-3 0 1 -0.16 0.39
-3 0 1 0.2 0.44
3 0 -1 0.25 0.54
3 0 -1 -0.11 0.35
3 0 -1 -0.12 0.38
3 0 -1 0.23 0.44
-3 0 0 854.4 8.77
-3 0 0 860.83 10.41
-3 0 0 943.57 11.24
3 0 0 1195.97 12.37
3 0 0 870.82 10.87
3 0 0 1107.25 12.12
-3 0 -1 -0.18 0.39
-3 0 -1 0.03 0.38
-3 0 -1 0.2 0.45
-3 0 -1 -0.23 0.36
3 0 1 0.07 0.39
3 0 1 0.78 0.52
3 0 1 -0.18 0.35
3 0 1 0.34 0.45
3 0 1 -0.15 0.39
-3 0 -2 186.04 5.19
-3 0 -2 196.93 4.23
-3 0 -2 192.6 5.71
-3 0 -2 182.51 5.7
3 0 2 220.21 6.16
3 0 2 262.41 6.06
3 0 2 203.14 5.82
3 0 2 184.28 5.78
3 0 2 249.65 6.73
-3 0 -3 0.2 0.57
-3 0 -3 0.01 0.42
-3 0 -3 -0.5 0.4
-3 0 -3 0.16 0.54
3 0 3 0.31 0.61
3 0 3 -0.44 0.42
3 0 3 -0.32 0.39
3 0 3 0.05 0.43
3 0 3 -0.01 0.55
-3 0 -4 31.83 2.1
-3 0 -4 33.36 2.91
-3 0 -4 33.18 2.94
-3 0 -4 29.94 2.79
3 0 4 35.44 3.14
3 0 4 41.43 2.68
3 0 4 34.67 2.93
3 0 4 32.02 2.9
3 0 4 39.4 3.15
-3 0 -5 0.01 0.58
-3 0 -5 -0.13 0.79
-3 0 -5 -0.45 0.61
3 0 5 -0.39 0.72
3 0 5 0.01 0.55
3 0 5 -0.18 0.72
3 0 5 0.05 0.71
3 0 5 0.02 0.77
-3 0 -6 171.05 5.57
-3 0 -6 183.68 7.63
-3 0 -6 192.53 7.99
3 0 6 213.99 8.57
3 0 6 253.6 6.91
3 0 6 218.23 8.1
3 0 6 183.4 7.79
3 0 6 243.85 8.63
-3 0 -7 -0.39 0.79
-3 0 -7 -0.23 1.12
-3 0 -7 -0.13 0.75
3 0 7 -0.69 0.8
3 0 7 0.25 0.73
3 0 7 0.35 1.14
3 0 7 -0.37 0.94
3 0 7 1.15 1.12
-3 0 -8 51.22 4.86
-3 0 -8 51.12 4.75
3 0 8 60.56 5.34
3 0 8 66.75 5.12
3 0 8 53.96 4.92
3 0 8 67.82 5.2
-3 0 -9 -0.91 1.26
-3 0 -9 0.82 1.59
3 0 9 0.09 1.17
3 0 9 0.22 1.22
3 0 9 -0.37 1.02
3 0 9 -0.02 1.15
-3 0 -10 24.52 4.54
3 0 10 39.6 5.95
3 0 10 45.28 4.82
3 0 10 27.39 4.82
3 0 10 41.83 4.61
-3 0 -11 -1.27 1.58
3 0 11 0.84 2.02
3 0 11 1.24 1.71
3 0 11 -0.23 1.39
-3 0 -12 0.26 2.29
3 0 12 0.34 1.93
3 0 12 0.94 1.92
-3 0 -13 -1.46 1.94
3 0 13 0.41 2.21
3 0 13 -0.07 1.86
-3 0 -14 2.78 2.73
3 0 14 5.2 3.5
3 0 14 1.51 2.56
-3 -1 16 1.27 2.29
-3 1 16 -1.32 1.84
-3 1 16 3.13 2.54
3 -1 -16 2.05 2.64
3 -1 -16 2.35 2.76
3 1 -16 0.15 2.49
-3 -1 15 4.06 2.63
-3 1 15 5.18 2.76
-3 1 15 5.52 3.05
3 -1 -15 1.11 2.56
3 -1 -15 0.87 2.3
3 1 -15 5.19 3.06
-3 -1 14 4.12 2.54
-3 -1 14 4.94 2.37
-3 1 14 4.39 2.79
-3 1 14 3.65 2.37
3 -1 -14 1.99 2.38
3 -1 -14 2.29 2.4
3 1 -14 1.43 2.37
-3 -1 13 12.85 3.37
-3 -1 13 8.59 2.54
-3 1 13 13.38 3.66
-3 1 13 10.69 3.26
3 -1 -13 12.25 3.78
3 -1 -13 12.33 3.52
3 1 -13 8.91 3.24
-3 -1 12 34.01 4.23
-3 -1 12 25.33 3.96
-3 1 12 38.75 5.71
-3 1 12 27.07 4.58
3 -1 -12 28.61 5.08
3 -1 -12 25.98 4.78
3 1 -12 23.83 4.21
-3 -1 11 28.68 4.23
-3 -1 11 25.5 3.87
-3 1 11 27.67 4.44
-3 1 11 19.93 3.83
-3 1 11 14.86 3.39
-3 1 11 22.89 3.48
3 -1 -11 22.42 4.27
3 -1 -11 20.83 3.97
3 -1 -11 14.29 3.37
3 1 -11 14.84 3.19
3 1 -11 19.09 3.5
-3 -1 10 -0.63 0.8
-3 -1 10 -0.66 0.71
-3 1 10 -0.11 0.96
-3 1 10 -0.07 1.08
-3 1 10 -0.04 0.87
3 -1 -10 -0.09 1.14
3 -1 -10 -0.84 0.92
3 -1 -10 0.63 1.39
3 1 -10 -0.61 0.97
3 1 -10 -0.3 1.05
-3 -1 9 2.72 1.34
-3 -1 9 0.71 0.92
-3 1 9 1.39 1.33
-3 1 9 2.08 1.37
-3 1 9 2.33 1.25
3 -1 -9 0.94 1.21
3 -1 -9 1.85 1.3
3 -1 -9 1.13 1.46
3 1 -9 2.26 1.3
3 1 -9 0.14 0.96
-3 -1 8 62.36 3.99
-3 -1 8 51.88 3.59
-3 1 8 63.54 4.73
-3 1 8 49.6 4.15
-3 1 8 54.34 3.87
3 -1 -8 49.51 4.21
3 -1 -8 42.98 3.91
3 -1 -8 48.01 4.18
3 1 -8 50.67 2.76
3 1 -8 46.58 3.75
3 1 -8 46.85 3.7
3 1 -8 41.4 3.5
-3 -1 7 7.61 1.64
-3 -1 7 7 1.59
-3 1 7 4.27 1.47
-3 1 7 5.75 1.69
-3 1 7 6.28 1.59
3 -1 -7 5.07 1.8
3 -1 -7 5.07 1.57
3 -1 -7 5.51 1.71
3 1 -7 6.89 1.28
3 1 -7 6.4 1.59
3 1 -7 6.37 1.68
3 1 -7 4.8 1.4
-3 -1 6 103.87 4.09
-3 -1 6 94.57 4.08
-3 1 6 102.96 5.19
-3 1 6 94.82 4.89
-3 1 6 88.75 4.4
3 -1 -6 101.36 5.23
3 -1 -6 88.25 4.64
3 -1 -6 87.16 4.85
3 1 -6 104.62 3.81
3 1 -6 86.38 4.24
3 1 -6 89.3 4.31
3 1 -6 69.75 3.83
-3 -1 5 53.55 3.62
-3 -1 5 57.47 2.63
-3 -1 5 48.03 2.7
-3 1 5 51.47 3.47
-3 1 5 48.31 3.25
-3 1 5 48.1 3.32
3 -1 -5 44.83 3.11
3 1 -5 53.4 2.75
3 1 -5 47.66 2.92
3 1 -5 49.43 2.99
3 1 -5 37.95 2.63
-3 -1 4 1.11 0.79
-3 -1 4 0.79 0.44
-3 -1 4 0.9 0.55
-3 -1 4 0.57 0.5
-3 1 4 1.13 0.71
-3 1 4 0.64 0.65
-3 1 4 0.66 0.69
3 -1 -4 0.68 0.65
3 -1 -4 1.56 0.76
3 -1 -4 0.13 0.53
3 1 -4 1.13 0.68
3 1 -4 0.46 0.51
3 1 -4 0.7 0.55
-3 -1 3 645.04 10.71
-3 -1 3 638.95 8.29
-3 -1 3 624.97 9.16
-3 1 3 641.76 10.53
-3 1 3 641.94 9.93
-3 1 3 627.15 10
3 -1 -3 628.82 10.61
3 -1 -3 649.88 9.72
3 -1 -3 653.46 10.36
3 1 -3 806.57 10.65
3 1 -3 694.55 9.29
3 1 -3 643.08 9.18
3 1 -3 752.98 6.76
-3 -1 2 548.14 9.46
-3 -1 2 642.06 10.3
-3 -1 2 570.01 7.65
-3 -1 2 575.32 8.52
-3 1 2 564.12 9.53
-3 1 2 533.88 8.44
-3 1 2 583.78 9.02
3 -1 -2 580.47 9.76
3 -1 -2 567.24 8.39
3 -1 -2 542.13 8.82
3 1 -2 708.78 10.23
3 1 -2 595.49 8.33
3 1 -2 548.66 8.23
3 1 -2 698.2 7.9
-3 -1 1 52.36 2.95
-3 -1 1 59.73 3.16
-3 -1 1 55.14 2.5
-3 -1 1 56.47 2.76
-3 1 1 52.71 2.59
-3 1 1 53.37 2.66
3 -1 -1 64.57 3.18
3 -1 -1 57.49 2.57
3 -1 -1 58.38 2.82
3 1 -1 68.36 3.33
3 1 -1 64.02 2.83
3 1 -1 51.1 2.61
3 1 -1 70.57 2.95
-3 -1 0 261.96 6.58
-3 -1 0 290.27 6.83
-3 -1 0 281.46 5.97
-3 -1 0 279.5 6.37
-3 1 0 267.69 5.73
-3 1 0 290.04 6.09
3 -1 0 318.22 6.69
3 -1 0 299.14 5.72
3 -1 0 281.44 6.13
3 -1 0 290.64 6.98
3 1 0 339.84 5.27
3 1 0 368.68 7.92
3 1 0 294.13 6.33
3 1 0 271.75 6.28
3 1 0 352.9 7.24
-3 -1 -1 12.81 1.91
-3 -1 -1 13.51 1.67
-3 -1 -1 14.4 1.59
-3 -1 -1 16.9 1.82
-3 1 -1 15.22 1.53
-3 1 -1 17.8 1.66
3 -1 1 17.11 1.63
3 -1 1 16.61 1.51
3 -1 1 16.56 1.65
3 -1 1 14.97 1.78
3 1 1 19.41 1.67
3 1 1 21.31 2.15
3 1 1 16.52 1.78
3 1 1 3.36 0.98
3 1 1 22.59 2.17
-3 -1 -2 5.39 1.47
-3 -1 -2 4.45 1.27
-3 -1 -2 3.66 1.11
-3 -1 -2 5.11 1.38
-3 1 -2 2.83 0.94
-3 1 -2 4.23 1.08
3 -1 2 5.28 1.1
3 -1 2 5.39 1.15
3 -1 2 4.2 1.13
3 -1 2 5.1 1.36
3 1 2 4.64 1.14
3 1 2 5.72 1.5
3 1 2 3.86 1.15
3 1 2 0.07 0.35
3 1 2 3.87 1.26
-3 -1 -3 339.67 8.94
-3 -1 -3 329.77 8.04
-3 -1 -3 347.96 8.63
-3 1 -3 316.45 7.61
-3 1 -3 328.71 7.81
3 -1 3 436.78 7.23
3 -1 3 389.19 7.86
3 -1 3 341.48 8.17
3 -1 3 408.26 9.3
3 1 3 431.39 9.47
3 1 3 431.69 9.64
3 1 3 412.62 9.53
3 1 3 330.44 8.77
3 1 3 471.4 10.68
-3 -1 -4 478.82 11.37
-3 -1 -4 458.38 9.95
-3 -1 -4 445.44 10.53
-3 -1 -4 495.56 11.64
-3 1 -4 444.24 9.79
-3 1 -4 466.8 10.16
-3 1 -4 440.59 9.75
3 -1 4 592.3 8.32
3 -1 4 555.75 10.15
3 -1 4 437.97 10.01
3 -1 4 558.1 11.43
3 1 4 581.41 12.09
3 1 4 577.78 11.58
3 1 4 526.87 11.61
3 1 4 446.38 10.95
3 1 4 633.6 13.2
-3 -1 -5 36.89 3.5
-3 -1 -5 38.66 3.19
-3 -1 -5 39.81 3.51
-3 -1 -5 43.56 3.83
-3 1 -5 34.13 1.61
-3 1 -5 42.69 3.44
-3 1 -5 34.67 3.09
3 -1 5 41.6 3.78
3 -1 5 47.12 2.41
3 -1 5 47.01 3.31
3 -1 5 49.92 3.72
3 1 5 53.12 4.11
3 1 5 45.69 3.51
3 1 5 39.91 3.54
3 1 5 38.61 3.55
3 1 5 49.67 4.06
-3 -1 -6 12.98 2.67
-3 -1 -6 12.31 2.38
-3 -1 -6 12.67 2.56
-3 -1 -6 12.8 2.76
-3 1 -6 12.82 2.45
-3 1 -6 14.08 2.5
-3 1 -6 11.34 2.27
3 -1 6 12.02 2.67
3 -1 6 14.51 2.41
3 -1 6 15.16 2.75
3 -1 6 14.45 2.66
3 1 6 16.48 3.07
3 1 6 19.96 3.01
3 1 6 17.49 3.15
3 1 6 16.08 2.95
3 1 6 19.1 3.26
-3 -1 -7 5.25 1.96
-3 -1 -7 5.63 1.89
-3 -1 -7 2.48 1.47
-3 -1 -7 6.4 2.13
-3 1 -7 3.28 1.47
3 -1 7 6.09 2.07
3 -1 7 6.18 1.78
3 -1 7 2.96 1.38
3 -1 7 8.18 2.07
3 1 7 6.87 2.15
3 1 7 7.55 2.05
3 1 7 3.36 1.57
3 1 7 3.69 1.76
3 1 7 7.09 2.31
-3 -1 -8 15.12 3.25
-3 -1 -8 18.14 3.3
-3 -1 -8 18.31 3.52
-3 -1 -8 16.24 3.4
-3 1 -8 19.82 3.53
-3 1 -8 16.36 3.06
3 -1 8 16.35 3.45
3 -1 8 19.69 3.34
3 -1 8 12.23 2.78
3 -1 8 21.57 3.55
3 1 8 21.42 3.91
3 1 8 23.77 3.43
3 1 8 22.13 3.9
3 1 8 11.89 2.93
3 1 8 26.38 4.13
-3 -1 -9 7.58 2.53
-3 -1 -9 10.82 2.81
-3 -1 -9 7.91 2.64
-3 -1 -9 8.29 2.73
-3 1 -9 5.8 2.15
-3 1 -9 9.33 3.18
3 -1 9 11.07 3.25
3 -1 9 8.84 2.38
3 -1 9 11.67 2.81
3 1 9 9.71 2.93
3 1 9 9.84 2.99
3 1 9 5.82 2.26
3 1 9 14.02 3.39
-3 -1 -10 0.11 1.46
-3 -1 -10 1.47 1.77
-3 1 -10 -0.37 1.4
3 -1 10 -0.99 1.17
3 -1 10 -0.09 1.25
3 -1 10 1.03 1.31
3 1 10 -0.38 1.38
3 1 10 0.28 1.45
3 1 10 0.45 1.33
-3 -1 -11 2.86 2.28
-3 -1 -11 3.48 2.16
-3 1 -11 1.41 1.9
3 -1 11 3.22 2.17
3 -1 11 2.94 1.85
3 1 11 2.67 2.28
3 1 11 4.8 2.66
3 1 11 5.26 2.45
-3 -1 -12 1.96 2.2
-3 -1 -12 3.01 2.39
-3 1 -12 2.12 2.17
3 -1 12 4.73 2.73
3 -1 12 3.54 2.23
3 1 12 3.42 2.54
3 1 12 1.54 2.21
3 1 12 2.93 2.34
-3 -1 -13 4.57 3.13
-3 -1 -13 4.35 3
-3 1 -13 3.15 3.09
3 -1 13 10.48 3.99
3 1 13 8.2 3.81
3 1 13 3.97 2.83
3 1 13 9.89 3.66
-3 -1 -14 0.89 2.47
-3 -1 -14 0.39 2.69
-3 1 -14 0.29 3
3 -1 14 2.92 2.74
3 1 14 1 2.84
3 1 14 0.08 2.27
-3 2 16 -0.3 2.49
-3 2 16 0.77 2.33
3 -2 -16 -0.17 2.68
3 -2 -16 -0.77 2.22
-3 2 15 2.12 2.72
-3 2 15 3.18 2.95
3 -2 -15 -1.29 2.34
3 -2 -15 0.75 2.32
-3 2 14 1.86 2.27
-3 2 14 3.21 2.8
3 -2 -14 2.28 2.44
3 -2 -14 5.03 2.9
-3 2 13 4.35 2.55
-3 2 13 2.78 2.42
-3 2 13 2.48 2.09
3 -2 -13 1.7 2.17
3 -2 -13 2.67 2.14
3 2 -13 3.6 2.52
-3 2 12 -0.02 1.48
-3 2 12 0.43 1.78
-3 2 12 -0.66 1.41
3 -2 -12 0.04 1.6
3 -2 -12 1.47 1.86
3 2 -12 -0.47 1.62
-3 -2 11 78.79 5.64
-3 2 11 83.58 6.9
-3 2 11 82.38 6.73
-3 2 11 88.51 6.54
3 -2 -11 74.85 6.55
3 -2 -11 66.87 5.86
3 -2 -11 77.14 6.7
3 2 -11 72.27 5.83
3 2 -11 74.35 5.4
-3 -2 10 245.76 9.05
-3 2 10 274.86 11.72
-3 2 10 233.3 10.39
-3 2 10 241.21 10.1
3 -2 -10 225.55 10.49
3 -2 -10 209.68 9.46
3 -2 -10 233.33 10.57
3 2 -10 217.58 8.88
3 2 -10 222.18 8.49
-3 -2 9 216.29 7.84
-3 2 9 232.43 10.25
-3 2 9 205.31 9.25
-3 2 9 197.83 8.8
3 -2 -9 181.27 9
3 -2 -9 180.05 8.28
3 -2 -9 199.4 9.3
3 2 -9 194.51 7.8
3 2 -9 197.49 7.48
-3 -2 8 117.68 5.34
-3 -2 8 100.56 4.92
-3 2 8 123.54 7.16
-3 2 8 110.69 6.39
-3 2 8 104.82 6.21
3 -2 -8 98.1 6.38
3 -2 -8 108.5 6.1
3 -2 -8 106.65 6.44
3 2 -8 98.18 5.2
3 2 -8 102.03 5.01
-3 -2 7 7.16 1.55
-3 -2 7 7.69 1.23
-3 2 7 7.55 2.15
-3 2 7 6.05 1.87
-3 2 7 5.51 1.82
3 -2 -7 5.4 2.13
3 -2 -7 5.45 1.7
3 -2 -7 7.62 2.08
3 2 -7 8.46 1.6
3 2 -7 5.03 1.49
3 2 -7 7.26 1.55
-3 -2 6 173.05 7.52
-3 -2 6 155.05 3.46
-3 2 6 162.34 7.34
-3 2 6 151.98 6.53
-3 2 6 129.27 6.03
-3 2 6 153.63 6.94
3 -2 -6 148.66 6.99
3 -2 -6 140.47 5.97
3 -2 -6 145.13 6.54
3 2 -6 191.54 5.44
3 2 -6 150.08 5.31
3 2 -6 150.77 5.08
3 2 -6 122.52 4.54
-3 -2 5 8.23 2.08
-3 -2 5 7.71 0.63
-3 2 5 5.49 1.59
-3 2 5 8.21 1.85
-3 2 5 7.01 1.71
-3 2 5 8.03 2.03
3 -2 -5 5.63 1.85
3 -2 -5 5.98 1.48
3 -2 -5 0.24 0.63
3 2 -5 9.13 1.59
3 2 -5 6.46 1.32
3 2 -5 9.48 1.49
3 2 -5 5.99 1.16
-3 -2 4 32.71 3.09
-3 2 4 22.86 2.63
-3 2 4 28.36 2.54
-3 2 4 29.79 2.57
3 -2 -4 24.41 2.08
3 -2 -4 25.56 2.69
3 -2 -4 25.93 2.21
3 -2 -4 22.95 2.37
3 2 -4 35.93 2.64
3 2 -4 26.76 1.96
3 2 -4 25.81 1.84
3 2 -4 22.96 1.7
3 2 -4 31.87 1.63
-3 -2 3 1.69 1.02
-3 -2 3 1.28 0.95
-3 -2 3 0.76 0.54
-3 2 3 0.69 0.83
-3 2 3 1.49 0.74
-3 2 3 1.58 0.76
3 -2 -3 0.56 0.55
3 -2 -3 0.53 0.77
3 -2 -3 0.69 0.58
3 -2 -3 1.04 0.71
3 2 -3 1.11 0.84
3 2 -3 1.14 0.62
3 2 -3 1.18 0.52
3 2 -3 1.18 0.63
-3 -2 2 262.82 7.97
-3 -2 2 293.62 8.38
-3 -2 2 225.45 3.26
-3 -2 2 280.44 6.01
-3 2 2 273.5 8.15
-3 2 2 287.75 6.56
-3 2 2 271.75 6.35
3 -2 -2 266.22 4.65
3 -2 -2 276.6 7.21
3 -2 -2 270.4 5.33
3 -2 -2 281.99 6.76
3 2 -2 325.52 8.22
3 2 -2 260.44 5.39
3 2 -2 340.8 6.96
-3 -2 1 18.27 2.24
-3 -2 1 16.38 2.66
-3 -2 1 17.45 1.17
-3 -2 1 14.49 1.54
-3 2 1 18.81 2.65
-3 2 1 16.61 1.61
-3 2 1 16.54 1.55
3 -2 -1 16.83 1.08
3 -2 -1 15.25 1.66
3 -2 -1 17.15 1.21
3 -2 -1 17.5 1.69
3 2 -1 19.89 1.32
3 2 -1 21.39 2.35
3 2 -1 19.31 1.71
3 2 -1 14.11 1.44
3 2 -1 19.6 2.01
-3 -2 0 16.01 2.43
-3 -2 0 19.08 2.35
-3 -2 0 16.38 1.44
-3 2 0 16.65 1.56
-3 2 0 18.04 1.55
3 -2 0 18.2 1.24
3 -2 0 15.88 1.5
3 -2 0 16.62 0.96
3 -2 0 16.83 1.6
3 2 0 18.26 1.56
3 2 0 22.34 2.52
3 2 0 18.95 1.83
3 2 0 17.13 1.7
3 2 0 23.28 2.33
-3 -2 -1 117.98 5.57
-3 -2 -1 113.62 5.47
-3 -2 -1 123.15 4.2
-3 2 -1 114.58 3.85
-3 2 -1 120.21 3.82
3 -2 1 115.35 3.33
3 -2 1 122.53 2.13
3 -2 1 120.61 4.15
3 2 1 148.85 4.76
3 2 1 144.73 6.19
3 2 1 125.68 4.8
3 2 1 111.2 4.52
3 2 1 143.84 5.89
-3 -2 -2 396.16 10.52
-3 -2 -2 399.95 10.45
-3 -2 -2 418.08 8.64
-3 2 -2 412.48 7.69
-3 2 -2 414.82 7.43
3 -2 2 421.79 5.16
3 -2 2 428.17 4.59
3 -2 2 416.42 8.08
3 2 2 526.19 10.03
3 2 2 461.84 11.32
3 2 2 466.49 9.96
3 2 2 356.71 8.76
3 2 2 495.29 11.51
-3 -2 -3 350.57 10.35
-3 -2 -3 326.07 9.74
-3 -2 -3 347.87 8.69
-3 2 -3 328.82 7.47
-3 2 -3 348.15 7.45
-3 2 -3 332.89 7.21
3 -2 3 373.49 5.29
3 -2 3 323.44 7.66
3 2 3 419.98 9.93
3 2 3 391.97 10.83
3 2 3 378.48 9.72
3 2 3 330.72 9.15
3 2 3 429.13 11.37
-3 -2 -4 172.71 7.69
-3 -2 -4 172.37 7.39
-3 -2 -4 188.07 7
-3 -2 -4 177.04 7.35
-3 2 -4 166.07 5.83
-3 2 -4 178.44 5.84
-3 2 -4 191.68 5.97
3 -2 4 201.16 4.61
3 -2 4 182.96 6.26
3 -2 4 192.63 7.17
3 2 4 226.57 7.98
3 2 4 200.51 8.05
3 2 4 194.64 7.56
3 2 4 173.56 7.15
3 2 4 253.44 9.28
-3 -2 -5 26.48 3.29
-3 -2 -5 34.36 3.61
-3 -2 -5 29.29 3.15
-3 -2 -5 32.47 3.49
-3 2 -5 31.78 2.93
-3 2 -5 28.57 2.66
3 -2 5 34.11 2.28
3 -2 5 27.1 2.78
3 -2 5 34.45 3.26
3 2 5 41.57 3.87
3 2 5 37.73 3.73
3 2 5 32.27 3.44
3 2 5 -0.05 0.54
3 2 5 44.12 4.2
-3 -2 -6 38.38 4.18
-3 -2 -6 35.12 3.8
-3 -2 -6 39.91 3.92
-3 -2 -6 38.7 4.06
-3 2 -6 38.29 3.49
-3 2 -6 40.55 3.37
3 -2 6 41.11 2.76
3 -2 6 46.03 3.88
3 2 6 49.24 4.51
3 2 6 45.74 4.31
3 2 6 48.48 4.49
3 2 6 0.17 0.67
3 2 6 38.19 4.29
-3 -2 -7 0.71 1.18
-3 -2 -7 0.66 1.27
-3 -2 -7 0.05 1
-3 -2 -7 -0.05 1.17
-3 2 -7 -0.67 0.92
-3 2 -7 0.45 0.93
3 -2 7 0.41 0.94
3 2 7 -0.08 1.16
3 2 7 -0.54 1.02
3 2 7 0.48 1.2
3 2 7 0.93 1.19
3 2 7 0.82 1.37
-3 -2 -8 0.11 1.3
-3 -2 -8 -0.22 1.32
-3 -2 -8 -0.32 1.11
-3 -2 -8 1.93 1.74
-3 2 -8 1.59 1.36
-3 2 -8 -0.08 0.94
3 -2 8 0.22 1.07
3 2 8 -0.28 1.19
3 2 8 -0.05 0.95
3 2 8 -0.51 1.24
3 2 8 0.04 0.99
3 2 8 0.05 1.31
-3 -2 -9 -0.29 1.27
-3 -2 -9 0.2 1.42
-3 -2 -9 0.2 1.33
-3 -2 -9 -0.49 1.35
-3 2 -9 0.24 1.34
3 2 9 -0.12 1.47
3 2 9 -0.46 1.14
3 2 9 -0.93 1.34
3 2 9 -0.53 1.23
-3 -2 -10 8.32 3.15
-3 -2 -10 8.82 2.96
-3 -2 -10 7.26 2.72
-3 2 -10 6.58 2.62
3 2 10 15.3 4.17
3 2 10 10.29 2.96
3 2 10 6.8 2.81
3 2 10 10.35 3.25
-3 -2 -11 2.07 2.14
-3 -2 -11 2.22 2.27
-3 -2 -11 1.1 1.83
-3 2 -11 4.08 2.3
3 2 11 2.9 2.33
3 2 11 2.92 2.58
3 2 11 4.3 2.62
-3 -2 -12 -0.53 1.71
-3 -2 -12 0.49 1.86
-3 2 -12 0.72 2.37
3 2 12 0.4 2.12
3 2 12 -1.13 1.96
3 2 12 0.6 1.88
-3 -2 -13 1.12 2.31
-3 -2 -13 0.02 1.96
3 2 13 0.37 2.34
3 2 13 0.83 2.08
3 2 13 -0.25 2.03
-3 3 15 1.6 2.84
-3 3 15 0.57 2.72
3 -3 -15 0.78 2
3 -3 -15 2.36 3.06
3 -3 -15 1.62 2.38
-3 3 14 0.65 2.34
-3 3 14 1.32 2.78
-3 3 14 -1.67 1.87
3 -3 -14 0.27 1.82
3 -3 -14 0.09 1.81
3 -3 -14 0.36 1.9
-3 3 13 2.84 2.47
-3 3 13 1.8 2.37
-3 3 13 0.87 2.06
3 -3 -13 1.6 2.04
3 -3 -13 1.66 2.25
-3 3 12 1.92 2.21
-3 3 12 0.76 2.08
-3 3 12 3.11 2.4
3 -3 -12 0.59 1.68
3 -3 -12 2.69 2.16
3 -3 -12 2.23 1.98
-3 3 11 -1.01 1.75
-3 3 11 0.01 1.77
-3 3 11 0.75 1.99
3 -3 -11 0.27 1.15
3 -3 -11 0.98 1.92
3 -3 -11 3.46 2.07
-3 3 10 42.41 6.2
-3 3 10 40.24 5.78
-3 3 10 37.18 5.69
3 -3 -10 33.28 5.17
3 -3 -10 29.66 5.56
3 -3 -10 28.34 4.47
-3 3 9 25.91 4.74
-3 3 9 23.62 4.27
-3 3 9 20.77 4.07
3 -3 -9 22.49 4.04
3 -3 -9 17.29 3.91
3 -3 -9 20.05 3.57
3 3 -9 23.54 2.92
-3 3 8 39.89 4.69
-3 3 8 38.38 4.3
-3 3 8 39.14 4.55
3 -3 -8 35.73 3.83
3 -3 -8 34.76 4.31
3 -3 -8 35.9 3.74
3 -3 -8 33.4 5.75
3 3 -8 37.19 2.64
-3 -3 7 99.02 6.61
-3 3 7 105.53 7.03
-3 3 7 91.47 5.9
-3 3 7 93.09 6.48
3 -3 -7 99.98 5.83
3 -3 -7 83.29 6.14
3 -3 -7 95.24 5.32
3 -3 -7 96.92 6.18
3 3 -7 98.06 3.62
-3 -3 6 0.5 1.27
-3 3 6 0.54 1.05
-3 3 6 1.32 1.12
-3 3 6 0.75 1.21
3 -3 -6 1.35 1.18
3 -3 -6 2.5 1.53
3 -3 -6 2.01 1.12
3 -3 -6 2.01 1.31
3 3 -6 1.86 0.63
-3 -3 5 255.52 9.71
-3 3 5 249.66 9.79
-3 3 5 244.07 8.24
-3 3 5 236.58 9.63
3 -3 -5 227.96 7.45
3 -3 -5 227.86 9.17
3 -3 -5 240.55 6.79
3 -3 -5 136.91 6.31
3 3 -5 297.24 8.33
3 3 -5 238.36 3.63
-3 -3 4 23.93 3.59
-3 -3 4 29.55 3.29
-3 3 4 22.83 3.41
-3 3 4 24.38 2.61
-3 3 4 22.02 3.46
3 -3 -4 22.65 2.32
3 -3 -4 22.82 2.85
3 -3 -4 22.73 1.94
3 -3 -4 23.58 2.58
3 3 -4 27.2 2.79
3 3 -4 27 2.25
-3 -3 3 203.14 8.28
-3 -3 3 209.9 8.28
-3 3 3 198.13 8.25
-3 3 3 198.5 6.39
3 -3 -3 181.34 5.61
3 -3 -3 181.09 7.38
3 -3 -3 193.11 6.45
3 3 -3 234.35 8.01
3 3 -3 171.75 2.59
3 3 -3 153.04 2.4
3 3 -3 225.23 6.57
-3 -3 2 13.01 2.7
-3 -3 2 13.48 2.79
-3 3 2 14.24 2.72
-3 3 2 13.53 1.95
3 -3 -2 12.42 1.75
3 -3 -2 12.53 2.45
3 -3 -2 14.3 2.02
3 3 -2 13.69 1.51
3 3 -2 17.37 2.92
3 3 -2 12.66 1.05
3 3 -2 16.31 2.42
-3 -3 1 8.45 2.21
-3 -3 1 8.54 2.27
-3 3 1 8.11 2.01
-3 3 1 10.89 1.66
-3 3 1 6.92 1.38
3 -3 -1 8.62 1.43
3 -3 -1 9.8 2.03
3 -3 -1 8.04 1.43
3 3 -1 10.94 1.58
3 3 -1 8.84 2.14
3 3 -1 10.94 1.62
3 3 -1 8.52 1.23
3 3 -1 10.21 2.08
-3 -3 0 0.16 0.88
-3 -3 0 0.36 0.92
-3 3 0 0.54 1.04
-3 3 0 0.76 0.48
3 -3 0 0.49 0.57
3 -3 0 1.05 0.8
3 -3 0 0.46 0.58
3 3 0 0.93 0.76
3 3 0 0.57 0.95
3 3 0 2.49 0.99
3 3 0 0.44 0.52
3 3 0 1.11 1.06
-3 -3 -1 2.3 1.47
-3 -3 -1 2.9 1.57
3 -3 1 3.79 1.08
3 -3 1 2.56 1.01
3 3 1 5.05 1.39
3 3 1 2.55 1.44
3 3 1 3.72 1.31
3 3 1 1.53 0.81
3 3 1 4.18 1.66
-3 -3 -2 45.19 4.22
-3 -3 -2 51.06 4.47
-3 -3 -2 50.52 2.8
-3 -3 -2 53.25 3.82
-3 3 -2 50.06 1.96
3 -3 2 43.78 3.92
3 3 2 64.62 4.11
3 3 2 53.36 4.6
3 3 2 55.1 3.8
3 3 2 48.67 3.4
3 3 2 58.29 4.65
-3 -3 -3 1.48 1.33
-3 -3 -3 -0.34 0.97
-3 -3 -3 0.67 0.87
-3 -3 -3 -0.35 0.75
-3 3 -3 1 0.55
3 3 3 1.55 1.16
3 3 3 -0.29 0.9
3 3 3 1.26 1.1
3 3 3 0.78 0.84
3 3 3 1.77 1.4
-3 -3 -4 7.61 2.45
-3 -3 -4 4.67 1.98
-3 -3 -4 8.3 1.92
-3 -3 -4 6.7 1.97
-3 3 -4 8.17 1.31
3 3 4 7.42 2.16
3 3 4 7.33 2.51
3 3 4 6.09 1.93
3 3 4 7.31 2
3 3 4 9.28 2.5
-3 -3 -5 23.58 4.12
-3 -3 -5 24.83 4.31
-3 -3 -5 27.27 3.07
-3 -3 -5 29.08 5.06
-3 3 -5 28.75 2.29
3 3 5 35.35 3.92
3 3 5 30.9 4.72
3 3 5 31.48 3.78
3 3 5 25.26 3.75
3 3 5 34.25 4.22
-3 -3 -6 19.86 3.92
-3 -3 -6 19.73 4.01
-3 -3 -6 19.42 3.3
-3 3 -6 22.23 2.31
3 3 6 30.9 4.56
3 3 6 24.24 4.41
3 3 6 25.04 4.23
3 3 6 18.02 3.42
3 3 6 21.04 4.14
-3 -3 -7 56.57 5.77
-3 -3 -7 55.08 5.52
-3 -3 -7 59.63 5
-3 3 -7 55.43 3.83
3 3 7 70.13 6.01
3 3 7 57.64 5.55
3 3 7 70.02 5.89
3 3 7 70.53 6.42
-3 -3 -8 6.91 2.63
-3 -3 -8 4.73 2.49
-3 -3 -8 2.25 1.75
3 3 8 4.23 2.22
3 3 8 10.82 3.16
3 3 8 6.71 2.61
3 3 8 7.38 2.83
-3 -3 -9 12.22 3.72
-3 -3 -9 13.69 4.04
-3 -3 -9 16.41 3.63
3 3 9 20.31 4.39
3 3 9 17.28 4.15
3 3 9 19.9 4.54
3 3 9 13.67 3.69
-3 -3 -10 0.95 1.75
-3 -3 -10 -0.35 1.87
-3 -3 -10 2.12 1.81
3 3 10 0.65 2.05
3 3 10 0.73 1.79
3 3 10 0.64 2.1
3 3 10 -0.57 1.73
-3 -3 -11 -1.04 1.59
-3 -3 -11 0.55 2.17
-3 -3 -11 -0.12 1.59
3 3 11 1.63 2.24
3 3 11 -0.68 1.77
3 3 11 -0.2 2.13
3 3 11 0.12 1.94
-3 -3 -12 0.84 2.01
-3 -3 -12 0.12 2.54
-3 -3 -12 1.76 2.1
3 3 12 1.69 2.59
3 3 12 0.71 2.59
3 3 12 -0.28 2.07
-3 4 13 10.19 4.25
-3 4 13 4.95 3.52
-3 4 13 10.47 4.15
3 -4 -13 9.14 3.74
3 -4 -13 7.69 3.53
-3 4 12 6.07 3.41
-3 4 12 11.42 4.26
-3 4 12 10.53 3.98
3 -4 -12 4.99 2.88
3 -4 -12 2.16 2.38
-3 4 11 31.28 6.13
-3 4 11 41.16 6.62
-3 4 11 40.17 6.71
3 -4 -11 30.02 5.44
3 -4 -11 33.87 6.56
-3 4 10 9.05 3.66
-3 4 10 9.59 3.33
-3 4 10 6.69 3.01
3 -4 -10 5.82 2.6
3 -4 -10 1.75 2.16
-3 4 9 11.35 3.46
-3 4 9 11.16 3.35
-3 4 9 8.08 3.12
3 -4 -9 6.94 2.72
3 -4 -9 7.62 3.07
-3 -4 8 7.1 2.7
-3 4 8 6.67 2.81
-3 4 8 5.71 2.4
-3 4 8 6.5 2.86
3 -4 -8 6.66 2.65
3 -4 -8 6.2 2.64
-3 -4 7 1.84 1.79
-3 4 7 0.5 1.64
-3 4 7 1 1.43
-3 4 7 -0.66 1.38
3 -4 -7 0.63 1.33
-3 -4 6 4.56 2.29
-3 4 6 7.2 2.48
-3 4 6 4.47 2.1
3 -4 -6 3.81 2.22
-3 -4 5 -0.68 1.04
-3 -4 5 0.4 1.19
-3 4 5 -0.03 1.24
-3 4 5 -0.75 1.09
3 -4 -5 -0.72 0.75
-3 -4 4 0.95 1.53
-3 -4 4 5.14 2.12
-3 4 4 1.86 1.56
-3 4 4 3.29 1.93
3 -4 -4 2.51 1.64
3 4 -4 5.77 1.97
-3 -4 3 9.02 2.69
-3 -4 3 8.66 2.52
-3 4 3 10.67 2.91
-3 4 3 5.34 2.12
3 -4 -3 9.65 2.53
3 4 -3 8.67 2.37
-3 -4 2 37.77 4.27
-3 -4 2 32.04 3.95
-3 4 2 33.97 4.12
3 -4 -2 32.32 3.57
3 4 -2 38.94 4.18
3 4 -2 33.51 3.47
-3 -4 1 52.14 4.87
-3 -4 1 48.5 4.82
-3 4 1 59.3 5.23
3 -4 -1 53.88 4.35
3 4 -1 62.57 5.31
3 4 -1 54.25 4.44
-3 -4 0 0.86 1.34
-3 -4 0 1.64 1.42
-3 4 0 0.26 1.31
3 -4 0 1.94 1.28
3 4 0 3.19 1.86
3 4 0 2.31 1.73
-3 -4 -1 219.61 9.9
-3 -4 -1 219.32 10.16
-3 4 -1 244.7 10.29
3 4 1 271.43 11.22
3 4 1 198.27 5.78
3 4 1 287.27 10.91
-3 -4 -2 72.99 5.88
-3 -4 -2 62.2 5.74
3 4 2 83.36 6.57
3 4 2 68.6 3.99
3 4 2 84.3 6.33
-3 -4 -3 11.19 3.15
-3 -4 -3 6.84 2.65
3 4 3 8.6 2.38
3 4 3 9.43 3.02
3 4 3 9.78 2.1
3 4 3 13.69 3.3
-3 -4 -4 -0.17 1.11
-3 -4 -4 -1.03 1.31
3 4 4 -0.83 1.14
3 4 4 0.43 1.37
3 4 4 0.11 0.93
3 4 4 0.38 1.38
-3 -4 -5 1.07 1.55
-3 -4 -5 0.58 1.55
3 4 5 -0.46 1.25
3 4 5 0.38 1.54
3 4 5 0.34 1.2
3 4 5 -0.26 1.47
-3 -4 -6 -0.95 1.22
-3 -4 -6 0.57 1.42
3 4 6 -0.08 1.34
3 4 6 -0.66 1.37
3 4 6 -0.45 1.18
3 4 6 -0.78 1.56
-3 -4 -7 -0.55 1.64
-3 -4 -7 -0.33 1.77
3 4 7 -0.18 1.52
3 4 7 0.23 1.64
3 4 7 0.8 1.7
3 4 7 0.34 1.86
-3 -4 -8 -0.13 1.62
-3 -4 -8 0.16 2.15
3 4 8 0.01 1.74
3 4 8 -0.34 1.49
3 4 8 -1.29 1.82
3 4 8 -0.25 1.75
-3 -4 -9 0.68 2
-3 -4 -9 1.37 2.27
3 4 9 1.36 2.21
3 4 9 0.86 2.2
3 4 9 -0.68 2.3
3 4 9 0.81 1.91
-3 -4 -10 1.67 2.18
-3 -4 -10 1 2.43
3 4 10 0.65 2.41
3 4 10 0.03 1.74
3 4 10 2.02 2.78
3 4 10 0.69 2.29
-3 -4 -11 0.16 1.93
-3 -4 -11 0.65 2.78
3 4 11 -0.8 2.48
3 4 11 -0.68 1.71
3 4 11 -0.56 2.49
3 4 11 -0.93 1.82
-3 5 11 1.49 2.93
-3 5 11 0.07 2.24
3 -5 -11 -1.97 1.61
-3 5 10 0.64 2.33
-3 5 10 0.59 2.36
3 -5 -10 -0.81 1.62
-3 5 9 0.41 2.26
-3 5 9 -0.77 1.84
3 -5 -9 0.69 2.1
-3 -5 8 -1.06 1.85
-3 5 8 0.38 2.14
-3 5 8 -0.34 1.75
3 -5 -8 -0.28 1.59
-3 -5 7 1.85 2.04
-3 5 7 0.28 1.83
-3 5 7 0.83 1.94
3 -5 -7 1.66 1.78
-3 -5 6 0.72 1.82
-3 5 6 1.89 2.26
-3 5 6 -0.47 1.84
3 -5 -6 -0.64 1.3
-3 -5 5 -0.56 1.49
-3 -5 5 -0.3 1.42
-3 5 5 0.28 1.75
-3 5 5 0.23 1.49
3 -5 -5 0.54 1.42
-3 -5 4 1.04 1.7
-3 -5 4 -0.59 1.36
-3 5 4 0.11 1.69
-3 5 4 0.84 1.92
3 -5 -4 1.14 1.79
-3 -5 3 13.96 3.65
-3 -5 3 13.8 3.56
-3 5 3 14.71 3.72
-3 5 3 9.52 2.96
3 -5 -3 14.58 3.57
3 5 -3 16.36 3.58
-3 -5 2 22.37 4.44
-3 -5 2 20.97 4.34
-3 5 2 18.78 4.25
-3 5 2 17.73 4.07
3 -5 -2 19.37 4.14
3 5 -2 26.17 4.82
-3 -5 1 55.23 5.71
-3 -5 1 52.3 5.6
-3 5 1 49.08 5.47
-3 5 1 45.9 5.22
3 5 -1 59.3 5.95
3 5 -1 58.95 5.63
-3 -5 0 22.19 4.35
-3 -5 0 20.36 4.6
-3 5 0 23.04 4.39
3 5 0 19.95 4.27
3 5 0 25.26 4.47
-3 -5 -1 3.97 2.22
-3 -5 -1 3.46 2.23
-3 5 -1 5.98 2.62
3 5 1 3.69 2.45
3 5 1 6.29 2.73
-3 -5 -2 3.05 2.02
-3 -5 -2 3.73 2.36
-3 5 -2 3.45 2.19
3 5 2 2.35 2.08
3 5 2 2.32 1.95
-3 -5 -3 8.01 3
-3 -5 -3 9.27 3.49
-3 5 -3 13.94 3.62
3 5 3 11.93 3.83
3 5 3 17 4.14
-3 -5 -4 0.36 1.56
-3 -5 -4 -0.28 1.26
3 5 4 -0.11 1.55
3 5 4 1.43 1.85
-3 -5 -5 5.02 2.61
-3 -5 -5 5.5 3.05
3 5 5 6.77 3.07
3 5 5 10.06 3.55
-3 -5 -6 0.19 1.55
-3 -5 -6 -0.69 1.91
3 5 6 1.05 1.89
3 5 6 -0.48 1.73
-3 -5 -7 0.75 1.77
-3 -5 -7 -0.48 1.85
3 5 7 0.17 2.22
3 5 7 -1.02 1.82
-3 -5 -8 0.49 2.11
-3 -5 -8 -0.05 2.03
3 5 8 -0.13 2.41
3 5 8 -0.54 2.21
-3 -5 -9 0.54 2.18
-3 -5 -9 -0.75 2.23
3 5 9 -0.37 1.91
3 5 9 -0.1 2.2
-3 6 7 1.2 2.65
-3 6 7 3.44 2.85
3 -6 -7 1.23 2.07
-3 6 6 -0.55 2.2
-3 6 6 0.05 2.2
3 -6 -6 -1.49 1.53
-3 -6 5 1.04 2.14
-3 6 5 1.86 2.44
-3 6 5 1.61 2.35
3 -6 -5 0.42 1.99
-3 -6 4 0.37 1.74
-3 -6 4 0.06 1.77
-3 6 4 -1.11 1.9
-3 6 4 0.33 2.06
3 -6 -4 0.59 1.77
-3 -6 3 -0.03 2.04
-3 -6 3 0.09 1.76
-3 6 3 1.44 2.37
-3 6 3 1.28 2.41
-3 -6 2 -0.62 1.57
-3 -6 2 0.24 1.92
-3 6 2 0.24 2.22
-3 6 2 0.42 1.95
-3 -6 1 0.2 1.77
-3 -6 1 -0.55 1.58
-3 6 1 0.95 2.14
-3 6 1 -0.18 1.76
3 6 -1 0.28 2.02
-3 -6 0 -0.44 1.69
-3 -6 0 -0.53 1.74
-3 6 0 0.59 1.9
-3 6 0 -0.31 1.7
3 6 0 -0.07 2.02
-3 -6 -1 0.81 2.13
-3 -6 -1 -0.3 1.77
-3 6 -1 -0.7 1.92
-3 6 -1 0.74 2.39
3 6 1 -0.1 2.06
3 6 1 2.06 2.84
-3 -6 -2 1.64 2.33
-3 -6 -2 0.1 1.83
3 6 2 -0.29 2.04
3 6 2 0.15 2.24
-3 -6 -3 0.72 1.83
-3 -6 -3 -2.12 1.65
3 6 3 -0.46 2.2
3 6 3 2.32 2.67
-3 -6 -4 2.08 2.21
-3 -6 -4 1.4 2.3
3 6 4 0.97 2.48
3 6 4 0.24 2.55
-3 -6 -5 -0.35 1.87
-3 -6 -5 -0.18 2.01
3 6 5 1.66 2.9
3 6 5 0.97 2.75
-4 0 16 3.21 2.63
-4 0 16 6.47 3.08
4 0 -16 4.63 3
4 0 -16 2.65 2.51
-4 0 15 0.26 1.66
-4 0 15 -0.75 1.56
4 0 -15 -1.18 2
4 0 -15 -0.26 2.02
-4 0 14 2.45 2.14
-4 0 14 2.43 2.11
4 0 -14 0.84 2.12
4 0 -14 -0.11 1.91
-4 0 13 -0.04 1.35
-4 0 13 -1.12 1.23
4 0 -13 1.63 1.88
4 0 -13 -1.3 1.55
-4 0 12 60.11 5.54
-4 0 12 60.73 5.41
4 0 -12 57.73 5.72
-4 0 11 0.39 1.21
-4 0 11 0.09 1.06
4 0 -11 1.23 1.33
4 0 -11 -0.67 1.17
-4 0 10 28.32 4.04
-4 0 10 23.91 3.7
4 0 -10 16.02 3.12
4 0 -10 9.73 2.51
-4 0 9 0.21 0.88
-4 0 9 -0.74 0.7
-4 0 9 0.56 0.66
4 0 -9 -0.01 0.99
4 0 -9 0.14 0.89
-4 0 8 954.6 15.97
-4 0 8 830.9 15.56
-4 0 8 848.52 11.71
4 0 -8 791.51 13.39
4 0 -8 743.37 15.11
4 0 -8 797.4 15.9
-4 0 7 0.54 0.83
-4 0 7 0.38 0.72
-4 0 7 0.02 0.52
4 0 -7 0.26 0.66
4 0 -7 0.45 0.89
4 0 -7 0.29 0.75
-4 0 6 894.96 13.06
-4 0 6 790.65 13.49
4 0 -6 807.1 12.77
4 0 -6 701.61 12.9
4 0 -6 739.89 13.59
4 0 -6 494.61 12.26
-4 0 5 0.3 0.55
-4 0 5 0.25 0.62
4 0 -5 0.09 0.53
4 0 -5 0.25 0.61
4 0 -5 0.15 0.57
-4 0 4 1496 15.62
-4 0 4 1367.47 13.47
-4 0 4 1153.23 14.51
-4 0 4 1308.05 15.97
4 0 -4 1486.27 16.46
4 0 -4 1239.2 15.16
-4 0 3 0.16 0.47
-4 0 3 0.43 0.47
-4 0 3 0.93 0.62
-4 0 3 -0.28 0.43
4 0 -3 -0.26 0.47
4 0 -3 -0.06 0.46
4 0 -3 -0.07 0.43
-4 0 2 619.98 8.52
-4 0 2 624.07 9.99
-4 0 2 689.73 11.17
4 0 -2 786.01 11.65
4 0 -2 641.82 10.17
4 0 -2 564.18 9.86
4 0 -2 671.3 9.8
-4 0 1 0.27 0.44
-4 0 1 -0.38 0.47
-4 0 1 0.52 0.59
4 0 -1 0.48 0.58
4 0 -1 -0.23 0.42
4 0 -1 -0.27 0.45
4 0 -1 0.19 0.47
-4 0 0 316.78 6.2
-4 0 0 325.21 7.46
-4 0 0 340.01 7.83
4 0 0 453.36 8.87
4 0 0 350.4 7.71
4 0 0 312 7.57
4 0 0 399.96 8.49
-4 0 -1 0.11 0.47
-4 0 -1 -0.02 0.46
-4 0 -1 0.21 0.56
-4 0 -1 0.38 0.61
4 0 1 -0.01 0.54
4 0 1 -0.08 0.52
4 0 1 0.1 0.43
4 0 1 0.34 0.62
-4 0 -2 56.29 3.19
-4 0 -2 56.57 2.62
-4 0 -2 58.17 3.6
-4 0 -2 54.74 3.55
4 0 2 64.85 3.76
4 0 2 77.7 3.85
4 0 2 64.68 3.71
4 0 2 54.9 3.57
4 0 2 71.31 4.13
-4 0 -3 -0.51 0.63
-4 0 -3 0.13 0.56
-4 0 -3 -0.03 0.68
4 0 3 0.47 0.75
4 0 3 -0.15 0.57
4 0 3 -0.19 0.66
4 0 3 0.71 0.66
4 0 3 0.37 0.82
-4 0 -4 385.08 9.75
-4 0 -4 349.3 7.01
-4 0 -4 357.26 9.93
4 0 4 422.1 11.04
4 0 4 479.2 9.84
4 0 4 403.03 10.35
4 0 4 357.54 10.19
4 0 4 460.7 11.5
-4 0 -5 -0.45 0.81
-4 0 -5 -0.48 0.62
-4 0 -5 -0.2 0.74
-4 0 -5 -0.11 0.91
4 0 5 0.06 0.74
4 0 5 -0.35 0.65
4 0 5 0.36 0.86
4 0 5 -0.19 0.83
4 0 5 -0.1 0.81
-4 0 -6 313.69 10.27
-4 0 -6 275.55 7.16
-4 0 -6 300.76 10.35
-4 0 -6 132.84 7.02
4 0 6 318.98 11
4 0 6 395.43 9.47
4 0 6 315.87 10.27
4 0 6 263.15 9.88
4 0 6 371.12 11.43
-4 0 -7 -0.9 1.05
-4 0 -7 1.12 1.35
-4 0 -7 0.37 1.17
4 0 7 0.65 1.15
4 0 7 -0.58 1.1
4 0 7 0.19 0.89
4 0 7 -0.05 0.91
4 0 7 -0.65 0.81
-4 0 -8 3.55 1.93
-4 0 -8 2.8 1.7
4 0 8 5.72 2.27
4 0 8 5.65 2.11
4 0 8 3.02 1.8
4 0 8 6.73 2.31
-4 0 -9 0.35 1.54
4 0 9 0.37 1.5
4 0 9 0.1 1.08
4 0 9 0.12 1.39
4 0 9 0.73 1.33
-4 0 -10 2.18 2.28
-4 0 -10 1.21 1.71
4 0 10 1.51 1.96
4 0 10 2.38 1.98
4 0 10 0.78 2
4 0 10 1.92 1.84
-4 0 -11 1.44 2.19
-4 0 -11 -0.12 1.63
4 0 11 0.17 1.95
4 0 11 0.68 1.68
4 0 11 -0.15 1.51
-4 0 -12 -0.52 1.82
-4 0 -12 0.71 2
4 0 12 2.22 2.55
4 0 12 1.05 1.82
4 0 12 -0.27 1.63
-4 0 -13 -0.47 2.28
-4 0 -13 -0.16 2.32
4 0 13 -1.84 1.95
4 0 13 0.65 2.12
-4 1 16 1.63 2.35
-4 1 16 0.05 2.17
4 -1 -16 -0.84 2.3
4 -1 -16 -2.31 1.98
4 1 -16 -1.06 2.5
-4 1 15 1.33 2.07
-4 1 15 -0.51 1.93
4 -1 -15 -0.22 2.05
4 -1 -15 0.15 2.25
4 1 -15 -0.21 2.14
-4 -1 14 5.72 2.73
-4 -1 14 5.51 2.33
-4 1 14 7.17 3.03
-4 1 14 7.41 3.1
4 -1 -14 2.31 2.48
4 -1 -14 3.89 2.39
4 1 -14 1.93 2.36
-4 -1 13 26.17 4.48
-4 -1 13 23.46 4.02
-4 1 13 30.31 5.45
-4 1 13 21.64 4.33
4 -1 -13 22.35 4.83
4 -1 -13 19.87 4.42
4 1 -13 17 3.92
-4 -1 12 2.89 1.84
-4 -1 12 2.77 1.73
-4 1 12 2.9 1.82
-4 1 12 1.6 1.7
4 -1 -12 3.47 2.03
4 -1 -12 1.07 1.82
4 1 -12 -0.25 1.57
-4 -1 11 0.43 1.15
-4 -1 11 -0.14 1
-4 1 11 1.01 1.28
-4 1 11 0.73 1.3
-4 1 11 1.62 1.37
4 -1 -11 1.02 1.54
4 -1 -11 1.3 1.66
4 -1 -11 0.19 1.36
4 1 -11 0.45 1.42
4 1 -11 -0.3 1.15
-4 -1 10 4.61 1.71
-4 -1 10 3.89 1.57
-4 1 10 4.71 2.12
-4 1 10 3.22 1.7
-4 1 10 2.84 1.44
4 -1 -10 4.61 2.09
4 -1 -10 2.82 1.89
4 -1 -10 4.26 1.98
4 1 -10 2.57 1.58
4 1 -10 4.28 1.85
-4 -1 9 1.08 0.96
-4 -1 9 0.08 0.79
-4 1 9 1.37 1.34
-4 1 9 0.09 0.92
-4 1 9 0.82 1.04
4 -1 -9 0.5 1.06
4 -1 -9 0.89 1.09
4 -1 -9 0.09 0.97
4 1 -9 0.45 1.03
4 1 -9 0.53 0.9
-4 -1 8 71.13 4.07
-4 -1 8 56.87 3.84
-4 1 8 72.43 5.02
-4 1 8 57.42 4.48
-4 1 8 60.85 4.09
4 -1 -8 60.63 4.79
4 -1 -8 48.64 4.12
4 -1 -8 56.34 4.56
4 1 -8 63.91 3.55
4 1 -8 48.36 3.86
4 1 -8 56.84 4.17
4 1 -8 48.97 3.87
-4 -1 7 3.99 1.21
-4 -1 7 3.23 1.13
-4 1 7 2.93 1.38
-4 1 7 3.67 1.47
-4 1 7 3.08 1.22
4 -1 -7 2.93 1.37
4 -1 -7 2.96 1.38
4 1 -7 5.33 1.32
4 1 -7 3.62 1.33
4 1 -7 3.11 1.25
4 1 -7 1.78 1.06
-4 -1 6 173.68 7.02
-4 -1 6 179.32 5
-4 -1 6 154.66 5.48
-4 1 6 174.42 6.77
-4 1 6 144.62 6.17
4 -1 -6 145.68 6.16
4 -1 -6 143.53 6.05
4 -1 -6 143.47 6.32
4 1 -6 182.82 5.79
4 1 -6 156.09 5.92
4 1 -6 149.72 5.84
4 1 -6 118.58 5.16
-4 -1 5 63.99 4.09
-4 -1 5 69.59 2.67
-4 -1 5 55.38 3.14
-4 1 5 63.92 3.93
-4 1 5 57.57 3.7
-4 1 5 57.64 3.78
4 -1 -5 57.33 3.79
4 -1 -5 60.4 3.75
4 -1 -5 58.36 3.85
4 1 -5 73.43 3.71
4 1 -5 52.99 3.31
4 1 -5 54.93 3.39
-4 -1 4 750.57 12.85
-4 -1 4 832.45 7.1
-4 -1 4 676.33 10.22
-4 1 4 695.65 12.05
-4 1 4 658.22 11.58
-4 1 4 704.46 12.16
4 -1 -4 720.5 12.69
4 -1 -4 696.9 11.64
4 1 -4 868.58 12.56
4 1 -4 674.51 10.87
4 1 -4 682.37 11.12
4 1 -4 735.15 7.64
-4 -1 3 44.23 3.07
-4 -1 3 43.05 2.57
-4 -1 3 42.86 2.77
-4 1 3 42.67 3
-4 1 3 39.94 2.78
-4 1 3 43.51 2.97
4 -1 -3 41.59 3.02
4 -1 -3 42.21 2.76
4 -1 -3 38.58 2.83
4 1 -3 56.97 3.35
4 1 -3 46.55 2.83
4 1 -3 40.68 2.71
4 1 -3 51.48 2.39
-4 -1 2 0.24 0.64
-4 -1 2 1.01 0.88
-4 -1 2 1.1 0.66
-4 -1 2 0.38 0.57
-4 1 2 1.25 0.76
-4 1 2 0.09 0.49
-4 1 2 0.7 0.65
4 -1 -2 1.3 0.75
4 -1 -2 0.29 0.55
4 -1 -2 0.37 0.56
4 1 -2 1.46 0.87
4 1 -2 0.49 0.62
4 1 -2 0.59 0.56
4 1 -2 0.93 0.59
-4 -1 1 784.77 12.17
-4 -1 1 955.39 13.5
-4 -1 1 849.11 11.45
-4 -1 1 821.42 12.02
-4 1 1 824.82 11.64
-4 1 1 841.94 11.93
4 -1 -1 954.99 13.35
4 -1 -1 864.4 11.42
4 -1 -1 863.23 12.3
4 1 -1 1099.52 14.81
4 1 -1 896.8 12.22
4 1 -1 809.05 11.89
4 1 -1 1057.07 12.99
-4 -1 0 1.81 0.84
-4 -1 0 3.45 1.17
-4 -1 0 2.75 0.94
-4 -1 0 2.28 1.14
-4 1 0 2.6 1
-4 1 0 3.17 1.07
4 -1 0 4.15 1.15
4 -1 0 3.91 1.1
4 -1 0 4.21 1.13
4 -1 0 2.38 1
4 1 0 2.95 0.78
4 1 0 4.96 1.41
4 1 0 3.05 1.1
4 1 0 1.14 0.69
4 1 0 4.9 1.33
-4 -1 -1 99.24 4.66
-4 -1 -1 104.34 4.55
-4 -1 -1 99.94 4.46
-4 1 -1 98.85 2.9
-4 1 -1 103.22 4.38
-4 1 -1 102.13 4.4
4 -1 1 126.01 4.7
4 -1 1 104.76 4.16
4 -1 1 102.79 4.48
4 -1 1 110.74 5.04
4 1 1 117.71 4.26
4 1 1 137.21 5.57
4 1 1 113.76 4.87
4 1 1 0 0.38
-4 -1 -2 17.5 2.67
-4 -1 -2 17.16 2.03
-4 -1 -2 18.32 2.21
-4 1 -2 19.11 1.69
-4 1 -2 18.43 2.07
-4 1 -2 17.73 2.01
4 -1 2 20.48 1.97
4 -1 2 21.26 2.06
4 -1 2 16.65 2.04
4 -1 2 20.68 2.37
4 1 2 19.57 2.12
4 1 2 19.73 2.37
4 1 2 17.54 2.19
4 1 2 14.49 2.26
4 1 2 22.07 2.49
-4 -1 -3 70.42 4.4
-4 -1 -3 66.18 3.87
-4 -1 -3 66.03 4.18
-4 1 -3 61.84 3.81
-4 1 -3 67.2 4
4 -1 3 87.03 3.84
4 -1 3 78.28 4.03
4 -1 3 37.96 3.07
4 -1 3 86.91 4.85
4 1 3 77.9 4.38
4 1 3 82.67 4.66
4 1 3 72 4.4
4 1 3 67.93 4.38
4 1 3 86.31 5.02
-4 -1 -4 3.55 1.53
-4 -1 -4 4.3 1.51
-4 -1 -4 3.2 1.37
-4 1 -4 3.9 1.43
-4 1 -4 2.51 1.15
4 -1 4 6.22 1.38
4 -1 4 4.52 1.38
4 -1 4 3.72 1.31
4 -1 4 5.52 1.73
4 1 4 3.55 1.38
4 1 4 2.54 1.24
4 1 4 4.03 1.47
4 1 4 2.15 1.23
4 1 4 2.58 1.32
-4 -1 -5 0.63 1.1
-4 -1 -5 0.12 0.96
-4 -1 -5 0.7 0.92
-4 -1 -5 -0.27 0.86
-4 1 -5 0.21 0.9
-4 1 -5 0.01 0.88
-4 1 -5 -0.07 0.77
4 -1 5 0.08 0.58
4 -1 5 0.71 0.85
4 -1 5 -0.14 0.71
4 -1 5 0.15 0.78
4 1 5 0.1 0.91
4 1 5 0.14 0.77
4 1 5 0.53 0.94
4 1 5 -0.27 0.81
4 1 5 0.49 0.98
-4 -1 -6 1.27 1.33
-4 -1 -6 1.77 1.21
-4 -1 -6 0.64 1.08
-4 -1 -6 0.26 1.01
-4 1 -6 0.32 1
-4 1 -6 0.12 1.08
4 -1 6 0.31 1.12
4 -1 6 0.61 0.89
4 -1 6 1.16 1.12
4 -1 6 0.34 0.86
4 1 6 1.16 1.13
4 1 6 1.31 1.18
4 1 6 2.95 1.57
4 1 6 0.61 1.05
4 1 6 1.39 1.37
-4 -1 -7 5 2.06
-4 -1 -7 3.69 1.81
-4 -1 -7 7.52 2.35
-4 -1 -7 5.82 2.34
-4 1 -7 4.63 1.93
-4 1 -7 4.75 1.8
4 -1 7 7.16 2.39
4 -1 7 7.51 2.11
4 -1 7 5.02 1.98
4 -1 7 5.01 1.93
4 1 7 4.21 1.81
4 1 7 7.78 2.15
4 1 7 3.29 1.79
4 1 7 5.85 2.1
4 1 7 5.78 2.31
-4 -1 -8 39.85 4.59
-4 -1 -8 31.3 3.6
-4 -1 -8 33.84 4.22
-4 -1 -8 37.09 4.62
-4 1 -8 36.04 4.32
-4 1 -8 30.06 4.36
4 -1 8 40.85 4.77
4 -1 8 39.37 3.94
4 -1 8 28.09 4.65
4 -1 8 40.59 4.29
4 1 8 40.95 4.76
4 1 8 42.46 4.04
4 1 8 41.65 4.66
4 1 8 31.49 4.84
4 1 8 46.42 4.87
-4 -1 -9 13.37 3.48
-4 -1 -9 11.38 3.2
-4 1 -9 14.03 3.33
4 -1 9 14.24 3.69
4 -1 9 11.49 2.77
4 -1 9 16.28 3.7
4 1 9 15.64 3.9
4 1 9 12.94 3.37
4 1 9 16.01 3.78
-4 -1 -10 6.64 2.73
-4 -1 -10 4.44 2.36
-4 1 -10 5.27 2.66
4 -1 10 6.36 2.65
4 -1 10 7.7 2.65
4 -1 10 8.52 2.75
4 1 10 7.92 3.17
4 1 10 9.27 3.28
4 1 10 11.27 3.44
-4 -1 -11 5.16 2.68
-4 -1 -11 5.54 2.69
-4 1 -11 3.31 2.47
4 -1 11 4.04 2.7
4 -1 11 7.11 2.7
4 1 11 4.68 2.8
4 1 11 4.47 2.64
4 1 11 4.94 2.82
-4 -1 -12 2.31 2.46
-4 -1 -12 3.5 2.6
-4 1 -12 1.2 2.15
4 -1 12 2.54 2.26
4 -1 12 2.72 2.32
4 1 12 3 2.93
4 1 12 5.2 3.04
4 1 12 2.9 2.5
-4 -1 -13 2.74 2.71
-4 -1 -13 0.18 2.08
-4 1 -13 -0.34 2.39
4 -1 13 0.75 2.68
4 1 13 0.93 2.66
4 1 13 2.68 2.78
4 1 13 1.36 2.56
-4 2 16 5.73 3.66
-4 2 16 4.78 3.2
4 -2 -16 6.18 3.67
4 -2 -16 5.46 3.31
-4 2 15 14.15 4.39
-4 2 15 17.19 4.79
4 -2 -15 10.75 4.09
4 -2 -15 8.62 3.47
-4 2 14 3.09 2.49
-4 2 14 1.5 2.16
4 -2 -14 2.92 2.68
4 -2 -14 2 2.36
4 2 -14 1 2.46
-4 2 13 22.03 4.91
-4 2 13 22.7 4.97
-4 2 13 28.07 4.8
4 -2 -13 21.13 4.9
4 -2 -13 19.34 4.28
4 2 -13 20.05 4.06
-4 2 12 0.45 1.64
-4 2 12 -0.07 1.65
-4 2 12 0.6 1.42
4 -2 -12 0.99 1.71
4 -2 -12 0.44 1.3
4 2 -12 0.45 1.43
-4 2 11 10.1 3.26
-4 2 11 9.34 3.02
-4 2 11 7.47 2.5
4 -2 -11 9.91 3.33
4 -2 -11 8.74 2.76
4 -2 -11 3.87 2.29
4 2 -11 5.63 2.18
4 2 -11 7.5 2.36
-4 2 10 21 4.22
-4 2 10 16.65 3.63
-4 2 10 21.38 3.79
4 -2 -10 13.96 3.55
4 -2 -10 17.1 3.48
4 -2 -10 19.26 3.85
4 2 -10 21.93 3.66
4 2 -10 16.78 2.99
-4 2 9 15.77 3.41
-4 2 9 11.84 2.86
-4 2 9 7.44 2.25
4 -2 -9 6.52 2.62
4 -2 -9 7.58 2.38
4 -2 -9 9.85 2.78
4 2 -9 10.55 2.54
4 2 -9 10.77 2.3
-4 -2 8 0.59 0.64
-4 2 8 0.29 1.11
-4 2 8 0.21 1.06
-4 2 8 0.17 0.99
4 -2 -8 0.15 0.85
4 -2 -8 0.58 1.1
4 -2 -8 0.16 1.01
4 2 -8 -0.3 0.87
4 2 -8 0.31 0.79
-4 -2 7 0.44 1.11
-4 -2 7 0.12 0.58
-4 -2 7 0.16 0.54
-4 2 7 0.47 1.07
-4 2 7 0.56 0.88
-4 2 7 -0.61 0.73
4 -2 -7 0.77 1.04
4 -2 -7 -0.62 0.77
4 -2 -7 -0.77 0.81
4 2 -7 0.44 0.78
4 2 -7 -0.41 0.72
4 2 -7 0.17 0.69
-4 -2 6 1.74 1.17
-4 -2 6 1.7 0.7
-4 2 6 1.97 1.31
-4 2 6 0.47 0.9
4 -2 -6 1.62 1.02
4 -2 -6 0.46 0.77
4 -2 -6 1.43 1.11
4 2 -6 3.19 1.22
4 2 -6 1.94 1.02
4 2 -6 1.61 0.88
4 2 -6 1.1 0.77
-4 -2 5 3.95 1.59
-4 -2 5 2.85 0.76
-4 2 5 3.58 1.51
-4 2 5 2.92 1.17
-4 2 5 3.56 1.35
4 -2 -5 2.99 1.26
4 -2 -5 2.55 1.12
4 -2 -5 1.92 1.1
4 2 -5 4.36 1.35
4 2 -5 4.16 1.24
4 2 -5 2.75 1
4 2 -5 2.58 0.92
4 2 -5 3.07 0.7
-4 -2 4 362.32 10.31
-4 -2 4 359.86 5.69
-4 2 4 354.47 10.2
-4 2 4 344.96 8.86
-4 2 4 347.97 8.88
4 -2 -4 359.64 6.9
4 -2 -4 370.55 9.78
4 -2 -4 325.35 7.92
4 -2 -4 357.03 9.26
4 2 -4 452.1 10.02
4 2 -4 367.98 7.87
4 2 -4 340.44 7.4
4 2 -4 424.89 6.57
-4 -2 3 376.32 10.23
-4 -2 3 447.51 11.08
-4 -2 3 401.43 6.12
-4 2 3 394.1 10.49
-4 2 3 398.53 8.98
-4 2 3 414.26 9.11
4 -2 -3 390.04 5.85
4 -2 -3 407.29 9.54
4 -2 -3 386.8 7.95
4 -2 -3 397.93 9.23
4 2 -3 496.16 10.77
4 2 -3 419.24 8.23
4 2 -3 381.1 7.72
4 2 -3 495.69 8.24
-4 -2 2 125.58 5.88
-4 -2 2 145.08 6.31
-4 -2 2 131.81 3.79
-4 2 2 133.15 6.05
-4 2 2 130.11 4.93
-4 2 2 135.27 4.97
4 -2 -2 130.14 5.02
4 -2 -2 129.03 4.27
4 -2 -2 131.26 5.11
4 2 -2 159.88 6.31
4 2 -2 144.11 4.91
4 2 -2 120.21 4.45
4 2 -2 159.67 5.26
-4 -2 1 158.12 6.58
-4 -2 1 176.39 6.96
-4 -2 1 165.48 4.66
-4 2 1 165.91 5.37
-4 2 1 176.01 5.45
4 -2 -1 167.15 6.36
4 -2 -1 162.45 5.06
4 -2 -1 181.04 4.69
4 -2 -1 172.35 5.67
4 2 -1 206.8 3.95
4 2 -1 212.1 7.48
4 2 -1 191.24 5.85
4 2 -1 154.4 5.25
4 2 -1 204.33 6.48
-4 -2 0 19.58 2.84
-4 -2 0 20.35 3.03
-4 -2 0 23.01 2.05
-4 2 0 21.66 2.07
-4 2 0 20.03 1.94
4 -2 0 24.33 2.43
4 -2 0 18.92 1.63
4 -2 0 20.02 1.6
4 -2 0 22.92 2.15
4 2 0 26.69 1.91
4 2 0 23.61 2.73
4 2 0 25.39 2.39
4 2 0 18.1 2.01
4 2 0 27.39 2.71
-4 -2 -1 598.32 13.22
-4 -2 -1 639.82 13.5
-4 -2 -1 675.86 11.22
-4 2 -1 636.05 10.61
-4 2 -1 667.59 10.6
4 -2 1 649.93 11.64
4 -2 1 601.23 7.1
4 -2 1 668.5 8.5
4 -2 1 666 11.23
4 2 1 797.18 11.4
4 2 1 802.42 15.33
4 2 1 718.89 12.68
4 2 1 603.42 11.66
4 2 1 822.22 14.83
-4 -2 -2 335.39 10.29
-4 -2 -2 353.44 10.3
-4 -2 -2 345.48 8.74
-4 2 -2 343.56 8.19
-4 2 -2 350.88 8.02
4 -2 2 375.37 8.57
4 -2 2 388.7 6.77
4 -2 2 364.26 8.68
4 2 2 435.01 9.53
4 2 2 420.39 11.5
4 2 2 410.13 10.26
4 2 2 342.59 9.42
4 2 2 448.43 11.67
-4 -2 -3 212.25 8.56
-4 -2 -3 214.68 8.28
-4 -2 -3 217.94 7.52
-4 2 -3 217.51 6.92
-4 2 -3 219.85 6.74
4 -2 3 224.07 6.39
4 -2 3 242.92 5.73
4 -2 3 213.32 7.02
4 -2 3 236.44 8.45
4 2 3 277.55 8.4
4 2 3 263.23 9.42
4 2 3 259.47 8.7
4 2 3 209.63 7.86
4 2 3 280.03 9.77
-4 -2 -4 41.32 4.06
-4 -2 -4 35.91 3.71
-4 -2 -4 43.5 3.72
-4 -2 -4 41.58 4
-4 2 -4 41.03 3.23
4 -2 4 40.37 2.68
4 -2 4 40.19 2.62
4 -2 4 35.03 3.12
4 -2 4 40.28 3.71
4 2 4 47.33 3.95
4 2 4 46.8 4.2
4 2 4 43.23 3.91
4 2 4 -0.06 0.7
4 2 4 56.05 4.79
-4 -2 -5 6.47 2.26
-4 -2 -5 9.79 2.47
-4 -2 -5 8.02 2.18
-4 -2 -5 4.75 1.82
-4 2 -5 7.56 1.9
-4 2 -5 8.52 1.87
4 -2 5 10.73 1.89
4 -2 5 10.7 2.5
4 2 5 10.53 2.43
4 2 5 8.52 2.34
4 2 5 12.41 2.81
4 2 5 -0.49 0.68
4 2 5 8.23 2.41
-4 -2 -6 1.04 1.43
-4 -2 -6 0.06 1.3
-4 -2 -6 0.81 1.21
-4 -2 -6 1.77 1.55
-4 2 -6 0.25 1.06
-4 2 -6 -0.18 0.85
4 -2 6 0.97 1.07
4 -2 6 2.99 1.51
4 2 6 0.88 1.23
4 2 6 0.77 1.29
4 2 6 0.43 1.09
4 2 6 0.41 1.01
4 2 6 0.78 1.31
-4 -2 -7 1.24 1.38
-4 -2 -7 2 1.69
-4 -2 -7 1.49 1.49
-4 -2 -7 2.35 1.69
-4 2 -7 2 1.57
-4 2 -7 0.84 1.31
4 -2 7 1.14 1.28
4 2 7 1.32 1.35
4 2 7 1.57 1.52
4 2 7 0.8 1.35
4 2 7 0.33 1.1
4 2 7 1.92 1.65
-4 -2 -8 1.17 1.57
-4 -2 -8 -0.28 1.46
-4 -2 -8 1.21 1.32
-4 -2 -8 0.07 1.65
-4 2 -8 0.54 1.39
-4 2 -8 1.1 1.65
4 -2 8 1.45 1.4
4 2 8 0.66 1.36
4 2 8 0.34 1.26
4 2 8 -0.59 1.24
4 2 8 1.33 1.54
-4 -2 -9 0.63 1.95
-4 -2 -9 -0.26 1.6
-4 -2 -9 -0.58 1.22
-4 2 -9 -0.9 1.31
4 2 9 -0.95 1.25
4 2 9 -1.16 1.08
4 2 9 -0.16 1.55
4 2 9 0.86 1.79
-4 -2 -10 2.16 2.37
-4 -2 -10 2.73 2.29
-4 -2 -10 3.19 2.13
-4 2 -10 4.43 2.54
4 2 10 2.99 2.13
4 2 10 3.12 2.4
4 2 10 1.18 2.07
-4 -2 -11 -1.53 1.86
-4 -2 -11 0.29 1.8
-4 2 -11 -0.34 2.13
4 2 11 2.28 2.45
4 2 11 -0.32 2.02
4 2 11 -0.15 1.84
-4 -2 -12 -0.33 2.17
-4 -2 -12 0.79 2.32
-4 2 -12 1.29 2.93
4 2 12 2.62 2.65
4 2 12 1.02 2.2
4 2 12 2.51 2.52
-4 -2 -13 2.1 3.03
-4 -2 -13 0.56 2.6
4 2 13 3.34 3.27
4 2 13 4.36 3.35
4 2 13 3.1 2.81
-4 3 15 4.16 3.02
-4 3 15 0.99 2.52
4 -3 -15 3.21 2.6
4 -3 -15 3.92 2.74
-4 3 14 0.23 2.31
-4 3 14 5.13 3.18
-4 3 14 2.57 2.6
4 -3 -14 -0.19 1.94
4 -3 -14 2.62 2.68
4 -3 -14 -0.12 1.91
-4 3 13 3.33 2.71
-4 3 13 2.77 2.89
-4 3 13 2.27 2.33
4 -3 -13 0.89 1.95
4 -3 -13 2.54 2.51
4 -3 -13 0.85 1.81
-4 3 12 0.02 1.79
-4 3 12 0.71 1.99
-4 3 12 1.4 1.99
4 -3 -12 0.02 1.4
4 -3 -12 1.82 2.29
4 -3 -12 0.22 1.48
-4 3 11 16.19 4.21
-4 3 11 12.53 3.85
-4 3 11 15.35 3.91
4 -3 -11 6.24 2.62
4 -3 -11 4.75 2.79
4 -3 -11 7.37 2.79
-4 3 10 14.4 3.84
-4 3 10 11.63 3.2
-4 3 10 14.83 3.72
4 -3 -10 11.46 3.03
4 -3 -10 10.54 3.54
4 -3 -10 8.27 2.64
4 3 -10 12 3.34
-4 3 9 99.05 7.52
-4 3 9 84.77 6.39
-4 3 9 86.35 6.74
4 -3 -9 92.99 6.24
4 -3 -9 81.39 6.66
4 -3 -9 91.02 6.05
4 3 -9 86.57 4.56
-4 -3 8 -0.46 1.32
-4 3 8 0.81 1.52
-4 3 8 0.75 1.29
-4 3 8 -0.18 0.99
4 -3 -8 0.24 0.98
4 -3 -8 0.57 1.44
4 -3 -8 0.47 1.15
4 3 -8 0.41 0.8
-4 -3 7 45.19 4.76
-4 3 7 41.59 4.66
-4 3 7 40.8 4.13
-4 3 7 36.26 4.31
4 -3 -7 38.27 3.56
4 -3 -7 36.33 4.29
4 -3 -7 35.34 3.47
4 -3 -7 35.64 5.61
4 3 -7 36.83 2.58
-4 -3 6 0.69 1.3
-4 3 6 1.77 1.55
-4 3 6 0.84 1.07
-4 3 6 2.53 1.61
4 -3 -6 1.6 1.14
4 -3 -6 0.24 1.04
4 -3 -6 0.58 0.89
4 -3 -6 0.57 1.17
4 3 -6 1.46 1.19
4 3 -6 1.41 0.71
-4 -3 5 4.4 1.86
-4 3 5 3.47 1.59
-4 3 5 2.5 1.35
4 -3 -5 2.35 1.12
4 -3 -5 1.58 1.29
4 -3 -5 2.9 1.11
4 -3 -5 0.18 0.8
4 3 -5 5.02 1.69
4 3 -5 2.37 0.77
-4 -3 4 43.53 4.25
-4 -3 4 53.2 4.54
-4 3 4 47.37 3.61
4 -3 -4 44.09 3.91
4 -3 -4 42.29 2.69
4 -3 -4 43.86 3.58
4 3 -4 51.08 4.03
4 3 -4 43.05 2.31
-4 -3 3 0.5 1.13
-4 -3 3 1.47 1.37
-4 3 3 1.38 1.25
-4 3 3 0.76 0.84
4 -3 -3 0.29 0.82
4 -3 -3 0.32 0.7
4 -3 -3 0.69 0.71
4 3 -3 1.03 1.13
4 3 -3 0.62 0.52
4 3 -3 0.65 0.88
-4 -3 2 45.35 4.23
-4 -3 2 56.14 4.6
-4 3 2 45.16 4.23
-4 3 2 46.85 3.24
4 -3 -2 48.3 3.63
4 -3 -2 48.65 4.98
4 3 -2 62.05 4.66
4 3 -2 52.49 3.16
4 3 -2 42.37 2.52
4 3 -2 63.61 4.03
-4 -3 1 2.43 1.52
-4 -3 1 2.93 1.58
-4 3 1 4.12 1.7
-4 3 1 2.78 1.08
4 -3 -1 2.22 1.11
4 3 -1 4 1.63
4 3 -1 1.8 0.98
4 3 -1 1.98 0.83
4 3 -1 3.73 1.49
-4 -3 0 8.18 2.23
-4 -3 0 12.67 2.96
-4 3 0 11.26 2.19
4 -3 0 9.47 1.8
4 3 0 15.01 1.83
4 3 0 15.43 3.12
4 3 0 10.54 1.94
4 3 0 9.07 1.72
4 3 0 15.13 2.83
-4 -3 -1 -0.15 1.04
-4 -3 -1 -0.94 0.94
-4 -3 -1 0.24 0.6
4 3 1 -0.18 0.73
4 3 1 0.51 1.08
4 3 1 1 0.95
4 3 1 0.21 0.66
4 3 1 0.84 1.21
-4 -3 -2 7.06 2.3
-4 -3 -2 8.19 2.4
-4 -3 -2 7.26 1.54
4 3 2 8.17 2.02
4 3 2 12.39 3.06
4 3 2 9.77 2.23
4 3 2 5.64 1.62
4 3 2 12.5 2.85
-4 -3 -3 -0.05 1.12
-4 -3 -3 1.16 1.35
-4 -3 -3 0.27 0.89
-4 3 -3 0.34 0.69
4 3 3 0.39 1.05
4 3 3 -0.73 1.04
4 3 3 -0.2 0.94
4 3 3 0.4 0.93
4 3 3 0.56 1.27
-4 -3 -4 55.21 5.18
-4 -3 -4 49.61 4.9
-4 -3 -4 56.04 4.23
-4 3 -4 52.77 3.24
4 3 4 77.21 5.32
4 3 4 61.6 5.56
4 3 4 58.54 4.96
4 3 4 52.02 4.45
4 3 4 78.88 6.17
-4 -3 -5 13.94 3.36
-4 -3 -5 13.2 3.46
-4 -3 -5 16.69 3.05
-4 3 -5 18.47 2.23
4 3 5 20.58 3.7
4 3 5 18.77 3.8
4 3 5 21.48 3.88
4 3 5 13.07 2.94
4 3 5 21.71 4.22
-4 -3 -6 -1 1.3
-4 -3 -6 -0.02 1.49
-4 -3 -6 0.76 1.26
-4 3 -6 0.46 0.97
4 3 6 0.52 1.44
4 3 6 0.26 1.24
4 3 6 -1.22 1.19
4 3 6 0.83 1.55
-4 -3 -7 16.98 3.83
-4 -3 -7 14.4 3.63
-4 -3 -7 14.82 3.19
-4 3 -7 18.77 2.99
4 3 7 24.59 4.48
4 3 7 24.7 4.66
4 3 7 20.64 4.23
4 3 7 28.26 5.11
-4 -3 -8 0.27 1.65
-4 -3 -8 -0.09 1.66
-4 -3 -8 -0.39 1.33
4 3 8 0.58 1.75
4 3 8 0.22 1.33
4 3 8 -0.58 1.64
4 3 8 -0.33 1.42
-4 -3 -9 0.48 1.83
-4 -3 -9 -0.63 1.89
-4 -3 -9 2.12 1.81
4 3 9 0.37 1.71
4 3 9 1.43 2.09
4 3 9 0.81 2.08
4 3 9 1.24 1.72
-4 -3 -10 -0.15 1.88
-4 -3 -10 -0.44 2.1
-4 -3 -10 -0.42 1.37
4 3 10 -0.81 1.69
4 3 10 -1.44 1.52
4 3 10 -0.09 2.25
4 3 10 -0.33 1.49
-4 -3 -11 0.4 2.08
-4 -3 -11 -0.82 2.2
-4 -3 -11 0.43 1.87
4 3 11 0.25 2.23
4 3 11 0.11 1.93
4 3 11 -0.03 1.73
-4 -3 -12 0.54 2.43
-4 -3 -12 0.1 1.98
4 3 12 1.16 2.96
4 3 12 1.29 2.84
4 3 12 0 2.29
-4 4 13 10.38 4.25
-4 4 13 11.47 4.52
-4 4 13 7.49 3.6
4 -4 -13 4.07 3.08
-4 4 12 1.35 2.56
-4 4 12 3.42 3.05
-4 4 12 -0.31 1.63
4 -4 -12 0.72 1.99
-4 4 11 6.14 3.41
-4 4 11 4.21 3
-4 4 11 4.23 2.71
4 -4 -11 4.01 2.63
-4 4 10 -0.72 1.86
-4 4 10 -1.59 1.61
-4 4 10 0.51 1.77
4 -4 -10 0.51 1.65
-4 4 9 0.76 1.75
-4 4 9 -0.88 1.5
-4 4 9 -0.79 1.31
4 -4 -9 -0.36 1.41
-4 -4 8 12.58 3.61
-4 4 8 9.82 3.2
-4 4 8 10.9 3.24
-4 4 8 10.2 3.37
4 -4 -8 9.68 3.34
-4 -4 7 -0.37 1.36
-4 4 7 0.28 1.65
-4 4 7 1.93 1.75
-4 4 7 0.36 1.42
4 -4 -7 1.45 1.77
-4 -4 6 34.21 5.1
-4 4 6 35.05 5.4
-4 4 6 27.21 4.85
4 -4 -6 25.29 4.48
-4 -4 5 11.92 3.12
-4 -4 5 7.88 2.68
-4 4 5 6.41 2.54
-4 4 5 10.34 3.04
4 -4 -5 6.69 2.32
4 4 -5 11.73 2.83
-4 -4 4 12.07 3.12
-4 -4 4 9.73 2.86
-4 4 4 8.55 2.7
4 -4 -4 7.8 2.47
4 4 -4 13.75 2.99
-4 -4 3 24.9 4.27
-4 -4 3 33.07 5.06
-4 4 3 29.84 4.68
4 -4 -3 25.75 4.05
4 4 -3 33.5 4.03
-4 -4 2 -0.11 1.31
-4 -4 2 0.41 1.33
-4 4 2 0.58 1.41
4 -4 -2 -0.1 0.94
4 4 -2 1.78 1.65
4 4 -2 0.8 1.37
-4 -4 1 2.54 1.9
-4 -4 1 2.37 1.77
-4 4 1 1.55 1.66
4 -4 -1 4 1.73
4 4 -1 4.33 2.23
4 4 -1 4.2 1.89
-4 -4 0 51.8 5.14
-4 -4 0 48.07 5.06
-4 4 0 62.13 5.59
4 4 0 59.8 5.65
4 4 0 42.86 2.88
4 4 0 63.38 5.27
-4 -4 -1 12.22 3.1
-4 -4 -1 14.76 3.53
-4 4 -1 10.11 2.73
4 4 1 11.28 3.15
4 4 1 10.99 2.02
4 4 1 15.96 3.45
-4 -4 -2 1.92 1.6
-4 -4 -2 2.72 1.93
4 4 2 6.78 2.57
4 4 2 4.59 1.6
4 4 2 7.81 2.68
-4 -4 -3 12.17 3.25
-4 -4 -3 9.29 3.02
4 4 3 11.09 3.29
4 4 3 10.66 2.42
4 4 3 11.53 3.32
-4 -4 -4 4.37 2.24
-4 -4 -4 2.94 1.93
4 4 4 2.83 2.06
4 4 4 5.49 3.2
4 4 4 4.39 2.41
-4 -4 -5 -0.22 1.46
-4 -4 -5 1.29 1.92
4 4 5 -1.14 1.13
4 4 5 0.46 1.54
4 4 5 -0.67 1.53
-4 -4 -6 0.01 1.75
-4 -4 -6 0.45 1.77
4 4 6 -0.32 1.55
4 4 6 -0.84 1.49
4 4 6 0.88 1.97
4 4 6 0.01 1.6
-4 -4 -7 4.21 2.36
-4 -4 -7 2.98 2.65
4 4 7 10.89 3.38
4 4 7 9.9 3.4
4 4 7 12.68 3.76
4 4 7 9.15 3.32
-4 -4 -8 -0.64 1.73
-4 -4 -8 -0.23 2.02
4 4 8 1.14 1.92
4 4 8 -1.29 1.62
4 4 8 -1.02 1.98
4 4 8 0.94 2.07
-4 -4 -9 1.62 2.23
-4 -4 -9 0.08 2.21
4 4 9 0.26 2.05
4 4 9 0.82 2.25
4 4 9 -0.57 2.17
4 4 9 1.68 2.26
-4 -4 -10 0.86 2.17
-4 -4 -10 1.06 2.88
4 4 10 0.64 2.27
4 4 10 1.29 2.53
4 4 10 1.4 2.95
4 4 10 2.2 2.67
-4 5 11 10 4.4
-4 5 11 7.01 3.58
4 -5 -11 4.26 2.97
-4 5 10 5.02 3.27
-4 5 10 2.1 2.59
4 -5 -10 2.04 2.35
-4 5 9 1.01 2.32
-4 5 9 0.06 1.86
4 -5 -9 -1.34 1.55
-4 -5 8 -0.16 1.77
-4 5 8 2.51 2.48
-4 5 8 0.48 1.79
4 -5 -8 1.19 2.07
-4 -5 7 0.08 1.94
-4 5 7 3.1 2.58
-4 5 7 -0.9 1.86
4 -5 -7 0.03 1.58
-4 -5 6 1.34 1.8
-4 5 6 0.07 1.89
-4 5 6 0.76 2
4 -5 -6 -0.15 1.43
-4 -5 5 0.6 1.51
-4 -5 5 0.04 1.61
-4 5 5 0.81 1.89
-4 5 5 -0.94 1.57
4 -5 -5 0.01 1.34
-4 -5 4 2.58 2.25
-4 -5 4 3.21 2.2
-4 5 4 4.73 2.52
-4 5 4 5.7 2.65
4 -5 -4 1.5 1.63
-4 -5 3 21.86 4.6
-4 -5 3 20.02 4.35
-4 5 3 27.85 5.13
-4 5 3 25.25 4.84
4 -5 -3 16.36 3.69
4 5 -3 19.15 3.9
-4 -5 2 29.07 5.27
-4 -5 2 21.84 4.51
-4 5 2 33.27 5.5
-4 5 2 25.38 4.7
4 5 -2 29.05 5.01
-4 -5 1 10.48 3.3
-4 -5 1 11.78 3.44
-4 5 1 14.82 3.79
4 5 -1 21.08 4.64
-4 -5 0 1.41 1.7
-4 -5 0 3.19 2.35
-4 5 0 1.91 2.13
4 5 0 0.62 1.92
4 5 0 1.63 1.9
-4 -5 -1 0.62 1.47
-4 -5 -1 -0.51 1.25
-4 5 -1 -0.56 1.6
4 5 1 -0.38 1.69
4 5 1 0.31 1.53
-4 -5 -2 9.43 3.14
-4 -5 -2 13.4 4.06
-4 5 -2 12.5 3.54
4 5 2 17.79 4.34
4 5 2 16.12 4.01
-4 -5 -3 -0.86 1.35
-4 -5 -3 0.84 1.89
-4 5 -3 1.89 2.07
4 5 3 0.67 1.91
4 5 3 -0.77 1.75
-4 -5 -4 1.42 1.88
-4 -5 -4 1.04 2.13
4 5 4 3.39 2.8
4 5 4 -1.3 1.56
-4 -5 -5 2.15 2.24
-4 -5 -5 1.32 2.09
4 5 5 2.96 2.68
4 5 5 0.74 2.1
-4 -5 -6 2.2 2.22
-4 -5 -6 0.43 1.77
4 5 6 0.5 2.03
4 5 6 -0.96 1.69
-4 -5 -7 -0.07 1.9
-4 -5 -7 0.12 2.02
4 5 7 -1.84 1.66
4 5 7 0.94 2.21
-4 -5 -8 -0.02 1.94
-4 -5 -8 1.49 2.46
4 5 8 -0.15 2.6
4 5 8 0.09 2.46
-4 -6 7 -0.28 2.11
-4 6 7 2.1 3.03
-4 6 7 -0.21 1.94
4 -6 -7 0.78 2.18
-4 -6 6 1.89 2.7
-4 6 6 3.81 2.99
-4 6 6 1.2 2.57
4 -6 -6 1.96 2.37
-4 -6 5 -1.46 1.76
-4 -6 5 -0.8 1.82
-4 6 5 -0.51 2.31
-4 6 5 -1.02 1.8
4 -6 -5 -0.28 1.68
-4 -6 4 2.83 2.46
-4 -6 4 0.38 2.03
-4 6 4 -0.11 2.16
-4 6 4 1.87 2.22
-4 -6 3 0.74 1.64
-4 -6 3 0.65 1.99
-4 6 3 0.89 2.37
-4 6 3 -1.85 1.71
-4 -6 2 -0.33 1.83
-4 -6 2 0.34 1.77
-4 6 2 -0.17 1.87
-4 6 2 1.46 1.88
4 6 -2 0.99 2.28
-4 -6 1 1.48 2.03
-4 -6 1 -0.7 1.86
-4 6 1 0.8 2.18
-4 6 1 -0.8 1.71
4 6 -1 -0.64 1.83
-4 -6 0 -0.17 1.91
-4 -6 0 -0.07 1.69
-4 6 0 1.01 1.98
-4 6 0 0.23 1.68
4 6 0 -0.87 1.91
-4 -6 -1 1.12 2.03
-4 -6 -1 -0.28 1.82
-4 6 -1 1.16 2.2
-4 6 -1 -1.9 1.65
4 6 1 -2.22 1.93
-4 -6 -2 0.5 1.86
-4 -6 -2 0.31 2.04
-4 6 -2 -0.39 2.02
4 6 2 -0.51 2.14
4 6 2 0.37 2.2
-4 -6 -3 4 2.78
-4 -6 -3 1.71 2.42
-4 6 -3 7.37 3.43
4 6 3 4.5 3.32
4 6 3 7.37 3.49
-4 -6 -4 3.98 2.98
-4 -6 -4 -0.7 2.08
4 6 4 7.47 3.54
4 6 4 0.9 2.91
-5 0 17 1.54 2.31
-5 0 17 0.72 2.12
5 0 -17 -0.37 2.63
5 0 -17 1.53 2.81
-5 0 16 4.7 2.8
-5 0 16 0.23 2
5 0 -16 4.39 3.18
5 0 -16 1.45 2.73
-5 0 15 -0.41 1.75
-5 0 15 -0.14 1.74
5 0 -15 0.66 2.27
5 0 -15 0.33 2.22
-5 0 14 -0.35 1.3
-5 0 14 -0.08 1.43
5 0 -14 1.37 2.29
5 0 -14 2.09 2.11
-5 0 13 0 1.4
-5 0 13 -0.65 1.21
5 0 -13 -0.83 1.6
-5 0 12 17.46 3.79
-5 0 12 9.91 2.85
5 0 -12 9.68 3
-5 0 11 -0.86 0.99
-5 0 11 -0.14 1.01
5 0 -11 0.56 1.53
5 0 -11 0.07 1.16
-5 0 10 0.07 1.09
-5 0 10 0.18 0.93
5 0 -10 0.17 1.22
5 0 -10 -0.41 0.94
-5 0 9 0.1 0.8
-5 0 9 0.31 0.89
-5 0 9 0.18 1.05
5 0 -9 -0.53 0.65
5 0 -9 0.36 1.16
5 0 -9 -0.26 0.76
-5 0 8 12.6 2.33
-5 0 8 9.81 2.2
-5 0 8 12.93 1.9
5 0 -8 13.4 2.45
5 0 -8 12.26 2.59
5 0 -8 8.87 2.24
-5 0 7 -0.16 0.67
-5 0 7 -0.31 0.69
5 0 -7 0.27 0.76
5 0 -7 -0.34 0.75
5 0 -7 0.16 0.83
-5 0 6 1.27 0.83
-5 0 6 1.74 1.06
5 0 -6 2.75 1.18
5 0 -6 2.36 1.16
5 0 -6 2.93 1.27
-5 0 5 0.04 0.53
-5 0 5 0.21 0.64
5 0 -5 -0.52 0.6
5 0 -5 0.26 0.74
5 0 -5 -0.03 0.66
-5 0 4 49.54 3.04
-5 0 4 41.79 2.61
-5 0 4 38.47 2.96
5 0 -4 52.53 3.51
5 0 -4 43.56 3.2
5 0 -4 39.89 3.13
-5 0 3 0.37 0.48
-5 0 3 0.81 0.56
-5 0 3 0.68 0.72
5 0 -3 0.32 0.64
5 0 -3 0.32 0.56
5 0 -3 0.04 0.5
5 0 -3 0.51 0.62
-5 0 2 8.91 1.46
-5 0 2 8.48 1.69
-5 0 2 7.3 1.63
5 0 -2 10.73 1.94
5 0 -2 7.63 1.59
5 0 -2 9.75 1.89
5 0 -2 7.97 1.57
-5 0 1 0.27 0.54
-5 0 1 0.12 0.6
-5 0 1 0.23 0.62
5 0 -1 0.26 0.6
5 0 -1 0.16 0.63
5 0 -1 -0.07 0.52
5 0 -1 0.01 0.5
-5 0 0 142.52 4.7
-5 0 0 146.48 5.67
-5 0 0 147.3 5.94
5 0 0 194.6 6.57
5 0 0 164.34 5.98
5 0 0 159.64 6.14
5 0 0 177.11 6.4
-5 0 -1 -0.18 0.59
-5 0 -1 0.04 0.58
-5 0 -1 0.02 0.57
5 0 1 0.03 0.68
5 0 1 0.04 0.54
5 0 1 0.55 0.68
5 0 1 -0.19 0.68
-5 0 -2 7.89 1.71
-5 0 -2 8.5 1.5
-5 0 -2 7.03 1.8
5 0 2 7.32 1.71
5 0 2 8.28 1.88
5 0 2 9.33 2.03
5 0 2 7.27 1.94
-5 0 -3 0.01 0.81
-5 0 -3 -0.51 0.58
-5 0 -3 0.51 0.83
5 0 3 0.14 0.83
5 0 3 -0.41 0.61
5 0 3 -0.38 0.63
5 0 3 0.73 0.91
5 0 3 -0.07 0.74
-5 0 -4 179.44 7.07
-5 0 -4 176.17 5.33
-5 0 -4 163.6 7.31
5 0 4 188.53 7.93
5 0 4 235.04 7.66
5 0 4 183.26 7.54
5 0 4 155.21 7.3
5 0 4 217.8 8.62
-5 0 -5 0.29 0.98
-5 0 -5 0.53 1
-5 0 -5 0.35 1.13
5 0 5 -0.06 0.9
5 0 5 -0.03 0.78
5 0 5 -0.55 0.77
5 0 5 -0.24 0.77
5 0 5 -0.14 1.02
-5 0 -6 24.01 3.68
-5 0 -6 19.15 3.37
-5 0 -6 17.21 3.29
5 0 6 22.46 3.91
5 0 6 29.82 3.07
5 0 6 25.92 4.02
5 0 6 21.47 3.79
5 0 6 30.22 4.55
-5 0 -7 -0.03 1.33
-5 0 -7 -0.29 1.17
-5 0 -7 -0.52 1.23
5 0 7 0.59 1.12
5 0 7 -0.02 1.11
5 0 7 0.08 0.97
5 0 7 -0.44 1.02
-5 0 -8 10.78 3.05
-5 0 -8 7.55 2.81
5 0 8 12.55 3.31
5 0 8 9.07 2.68
5 0 8 6.23 2.47
5 0 8 12.64 3.32
-5 0 -9 0.23 1.67
-5 0 -9 0.41 1.48
5 0 9 -0.38 1.39
5 0 9 0.71 1.41
5 0 9 1.1 1.62
5 0 9 -0.84 1.15
-5 0 -10 5.12 2.72
-5 0 -10 4.54 2.49
5 0 10 4.46 2.6
5 0 10 2.83 2.06
5 0 10 2.57 2.19
-5 0 -11 -0.91 1.84
-5 0 -11 0.7 2.16
5 0 11 -0.29 1.77
5 0 11 0.09 1.79
5 0 11 0.07 1.67
-5 0 -12 -0.73 2.27
-5 0 -12 2.06 2.24
5 0 12 0.45 2.54
5 0 12 -0.3 1.79
5 0 12 0.65 2.23
-5 0 -13 -0.03 2.41
-5 0 -13 1.08 2.2
5 0 13 1.25 2.74
5 0 13 2.03 2.29
-5 1 16 -0.8 2.05
-5 1 16 2.31 2.57
5 -1 -16 1.01 2.55
5 -1 -16 0.69 2.32
5 1 -16 -0.53 2.48
-5 -1 15 0.29 2.61
-5 1 15 1.65 2.08
-5 1 15 2.1 2.32
5 -1 -15 0.72 1.88
5 -1 -15 0.04 2.03
5 1 -15 0.7 2.03
-5 -1 14 21.92 4.26
-5 1 14 28.06 5.54
-5 1 14 17.97 4.4
5 -1 -14 18.48 4.56
5 -1 -14 13.66 3.81
5 1 -14 17.81 4.58
-5 -1 13 -0.44 1.28
-5 1 13 -1.19 1.33
-5 1 13 0.2 1.5
5 -1 -13 0 1.8
5 -1 -13 -0.61 1.73
5 1 -13 -0.48 1.74
-5 -1 12 1.12 1.37
-5 -1 12 2.83 1.64
-5 1 12 3.18 2.02
-5 1 12 4.1 2.24
5 -1 -12 2.59 2.29
5 -1 -12 3.62 2.25
5 1 -12 1.58 2.06
-5 -1 11 1.41 1.29
-5 -1 11 2.08 1.44
-5 1 11 3.01 1.85
-5 1 11 1.27 1.5
-5 1 11 2.11 1.38
5 -1 -11 0.8 1.43
5 -1 -11 3.03 1.85
5 -1 -11 1.33 1.63
5 1 -11 0.75 1.45
5 1 -11 1.19 1.56
-5 -1 10 35.81 3.52
-5 -1 10 32.34 3.43
-5 1 10 38.54 4.26
-5 1 10 34.5 4.11
-5 1 10 30.42 3.27
5 -1 -10 35.96 5.39
5 -1 -10 29.46 4.36
5 -1 -10 33.3 4.86
5 1 -10 32.03 3.82
5 1 -10 28.48 3.49
-5 -1 9 2.69 1.29
-5 -1 9 3.43 1.48
-5 1 9 2.67 1.56
-5 1 9 1.43 1.32
-5 1 9 3.11 1.35
5 -1 -9 3.31 1.7
5 -1 -9 2.05 1.48
5 1 -9 2.35 1.23
5 1 -9 2.89 1.48
5 1 -9 4.96 1.79
-5 -1 8 63.01 3.68
-5 -1 8 48.55 3.7
-5 1 8 58.15 4.53
-5 1 8 51.49 4.36
-5 1 8 46.39 3.65
5 -1 -8 47.06 4.11
5 -1 -8 50.4 4.43
5 1 -8 54.44 3.69
5 1 -8 45.9 3.88
5 1 -8 45.2 3.86
-5 -1 7 0.35 0.62
-5 -1 7 0.21 0.69
-5 1 7 1.06 1.07
-5 1 7 0.22 0.81
5 -1 -7 1.15 1.03
5 -1 -7 1.3 1.1
5 -1 -7 0.12 0.98
5 1 -7 0.11 0.77
5 1 -7 0.5 0.88
5 1 -7 0.29 0.8
5 1 -7 1.45 0.98
-5 -1 6 119.16 5.96
-5 -1 6 135.83 4.17
-5 -1 6 118.86 5.15
-5 1 6 98.39 5.34
5 -1 -6 108.45 5.68
5 -1 -6 105.2 5.43
5 -1 -6 104.86 5.65
5 1 -6 135.13 5.64
5 1 -6 106.11 5.23
5 1 -6 113.8 5.43
-5 -1 5 84.78 4.84
-5 -1 5 91.27 2.93
-5 -1 5 76.64 4
-5 1 5 80.85 4.55
-5 1 5 74.83 4.45
5 -1 -5 77.19 4.65
5 -1 -5 81.5 4.58
5 -1 -5 78.56 4.69
5 1 -5 90.62 4.62
5 1 -5 72.62 4.17
5 1 -5 79.31 4.38
-5 -1 4 -0.01 0.8
-5 -1 4 0.34 0.37
-5 -1 4 0.38 0.64
-5 1 4 0.01 0.62
-5 1 4 -0.22 0.58
-5 1 4 -0.36 0.61
5 -1 -4 -0.45 0.55
5 -1 -4 -0.11 0.67
5 -1 -4 -0.27 0.53
5 1 -4 -0.11 0.68
5 1 -4 -0.13 0.63
5 1 -4 0.08 0.6
5 1 -4 0.24 0.47
-5 -1 3 6.1 1.6
-5 -1 3 6.31 0.81
-5 -1 3 5.13 1.3
-5 1 3 6.63 1.62
-5 1 3 5.96 1.56
-5 1 3 5.42 1.47
5 -1 -3 4.35 1.42
5 -1 -3 6.68 1.49
5 -1 -3 -0.21 0.54
5 1 -3 5.28 1.47
5 1 -3 5.13 1.33
5 1 -3 7.65 1.69
5 1 -3 5.93 1.23
-5 -1 2 20.56 2.3
-5 -1 2 19.93 2.07
-5 1 2 19.4 2.16
-5 1 2 20.79 2.23
5 -1 -2 23.23 2.51
5 -1 -2 21 2.17
5 -1 -2 4.5 1.32
5 1 -2 26.57 2.63
5 1 -2 20.53 2.22
5 1 -2 19.17 2.12
5 1 -2 23.65 2.19
-5 -1 1 32.6 2.82
-5 -1 1 41.66 3.2
-5 -1 1 35.4 2.79
-5 1 1 41.7 1.66
-5 1 1 33.71 2.79
-5 1 1 34.36 2.79
5 -1 -1 41.48 3.19
5 -1 -1 32.45 2.62
5 -1 -1 29.52 2.66
5 -1 -1 35.93 3.06
5 1 -1 44.99 3.43
5 1 -1 39.28 3.04
5 1 -1 11.51 1.98
5 1 -1 44.77 3.15
-5 -1 0 33.07 2.89
-5 -1 0 38.16 3.04
-5 -1 0 35.76 2.92
-5 1 0 31.09 1.6
-5 1 0 35.51 2.91
-5 1 0 37.23 2.98
5 -1 0 42 3.13
5 -1 0 39.64 2.89
5 -1 0 20.94 2.28
5 -1 0 31.99 2.95
5 1 0 47.73 3.6
5 1 0 37.3 3.02
5 1 0 0.19 0.45
5 1 0 44.68 3.32
-5 -1 -1 5.38 1.62
-5 -1 -1 6.62 1.64
-5 -1 -1 4.83 1.43
-5 1 -1 5.57 1.08
-5 1 -1 4.48 1.41
-5 1 -1 5.8 1.52
5 -1 1 6.87 1.62
5 -1 1 6.75 1.59
5 -1 1 0.1 0.5
5 -1 1 8.06 1.96
5 1 1 5.47 1.33
5 1 1 7.01 1.74
5 1 1 5.02 1.51
5 1 1 5.49 1.57
5 1 1 4.31 1.47
-5 -1 -2 41.75 3.53
-5 -1 -2 51.97 3.57
-5 -1 -2 52.92 3.87
-5 1 -2 49.33 2.78
-5 1 -2 54.63 3.81
-5 1 -2 56.37 3.85
5 -1 2 64.17 3.77
5 -1 2 62.63 3.84
5 -1 2 46.39 3.59
5 -1 2 61.28 4.31
5 1 2 56.96 3.68
5 1 2 68.86 4.48
5 1 2 58.21 4.08
5 1 2 52.05 3.98
5 1 2 67.23 4.61
-5 -1 -3 20.59 3.2
-5 -1 -3 20.87 2.44
-5 -1 -3 22.13 3.3
-5 1 -3 20.5 2.12
-5 1 -3 18.44 2.81
-5 1 -3 22 2.68
5 -1 3 25.62 2.47
5 -1 3 23.47 2.57
5 -1 3 20.38 2.55
5 -1 3 25.44 3.76
5 1 3 18.3 2.75
5 1 3 30.11 3.15
5 1 3 21.73 3.29
5 1 3 14.11 2.64
5 1 3 20.38 3.23
-5 -1 -4 8.71 2.29
-5 -1 -4 13.28 2.53
-5 -1 -4 12.16 2.58
-5 1 -4 11.33 2.15
-5 1 -4 7.29 1.93
5 -1 4 14.02 2.28
5 -1 4 9.84 2.17
5 -1 4 10.11 2.26
5 -1 4 16.36 3.06
5 1 4 11.4 2.46
5 1 4 15.09 2.83
5 1 4 13.02 2.77
5 1 4 8.17 2.27
5 1 4 15.78 3.18
-5 -1 -5 1.79 1.4
-5 -1 -5 2.51 1.34
-5 -1 -5 0.74 1.13
-5 -1 -5 1.28 1.52
-5 1 -5 3.97 1.54
-5 1 -5 2.24 1.39
-5 1 -5 2.4 1.45
5 -1 5 4.16 1.35
5 -1 5 3.19 1.41
5 -1 5 2.31 1.58
5 -1 5 1.88 1.26
5 1 5 3.69 1.63
5 1 5 2.72 1.48
5 1 5 2.67 1.51
5 1 5 2.15 1.4
5 1 5 5.21 2.06
-5 -1 -6 -0.56 1.16
-5 -1 -6 -0.1 1.12
-5 -1 -6 0.63 1.27
-5 -1 -6 0.55 1.24
-5 1 -6 0.15 1.17
-5 1 -6 0.77 1.32
5 -1 6 0.17 0.98
5 -1 6 0.34 1.13
5 -1 6 1.6 1.34
5 1 6 1.46 1.51
5 1 6 0.54 1.13
5 1 6 0.43 1.19
5 1 6 0.57 1.2
5 1 6 0.6 1.29
-5 -1 -7 0.08 1.53
-5 -1 -7 -1.04 1.12
-5 -1 -7 0.03 1.26
-5 -1 -7 0.31 1.44
-5 1 -7 0.87 1.36
-5 1 -7 0.67 1.39
5 -1 7 0.55 1.07
5 -1 7 1.01 1.4
5 -1 7 -0.79 0.95
5 1 7 2.08 1.69
5 1 7 -0.33 1.12
5 1 7 -1.6 0.8
5 1 7 0.31 1.02
5 1 7 -0.24 1.02
-5 -1 -8 4.92 2.52
-5 -1 -8 1.68 1.41
-5 1 -8 4.45 2.24
5 -1 8 0.92 1.4
5 -1 8 1.98 1.69
5 1 8 0.18 1.52
5 1 8 2.51 1.66
5 1 8 2.43 1.87
5 1 8 5.61 2.29
-5 -1 -9 0.13 1.51
-5 -1 -9 1.87 2.16
-5 1 -9 2.05 1.86
5 -1 9 3.09 2.35
5 -1 9 0.69 1.44
5 -1 9 0.73 1.56
5 1 9 0.12 1.55
5 1 9 1.33 1.8
5 1 9 4 2.35
-5 -1 -10 1.42 2.08
-5 -1 -10 -0.19 1.83
-5 1 -10 -0.42 1.92
5 -1 10 1.57 1.89
5 -1 10 1.12 1.61
5 -1 10 0.4 1.49
5 1 10 0.02 1.84
5 1 10 -0.49 1.46
5 1 10 0.01 1.55
-5 -1 -11 5.3 3.13
-5 -1 -11 2.62 2.47
-5 1 -11 4.63 2.8
5 -1 11 2.69 2.3
5 -1 11 5.92 2.64
5 1 11 5.58 3.15
5 1 11 8.25 3.53
5 1 11 5.29 3.02
-5 -1 -12 -0.09 2.18
-5 -1 -12 -0.19 2.4
-5 1 -12 0.33 2.49
-5 1 -12 1.61 2.57
5 -1 12 2.05 2.36
5 1 12 0.87 2.56
5 1 12 -1.57 1.78
5 1 12 -0.33 2.06
-5 -1 -13 2.42 2.64
-5 -1 -13 1.16 2.52
-5 1 -13 1.45 2.75
5 1 13 -0.77 2.61
5 1 13 -0.48 2.11
5 1 13 2.08 2.39
-5 2 16 0.48 2.41
-5 2 16 2.73 2.97
5 -2 -16 0.16 2.53
5 -2 -16 0.62 2.46
-5 2 15 5.08 3.25
-5 2 15 4.97 3.11
5 -2 -15 -0.21 2.41
5 -2 -15 1.13 2.3
-5 2 14 1.23 2.08
-5 2 14 0.5 2.25
5 -2 -14 1.87 2.12
5 -2 -14 1.52 2
5 2 -14 4.97 2.71
-5 2 13 13.31 4.01
-5 2 13 17.16 4.45
5 -2 -13 10.48 3.96
5 -2 -13 8.71 3.05
5 2 -13 12.74 3.59
-5 2 12 -0.62 1.47
-5 2 12 1.14 1.91
-5 2 12 0.73 1.64
5 -2 -12 0.95 2.06
5 -2 -12 1.01 1.59
5 2 -12 1.48 1.85
-5 2 11 14.99 3.84
-5 2 11 18.36 3.99
-5 2 11 14.91 3.31
5 -2 -11 19.43 4.47
5 -2 -11 12.99 3.21
5 -2 -11 13.18 3.52
5 2 -11 14.4 3.26
-5 2 10 81.26 6.57
-5 2 10 61.86 5.58
-5 2 10 57.66 5.13
5 -2 -10 62.24 5.84
5 -2 -10 65.98 5.56
5 -2 -10 65.36 5.98
5 2 -10 58.55 4.98
5 2 -10 62.79 4.8
-5 2 9 9.2 2.8
-5 2 9 9.41 2.73
-5 2 9 7.68 2.37
5 -2 -9 9.62 2.84
5 -2 -9 5.71 2.15
5 -2 -9 7.01 2.36
5 2 -9 7.59 2.23
5 2 -9 9.49 2.21
-5 -2 8 3.66 1.91
-5 -2 8 4.96 1.37
-5 2 8 2.96 1.66
-5 2 8 5.51 1.92
-5 2 8 3.2 1.53
5 -2 -8 3.54 1.72
5 -2 -8 4.96 1.81
5 -2 -8 3.23 1.84
5 2 -8 6.24 1.69
5 2 -8 3.4 1.54
5 2 -8 4.58 1.62
-5 -2 7 0.29 0.98
-5 -2 7 -0.15 0.59
-5 2 7 0.14 1.01
-5 2 7 -0.34 0.88
5 -2 -7 0.15 1.1
5 -2 -7 -0.08 0.84
5 -2 -7 -0.7 0.72
5 2 -7 -0.28 0.83
5 2 -7 -0.89 0.73
5 2 -7 0.13 0.75
-5 -2 6 -0.36 0.96
-5 -2 6 -0.4 0.47
-5 2 6 0.41 0.93
-5 2 6 0.53 0.77
5 -2 -6 -0.06 0.97
5 -2 -6 0.73 0.93
5 -2 -6 0.91 1.09
5 2 -6 -0.14 0.81
5 2 -6 -0.35 0.76
5 2 -6 0.28 0.67
-5 -2 5 8.22 2.24
-5 -2 5 6.97 1.34
-5 2 5 6.94 2.05
-5 2 5 10.09 2.24
-5 2 5 6.62 1.76
5 -2 -5 5.66 1.82
5 -2 -5 6.66 1.7
5 -2 -5 7.28 1.93
5 2 -5 7.17 1.84
5 2 -5 6.58 1.61
5 2 -5 6.99 1.6
5 2 -5 8.12 1.33
-5 -2 4 82.29 5.24
-5 -2 4 84.12 3.54
-5 2 4 81.47 5.14
-5 2 4 79.26 4.59
-5 2 4 82.42 4.66
5 -2 -4 76.05 5.06
5 -2 -4 87.28 4.89
5 -2 -4 81.45 4.31
5 2 -4 101.59 5.31
5 2 -4 86.14 4.33
5 2 -4 77.49 4.05
5 2 -4 96.41 3.72
-5 -2 3 384.9 10.92
-5 -2 3 434.17 11.62
-5 -2 3 378.6 7.52
-5 2 3 387.01 10.93
-5 2 3 397.86 9.72
-5 2 3 385.74 9.49
5 -2 -3 370.65 4.64
5 -2 -3 376.88 10.67
5 -2 -3 408.7 9.74
5 -2 -3 375.59 8.57
5 -2 -3 376.96 9.7
5 2 -3 506.54 11.86
5 2 -3 406.84 9.24
5 2 -3 391.69 8.94
5 2 -3 499.01 9.31
-5 -2 2 20.65 3.1
-5 -2 2 25.83 3.08
-5 -2 2 24.1 2.11
-5 2 2 21.23 3.19
-5 2 2 25.52 2.55
-5 2 2 29.07 2.69
5 -2 -2 27.77 2.93
5 -2 -2 25.41 2.36
5 -2 -2 24.68 2.28
5 -2 -2 22.97 2.47
5 2 -2 30.89 3.15
5 2 -2 25.6 2.5
5 2 -2 24.68 2.43
5 2 -2 32.98 2.77
-5 -2 1 160.66 7.08
-5 -2 1 176.9 7.39
-5 -2 1 172.85 5.63
-5 2 1 170.37 6.13
-5 2 1 178.53 6.17
5 -2 -1 171.88 6.87
5 -2 -1 173.07 5.32
5 -2 -1 167.15 5.28
5 -2 -1 177.52 6.41
5 2 -1 188.75 4.1
5 2 -1 202.67 7.88
5 2 -1 190.49 6.62
5 2 -1 163.49 6.12
5 2 -1 216.49 7.24
-5 -2 0 7.64 2.07
-5 -2 0 9.29 2.34
-5 -2 0 9.66 1.84
-5 2 0 11.54 2.05
-5 2 0 9.72 1.82
5 -2 0 11.13 2.17
5 -2 0 10.19 1.26
5 -2 0 11.73 1.8
5 -2 0 9.2 1.85
5 2 0 12.95 1.55
5 2 0 11.74 2.48
5 2 0 11.25 2.19
5 2 0 7.76 1.78
5 2 0 11.01 2.28
-5 -2 -1 43.47 3.91
-5 -2 -1 50.5 4.17
-5 -2 -1 53.42 3.61
-5 2 -1 51.83 3.58
-5 2 -1 45.04 3.25
5 -2 1 52.12 3.66
5 -2 1 54.88 3.07
5 -2 1 49.75 3.58
5 2 1 60.02 3.41
5 2 1 61.6 4.72
5 2 1 47.77 3.7
5 2 1 47.84 3.71
5 2 1 56.51 4.33
-5 -2 -2 73.57 5.24
-5 -2 -2 76.87 5.12
-5 -2 -2 75.17 4.57
-5 2 -2 74.12 4.39
5 -2 2 82.03 4.44
5 -2 2 83.98 3.86
5 -2 2 81.42 4.67
5 2 2 96.75 4.8
5 2 2 100.65 6.09
5 2 2 85.91 5.22
5 2 2 72 4.76
5 2 2 106.24 6.15
-5 -2 -3 0.72 1.23
-5 -2 -3 1.42 1.31
-5 -2 -3 0.59 0.95
-5 2 -3 0.94 1.05
5 -2 3 0.74 0.83
5 -2 3 0.73 0.77
5 -2 3 1.75 1.21
5 -2 3 1.47 1.24
5 2 3 1.73 1.15
5 2 3 1.5 1.3
5 2 3 1.62 1.26
5 2 3 -0.22 0.64
5 2 3 1.52 1.18
-5 -2 -4 19.53 3.47
-5 -2 -4 27.1 4.08
-5 -2 -4 22.32 3.47
-5 -2 -4 24.1 3.81
-5 2 -4 18.32 2.89
-5 2 -4 19.15 2.92
5 -2 4 26.1 2.47
5 -2 4 22.91 3.73
5 2 4 26.78 3.22
5 2 4 28.81 4.26
5 2 4 26.19 3.88
5 2 4 0 0.77
5 2 4 25.59 4.04
-5 -2 -5 13.33 3.2
-5 -2 -5 14.87 3.21
-5 -2 -5 16.61 3.18
-5 -2 -5 10.17 2.7
-5 2 -5 12.01 2.56
-5 2 -5 12.66 2.58
5 -2 5 15.54 2.44
5 -2 5 17.15 3.37
5 2 5 16.61 3.25
5 2 5 15.97 3.32
5 2 5 15.68 3.31
5 2 5 12.42 2.89
5 2 5 19.39 3.83
-5 -2 -6 -0.65 1.05
-5 -2 -6 -0.38 1.31
-5 -2 -6 0.16 1.14
-5 -2 -6 -0.05 1.25
-5 2 -6 -1.09 1.09
-5 2 -6 -0.33 0.99
5 -2 6 0.7 1.16
5 2 6 0.4 1.24
5 2 6 -0.22 1.17
5 2 6 -0.24 1.31
5 2 6 -0.15 1.05
5 2 6 -0.86 1
-5 -2 -7 0.84 1.37
-5 -2 -7 1 1.64
-5 -2 -7 0.14 1.36
-5 -2 -7 0.76 1.72
-5 2 -7 1.66 1.57
-5 2 -7 1.26 1.68
5 -2 7 0.91 1.43
5 2 7 0.74 1.48
5 2 7 0.3 1.3
5 2 7 0.69 1.65
5 2 7 0.92 1.65
-5 -2 -8 11.85 3.4
-5 -2 -8 9.28 2.97
-5 -2 -8 11.4 3.08
-5 2 -8 10 2.99
5 -2 8 17.8 3.91
5 2 8 16.59 3.96
5 2 8 14.03 3.39
5 2 8 17.47 4.2
5 2 8 17.69 4.05
-5 -2 -9 9.98 3.51
-5 -2 -9 9.09 3.12
-5 2 -9 8.89 3.06
5 -2 9 11.43 3.19
5 2 9 13.77 3.67
5 2 9 12.8 3.44
5 2 9 13.21 4.05
5 2 9 11 3.38
-5 -2 -10 1.81 2.21
-5 -2 -10 1.07 2
-5 2 -10 1.97 2.29
5 2 10 0.96 2.21
5 2 10 3.53 2.65
5 2 10 -0.09 1.88
-5 -2 -11 0.55 2.5
-5 -2 -11 -1.03 1.72
-5 2 -11 -1.3 2.17
5 2 11 1.91 2.53
5 2 11 0.45 2.36
5 2 11 0.33 1.96
-5 -2 -12 -1.61 2.17
-5 -2 -12 -0.57 1.97
-5 2 -12 1.48 3.06
5 2 12 -0.62 2.51
5 2 12 -0.73 2.25
5 2 12 0.46 2.46
-5 3 15 0.55 2.55
-5 3 15 1.22 2.84
5 -3 -15 -0.66 1.72
5 -3 -15 -1.66 2.07
5 -3 -15 -1.13 1.91
-5 3 14 0.6 2.39
-5 3 14 -0.41 2.38
-5 3 14 0.78 2.22
5 -3 -14 0.69 1.93
5 -3 -14 -0.76 2.13
5 -3 -14 -0.56 1.83
-5 3 13 3.66 2.81
-5 3 13 0.97 2.14
-5 3 13 5.4 2.75
5 -3 -13 2.58 2.18
5 -3 -13 2.87 2.45
5 -3 -13 0.91 1.88
-5 3 12 32.37 5.99
-5 3 12 34.22 5.92
-5 3 12 34.26 5.71
5 -3 -12 25.18 4.85
5 -3 -12 23.14 5.13
5 -3 -12 22.17 4.41
-5 3 11 28.82 5.28
-5 3 11 35.12 5.58
-5 3 11 36.66 5.74
5 -3 -11 31.34 5.04
5 -3 -11 32.53 5.98
5 -3 -11 33.63 5.2
-5 3 10 4.31 2.3
-5 3 10 4.51 2.24
-5 3 10 1.23 1.89
5 -3 -10 6.49 2.39
5 -3 -10 4.78 2.36
5 -3 -10 3.81 1.96
5 3 -10 6.33 1.91
-5 3 9 337.42 13.58
-5 3 9 274.79 11.43
-5 3 9 281.69 12
5 -3 -9 282.06 11.27
5 -3 -9 254.39 11.7
5 -3 -9 252.65 9.97
5 3 -9 281.02 8.42
-5 -3 8 100.6 7.33
-5 3 8 86.23 6.78
-5 3 8 95.17 6.54
-5 3 8 83.54 6.47
5 -3 -8 90.33 6.74
5 -3 -8 77.97 5.34
5 3 -8 84.15 4.47
-5 -3 7 86.09 6.58
-5 3 7 73.06 5.5
-5 3 7 78.67 6.17
5 -3 -7 64.97 5.56
5 -3 -7 69.36 4.75
5 3 -7 73.89 3.92
-5 -3 6 -0.58 1.15
-5 3 6 -0.49 1.01
-5 3 6 0.66 1.23
5 -3 -6 -0.02 0.9
5 -3 -6 0.08 0.93
5 3 -6 0.73 1.23
5 3 -6 0.46 0.66
-5 -3 5 29.11 4.31
-5 3 5 22.25 3.92
-5 3 5 22.98 3.36
5 -3 -5 18.3 3.32
5 -3 -5 20.27 2.4
5 3 -5 26.51 3.25
5 3 -5 24.57 2.19
-5 -3 4 0.31 1.21
-5 -3 4 0.49 1.14
-5 3 4 0.08 1.08
-5 3 4 0.93 0.94
5 -3 -4 0.07 0.86
5 -3 -4 0.34 0.73
5 3 -4 -0.38 1.08
5 3 -4 0.82 0.7
-5 -3 3 -0.72 0.88
-5 -3 3 -0.57 1.06
-5 3 3 0.07 1.05
-5 3 3 0.28 0.87
5 -3 -3 0.12 0.72
5 -3 -3 0.72 0.82
5 3 -3 0.77 1.23
5 3 -3 0.05 0.81
5 3 -3 0.15 0.57
5 3 -3 -0.55 0.81
-5 -3 2 4.84 1.84
-5 -3 2 5.16 1.91
-5 3 2 5.32 1.98
-5 3 2 3.96 1.4
5 -3 -2 5.17 1.67
5 3 -2 5.35 1.95
5 3 -2 5.09 1.47
5 3 -2 4.84 1.31
5 3 -2 5.01 1.67
-5 -3 1 46.29 4.45
-5 -3 1 51.67 4.76
-5 3 1 47.13 4.54
-5 3 1 45.74 3.44
5 -3 -1 43.61 3.19
5 3 -1 55.45 4.73
5 3 -1 49.06 3.67
5 3 -1 40.86 3.13
5 3 -1 52.75 4.17
-5 -3 0 1.63 1.42
-5 -3 0 3.34 1.81
-5 -3 0 2.08 1
-5 3 0 3.01 1.24
5 3 0 2.77 1.88
5 3 0 2.24 1.21
5 3 0 1.45 1.05
5 3 0 4.32 1.76
-5 -3 -1 116.7 7.15
-5 -3 -1 122.41 7.25
-5 -3 -1 132.32 5.19
5 3 1 153.01 8.11
5 3 1 142.02 6.64
5 3 1 116.11 5.8
5 3 1 156.57 7.74
-5 -3 -2 104.31 6.98
-5 -3 -2 118.52 7.35
-5 -3 -2 115.59 5.37
5 3 2 142.47 6.63
5 3 2 150.08 8.3
5 3 2 122.28 6.56
5 3 2 96.86 5.6
5 3 2 142.5 7.81
-5 -3 -3 389.47 13.55
-5 -3 -3 402.4 13.5
-5 -3 -3 437 11.12
-5 3 -3 436.27 9.7
5 3 3 535.52 12.82
5 3 3 490.66 15.11
5 3 3 478.22 13.38
5 3 3 358.77 11.28
5 3 3 523.8 15.31
-5 -3 -4 16.54 3.59
-5 -3 -4 13.26 3.57
-5 -3 -4 14.65 2.84
-5 3 -4 15.37 2.45
5 3 4 21.54 3.54
5 3 4 18.24 3.79
5 3 4 14.1 3.23
5 3 4 14.7 3.11
5 3 4 16.01 3.6
-5 -3 -5 56.38 5.78
-5 -3 -5 55.6 5.54
-5 -3 -5 49.04 4.45
-5 3 -5 47.74 3.72
5 3 5 65.39 5.43
5 3 5 63.74 5.87
5 3 5 59.58 5.55
5 3 5 62.35 6.08
-5 -3 -6 7.91 3.01
-5 -3 -6 8.38 3.13
-5 -3 -6 11.52 3.05
-5 3 -6 6.08 1.94
5 3 6 10.27 2.83
5 3 6 11.82 3.4
5 3 6 14.19 3.58
5 3 6 10.01 3.13
-5 -3 -7 -0.68 1.42
-5 -3 -7 -0.96 1.61
-5 -3 -7 -0.48 1.26
5 3 7 -0.01 1.31
5 3 7 0.4 1.57
5 3 7 0.27 1.44
5 3 7 1.21 1.87
-5 -3 -8 -0.24 1.7
-5 -3 -8 0.02 2
-5 -3 -8 1.37 1.66
5 3 8 0.23 1.69
5 3 8 0.05 1.76
5 3 8 -0.8 1.78
5 3 8 0.59 1.51
-5 -3 -9 0.29 1.81
-5 -3 -9 0.4 2.38
-5 -3 -9 1.6 1.78
5 3 9 0.21 1.78
5 3 9 0.04 1.95
5 3 9 0.43 2.19
5 3 9 0.1 1.97
-5 -3 -10 0.38 2.08
-5 -3 -10 -0.06 2.49
-5 -3 -10 0.06 1.64
5 3 10 0.73 2.19
5 3 10 -1.91 1.74
5 3 10 0.24 2.49
5 3 10 -0.2 1.9
-5 -3 -11 0.89 2.43
-5 -3 -11 0.85 1.98
5 3 11 -0.14 2.18
5 3 11 0.23 2.25
5 3 11 -1.07 2.23
-5 4 13 12.27 4.56
-5 4 13 14.23 5.04
-5 4 13 11.07 4.01
5 -4 -13 5.57 3
-5 4 12 17.31 4.8
-5 4 12 13.73 4.46
-5 4 12 14.58 4.32
5 -4 -12 12.42 4.13
-5 4 11 9.05 3.6
-5 4 11 11.37 3.92
-5 4 11 9.21 3.51
5 -4 -11 5.98 2.87
-5 4 10 6.86 3.13
-5 4 10 8.49 3.41
-5 4 10 5.94 2.89
5 -4 -10 6.85 3.03
-5 -4 9 -0.67 1.65
-5 4 9 -1.18 1.65
-5 4 9 2.55 2.15
-5 4 9 -0.93 1.38
5 -4 -9 1.3 1.62
-5 -4 8 -0.34 1.67
-5 4 8 -0.66 1.77
-5 4 8 -0.71 1.33
-5 4 8 0.51 1.81
5 -4 -8 0.29 1.36
-5 -4 7 19.78 4.23
-5 4 7 17.62 3.97
-5 4 7 26.1 4.42
-5 4 7 18.26 4.11
5 -4 -7 19.19 4.02
-5 -4 6 26.69 4.85
-5 4 6 27.27 4.73
-5 4 6 23.39 4.51
5 -4 -6 19.5 4.23
-5 -4 5 19.49 4.09
-5 -4 5 16.96 3.74
-5 4 5 17.35 3.75
5 -4 -5 16.46 3.67
5 4 -5 24.88 4.16
-5 -4 4 7.72 2.83
-5 -4 4 9.21 2.94
-5 4 4 9.68 2.95
5 -4 -4 9.89 2.7
5 4 -4 8.7 2.65
-5 -4 3 21.98 4.23
-5 -4 3 19.08 3.86
-5 4 3 15.08 3.37
5 -4 -3 16.99 3.26
5 4 -3 19.19 3.87
-5 -4 2 5.43 2.46
-5 -4 2 6.28 2.71
-5 4 2 4.92 2.39
5 -4 -2 3.63 1.69
5 4 -2 3.58 2.07
5 4 -2 6.8 2.23
-5 -4 1 134.23 8.4
-5 -4 1 131.5 8.38
-5 4 1 138.49 8.48
5 4 -1 174.44 9.29
5 4 -1 106.28 6.65
5 4 -1 166.26 8.13
-5 -4 0 110.76 7.72
-5 -4 0 106.64 7.57
-5 4 0 105.58 7.48
5 4 0 127.76 8.16
5 4 0 90.21 4.68
5 4 0 142.48 7.95
-5 -4 -1 44.78 5.19
-5 -4 -1 44.5 5.26
5 4 1 57.76 5.78
5 4 1 39.9 3.46
5 4 1 62.06 5.59
-5 -4 -2 1.03 1.54
-5 -4 -2 1.34 1.77
5 4 2 0.25 1.52
5 4 2 1.02 1.17
5 4 2 1.67 1.71
-5 -4 -3 10.73 3.19
-5 -4 -3 10.8 3.55
5 4 3 15.23 3.88
5 4 3 20.33 4.34
-5 -4 -4 15.51 3.82
-5 -4 -4 15.47 3.99
5 4 4 16.25 4.29
5 4 4 17.96 3.91
5 4 4 17 4.16
-5 -4 -5 4.85 2.61
-5 -4 -5 2.06 2.28
5 4 5 6.64 3.13
5 4 5 4.59 2.41
5 4 5 7.99 3.1
-5 -4 -6 14.81 3.96
-5 -4 -6 16.03 4.27
5 4 6 16.41 4.26
5 4 6 24.5 4.92
5 4 6 15.32 4.03
-5 -4 -7 5.91 3.01
-5 -4 -7 9.53 3.71
5 4 7 6.27 3.15
5 4 7 7.12 3.36
5 4 7 8.08 3.5
-5 -4 -8 1.18 2.25
-5 -4 -8 6.05 3.29
5 4 8 5.72 3.16
5 4 8 2.98 2.74
5 4 8 0.6 2.26
-5 -4 -9 1.5 2.51
-5 -4 -9 -0.58 2.5
5 4 9 5.01 3.4
5 4 9 5.43 3.54
5 4 9 4.13 3.04
-5 5 11 -1.24 2.39
-5 5 11 -0.06 2.14
5 -5 -11 -0.76 2.02
-5 5 10 -0.11 2.47
-5 5 10 2.02 2.53
5 -5 -10 -0.6 1.77
-5 -5 9 0.35 2.27
-5 5 9 0.08 2.17
-5 5 9 0.93 2.29
5 -5 -9 0.27 1.83
-5 -5 8 -0.46 1.98
-5 5 8 -0.32 2.07
-5 5 8 0.43 1.89
5 -5 -8 1.09 1.82
-5 -5 7 6.1 3.06
-5 5 7 6.05 3.16
-5 5 7 4.92 2.85
5 -5 -7 3.34 2.48
-5 -5 6 10.57 3.57
-5 5 6 11.96 3.67
-5 5 6 10.52 3.69
5 -5 -6 9.89 3.31
-5 -5 5 -0.26 1.43
-5 -5 5 0.04 1.33
-5 5 5 0.99 1.86
-5 5 5 -0.49 1.58
5 -5 -5 -0.08 1.35
-5 -5 4 2.08 1.77
-5 -5 4 0.53 1.72
-5 5 4 1.12 2.16
-5 5 4 0.85 1.91
5 -5 -4 -0.25 1.28
5 5 -4 0.6 1.91
-5 -5 3 -1.37 1.26
-5 -5 3 -0.38 1.43
-5 5 3 0.32 1.79
5 5 -3 0.26 1.71
-5 -5 2 1.06 1.84
-5 -5 2 0.65 1.64
-5 5 2 0.94 1.83
5 5 -2 4.21 2.65
-5 -5 1 -0.15 1.55
-5 -5 1 0.92 1.81
-5 5 1 -0.73 1.68
5 5 -1 -0.25 1.54
-5 -5 0 2.33 2.11
-5 -5 0 4.22 2.62
-5 5 0 1.92 2.18
5 5 0 5.4 3.02
5 5 0 6.19 2.8
-5 -5 -1 3.58 2.25
-5 -5 -1 4.54 2.68
-5 5 -1 7.96 3.09
5 5 1 6.42 2.86
5 5 1 8.58 3.12
-5 -5 -2 0.72 1.85
-5 -5 -2 -0.85 1.58
-5 5 -2 -1.1 1.62
5 5 2 -0.96 1.71
5 5 2 -0.63 1.74
-5 -5 -3 -0.89 1.57
-5 -5 -3 0.37 1.63
5 5 3 -1.52 1.48
5 5 3 0.87 1.98
-5 -5 -4 -0.49 1.46
-5 -5 -4 -0.27 1.71
5 5 4 -0.8 2.07
5 5 4 -0.34 1.84
-5 -5 -5 0.05 1.9
-5 -5 -5 1.56 2.47
5 5 5 0.9 2.39
5 5 5 1.67 2.21
-5 -5 -6 0.39 2.21
-5 -5 -6 1.65 2.31
5 5 6 0.62 2.28
5 5 6 3.67 3.02
-5 -5 -7 1.26 2.46
-5 -5 -7 -2.16 2.03
5 5 7 0.71 2.19
5 5 7 0.89 2.61
5 -6 -7 1 2.06
-5 -6 6 0.38 2.15
-5 6 6 2.34 2.84
-5 6 6 1.32 2.26
5 -6 -6 0 2.29
-5 -6 5 -0.16 1.71
-5 -6 5 -1.09 1.77
-5 6 5 -0.46 2.41
-5 6 5 1.01 2.46
-5 -6 4 0.62 2.34
-5 -6 4 0.03 1.93
-5 6 4 -0.17 2.29
-5 6 4 -0.42 1.84
-5 -6 3 -0.56 1.9
-5 -6 3 -2.1 1.49
-5 6 3 -0.19 2.16
-5 6 3 0.39 1.99
-5 -6 2 1.09 2.21
-5 -6 2 -0.82 1.78
-5 6 2 -1.79 1.88
-5 6 2 0.92 2.29
5 6 -2 -1.06 1.98
-5 -6 1 0.54 2.1
-5 -6 1 0.11 1.9
-5 6 1 -0.41 2.29
-5 6 1 -1.37 2.03
5 6 -1 0.47 2.64
-5 -6 0 1.06 2.18
-5 -6 0 0.79 2.31
-5 6 0 -0.41 2.14
5 6 0 -0.79 1.96
-5 -6 -1 -0.65 1.83
-5 -6 -1 0.15 2.02
-5 6 -1 -1.79 2.28
5 6 1 0.53 2.69
-5 -6 -2 -1.2 2
-5 -6 -2 0.15 1.92
-5 6 -2 -0.54 2.29
5 6 2 -0.6 1.87
5 6 2 0.9 2.41
-5 -6 -3 5.75 3.21
-5 -6 -3 -0.76 2.12
-5 6 -3 0.89 2.36
5 6 3 0.16 2.34
5 6 3 2.96 2.61
-6 0 17 -0.26 2.04
6 0 -17 -1.02 2.73
6 0 -17 0.56 2.61
-6 0 16 6.9 3
6 0 -16 6.56 3.49
6 0 -16 1.42 2.48
-6 0 15 -0.24 1.5
-6 0 15 0.01 1.63
6 0 -15 -2.01 1.77
6 0 -15 0.61 1.83
-6 0 14 -1.17 1.3
-6 0 14 0.08 1.58
6 0 -14 -0.38 1.73
-6 0 13 0.15 1.28
-6 0 13 -0.58 1.31
6 0 -13 -0.7 1.56
-6 0 12 60.93 5.44
-6 0 12 52.44 5.2
6 0 -12 46.71 5.35
-6 0 11 -0.62 1.05
-6 0 11 0.5 1.17
6 0 -11 0.01 1.17
6 0 -11 -0.31 1.1
6 0 -11 -0.17 1.26
-6 0 10 30.52 3.53
-6 0 10 25.86 3.95
6 0 -10 23.07 3.53
6 0 -10 23.95 3.99
6 0 -10 21.43 3.81
-6 0 9 -0.33 0.86
-6 0 9 0.21 0.94
6 0 -9 -0.23 0.93
6 0 -9 0.52 1.1
6 0 -9 -0.3 1.07
-6 0 8 11.34 2.28
-6 0 8 11.51 2.57
6 0 -8 11.41 2.45
6 0 -8 10.24 2.48
6 0 -8 8.99 2.28
-6 0 7 -0.08 0.63
-6 0 7 0.09 0.79
6 0 -7 0.09 0.91
6 0 -7 0.14 0.94
6 0 -7 0.51 0.89
-6 0 6 10.15 1.83
-6 0 6 8.36 1.98
6 0 -6 10.64 2.28
6 0 -6 8.15 2
6 0 -6 10.3 2.25
-6 0 5 -0.16 0.61
-6 0 5 0.27 0.67
-6 0 5 0.1 0.67
6 0 -5 -0.11 0.7
6 0 -5 -0.39 0.63
6 0 -5 0.34 0.75
-6 0 4 125.53 5.03
-6 0 4 102.36 4.28
-6 0 4 107.51 5.26
6 0 -4 134.34 6.09
6 0 -4 111.74 5.42
6 0 -4 112.24 5.58
-6 0 3 0.03 0.57
-6 0 3 -0.01 0.58
-6 0 3 -0.27 0.7
6 0 -3 -0.12 0.6
6 0 -3 -0.25 0.56
6 0 -3 -0.36 0.53
6 0 -3 -0.58 0.49
-6 0 2 46.75 2.94
-6 0 2 47.74 3.52
6 0 -2 58.6 4.04
6 0 -2 53.06 3.74
6 0 -2 46.53 3.59
6 0 -2 55.89 3.73
-6 0 1 3.8 1.2
-6 0 1 -0.63 0.55
6 0 -1 0.33 0.81
6 0 -1 -0.24 0.69
6 0 -1 0.04 0.63
6 0 -1 -0.7 0.56
-6 0 0 490.82 9.55
-6 0 0 494.8 11.47
6 0 0 673.48 13.46
6 0 0 541.81 11.94
6 0 0 535.24 12.29
6 0 0 612.26 13.06
-6 0 -1 0.09 0.71
-6 0 -1 -0.15 0.75
6 0 1 0.23 0.73
6 0 1 0.09 0.81
6 0 1 -0.03 0.69
6 0 1 0.47 0.81
-6 0 -2 110.73 5.18
-6 0 -2 122.39 4.64
-6 0 -2 112.9 5.99
6 0 2 151.45 6.56
6 0 2 116.85 5.97
6 0 2 106.85 5.99
6 0 2 137.16 6.83
-6 0 -3 -0.81 0.76
-6 0 -3 -0.33 0.74
-6 0 -3 -0.74 0.9
6 0 3 0.89 0.85
6 0 3 -0.27 0.74
6 0 3 0.14 0.85
6 0 3 0.46 1.06
-6 0 -4 14.47 2.76
-6 0 -4 19.57 3.34
6 0 4 18.03 3.27
6 0 4 22.79 3.42
6 0 4 16.85 3.07
6 0 4 16.9 3.22
6 0 4 19.8 3.59
-6 0 -5 -0.71 1.08
-6 0 -5 -0.36 0.95
6 0 5 -0.23 1
6 0 5 0.01 0.91
6 0 5 0.99 1.25
6 0 5 -0.44 0.91
6 0 5 -0.08 1.05
-6 0 -6 1.02 1.44
-6 0 -6 0.26 1.43
-6 0 -6 0.75 1.55
6 0 6 1.12 1.28
6 0 6 0.94 1.16
6 0 6 0.22 1.03
6 0 6 1.06 1.41
6 0 6 0.78 1.49
-6 0 -7 0.87 1.5
-6 0 -7 -1.25 1.17
6 0 7 0.02 1.28
6 0 7 -0.19 1.21
6 0 7 -0.71 1.18
6 0 7 -0.51 1.12
-6 0 -8 4.83 2.4
-6 0 -8 3.45 2.34
6 0 8 3.73 2.17
6 0 8 4.1 2.17
6 0 8 3.93 2.32
6 0 8 2.31 1.95
-6 0 -9 0.46 1.78
-6 0 -9 -0.7 1.61
6 0 9 -1.38 1.33
6 0 9 -0.36 1.51
6 0 9 -1.3 1.55
-6 0 -10 1.19 1.95
-6 0 -10 -0.08 1.95
6 0 10 0.55 2.25
6 0 10 0.38 1.81
6 0 10 0.61 1.77
-6 0 -11 -1.65 2.13
-6 0 -11 0.84 2.4
6 0 11 -0.95 2.13
6 0 11 -1.37 1.66
6 0 11 -1.06 1.67
-6 0 -12 -0.23 2.43
-6 0 -12 0.89 2.43
6 0 12 -0.66 2.21
6 0 12 0.16 2.07
6 0 12 2.71 2.65
-6 1 16 -0.93 1.91
-6 1 16 -0.03 2.01
6 -1 -16 2.21 2.68
6 -1 -16 1.14 2.45
6 1 -16 2.06 2.49
-6 -1 15 0.77 1.84
-6 1 15 -0.23 1.74
-6 1 15 2.66 2.49
6 -1 -15 2.97 2.69
6 -1 -15 1.38 2.58
6 1 -15 3.41 2.4
-6 -1 14 37.34 4.64
-6 1 14 38.72 6.1
-6 1 14 42.9 6.56
6 -1 -14 40.37 6.6
6 -1 -14 34 5.79
6 1 -14 28.98 5.38
-6 -1 13 5.02 2.27
-6 1 13 5.24 2.58
-6 1 13 5.31 2.51
6 -1 -13 5.38 2.7
6 -1 -13 4.48 2.79
6 1 -13 3.14 2.28
-6 -1 12 2.77 1.57
-6 1 12 5.05 2.36
-6 1 12 2.23 1.79
6 -1 -12 7.65 2.9
6 -1 -12 2.19 1.89
6 1 -12 2.94 2.19
-6 -1 11 27.14 4.03
-6 1 11 25.36 4.33
-6 1 11 22.34 4.09
6 -1 -11 21.56 4.01
6 -1 -11 17.4 3.8
6 1 -11 22.37 4.1
-6 -1 10 11.47 2.5
-6 1 10 14.53 3.12
-6 1 10 16.01 3.31
-6 1 10 15.77 2.81
6 -1 -10 12.42 2.96
6 -1 -10 13.02 3.14
6 1 -10 13.27 3.86
6 1 -10 12.9 3.1
6 1 -10 11.31 2.73
-6 -1 9 4.12 1.67
-6 1 9 8.61 2.46
-6 1 9 7.41 2.24
-6 1 9 3.65 1.52
6 -1 -9 3.6 1.75
6 -1 -9 5.12 2.1
6 -1 -9 5.27 2.01
6 1 -9 4.91 1.71
6 1 -9 4.39 2.01
6 1 -9 3.73 1.64
-6 -1 8 1.66 0.97
-6 -1 8 1.67 1.11
-6 1 8 0.9 1.2
-6 1 8 1.99 1.3
6 -1 -8 1.43 1.25
6 -1 -8 1.52 1.35
6 -1 -8 1.87 1.55
6 1 -8 1.38 1.09
6 1 -8 2.6 1.55
6 1 -8 1.85 1.25
-6 -1 7 216.48 8.7
-6 -1 7 234.76 6.08
-6 -1 7 192.18 7.24
-6 1 7 209.13 8.08
-6 1 7 170.08 7.59
6 -1 -7 197.84 8.27
6 -1 -7 171.22 7.57
6 -1 -7 182.34 8.11
6 1 -7 228.41 8.02
6 1 -7 188.02 7.65
6 1 -7 181.3 7.51
-6 -1 6 165.13 7.28
-6 -1 6 177.03 4.69
-6 -1 6 142.85 6.06
-6 1 6 149.06 6.59
-6 1 6 139.33 6.62
6 -1 -6 146.29 6.93
6 -1 -6 142.4 6.59
6 -1 -6 152.83 7.15
6 1 -6 182.34 7.16
6 1 -6 150.15 6.6
6 1 -6 142.3 6.47
-6 -1 5 104.59 5.57
-6 -1 5 104.15 3.24
-6 -1 5 88.55 4.67
-6 1 5 98.66 5.26
-6 1 5 90.56 5.21
6 -1 -5 106.67 5.87
6 -1 -5 89.38 5.04
6 -1 -5 85.87 5.22
6 1 -5 113.53 5.71
6 1 -5 92.67 5.04
6 1 -5 93.64 5.1
6 1 -5 96.44 3.89
-6 -1 4 6.65 1.83
-6 -1 4 9.29 1.18
-6 -1 4 6.2 1.53
-6 1 4 7.32 1.77
-6 1 4 5.26 1.62
6 -1 -4 7.68 2.03
6 -1 -4 5.8 1.57
6 -1 -4 5.5 1.66
6 1 -4 8.81 2.14
6 1 -4 6.2 1.67
6 1 -4 7 1.75
6 1 -4 7.13 1.51
-6 -1 3 17.75 2.82
-6 -1 3 15.35 1.35
-6 -1 3 14.41 2.34
-6 1 3 14.92 2.48
-6 1 3 15.94 2.58
6 -1 -3 14.5 2.63
6 -1 -3 12.86 2.19
6 -1 -3 13.11 2.33
6 1 -3 16.39 2.8
6 1 -3 14.29 2.35
6 1 -3 14.24 2.41
6 1 -3 15.75 1.97
-6 -1 2 1037.7 16.16
-6 -1 2 1062.11 15.83
-6 1 2 1178.39 10.1
-6 1 2 1081.47 16.63
-6 1 2 1058.22 16.92
6 -1 -2 1259.57 18.71
6 -1 -2 1159.44 16.63
6 -1 -2 1166.16 17.72
6 1 -2 1380.73 19.88
6 1 -2 1082.4 16.57
6 1 -2 1244.29 16.73
-6 -1 1 103.7 5.22
-6 -1 1 121.61 5.68
-6 -1 1 106 5.23
-6 1 1 109.25 3.11
-6 1 1 101.64 5.19
-6 1 1 115.3 5.59
6 -1 -1 134.93 6.13
6 -1 -1 120.6 5.41
6 -1 -1 108.8 5.51
6 -1 -1 109.39 5.7
6 1 -1 145.11 6.59
6 1 -1 127.06 5.85
6 1 -1 139.3 6
-6 -1 0 75.96 4.59
-6 -1 0 90.61 4.89
-6 -1 0 87.34 4.87
-6 1 0 76.66 2.87
-6 1 0 75 4.54
-6 1 0 83.09 4.82
6 -1 0 106.59 5.41
6 -1 0 88.03 4.7
6 -1 0 84.51 4.95
6 -1 0 94.59 5.44
6 1 0 105.71 5.77
6 1 0 96.21 5.29
6 1 0 80.74 4.89
6 1 0 100.23 5.43
-6 -1 -1 0.07 0.81
-6 -1 -1 0.44 0.9
-6 -1 -1 -0.04 0.74
-6 1 -1 0.2 0.59
-6 1 -1 -0.1 0.75
6 -1 1 0.46 0.76
6 -1 1 0.03 0.72
6 -1 1 -0.27 0.71
6 -1 1 0.06 0.86
6 1 1 0.43 0.73
6 1 1 -0.09 0.82
6 1 1 0.18 0.83
6 1 1 0.43 0.76
6 1 1 0.06 0.94
-6 -1 -2 79.73 5.08
-6 -1 -2 93.39 5.05
-6 -1 -2 84.79 5.28
-6 1 -2 88.1 3.96
-6 1 -2 84.18 5.15
6 -1 2 104.8 5.3
6 -1 2 96.37 5.16
6 -1 2 86.91 5.33
6 -1 2 87.73 5.58
6 1 2 88.78 4.88
6 1 2 107.88 6.03
6 1 2 92.74 5.6
6 1 2 84.55 5.47
6 1 2 105.62 6.16
-6 -1 -3 3.61 1.61
-6 -1 -3 2.99 1.47
-6 -1 -3 2.96 1.39
-6 1 -3 2.67 1.2
-6 1 -3 2.88 1.37
6 -1 3 4.67 1.59
6 -1 3 3.91 1.53
6 -1 3 2.91 1.44
6 -1 3 7.78 2.39
6 1 3 4.4 1.58
6 1 3 5.45 1.94
6 1 3 4.14 1.64
6 1 3 3.55 1.63
6 1 3 5.27 1.95
-6 -1 -4 0.38 1.19
-6 -1 -4 -0.25 0.89
-6 -1 -4 -0.22 1.03
-6 1 -4 -0.09 0.89
-6 1 -4 0.74 1.17
6 -1 4 -0.41 0.79
6 -1 4 1.02 1.02
6 -1 4 0.34 0.98
6 -1 4 0.3 1.05
6 1 4 0.05 0.89
6 1 4 0 0.98
6 1 4 0.21 0.9
6 1 4 0.7 1.16
6 1 4 0.72 1.17
-6 -1 -5 6.19 2.3
-6 -1 -5 8.35 2.27
-6 -1 -5 6.23 2.14
-6 -1 -5 4.74 2.11
-6 1 -5 6.86 2.05
-6 1 -5 6.49 2.32
-6 1 -5 3.25 1.7
6 -1 5 10.56 2.58
6 -1 5 7.56 2.32
6 -1 5 7.18 2.42
6 1 5 9.93 2.67
6 1 5 10.47 2.7
6 1 5 6.49 2.31
6 1 5 6.35 2.25
6 1 5 7.34 2.47
-6 -1 -6 25.28 4.28
-6 -1 -6 29.85 4.6
-6 -1 -6 20.99 4.02
-6 1 -6 30 3.65
-6 1 -6 22.95 4.04
-6 1 -6 27.86 4.25
6 -1 6 31.65 3.67
6 -1 6 34.81 5.02
6 -1 6 40.01 4.55
6 1 6 29.6 4.59
6 1 6 34.67 3.9
6 1 6 35.21 5.13
6 1 6 27.34 4.61
6 1 6 34.7 5.28
-6 -1 -7 18.28 3.92
-6 -1 -7 17.03 3.79
-6 1 -7 16.21 3.43
-6 1 -7 23.39 4.23
6 -1 7 25.36 4.15
6 -1 7 23.85 4.3
6 1 7 20.44 4.04
6 1 7 29.85 4.45
6 1 7 20.21 3.98
6 1 7 25.7 4.74
-6 -1 -8 2.42 2.22
-6 -1 -8 2.96 2.16
-6 1 -8 1.99 2.12
-6 1 -8 4.33 2.17
6 -1 8 3.03 1.83
6 -1 8 1.84 1.74
6 1 8 2.48 1.9
6 1 8 2.66 2.35
6 1 8 4.07 2.37
-6 -1 -9 1.36 1.98
-6 -1 -9 2.37 2.17
-6 1 -9 0.54 2.57
-6 1 -9 2.68 2.22
6 -1 9 0.04 1.27
6 -1 9 -0.99 1.14
6 1 9 -0.24 1.57
6 1 9 0.53 1.86
6 1 9 -0.21 1.49
-6 -1 -10 0.1 2.19
-6 -1 -10 0.54 1.67
-6 1 -10 0.09 2.08
6 -1 10 0.17 1.49
6 -1 10 2.26 2.06
6 1 10 0.87 2.15
6 1 10 -0.16 1.73
6 1 10 -0.52 1.85
-6 -1 -11 -1.36 2.4
-6 -1 -11 -0.35 2.18
-6 1 -11 1.4 2.59
6 -1 11 0.25 2.33
6 1 11 -0.2 2.27
6 1 11 1.1 2.27
6 1 11 1.44 2.22
-6 -1 -12 -0.51 2.77
-6 -1 -12 1.17 2.61
-6 1 -12 0.04 2.49
6 1 12 -0.13 2.43
6 1 12 -1.11 2.26
6 1 12 0.04 2.37
-6 2 16 1.92 2.65
-6 2 16 -0.14 2.46
6 -2 -16 -1.34 2.27
6 -2 -16 1.82 2.73
-6 2 15 0.48 2.33
-6 2 15 2.72 2.59
6 -2 -15 1.77 2.7
6 -2 -15 3.13 2.5
6 2 -15 0.14 2.97
-6 2 14 0.98 2.07
-6 2 14 -0.02 2.21
6 -2 -14 1.67 2.14
6 -2 -14 -1.1 1.61
6 2 -14 3.91 2.77
-6 2 13 1.7 2.1
-6 2 13 3.06 2.47
6 -2 -13 1.45 2
6 -2 -13 2.09 2.2
6 2 -13 1.03 1.98
-6 2 12 5.22 2.54
-6 2 12 3.02 2.28
-6 2 12 5 2.42
6 -2 -12 7.96 3.25
6 -2 -12 3.4 2.12
6 2 -12 5.35 2.48
-6 2 11 0.19 1.42
-6 2 11 -0.41 1.52
-6 2 11 1.63 1.76
6 -2 -11 -0.03 1.38
6 -2 -11 -0.1 1.16
6 -2 -11 1.23 1.7
6 2 -11 -1.06 1.4
-6 2 10 47.23 5.18
-6 2 10 37.13 4.62
-6 2 10 40.98 4.45
6 -2 -10 39.87 6.02
6 -2 -10 38.01 4.41
6 -2 -10 37.03 4.61
6 2 -10 38.35 4.38
6 2 -10 34.24 3.81
-6 -2 9 106.27 5.28
-6 2 9 110.31 7.29
-6 2 9 110.34 7.1
-6 2 9 93.13 6.32
6 -2 -9 101.15 7.09
6 -2 -9 93.54 6.37
6 -2 -9 111.97 7.27
6 2 -9 105.55 6.38
6 2 -9 101.69 5.95
-6 -2 8 142.05 8.07
-6 -2 8 128.22 5.4
-6 2 8 131.95 7.61
-6 2 8 130.21 7.38
6 -2 -8 116.86 7.26
6 -2 -8 114.35 6.54
6 -2 -8 115.44 7.04
6 2 -8 154.03 6.74
6 2 -8 114.82 6.32
6 2 -8 119.38 6.11
-6 -2 7 177.36 8.66
-6 -2 7 157.43 5.76
-6 2 7 169.89 8.29
-6 2 7 151.56 7.57
6 -2 -7 163.1 8.08
6 -2 -7 154.67 7.23
6 -2 -7 155.21 7.81
6 2 -7 192.74 7.62
6 2 -7 161.75 7.06
6 2 -7 160.89 6.83
-6 -2 6 0.02 1.03
-6 -2 6 0.29 0.67
-6 2 6 0.89 1.15
-6 2 6 -0.41 0.86
6 -2 -6 -0.49 0.96
6 -2 -6 -0.02 1.05
6 -2 -6 0.36 0.87
6 -2 -6 0.29 0.93
6 2 -6 0.26 0.9
6 2 -6 -0.06 0.9
6 2 -6 0.8 0.9
-6 -2 5 6.39 2.16
-6 -2 5 6.24 1.48
-6 2 5 4.6 1.68
-6 2 5 6.88 1.92
6 -2 -5 6.59 2.1
6 -2 -5 6.63 2.01
6 -2 -5 6.27 1.71
6 -2 -5 6.18 1.84
6 2 -5 6.74 2.02
6 2 -5 6.43 1.78
6 2 -5 7.35 1.83
-6 -2 4 74.45 5.26
-6 -2 4 82.26 4.06
-6 2 4 78.96 5.35
-6 2 4 75.68 4.8
-6 2 4 79.88 4.89
6 -2 -4 71.38 5.08
6 -2 -4 78.62 4.76
6 -2 -4 68.34 4.23
6 -2 -4 70.95 4.78
6 2 -4 95.83 5.61
6 2 -4 72.16 4.43
6 2 -4 73.32 4.37
6 2 -4 89.23 4.1
-6 -2 3 19.5 3.4
-6 -2 3 23.16 3.65
-6 -2 3 17.56 2.04
-6 2 3 18.6 3.2
-6 2 3 16.67 2.7
-6 2 3 16.26 2.6
6 -2 -3 15.99 3.03
6 -2 -3 20.84 3
6 -2 -3 19.14 2.31
6 -2 -3 19.08 2.94
6 2 -3 26.24 3.16
6 2 -3 18.46 2.76
6 2 -3 18.83 2.75
6 2 -3 22.7 2.43
-6 -2 2 36.24 3.72
-6 -2 2 34.16 3.58
-6 -2 2 35.55 2.88
-6 2 2 32.26 3.11
-6 2 2 32.52 3.07
6 -2 -2 36.03 3.57
6 -2 -2 34.46 2.79
6 -2 -2 33.58 2.86
6 2 -2 43.4 4.02
6 2 -2 38.23 3.36
6 2 -2 32.32 3.05
6 2 -2 40.45 3.34
-6 -2 1 32.58 3.55
-6 -2 1 35.83 3.66
-6 -2 1 30.67 2.83
-6 2 1 33.9 3.15
-6 2 1 34.12 3.1
6 -2 -1 37.89 3.56
6 -2 -1 35.18 2.56
6 -2 -1 36.14 2.84
6 -2 -1 -0.22 0.6
6 2 -1 51.47 4.43
6 2 -1 35.74 3.32
6 2 -1 32.63 3.13
6 2 -1 45.35 3.74
-6 -2 0 20.7 3.53
-6 -2 0 16.1 3.22
-6 -2 0 11.58 2.15
-6 2 0 10.42 2.14
-6 2 0 11.65 2.66
6 -2 0 12.57 2.46
6 -2 0 15.84 2.33
6 -2 0 0.06 0.61
6 2 0 14.65 1.76
6 2 0 17.4 3.17
6 2 0 14.4 2.62
6 2 0 15.81 2.69
6 2 0 15.05 2.73
-6 -2 -1 0.91 1.2
-6 -2 -1 -0.21 1.03
-6 -2 -1 -0.79 0.72
-6 2 -1 0.78 1.02
6 -2 1 0.37 0.83
6 -2 1 4.36 1.39
6 -2 1 -0.1 0.63
6 2 1 -0.36 0.63
6 2 1 -0.54 0.83
6 2 1 -0.23 0.85
6 2 1 0.09 0.8
6 2 1 0.21 1.1
-6 -2 -2 4.77 1.9
-6 -2 -2 4.38 1.97
-6 -2 -2 3.84 1.51
-6 2 -2 2.72 1.39
6 -2 2 4.98 1.65
6 -2 2 4.32 1.42
6 -2 2 3.49 1.45
6 -2 2 3.03 1.6
6 2 2 3.5 1.4
6 2 2 3.58 1.7
6 2 2 2.91 1.61
6 2 2 0.73 1.12
6 2 2 4.72 2.01
-6 -2 -3 0.74 1.33
-6 -2 -3 1.32 1.55
-6 -2 -3 0.67 1.18
-6 2 -3 -0.57 1.05
6 -2 3 1.5 1.16
6 -2 3 1.88 1.13
6 -2 3 -0.02 0.93
6 2 3 1.86 1.33
6 2 3 -0.01 1.1
6 2 3 1.19 1.19
6 2 3 0.95 0.99
6 2 3 1.05 1.25
-6 -2 -4 42.79 4.69
-6 -2 -4 45.99 4.53
-6 -2 -4 44.55 4.36
-6 2 -4 44.29 4.21
6 -2 4 40.7 3.46
6 -2 4 45.24 4.61
6 2 4 51.32 4.48
6 2 4 51.21 4.99
6 2 4 50.82 4.91
6 2 4 36.31 4.2
6 2 4 54.9 5.34
-6 -2 -5 21.22 4.17
-6 -2 -5 22.39 4.01
-6 -2 -5 19.09 3.7
-6 -2 -5 16.17 3.46
-6 2 -5 17.15 3.44
-6 2 -5 22.34 3.64
6 -2 5 18.54 2.88
6 -2 5 18.89 3.71
6 2 5 21.95 3.82
6 2 5 29.65 4.75
6 2 5 20.71 4.04
6 2 5 17.46 3.7
6 2 5 23.95 4.49
-6 -2 -6 0.57 1.5
-6 -2 -6 0.49 1.6
-6 -2 -6 0.54 1.33
-6 -2 -6 0.33 1.66
-6 2 -6 -0.36 1.3
6 -2 6 -0.17 1.09
6 2 6 0.12 1.33
6 2 6 0.52 1.51
6 2 6 0.33 1.64
6 2 6 -0.14 1.16
-6 -2 -7 0.84 1.6
-6 -2 -7 3.43 2.1
-6 -2 -7 1.2 1.6
-6 2 -7 0.53 1.59
6 -2 7 1.96 1.7
6 2 7 2.06 1.74
6 2 7 1.27 1.83
6 2 7 1.51 2.14
6 2 7 2.97 2.1
-6 -2 -8 -0.16 1.67
-6 -2 -8 0.39 1.7
-6 2 -8 0.47 1.56
6 -2 8 -1.28 1.16
6 2 8 0.19 1.69
6 2 8 -0.35 1.36
6 2 8 -0.62 1.91
6 2 8 -0.47 1.4
-6 -2 -9 5.38 3.17
-6 -2 -9 5.97 2.6
-6 2 -9 8.17 3.06
6 -2 9 6.58 2.86
6 2 9 8.07 3.16
6 2 9 6.44 3.31
6 2 9 8.46 3.39
-6 -2 -10 2.7 2.71
-6 -2 -10 3.08 2.7
-6 2 -10 3.05 2.44
6 2 10 2.6 2.34
6 2 10 3.13 2.84
6 2 10 6.81 3.43
-6 -2 -11 1.83 2.6
-6 -2 -11 2.2 2.6
-6 2 -11 4.76 2.89
6 2 11 -1.73 2.33
6 2 11 1.75 2.56
6 2 11 4.14 3.06
-6 3 15 1.26 2.63
-6 3 15 0.02 2.61
6 -3 -15 -0.5 2.17
6 -3 -15 0.73 2.31
-6 3 14 0.84 2.33
-6 3 14 -0.66 2.1
-6 3 14 0.34 2.63
6 -3 -14 0.84 2.04
6 -3 -14 1.12 2.04
-6 3 13 29.85 6.18
-6 3 13 23.06 5.16
-6 3 13 32.88 5.65
6 -3 -13 19.95 5.09
6 -3 -13 21.35 4.5
-6 3 12 1.56 2.21
-6 3 12 0.37 1.88
-6 3 12 -0.89 1.44
6 -3 -12 1.24 1.98
6 -3 -12 1.57 1.84
-6 3 11 59.77 6.48
-6 3 11 53.37 6.09
-6 3 11 51.14 5.91
6 -3 -11 37.21 6.19
6 -3 -11 48.12 5.33
-6 3 10 22.82 4.52
-6 3 10 27.15 5.01
-6 3 10 24.91 4.75
6 -3 -10 17.7 4.36
6 -3 -10 31.19 4.8
6 3 -10 26.26 3.62
-6 -3 9 0.32 1.69
-6 3 9 -0.82 1.32
-6 3 9 0.83 1.73
-6 3 9 1.77 1.68
6 -3 -9 1.24 1.83
6 -3 -9 1.39 1.49
6 3 -9 0.32 1.09
-6 -3 8 8.51 2.89
-6 3 8 9.78 3.02
-6 3 8 8.3 2.68
-6 3 8 5.13 2.45
6 -3 -8 4.58 2.34
6 -3 -8 7.01 2.32
6 3 -8 9.61 2.13
-6 -3 7 10.02 3.11
-6 3 7 11.26 3.13
-6 3 7 10.43 2.91
6 -3 -7 14.37 3.45
6 -3 -7 9.94 2.32
6 3 -7 18.11 3.24
6 3 -7 10.81 2.07
-6 -3 6 0.26 1.25
-6 3 6 0.52 1.24
-6 3 6 0.55 1.31
6 -3 -6 -0.16 1.09
6 -3 -6 0.39 1
6 3 -6 -0.11 1.14
6 3 -6 0.64 0.83
-6 -3 5 12.81 2.99
-6 3 5 12.17 3.04
-6 3 5 11.36 2.6
6 -3 -5 13.27 2.94
6 -3 -5 13.32 2.41
6 3 -5 19.34 3.45
6 3 -5 13.6 2.2
-6 -3 4 7.32 2.45
-6 -3 4 5.07 2.2
-6 3 4 5.21 2.2
-6 3 4 5.35 1.86
6 -3 -4 4.8 1.82
6 -3 -4 4.97 1.49
6 3 -4 2.32 1.66
6 3 -4 8.07 2.47
6 3 -4 3.68 1.3
-6 -3 3 3.53 1.93
-6 -3 3 8 2.62
-6 3 3 6.54 2.28
-6 3 3 4.87 1.69
6 -3 -3 8.67 2.18
6 3 -3 6.04 2.22
6 3 -3 8.95 2.13
6 3 -3 6.01 1.59
6 3 -3 6.91 1.8
-6 -3 2 20.6 3.86
-6 -3 2 21.83 4.09
-6 3 2 16.11 3.21
-6 3 2 21.12 3.15
6 -3 -2 17.04 2.79
6 3 -2 27.64 4.45
6 3 -2 21.37 3.14
6 3 -2 19.98 2.83
6 3 -2 28.46 3.85
-6 -3 1 21.55 3.85
-6 -3 1 21.65 3.83
-6 3 1 21.15 3.1
6 3 -1 24.96 4.3
6 3 -1 16.01 2.64
6 3 -1 23.56 3.64
-6 -3 0 6.17 2.43
-6 -3 0 4.34 2.11
-6 -3 0 5.94 1.54
-6 3 0 6.68 1.81
6 3 0 9.69 2.95
6 3 0 7.04 2.07
6 3 0 4.13 1.53
6 3 0 8.41 2.49
-6 -3 -1 2.48 1.82
-6 -3 -1 2.52 1.9
-6 -3 -1 2.12 1.22
6 3 1 2.68 1.83
6 3 1 1.92 1.42
6 3 1 2.17 1.34
6 3 1 2.76 1.79
-6 -3 -2 10.3 3.04
-6 -3 -2 10.95 3.48
-6 -3 -2 7.66 2.05
6 3 2 8.84 2.75
6 3 2 8.84 2.52
6 3 2 5.54 2.04
6 3 2 17.39 3.67
-6 -3 -3 27.27 4.75
-6 -3 -3 25.67 4.52
-6 -3 -3 29.25 3.41
6 3 3 39.6 5.83
6 3 3 32.72 4.83
6 3 3 25.83 4
6 3 3 36.78 5.36
-6 -3 -4 1.82 1.83
-6 -3 -4 -0.35 1.46
-6 -3 -4 0.24 1.32
-6 3 -4 0.65 1.12
6 3 4 0.67 1.71
6 3 4 2.78 2.03
6 3 4 2.27 1.92
-6 -3 -5 5.95 2.79
-6 -3 -5 5.6 2.35
-6 -3 -5 6.31 2.25
-6 3 -5 10.27 2.37
6 3 5 13.21 3.26
6 3 5 12.12 3.45
6 3 5 11.99 3.52
6 3 5 14.96 3.73
-6 -3 -6 0.6 1.89
-6 -3 -6 0.94 2.18
-6 -3 -6 2.4 1.86
6 3 6 4.08 2.11
6 3 6 0.99 1.8
6 3 6 3.17 2.42
6 3 6 -0.45 1.58
-6 -3 -7 3.2 2.47
-6 -3 -7 2.76 2.56
-6 -3 -7 0.87 1.79
6 3 7 3.2 2.11
6 3 7 4.62 2.58
6 3 7 2.57 2.19
6 3 7 2.5 2.4
-6 -3 -8 3.39 2.65
-6 -3 -8 2.67 2.61
-6 -3 -8 1.37 1.86
6 3 8 5.35 2.78
6 3 8 7.18 3.13
6 3 8 1.61 2.37
6 3 8 5.88 3.07
-6 -3 -9 0.74 2.14
-6 -3 -9 2.48 2.54
-6 -3 -9 -1.49 1.68
6 3 9 -0.1 1.66
6 3 9 0.87 2.17
6 3 9 1.49 2.3
6 3 9 1.22 2.51
-6 -3 -10 3.17 2.76
-6 -3 -10 0.14 1.83
6 3 10 0.8 2.51
6 3 10 -0.23 2.36
6 3 10 0.39 2.29
-6 4 13 4.38 3.3
-6 4 13 1.21 2.81
-6 4 13 6.34 3.64
6 -4 -13 1.76 2.36
-6 4 12 -1.21 2.17
-6 4 12 0.72 2.52
-6 4 12 -0.5 1.77
6 -4 -12 -0.12 1.51
-6 4 11 0.18 2.09
-6 4 11 -0.64 2
-6 4 11 2.16 2.2
6 -4 -11 0.78 1.82
-6 4 10 -0.07 1.82
-6 4 10 0.47 1.97
-6 4 10 -0.8 1.72
6 -4 -10 1.65 1.69
-6 -4 9 5.75 3.02
-6 4 9 2.44 2.33
-6 4 9 7.38 3
-6 4 9 3.53 2.37
6 -4 -9 3.99 2.24
-6 -4 8 16.85 4.22
-6 4 8 17.13 4.24
-6 4 8 14.04 3.55
-6 4 8 12.84 3.62
6 -4 -8 12.4 3.5
-6 -4 7 13.71 3.79
-6 4 7 13.09 3.71
-6 4 7 17.45 3.92
-6 4 7 15.24 3.88
6 -4 -7 10.8 3.26
-6 -4 6 39.77 6.05
-6 4 6 29.94 5.23
6 -4 -6 27.45 4.94
6 4 -6 36.19 4.45
-6 -4 5 10.38 3.18
-6 -4 5 10.63 3.39
-6 4 5 9.51 3.11
6 -4 -5 10.74 2.95
6 4 -5 14.75 3.42
-6 -4 4 0.66 1.72
-6 -4 4 1.96 1.8
-6 4 4 1.16 1.71
6 -4 -4 1.56 1.45
6 4 -4 4.49 2.33
-6 -4 3 6.88 2.72
-6 -4 3 4.15 2.19
-6 4 3 4.8 2.12
6 4 -3 5.79 2.31
-6 -4 2 16.08 3.75
-6 -4 2 18.98 4.07
-6 4 2 14.23 3.47
6 4 -2 25.57 4.71
-6 -4 1 12.63 3.48
-6 -4 1 15.5 3.88
-6 4 1 14.6 3.72
6 4 -1 12.15 3.59
6 4 -1 13.83 2.36
6 4 -1 16.92 3.52
-6 -4 0 15.3 3.73
-6 -4 0 11.73 3.43
-6 4 0 16.88 3.77
6 4 0 19.27 4.14
6 4 0 16.19 2.72
6 4 0 16.33 3.59
-6 -4 -1 0.45 1.55
-6 -4 -1 1.53 1.77
6 4 1 0.82 1.87
6 4 1 1.52 1.25
6 4 1 0.8 1.63
-6 -4 -2 5.54 2.46
-6 -4 -2 9.37 3.41
6 4 2 11.76 3.76
6 4 2 13.14 3.5
-6 -4 -3 1.32 1.88
-6 -4 -3 0.85 1.88
6 4 3 1.07 1.92
6 4 3 1.93 2.52
6 4 3 -0.36 1.46
-6 -4 -4 1.02 1.92
-6 -4 -4 -0.46 1.77
6 4 4 1.52 2.08
6 4 4 -1.35 1.49
6 4 4 0.72 1.88
-6 -4 -5 1.05 1.9
-6 -4 -5 2.31 2.51
6 4 5 3.92 2.68
6 4 5 0.96 1.99
6 4 5 5.69 2.84
-6 -4 -6 1.36 1.9
-6 -4 -6 1.1 2.32
6 4 6 0.92 2.05
6 4 6 0.81 2.22
6 4 6 -0.51 1.72
-6 -4 -7 0.22 1.6
-6 -4 -7 -0.8 2.35
6 4 7 0.54 1.97
6 4 7 0.08 2.33
6 4 7 1.28 2.27
-6 -4 -8 -0.22 2.11
-6 -4 -8 -0.42 2.44
6 4 8 -0.07 2.34
6 4 8 -0.85 2.58
6 4 8 -0.74 2.16
6 -5 -11 1.78 2.42
-6 -5 10 -1.3 2.29
-6 5 10 -1.24 2.3
-6 5 10 -0.9 2.25
6 -5 -10 2.69 2.21
-6 -5 9 -0.81 2.03
-6 5 9 -0.15 2.65
-6 5 9 0.09 1.86
6 -5 -9 0.12 1.84
-6 -5 8 8.3 3.6
-6 5 8 5.11 2.98
-6 5 8 7.81 3.5
6 -5 -8 1.11 1.99
-6 -5 7 -0.45 1.78
-6 5 7 1.7 2.46
-6 5 7 -0.28 1.59
6 -5 -7 0.29 1.75
-6 -5 6 -0.55 1.68
-6 5 6 0.75 2.24
-6 5 6 0.08 1.47
6 -5 -6 0.63 1.62
-6 -5 5 2.94 2.63
-6 -5 5 3.3 2.26
-6 5 5 3.56 2.46
-6 5 5 4.64 2.8
-6 -5 4 11.16 3.57
-6 -5 4 11.84 3.72
-6 5 4 13.32 3.89
6 5 -4 22.03 4.65
-6 -5 3 2.05 2.12
-6 -5 3 2.71 2.4
-6 5 3 6.1 3.06
6 5 -3 5.95 2.95
-6 -5 2 4.14 2.62
-6 -5 2 5.46 2.63
-6 5 2 5.51 2.82
6 5 -2 6.07 2.8
-6 -5 1 -0.94 1.81
-6 -5 1 -0.41 1.74
-6 5 1 -0.27 1.69
6 5 -1 1.49 2.11
-6 -5 0 1.57 2.18
-6 -5 0 0.29 1.95
-6 5 0 0.7 2
6 5 0 2.05 2.28
6 5 0 1.61 3.33
-6 -5 -1 6.2 2.81
-6 -5 -1 3.74 2.47
-6 5 -1 4.15 2.61
6 5 1 1.25 2.09
6 5 1 5.95 2.9
-6 -5 -2 -0.12 1.76
-6 -5 -2 0.3 2.1
-6 5 -2 0.26 1.92
6 5 2 -0.96 1.85
6 5 2 -1.17 1.63
-6 -5 -3 0.35 2.06
-6 -5 -3 -0.97 1.86
6 5 3 -0.27 1.72
6 5 3 0.81 2.23
-6 -5 -4 5.47 2.83
-6 -5 -4 2.13 2.48
6 5 4 6.31 3.37
6 5 4 3.79 2.86
-6 -5 -5 6.46 3.21
-6 -5 -5 6.12 3.2
6 5 5 5.65 3.31
6 5 5 12.49 4.2
-6 -5 -6 0.93 2.45
-6 -5 -6 2.08 2.69
6 5 6 1.91 2.37
6 5 6 7.88 3.92
-6 -6 6 -0.66 2.23
-6 -6 5 2.47 2.45
-6 -6 5 0.1 2.08
-6 6 5 1.19 2.46
-6 6 5 -0.58 1.63
-6 -6 4 -0.39 2.07
-6 -6 4 -0.29 1.81
-6 6 4 -0.66 2.12
-6 6 4 -0.76 2.07
-6 -6 3 1.14 2.27
-6 -6 3 2.23 2.54
-6 6 3 -0.2 2.18
-6 6 3 1.25 2.31
6 6 -3 1.43 2.71
-6 -6 2 1.02 2.38
-6 -6 2 1.47 2.07
-6 6 2 5.62 3.32
-6 6 2 0.75 2.24
6 6 -2 5.56 3.46
-6 -6 1 0.32 2.18
-6 -6 1 1.64 2.37
-6 6 1 -0.48 2.26
6 6 -1 -0.3 2.31
-6 -6 0 0.56 2.24
-6 -6 0 4.45 3.01
-6 6 0 1.32 2.62
6 6 0 1.81 2.94
-6 -6 -1 1.51 2.71
-6 -6 -1 0.42 2.21
-6 6 -1 3.43 2.97
6 6 1 1.2 3.14
-7 0 16 1.14 2.1
7 0 -16 1.91 2.76
7 0 -16 1.38 2.16
-7 0 15 -0.35 1.52
7 0 -15 0.36 2.07
-7 0 14 27.1 5.18
7 0 -14 30.4 5.81
-7 0 13 -0.56 1.55
-7 0 13 -1.21 1.16
7 0 -13 -0.5 1.86
-7 0 12 85.96 6.26
-7 0 12 73.02 6.17
7 0 -12 71.64 6.49
-7 0 11 -0.49 1.03
-7 0 11 -0.31 1.06
7 0 -11 1.05 1.17
7 0 -11 0.47 1.59
-7 0 10 11.27 2.57
-7 0 10 10.79 2.65
7 0 -10 10.55 2.6
7 0 -10 10.19 2.89
7 0 -10 9.9 2.95
-7 0 9 -0.4 0.89
-7 0 9 -0.21 0.89
7 0 -9 0.36 1.14
7 0 -9 -0.11 1.18
7 0 -9 -1.13 0.76
-7 0 8 13.46 2.5
-7 0 8 10.04 2.44
7 0 -8 13.81 2.94
7 0 -8 10.6 2.77
7 0 -8 14.54 3.06
-7 0 7 0.14 0.76
-7 0 7 -0.43 0.64
7 0 -7 -0.23 0.84
7 0 -7 0.42 1.08
7 0 -7 -0.41 1.05
-7 0 6 72.3 4.11
-7 0 6 70.18 4.82
7 0 -6 81.96 5.3
7 0 -6 68.91 4.86
7 0 -6 73.55 5.17
-7 0 5 -0.19 0.74
-7 0 5 -0.03 0.68
-7 0 5 0.25 0.82
7 0 -5 -0.66 0.79
7 0 -5 0.6 1
7 0 -5 -0.26 0.77
-7 0 4 -0.46 0.71
-7 0 4 -0.05 0.69
-7 0 4 -0.16 0.63
7 0 -4 0.12 0.79
7 0 -4 -0.21 0.65
7 0 -4 0.07 0.84
7 0 -4 0.58 0.78
-7 0 3 0.11 0.71
-7 0 3 0.24 0.69
7 0 -3 0.46 0.87
7 0 -3 -0.32 0.62
7 0 -3 -0.32 0.8
7 0 -3 0 0.72
-7 0 2 9 1.81
-7 0 2 7.49 1.87
7 0 -2 14.86 2.83
7 0 -2 9.09 2.13
7 0 -2 10.28 2.33
7 0 -2 11.96 2.42
-7 0 1 0.45 0.74
-7 0 1 -1.05 0.7
7 0 -1 -0.23 0.83
7 0 -1 -0.08 0.88
7 0 -1 0.66 0.91
7 0 -1 -0.34 0.67
-7 0 0 29.68 2.72
-7 0 0 29.68 3.2
7 0 0 39.24 3.7
7 0 0 27.87 3.16
7 0 0 31.99 3.43
7 0 0 34.74 3.56
-7 0 -1 0.29 0.84
-7 0 -1 -0.57 0.96
7 0 1 0.05 0.79
7 0 1 0.37 1.01
7 0 1 -0.16 0.81
7 0 1 0.85 0.95
-7 0 -2 0.43 0.96
-7 0 -2 0.77 1.17
7 0 2 0.07 0.83
7 0 2 -0.32 0.92
7 0 2 1.01 1.08
7 0 2 -0.43 0.74
-7 0 -3 0.33 1.04
-7 0 -3 0.22 1.15
7 0 3 -0.33 0.84
7 0 3 -0.33 0.88
7 0 3 -0.23 1.04
7 0 3 0.18 1.09
-7 0 -4 21.13 3.44
-7 0 -4 17.34 3.29
7 0 4 30.41 3.55
7 0 4 21.33 3.67
7 0 4 18.33 3.54
7 0 4 22.23 4.01
-7 0 -5 1.08 1.41
-7 0 -5 0.51 1.19
7 0 5 -0.02 0.98
7 0 5 0.65 1.33
7 0 5 -0.91 1.07
7 0 5 -0.65 1.22
-7 0 -6 -0.59 1.33
-7 0 -6 -0.45 1.38
7 0 6 -0.63 1.09
7 0 6 -0.43 1.4
7 0 6 -1.3 0.86
-7 0 -7 0.58 1.73
-7 0 -7 0.69 1.6
7 0 7 0.4 1.39
7 0 7 0.17 1.3
7 0 7 -0.72 1.49
-7 0 -8 0.47 1.93
-7 0 -8 -0.73 1.82
7 0 8 -0.2 1.6
7 0 8 2.27 1.97
7 0 8 0.3 1.76
-7 0 -9 -0.07 2.05
-7 0 -9 0.12 2.18
7 0 9 -0.37 2.07
7 0 9 0.33 1.63
7 0 9 -0.34 1.9
-7 0 -10 -0.06 2.34
-7 0 -10 1.67 2.53
7 0 10 0.78 2.38
7 0 10 0.11 1.79
7 0 10 0.35 1.94
-7 0 -11 0.26 2.5
-7 0 -11 1.05 2.55
7 0 11 1.22 2.71
7 0 11 0.69 2.17
7 0 11 -0.81 2.04
-7 1 16 2.6 2.61
-7 1 16 -0.13 2.06
7 -1 -16 0.18 2.4
7 -1 -16 -1.4 2.34
7 1 -16 2.04 2.5
-7 -1 15 -0.57 1.45
-7 1 15 -0.17 1.83
-7 1 15 -0.12 2.01
7 -1 -15 0.26 2.33
7 -1 -15 0.58 2.05
7 1 -15 -0.34 2.39
-7 -1 14 5.78 2.61
-7 1 14 8.93 3.31
-7 1 14 5.41 3.05
7 -1 -14 7.43 3.54
7 -1 -14 7.48 3.19
7 1 -14 4.88 2.79
-7 -1 13 -0.12 1.23
-7 1 13 -0.58 1.39
-7 1 13 -0.63 1.65
7 -1 -13 0.47 1.79
7 -1 -13 -0.48 1.62
7 1 -13 0.84 1.86
-7 -1 12 5.48 2.15
-7 1 12 10.14 3.12
-7 1 12 4.07 2.23
7 -1 -12 2.04 1.9
7 1 -12 4.76 2.41
-7 -1 11 1.07 1.34
-7 1 11 1.18 1.6
-7 1 11 0.69 1.53
7 -1 -11 1.12 1.46
7 1 -11 1.67 1.73
-7 -1 10 8.06 2.33
-7 1 10 11.43 2.9
-7 1 10 9.36 2.79
-7 1 10 6.38 1.96
7 -1 -10 8.46 2.57
7 -1 -10 5.97 2.31
7 -1 -10 7.04 2.52
7 1 -10 6.72 2.23
7 1 -10 6.78 2.63
7 1 -10 8.36 2.52
-7 -1 9 21.01 3.4
-7 1 9 23.42 3.82
-7 1 9 19.26 3.56
7 -1 -9 21.11 3.85
7 -1 -9 13.34 3.06
7 -1 -9 20.83 3.85
7 1 -9 20.47 3.39
7 1 -9 23.19 4.03
7 1 -9 24.07 3.95
-7 -1 8 15.11 2.81
-7 1 8 17.91 3.17
-7 1 8 15.42 3.2
7 -1 -8 16.38 3.35
7 -1 -8 12.14 2.84
7 -1 -8 10.85 2.71
7 1 -8 15.58 2.96
7 1 -8 17.37 3.35
7 1 -8 11.23 2.6
-7 -1 7 -0.38 0.97
-7 -1 7 -0.33 0.77
-7 1 7 0.06 0.91
-7 1 7 -0.15 0.81
7 -1 -7 0.09 1.05
7 -1 -7 -1.15 0.9
7 -1 -7 -0.51 0.76
7 1 -7 0.24 0.94
7 1 -7 0.81 1.11
7 1 -7 0.36 0.99
-7 -1 6 8.97 2.3
-7 -1 6 6.54 1.82
-7 1 6 6.42 1.9
-7 1 6 7.19 2.11
7 -1 -6 8.91 2.46
7 -1 -6 8.75 2.32
7 -1 -6 6.23 2.05
7 1 -6 11.94 2.64
7 1 -6 7.75 2.04
7 1 -6 2.95 1.22
-7 -1 5 17.94 3.1
-7 -1 5 11.99 2.33
-7 1 5 15.11 2.66
-7 1 5 9.89 2.25
7 -1 -5 14.22 2.92
7 -1 -5 15.16 2.77
7 -1 -5 12.92 2.68
7 1 -5 14.52 2.84
7 1 -5 13.17 2.58
7 1 -5 13.58 2.72
7 1 -5 14.44 2.24
-7 -1 4 4.13 1.66
-7 -1 4 3.02 0.87
-7 -1 4 2.27 1.16
-7 1 4 2.77 1.32
-7 1 4 3.5 1.48
7 -1 -4 2.06 1.32
7 -1 -4 2.63 1.34
7 -1 -4 3.14 1.46
7 1 -4 3.83 1.53
7 1 -4 3.28 1.57
7 1 -4 1.91 1.15
7 1 -4 4.24 1.38
-7 -1 3 49.25 3.92
-7 -1 3 52.42 3.93
-7 1 3 63.24 2.87
-7 1 3 55.11 4.13
-7 1 3 59.46 4.4
7 -1 -3 60.36 4.59
7 -1 -3 54.73 4.11
7 -1 -3 52.02 4.24
7 1 -3 66.05 4.83
7 1 -3 62.16 4.47
7 1 -3 0.75 0.79
7 1 -3 59.16 3.93
-7 -1 2 26.29 3
-7 -1 2 23.57 2.74
-7 1 2 28.55 1.91
-7 1 2 25.38 2.95
7 -1 -2 32.22 3.44
7 -1 -2 28.84 3.05
7 -1 -2 28.6 3.18
7 1 -2 34.5 3.61
7 1 -2 29.61 3.15
7 1 -2 16.93 2.88
7 1 -2 33.32 3.18
-7 -1 1 10.27 2.27
-7 -1 1 13.21 2.59
-7 -1 1 9.78 2.21
-7 1 1 11.03 1.83
-7 1 1 11.76 2.48
7 -1 -1 12.15 2.63
7 -1 -1 10.22 2.26
7 -1 -1 11.68 2.46
7 -1 -1 7.11 2.13
7 1 -1 14.02 2.78
7 1 -1 10.62 2.35
7 1 -1 7.26 1.97
7 1 -1 12.26 2.51
-7 -1 0 0.38 0.92
-7 -1 0 -0.09 0.92
-7 -1 0 0.42 0.86
-7 1 0 0.81 1.09
7 -1 0 0.5 0.97
7 -1 0 -0.45 0.68
7 -1 0 0.46 0.79
7 -1 0 0.91 0.97
7 1 0 0.37 1.01
7 1 0 -0.09 0.87
7 1 0 -0.18 0.75
7 1 0 0.19 0.91
-7 -1 -1 14.07 2.71
-7 -1 -1 11.78 2.55
-7 -1 -1 9 2.18
-7 1 -1 11.26 2.6
7 -1 1 16.6 2.97
7 -1 1 13.09 2.51
7 -1 1 12.45 2.63
7 -1 1 13.69 2.98
7 1 1 14.17 2.93
7 1 1 11.83 2.6
7 1 1 10.42 2.46
7 1 1 19.18 3.48
-7 -1 -2 2.97 1.59
-7 -1 -2 1.8 1.28
-7 -1 -2 1.81 1.26
-7 1 -2 0.51 1.23
7 -1 2 1.93 1.31
7 -1 2 2.48 1.39
7 -1 2 2.76 1.38
7 -1 2 3.95 1.86
7 1 2 3.24 1.69
7 1 2 1.22 1.26
7 1 2 2.55 1.43
7 1 2 4.15 1.88
-7 -1 -3 2.21 1.58
-7 -1 -3 3.58 1.75
-7 -1 -3 2.16 1.49
-7 1 -3 2.96 1.68
7 -1 3 3.26 1.6
7 -1 3 1.9 1.39
7 -1 3 2 1.42
7 -1 3 4.31 1.93
7 1 3 2.86 1.54
7 1 3 3.23 1.75
7 1 3 4.05 1.75
7 1 3 2.33 1.48
7 1 3 4.25 1.91
-7 -1 -4 0.64 1.46
-7 -1 -4 2.25 1.62
-7 -1 -4 2.05 1.55
-7 1 -4 2.58 1.65
7 -1 4 1.43 1.3
7 -1 4 2.82 1.56
7 -1 4 2.01 1.49
7 -1 4 1.01 1.61
7 1 4 2.53 1.52
7 1 4 4.32 1.9
7 1 4 2.82 1.89
7 1 4 2.2 1.67
7 1 4 3.87 1.99
-7 -1 -5 24.94 4.37
-7 -1 -5 24.65 4.24
-7 1 -5 24.92 4.13
7 -1 5 31.31 3.76
7 -1 5 20.7 3.95
7 -1 5 25.03 4.48
7 1 5 29.48 4.54
7 1 5 36.89 4.22
7 1 5 25.84 4.41
7 1 5 25.67 4.52
7 1 5 37.76 5.6
-7 -1 -6 1.49 1.97
-7 -1 -6 1.22 1.53
-7 1 -6 2.11 1.91
7 -1 6 2.12 1.6
7 -1 6 2.99 2.09
7 1 6 1.51 1.62
7 1 6 3.79 1.87
7 1 6 2.73 2.1
7 1 6 2.34 1.82
-7 -1 -7 2.03 1.93
-7 -1 -7 2.42 2.04
-7 1 -7 2.4 2.13
7 -1 7 1.5 1.71
7 -1 7 2.08 1.81
7 1 7 2.06 1.78
7 1 7 4.42 2.12
7 1 7 1.11 1.89
7 1 7 3.57 2.27
-7 -1 -8 3.45 2.61
-7 -1 -8 2.17 2.14
-7 1 -8 1.09 2.1
7 -1 8 1.57 1.88
7 -1 8 3.51 2.15
7 1 8 1.08 1.93
7 1 8 1.39 2.26
7 1 8 2.68 2
-7 -1 -9 2.81 2.59
-7 -1 -9 0.79 2
-7 1 -9 2.26 2.45
7 -1 9 3.63 2.12
7 -1 9 4.44 2.53
7 1 9 1.21 2.29
7 1 9 4.4 2.6
7 1 9 0.94 2.17
-7 -1 -10 3.36 2.88
-7 -1 -10 2.22 2.44
-7 1 -10 2.94 2.78
7 -1 10 4.17 2.64
7 -1 10 2.3 2.48
7 1 10 2.67 2.77
7 1 10 3.82 2.9
7 1 10 4.56 2.88
-7 -1 -11 1.27 2.65
-7 -1 -11 0.28 2.44
-7 1 -11 -0.6 2.14
7 -1 11 2.36 2.75
7 1 11 0.57 2.47
7 1 11 0.81 2.48
7 1 11 -0.28 2.33
-7 2 16 6.8 3.72
-7 2 16 10.46 4.01
7 -2 -16 5.55 3.75
7 -2 -16 5.73 3.23
-7 2 15 0.24 2.05
-7 2 15 0.53 2.13
7 -2 -15 0.86 2.42
7 -2 -15 0.42 2.21
7 2 -15 1.15 2.48
-7 2 14 2.09 2.17
-7 2 14 4.41 2.71
7 -2 -14 2.67 2.12
7 -2 -14 2.7 2.53
7 2 -14 3.93 2.73
-7 2 13 -0.64 1.68
-7 2 13 0.62 2.07
7 -2 -13 -0.01 1.65
7 -2 -13 -0.64 1.56
7 2 -13 0.12 1.91
-7 2 12 20.59 4.61
-7 2 12 16.89 4.28
-7 2 12 15.62 3.65
7 -2 -12 11.37 3.64
7 -2 -12 12.41 3.56
7 2 -12 20.24 4.24
-7 2 11 2.54 2.01
-7 2 11 -0.04 1.33
-7 2 11 0.14 1.32
7 -2 -11 0.39 1.53
7 -2 -11 0.66 1.3
7 2 -11 1.13 1.76
-7 2 10 85.98 6.89
-7 2 10 74.35 6.42
-7 2 10 73.02 5.89
7 -2 -10 81.24 6.76
7 -2 -10 70.77 5.96
7 -2 -10 73.61 6.54
7 2 -10 71.73 5.86
-7 -2 9 15.35 3.57
-7 -2 9 13.17 2.48
-7 2 9 13.89 3.34
-7 2 9 13.93 3.34
7 -2 -9 17.96 4.11
7 -2 -9 12.1 2.99
7 -2 -9 12.71 3.26
7 2 -9 17.34 3.28
7 2 -9 15.15 3.35
7 2 -9 16.55 3.13
-7 -2 8 52.04 5.26
-7 -2 8 58.58 4.09
-7 2 8 59.37 5.37
-7 2 8 54.2 5.04
7 -2 -8 56.69 5.24
7 -2 -8 48.95 4.64
7 -2 -8 60.31 5.4
7 2 -8 74.62 5.25
7 2 -8 50.3 4.63
7 2 -8 53.59 4.48
-7 -2 7 20.28 3.85
-7 -2 7 20.44 2.48
-7 2 7 17.73 3.36
-7 2 7 15.92 3.23
7 -2 -7 15.33 3.28
7 -2 -7 16.73 3.37
7 -2 -7 17.6 3.26
7 -2 -7 18.87 3.55
7 2 -7 23.19 3.77
7 2 -7 15.07 3.07
7 2 -7 17.35 3.01
-7 -2 6 5.79 2.23
-7 -2 6 7.23 1.78
-7 2 6 3.55 1.66
-7 2 6 6.34 2.19
7 -2 -6 6.65 2.24
7 -2 -6 6.98 2.29
7 -2 -6 2.81 1.41
7 -2 -6 2.57 1.52
7 2 -6 6.94 2.24
7 2 -6 5.99 1.92
7 2 -6 5.33 1.7
-7 -2 5 45.85 4.5
-7 -2 5 48.25 3.54
-7 2 5 48.3 4.51
-7 2 5 45.68 4.2
7 -2 -5 46.71 4.56
7 -2 -5 45.3 4.01
7 -2 -5 46.22 3.91
7 -2 -5 46.04 4.25
7 2 -5 61.52 4.9
7 2 -5 49.52 4.16
7 2 -5 44.54 3.82
-7 -2 4 103.89 6.48
-7 -2 4 101.24 5.03
-7 2 4 104.67 6.41
-7 2 4 97.39 5.79
7 -2 -4 99.58 6.33
7 -2 -4 106.11 5.67
7 -2 -4 102.02 5.53
7 -2 -4 114.18 6.36
7 2 -4 124.73 6.84
7 2 -4 107.32 5.89
7 2 -4 93.18 5.37
7 2 -4 119.28 5.3
-7 -2 3 -0.65 0.98
-7 -2 3 1.3 1.4
-7 -2 3 -0.21 0.71
-7 2 3 0.99 1.14
-7 2 3 -0.06 0.91
7 -2 -3 -0.16 0.96
7 -2 -3 0.8 0.82
7 -2 -3 -0.78 0.73
7 -2 -3 -0.46 0.92
7 2 -3 0.04 1.07
7 2 -3 -0.29 0.87
7 2 -3 -0.1 0.74
7 2 -3 -0.21 0.8
-7 -2 2 2.06 1.5
-7 -2 2 2.88 1.61
-7 -2 2 1.03 0.99
-7 2 2 1.38 1.17
7 -2 -2 3.55 1.66
7 -2 -2 3.97 1.46
7 -2 -2 2.54 1.22
7 -2 -2 2.75 1.36
7 2 -2 4.08 1.75
7 2 -2 4.45 1.72
7 2 -2 3.36 1.46
7 2 -2 2.6 1.45
-7 -2 1 0.54 1.13
-7 -2 1 0.62 1.22
-7 -2 1 -0.47 0.71
-7 2 1 1.14 1.2
7 -2 -1 -0.02 0.85
7 -2 -1 0.17 0.8
7 -2 -1 -0.73 0.83
7 2 -1 0.77 1.3
7 2 -1 0.14 0.91
7 2 -1 -0.22 0.73
7 2 -1 0.31 1.01
-7 -2 0 60.31 5.05
-7 -2 0 62.06 5.06
-7 -2 0 59.32 4.39
-7 2 0 56.56 4.46
7 -2 0 66.16 4.89
7 -2 0 65.13 4.21
7 -2 0 58.31 4.51
7 2 0 71.04 5.55
7 2 0 63.57 4.91
7 2 0 58.89 4.68
7 2 0 68.71 5.18
-7 -2 -1 -0.65 1.03
-7 -2 -1 -0.71 1.22
-7 -2 -1 0.33 0.92
-7 2 -1 -0.94 0.76
7 -2 1 0.75 1
7 -2 1 0.85 0.97
7 -2 1 0.51 1.08
7 2 1 -0.05 1.25
7 2 1 0.38 1.12
7 2 1 0.28 1.07
7 2 1 -0.36 0.84
-7 -2 -2 85.71 6.27
-7 -2 -2 91.01 6.19
-7 -2 -2 88.85 5.78
-7 2 -2 82.84 5.63
7 -2 2 97.09 5.69
7 -2 2 91.62 5.09
7 -2 2 92.12 6.58
7 2 2 89.37 5.25
7 2 2 104.66 7.06
7 2 2 98.3 6.44
7 2 2 84.67 5.96
7 2 2 102.71 6.91
-7 -2 -3 124.16 7.77
-7 -2 -3 134.79 7.57
-7 -2 -3 138.76 7.53
-7 2 -3 130.23 7.21
7 -2 3 150.64 6.97
7 -2 3 151.65 6.65
7 -2 3 144.93 8.31
7 2 3 152.71 7.31
7 2 3 173.03 9.11
7 2 3 137.79 7.91
7 2 3 123.58 7.5
7 2 3 173.59 9.28
-7 -2 -4 81.18 6.62
-7 -2 -4 91.56 6.49
-7 -2 -4 94.19 6.62
-7 2 -4 86.21 6.19
7 -2 4 97.37 5.57
7 -2 4 96.72 7.04
7 2 4 105.08 6.58
7 2 4 118.85 7.79
7 2 4 97.93 7.1
7 2 4 114.56 7.94
-7 -2 -5 25.86 4.79
-7 -2 -5 31.68 4.96
-7 -2 -5 23.1 4.26
-7 -2 -5 24.94 4.43
-7 2 -5 23.02 3.99
7 -2 5 31.02 5.27
7 2 5 22.35 4.02
7 2 5 39.34 4.87
7 2 5 30.77 5.21
7 2 5 24.79 4.7
-7 -2 -6 -1.48 1.45
-7 -2 -6 1.56 1.83
-7 -2 -6 0.66 1.66
-7 2 -6 1.12 1.61
7 -2 6 1.5 1.7
7 2 6 0.18 1.45
7 2 6 0.72 1.81
7 2 6 0.29 1.69
7 2 6 0.6 1.58
-7 -2 -7 0.01 1.8
-7 -2 -7 0.63 1.64
-7 2 -7 1.81 1.82
7 -2 7 0.7 1.45
7 2 7 -0.33 1.55
7 2 7 -0.86 1.57
7 2 7 -0.44 1.79
7 2 7 -0.4 1.52
-7 -2 -8 1.46 2.2
-7 -2 -8 0.95 1.79
-7 2 -8 -0.4 2.08
7 -2 8 1.72 2.03
7 2 8 -0.21 1.57
7 2 8 0.09 1.81
7 2 8 0.75 2.13
7 2 8 -0.54 1.8
-7 -2 -9 0.36 2.21
-7 -2 -9 1.78 2.17
-7 2 -9 1.4 2.19
7 -2 9 0.7 1.82
7 2 9 -0.94 1.82
7 2 9 0.26 2.32
7 2 9 -0.15 1.95
-7 -2 -10 -0.48 2.39
-7 -2 -10 1.99 2.13
-7 2 -10 -0.03 2.4
7 2 10 -0.32 2.11
7 2 10 1.55 2.68
7 2 10 0.79 2.39
7 -3 -15 -0.48 1.77
7 -3 -15 -1.03 1.92
-7 3 14 0.67 2.28
-7 3 14 1.65 2.53
7 -3 -14 2.09 2.27
7 -3 -14 3.4 2.47
-7 3 13 18.27 4.94
-7 3 13 14.53 4.32
-7 3 13 12.59 3.93
7 -3 -13 10.56 3.74
7 -3 -13 8.18 3.09
-7 3 12 18.06 4.58
-7 3 12 10.58 3.97
-7 3 12 6.65 3.08
7 -3 -12 5.36 2.91
7 -3 -12 4.91 2.63
-7 3 11 41.21 6.29
-7 3 11 45.08 6.71
-7 3 11 32.89 5.4
7 -3 -11 24.56 5.02
7 -3 -11 36.46 5.52
-7 3 10 0.7 1.9
-7 3 10 0.41 1.84
-7 3 10 0.12 1.41
7 -3 -10 0.89 1.76
7 -3 -10 -0.23 1.34
-7 -3 9 2.79 2.09
-7 3 9 1.52 1.8
-7 3 9 3.08 2.2
-7 3 9 2.88 2.14
7 -3 -9 0.46 1.58
7 -3 -9 2.05 1.64
7 3 -9 1.5 1.43
-7 -3 8 17.79 4.12
-7 3 8 11.1 3.06
-7 3 8 10.64 3.08
7 -3 -8 13.2 3.46
7 -3 -8 13.65 3.05
7 3 -8 11.64 2.47
-7 -3 7 5.38 2.54
-7 3 7 4.42 2.24
-7 3 7 4.2 2.15
7 -3 -7 5.11 2.35
7 -3 -7 3.27 1.65
7 3 -7 7.19 2.46
7 3 -7 6.01 1.87
-7 -3 6 2 1.67
-7 3 6 4.68 2.17
-7 3 6 1.9 1.5
7 -3 -6 5.47 2.19
7 -3 -6 2.06 1.35
7 3 -6 3.22 2.01
7 3 -6 2.67 1.34
-7 -3 5 0.16 1.31
-7 3 5 -0.46 1.05
-7 3 5 0.21 1.18
7 -3 -5 -0.53 0.89
7 -3 -5 -0.23 0.92
7 3 -5 -0.76 1.17
7 3 -5 -0.97 0.76
-7 -3 4 0.83 1.75
-7 -3 4 -0.49 1.16
-7 3 4 1.08 1.34
-7 3 4 0.45 1.18
7 -3 -4 -0.15 0.91
7 -3 -4 0.81 1.04
7 3 -4 0.26 1.36
7 3 -4 0.88 1.23
7 3 -4 1.48 1.11
-7 -3 3 2.99 1.99
-7 -3 3 1.88 1.8
-7 3 3 2.7 1.89
-7 3 3 1.1 1.17
7 -3 -3 1.46 1.14
7 3 -3 3.5 1.88
7 3 -3 3 1.6
7 3 -3 2.59 1.38
7 3 -3 2.05 1.44
-7 -3 2 13.16 3.48
-7 -3 2 9 2.77
-7 3 2 11.01 3
-7 3 2 14.3 2.88
7 -3 -2 8.94 2.78
7 3 -2 20.59 4.23
7 3 -2 11.62 2.62
7 3 -2 11.48 2.49
7 3 -2 13.49 2.84
-7 -3 1 117 7.63
-7 -3 1 123.15 7.85
-7 3 1 125.09 6.58
7 -3 -1 111.94 6.9
7 3 -1 153.26 8.65
7 3 -1 109.33 6.09
7 3 -1 146.68 7.59
-7 -3 0 36.94 4.57
-7 -3 0 35.21 5.31
-7 -3 0 31.8 3.24
-7 3 0 37.06 3.89
7 -3 0 35.97 4.03
7 3 0 46.68 5.06
7 3 0 35.67 4.07
7 3 0 30.37 3.56
7 3 0 41.51 4.62
-7 -3 -1 203.47 10.3
-7 -3 -1 240.43 10.99
-7 -3 -1 227.39 8.38
7 -3 1 227.05 9.32
7 3 1 259.57 11.59
7 3 1 250.03 10.19
7 3 1 201.67 8.88
7 3 1 291.29 11.62
-7 -3 -2 9.28 3.06
-7 -3 -2 12.77 3.4
-7 -3 -2 11.37 2.7
7 3 2 10.95 3.16
7 3 2 14.3 3.47
7 3 2 14.77 3.48
-7 -3 -3 4.3 2.26
-7 -3 -3 5.05 2.6
-7 -3 -3 8.64 2.4
7 3 3 6.6 2.81
7 3 3 6.28 2.44
7 3 3 9.79 3.15
-7 -3 -4 29.66 5.24
-7 -3 -4 32.38 5.43
-7 -3 -4 32.8 3.99
7 3 4 35.16 5.66
7 3 4 42.09 5.17
7 3 4 30.08 5.08
-7 -3 -5 8.71 3.25
-7 -3 -5 9.5 3.44
-7 -3 -5 8.85 2.75
7 3 5 16.49 4.17
7 3 5 13.88 4.05
7 3 5 8.95 3.33
-7 -3 -6 1.01 1.91
-7 -3 -6 0.26 1.95
-7 -3 -6 -0.74 1.47
7 3 6 0 1.52
7 3 6 -0.92 1.64
7 3 6 -0.16 1.67
-7 -3 -7 -0.91 1.51
-7 -3 -7 0.01 2.15
-7 -3 -7 -0.15 1.67
7 3 7 0.61 1.64
7 3 7 -1.07 1.9
7 3 7 0.24 1.91
-7 -3 -8 0.67 2.16
-7 -3 -8 0.53 1.66
7 3 8 0.8 2.25
7 3 8 -0.97 2.16
7 3 8 0.28 1.79
-7 -3 -9 0.02 2.42
-7 -3 -9 0.7 2.01
7 3 9 -0.29 2.1
7 3 9 2.29 2.47
7 3 9 1.38 2.65
7 3 9 0.47 2.17
-7 4 13 -2.35 2.21
-7 4 13 0.05 2.26
-7 4 13 -0.83 2.17
7 -4 -13 0.26 2.15
-7 4 12 -0.5 2.36
-7 4 12 0.86 2.57
-7 4 12 -0.93 1.87
7 -4 -12 0.52 2.07
-7 4 11 7.26 3.42
-7 4 11 7.16 3.36
-7 4 11 6.84 3.47
7 -4 -11 6.06 2.96
-7 -4 10 -0.36 2.09
-7 4 10 -0.09 2.04
-7 4 10 -0.01 1.97
-7 4 10 0.09 1.62
7 -4 -10 0.72 1.84
-7 -4 9 2.44 2.37
-7 4 9 2.5 2.4
-7 4 9 1.86 2.05
-7 4 9 2.87 2.16
7 -4 -9 2.96 2.08
-7 -4 8 15.51 4.22
-7 4 8 23.61 5.12
-7 4 8 21.28 4.44
-7 4 8 18.19 4.38
7 -4 -8 12.9 3.63
-7 -4 7 86.38 7.69
-7 4 7 80.33 7.43
-7 4 7 77.28 7.6
7 -4 -7 72.4 6.47
-7 -4 6 1.32 1.86
-7 4 6 0.28 1.75
7 -4 -6 2.08 1.77
7 4 -6 1.35 1.85
-7 -4 5 24.48 4.78
-7 -4 5 21.44 4.29
-7 4 5 20.91 4.36
7 -4 -5 22.4 4.15
7 4 -5 26.07 4.64
-7 -4 4 8.25 3.07
-7 -4 4 4.1 2.21
-7 4 4 6.56 2.66
7 4 -4 6.87 2.62
-7 -4 3 0.5 1.57
-7 -4 3 -0.27 1.66
-7 4 3 -0.7 1.27
7 4 -3 0.9 1.92
-7 -4 2 0.35 1.6
-7 -4 2 0.2 1.46
-7 4 2 -1.49 1.38
7 4 -2 0.3 1.69
7 4 -2 -0.74 0.87
-7 -4 1 -0.96 1.41
-7 -4 1 -0.67 1.42
-7 4 1 0.26 1.41
7 4 -1 0.4 1.7
7 4 -1 0 0.98
7 4 -1 -0.36 1.36
-7 -4 0 -0.02 1.43
-7 -4 0 1.05 2
-7 4 0 2.09 2.02
7 4 0 1.27 1.67
7 4 0 2.01 1.91
-7 -4 -1 1.5 1.99
-7 -4 -1 0.46 1.83
7 4 1 -1 1.5
7 4 1 0.06 1.6
-7 -4 -2 -0.33 1.65
-7 -4 -2 -1.03 1.56
7 4 2 0.44 1.7
7 4 2 1.14 1.84
-7 -4 -3 2.05 2.27
-7 -4 -3 5.58 3.07
7 4 3 3.01 2.41
7 4 3 7.57 3.04
7 4 3 3.89 2.46
-7 -4 -4 12.42 4.13
-7 -4 -4 8.59 3.72
7 4 4 16.59 4.34
7 4 4 18.07 4.5
7 4 4 18.21 4.48
-7 -4 -5 13.37 4.17
-7 -4 -5 9.42 3.78
7 4 5 15.12 4.41
7 4 5 20.14 4.75
7 4 5 18.86 4.96
-7 -4 -6 0.6 1.97
-7 -4 -6 4.37 3.09
7 4 6 1.96 2.59
7 4 6 -0.36 2.06
7 4 6 2.27 2.67
-7 -4 -7 7.9 3.67
-7 -4 -7 9.65 4.04
7 4 7 8.91 4.15
7 4 7 10.7 4.27
7 4 7 13.86 4.62
-7 -5 10 0.48 2.7
-7 5 10 -1.33 2.3
-7 5 10 -1.65 1.88
7 -5 -10 1.11 2.43
-7 -5 9 7.8 3.74
-7 5 9 3.58 3.03
-7 5 9 5.74 3.23
7 -5 -9 2.18 2.19
-7 -5 8 -0.54 2.35
-7 5 8 0.01 2.33
-7 5 8 0.24 1.93
7 -5 -8 0.51 1.92
-7 -5 7 0.62 2.15
-7 5 7 1.92 2.69
-7 5 7 4.17 2.61
7 -5 -7 -0.56 1.53
-7 -5 6 0.83 2.01
-7 5 6 -0.74 2.02
-7 5 6 0.76 2.27
-7 -5 5 5.04 2.82
-7 -5 5 10.25 3.76
-7 5 5 5.9 3.04
7 5 -5 12.75 4.8
-7 -5 4 1.93 2.22
-7 -5 4 1.21 2.06
-7 5 4 0.08 1.66
7 5 -4 -1.61 1.76
-7 -5 3 4.52 2.74
-7 -5 3 2.19 2.26
-7 5 3 2.28 2.33
7 5 -3 3.52 2.65
-7 -5 2 0.87 2.23
-7 -5 2 0.53 1.96
-7 5 2 0.79 1.9
7 5 -2 1.93 2.24
-7 -5 1 -1.38 1.79
-7 -5 1 -0.18 1.54
-7 5 1 0.85 2.13
7 5 -1 1.53 2.35
-7 -5 0 -0.98 1.68
-7 -5 0 1.32 2.29
-7 5 0 2 2.1
7 5 0 0.35 2.13
-7 -5 -1 -0.25 1.81
-7 -5 -1 0.83 2.05
-7 5 -1 0.91 2.19
7 5 1 -0.63 2.13
7 5 1 -0.15 1.85
-7 -5 -2 0.75 1.97
-7 -5 -2 -1.13 1.88
-7 5 -2 0.24 1.8
7 5 2 1.63 2.2
7 5 2 0.13 1.98
-7 -5 -3 1.02 2.3
-7 -5 -3 1.12 2.39
7 5 3 -0.27 1.77
7 5 3 -0.42 2.05
-7 -5 -4 -0.88 2.24
-7 -5 -4 1.46 2.67
7 5 4 -1.06 2.31
7 5 4 0.68 2.26
-7 -5 -5 0.21 2.11
-7 -5 -5 -0.61 2.49
7 5 5 3.4 3.01
7 5 5 -0.77 1.97
-8 0 16 0.15 1.9
8 0 -16 1.51 2.44
-8 0 15 -1.16 1.72
8 0 -15 -0.19 2.4
-8 0 14 15.33 3.97
8 0 -14 8.4 3.57
-8 0 13 0.06 1.45
8 0 -13 -0.25 1.94
-8 0 12 53.54 5.5
8 0 -12 39.7 4.56
-8 0 11 0.87 1.27
8 0 -11 0.07 1.03
8 0 -11 0.65 1.6
-8 0 10 44.09 4.59
-8 0 10 39.71 4.41
8 0 -10 36.9 4.26
8 0 -10 34.4 4.28
8 0 -10 30.07 6
-8 0 9 -0.85 0.86
-8 0 9 -0.31 1.01
8 0 -9 -0.3 1.19
8 0 -9 1.59 1.5
8 0 -9 -0.34 1.26
-8 0 8 1.02 1.15
-8 0 8 1.28 1.32
8 0 -8 1.19 1.36
8 0 -8 0.55 1.32
8 0 -8 1.06 1.23
-8 0 7 -0.13 0.78
-8 0 7 -0.82 0.86
8 0 -7 0.2 1.13
8 0 -7 -1.02 0.91
8 0 -7 0.62 1.12
-8 0 6 174.82 7.16
-8 0 6 157.71 6.27
-8 0 6 145.46 7.27
8 0 -6 179.05 8.38
8 0 -6 167.8 7.93
8 0 -6 141.75 7.46
-8 0 5 -0.02 0.98
-8 0 5 0.41 0.79
-8 0 5 -0.99 0.75
8 0 -5 -0.02 0.89
8 0 -5 0.4 0.97
8 0 -5 1.59 1.28
-8 0 4 19.43 2.41
-8 0 4 14.95 2.36
-8 0 4 15.31 2.83
8 0 -4 18.1 3.25
8 0 -4 14.93 2.93
8 0 -4 15.38 3.03
8 0 -4 17.96 3.05
-8 0 3 0.81 0.98
-8 0 3 -0.29 0.78
8 0 -3 0.09 1.04
8 0 -3 0.31 0.97
8 0 -3 -0.19 1
8 0 -3 0.32 0.82
-8 0 2 196.13 6.83
-8 0 2 197.16 8.29
8 0 -2 246.7 9.59
8 0 -2 222.35 8.83
8 0 -2 202.15 8.71
8 0 -2 229.78 8.89
-8 0 1 -0.65 0.85
-8 0 1 -0.21 1.05
8 0 -1 -0.74 0.86
8 0 -1 -0.08 0.88
8 0 -1 0.83 1.13
8 0 -1 -0.28 1.02
-8 0 0 324.4 9.13
-8 0 0 338.57 11.22
8 0 0 430.58 12.71
8 0 0 407.63 12.22
8 0 0 353.9 11.79
8 0 0 397.46 12.43
-8 0 -1 0.39 1.02
-8 0 -1 0.09 1.07
8 0 1 -0.51 0.81
8 0 1 0.51 1.06
8 0 1 0.14 1.04
8 0 1 -0.39 1.05
-8 0 -2 -0.19 1.14
-8 0 -2 -0.29 1.24
8 0 2 -0.18 0.99
8 0 2 0.08 0.89
8 0 2 0.16 1.1
8 0 2 0.69 1.3
-8 0 -3 0.82 1.3
-8 0 -3 -0.58 1.22
8 0 3 -0.17 1.02
8 0 3 -0.3 0.94
8 0 3 -0.7 1.08
8 0 3 -0.38 1.19
-8 0 -4 0.74 1.48
-8 0 -4 0.17 1.39
8 0 4 -0.15 1.18
8 0 4 0.71 1.21
8 0 4 -0.85 1.05
8 0 4 -0.49 0.91
-8 0 -5 -0.16 1.41
-8 0 -5 -0.83 1.29
8 0 5 0.12 1.11
8 0 5 -0.65 1.01
8 0 5 -0.8 1.28
8 0 5 1.64 1.7
-8 0 -6 0.15 1.8
-8 0 -6 -2.12 1.49
8 0 6 0.51 1.36
8 0 6 0 1.25
-8 0 -7 -0.94 1.63
-8 0 -7 1.72 2.09
8 0 7 0 1.41
8 0 7 1.19 1.66
-8 0 -8 5.67 3.03
8 0 8 8.77 3.3
8 0 8 5.73 2.82
-8 0 -9 2.81 2.68
8 0 9 0.25 1.93
8 0 9 0.17 1.85
-8 0 -10 4.42 3.26
8 0 10 2.78 2.77
8 0 10 3.25 2.71
-8 1 16 -1.09 2.09
8 -1 -16 -0.09 2.43
8 -1 -16 1.56 2.49
8 1 -16 -0.72 2.44
-8 -1 15 0.51 1.7
-8 1 15 3.73 2.54
-8 1 15 2.16 2.25
8 -1 -15 -0.87 2.01
8 -1 -15 -0.88 2.33
8 1 -15 -1.65 2.2
-8 -1 14 7.31 2.8
-8 1 14 3.7 2.53
-8 1 14 5.21 2.88
8 -1 -14 3.4 2.43
8 -1 -14 0.31 2.43
8 1 -14 3.01 2.38
-8 -1 13 0.38 1.32
-8 1 13 -0.06 1.6
-8 1 13 -0.03 1.63
8 -1 -13 -0.05 1.89
8 1 -13 -0.04 1.59
-8 -1 12 3.37 1.86
-8 1 12 6.41 2.49
-8 1 12 4.02 2.48
8 -1 -12 3.39 2.21
8 1 -12 2.17 2.18
-8 -1 11 17.87 3.5
-8 1 11 28.72 4.7
-8 1 11 24.55 4.7
8 -1 -11 23.53 4.41
8 -1 -11 21.19 4.11
8 1 -11 23.48 4.47
-8 -1 10 3.37 1.75
-8 1 10 2.56 1.72
-8 1 10 2.75 1.86
8 -1 -10 2.73 1.8
8 -1 -10 2.49 2
8 -1 -10 3.19 2.16
8 1 -10 3.15 1.84
8 1 -10 3.75 2.1
-8 -1 9 17.61 3.21
-8 1 9 25.57 4.04
-8 1 9 19.08 3.69
8 -1 -9 16.72 3.59
8 -1 -9 16.92 3.56
8 -1 -9 21.24 3.93
8 1 -9 19.81 3.63
8 1 -9 19.44 3.75
8 1 -9 19.28 3.56
-8 -1 8 310.64 11.44
-8 -1 8 269.45 9.84
-8 1 8 278.02 10.21
-8 1 8 238.12 10.14
8 -1 -8 261.59 10.83
8 -1 -8 268.46 10.66
8 -1 -8 251.14 10.71
8 1 -8 321.72 11.22
8 1 -8 250.58 10.15
8 1 -8 249.06 10.1
-8 -1 7 246.72 9.84
-8 -1 7 217.83 8.68
-8 1 7 229.99 9.03
-8 1 7 210.11 9.26
8 -1 -7 232.23 9.99
8 -1 -7 220.39 9.38
8 -1 -7 218.93 9.77
8 1 -7 282.36 10.48
8 1 -7 252.61 9.97
8 1 -7 154.7 7.77
-8 -1 6 114.86 6.57
-8 -1 6 99.87 5.86
-8 1 6 115.62 6.33
-8 1 6 107.04 6.58
8 -1 -6 115.97 7
8 -1 -6 99.05 6.16
8 -1 -6 104.62 6.66
8 1 -6 131.17 7.19
8 1 -6 104.65 6.37
8 1 -6 -0.15 0.74
-8 -1 5 20.47 3.27
-8 -1 5 21.6 3.38
-8 1 5 19.44 3.15
-8 1 5 20.46 3.37
8 -1 -5 23.96 3.91
8 -1 -5 18.52 3.21
8 -1 -5 20.47 3.47
8 1 -5 27.51 4.09
8 1 -5 25.88 3.9
8 1 -5 0.03 0.71
8 1 -5 23.52 2.66
-8 -1 4 1.96 1.28
-8 -1 4 1.77 1.16
-8 1 4 1.02 1.15
-8 1 4 -0.55 0.87
8 -1 -4 0.91 0.99
8 -1 -4 2.63 1.43
8 -1 -4 0.76 1.14
8 1 -4 2.34 1.4
8 1 -4 1.67 1.34
8 1 -4 0.44 0.72
8 1 -4 2.42 1.21
-8 -1 3 0.88 1.13
-8 -1 3 -0.11 0.84
-8 1 3 0.52 1.23
8 -1 -3 0.64 1.04
8 -1 -3 0.4 1.05
8 -1 -3 -0.15 0.89
8 1 -3 0.59 1.01
8 1 -3 0.51 0.98
8 1 -3 -0.29 0.71
8 1 -3 0.5 0.9
-8 -1 2 6.53 2.01
-8 -1 2 5.08 1.77
-8 1 2 6.15 1.99
8 -1 -2 7.35 2.4
8 -1 -2 6.35 1.93
8 -1 -2 2.74 1.54
8 -1 -2 5.21 1.9
8 1 -2 8.72 2.52
8 1 -2 8.82 2.37
8 1 -2 0.16 0.88
8 1 -2 10.05 2.49
-8 -1 1 0.91 1.1
-8 -1 1 -0.4 0.82
-8 1 1 -0.36 0.83
8 -1 -1 0.51 1.25
8 -1 -1 0.01 0.98
8 -1 -1 0.06 0.9
8 -1 -1 0.32 1.12
8 1 -1 -0.58 0.91
8 1 -1 0.58 1.09
8 1 -1 0.03 0.98
8 1 -1 0.17 0.99
-8 -1 0 9.7 2.48
-8 -1 0 11.96 2.65
-8 -1 0 7.68 2.21
-8 1 0 8.39 2.47
8 -1 0 9.88 2.66
8 -1 0 7.85 2.19
8 -1 0 10.59 2.74
8 -1 0 6.39 2.24
8 1 0 11.88 2.84
8 1 0 9.91 2.59
8 1 0 9.97 2.57
8 1 0 12.78 3.04
-8 -1 -1 28.41 3.5
-8 -1 -1 41.33 3.97
-8 -1 -1 33.77 3.82
-8 1 -1 31.87 3.82
8 -1 1 43.54 4.18
8 -1 1 34.01 3.72
8 -1 1 30.34 4.43
8 -1 1 36.11 4.25
8 1 1 39.96 4.27
8 1 1 36.54 4.15
8 1 1 32.94 4.7
8 1 1 36.91 4.28
-8 -1 -2 6.67 2.26
-8 -1 -2 6.96 2.25
-8 -1 -2 6.98 2.33
-8 1 -2 3.86 1.87
8 -1 2 8.55 2.33
8 -1 2 7.52 2.35
8 -1 2 4.4 1.94
8 -1 2 3.81 2.12
8 1 2 7 2.46
8 1 2 4.59 1.98
8 1 2 4.49 2.06
8 1 2 6.04 2.37
-8 -1 -3 4.81 2.13
-8 -1 -3 10.13 2.61
-8 -1 -3 7.79 2.43
-8 1 -3 6.74 2.39
8 -1 3 11.3 2.73
8 -1 3 10.4 2.67
8 -1 3 7.46 2.41
8 -1 3 10.36 2.94
8 1 3 11.31 2.89
8 1 3 8.66 2.69
8 1 3 8.73 2.82
8 1 3 12.24 3.22
-8 -1 -4 11.62 3.07
-8 -1 -4 5.32 2.21
-8 1 -4 6.11 2.41
8 -1 4 9.29 2.54
8 -1 4 8.77 2.6
8 -1 4 5.07 2.27
8 -1 4 7.7 2.79
8 1 4 8.07 2.64
8 1 4 8.92 2.91
8 1 4 6.93 2.6
-8 -1 -5 29.32 4.87
-8 -1 -5 29.88 5.02
-8 1 -5 31.12 5.11
8 -1 5 32.99 4.93
8 -1 5 40.47 6.13
8 1 5 25.7 4.36
8 1 5 36.53 5.36
8 1 5 41.45 6.12
8 1 5 39.9 6.2
-8 -1 -6 12.87 3.54
-8 -1 -6 10.9 3.36
-8 1 -6 13.21 3.61
8 -1 6 14.28 3.5
8 -1 6 9.88 3.33
8 1 6 12.95 3.47
8 1 6 15.75 3.8
8 1 6 14.55 3.86
8 1 6 16.48 4.26
-8 -1 -7 0.37 1.82
-8 -1 -7 2.06 1.96
-8 1 -7 4.19 2.67
8 -1 7 4.17 2.35
8 -1 7 2.89 2.21
8 1 7 2.86 2.14
8 1 7 -0.56 1.85
8 1 7 5.21 2.85
-8 -1 -8 1.95 2.53
-8 -1 -8 -0.74 1.95
-8 1 -8 2.02 2.12
8 -1 8 0.61 1.6
8 -1 8 0 1.3
8 1 8 -0.24 1.86
8 1 8 -0.76 1.83
8 1 8 0.86 1.98
-8 -1 -9 0.47 2.33
-8 -1 -9 -0.36 2.01
-8 1 -9 1.13 2.18
8 -1 9 1.46 1.9
8 -1 9 3.39 2.65
8 1 9 1.35 2.24
8 1 9 -0.1 2.16
8 1 9 -0.05 2.03
-8 -1 -10 -2.24 2.56
-8 -1 -10 1.51 2.18
-8 1 -10 1.17 2.48
8 -1 10 -1.65 2.15
8 1 10 0.53 2.49
8 1 10 -0.5 2.32
8 1 10 -1.12 1.91
-8 2 15 0.16 2.09
-8 2 15 -0.3 2.3
8 -2 -15 -1.01 1.54
8 -2 -15 0.05 2.32
8 2 -15 1.29 2.47
-8 2 14 1.6 2.22
-8 2 14 0.53 2.22
8 -2 -14 1.97 2.34
8 -2 -14 0.15 1.76
8 2 -14 2.42 2.52
-8 2 13 0.33 1.77
-8 2 13 -0.63 1.9
8 -2 -13 0.29 1.56
8 -2 -13 -0.82 1.46
8 2 -13 1.01 2.13
-8 2 12 21.36 4.63
-8 2 12 22.97 5.07
8 -2 -12 17.49 4.64
8 -2 -12 22.84 4.7
8 2 -12 16.28 3.95
-8 2 11 46.14 5.57
-8 2 11 44.07 6.39
-8 2 11 43.09 4.84
8 -2 -11 35.89 6.23
8 -2 -11 39.67 4.91
8 2 -11 40.71 5
-8 2 10 69.01 6.27
-8 2 10 64.73 6.28
8 -2 -10 64.23 6.27
8 -2 -10 62.21 5.72
8 -2 -10 60.91 6.21
8 2 -10 61.6 5.77
-8 -2 9 121.16 8.2
-8 -2 9 104.91 5.83
-8 2 9 111.25 7.53
-8 2 9 107.74 7.57
8 -2 -9 110.7 7.65
8 -2 -9 107.12 7.16
8 -2 -9 111.27 7.84
8 2 -9 132.34 7.36
8 2 -9 103.48 6.93
-8 -2 8 0.34 1.55
-8 -2 8 -0.03 0.91
-8 2 8 1.36 1.45
-8 2 8 0.84 1.35
8 -2 -8 -0.47 1.17
8 -2 -8 0.47 1.23
8 -2 -8 0.49 1.28
8 -2 -8 -0.52 1.37
8 2 -8 0.59 1.41
8 2 -8 1.65 1.63
8 2 -8 0.26 1.12
-8 -2 7 13.99 3.35
-8 -2 7 18.3 2.88
-8 2 7 15.24 3.14
-8 2 7 15.88 3.47
8 -2 -7 19.14 3.95
8 -2 -7 20.95 4.18
8 -2 -7 14.18 3.01
8 -2 -7 15.33 3.4
8 2 -7 21.48 3.78
8 2 -7 16.01 3.18
8 2 -7 19 3.42
-8 -2 6 5.7 2.2
-8 -2 6 3.76 1.41
-8 2 6 3.42 1.88
-8 2 6 6.47 2.29
8 -2 -6 2.15 1.59
8 -2 -6 6.27 2.08
8 -2 -6 6.09 2.27
8 2 -6 8.87 2.78
8 2 -6 5.11 2.06
8 2 -6 4.36 1.79
-8 -2 5 46.55 4.73
-8 -2 5 48.49 3.92
-8 2 5 52.11 4.88
-8 2 5 43.72 4.34
8 -2 -5 45.54 4.76
8 -2 -5 44.91 4.17
8 -2 -5 46.24 4.53
8 2 -5 65.21 5.45
8 2 -5 54.61 4.7
8 2 -5 49.23 4.34
-8 -2 4 35.59 4.21
-8 -2 4 40.96 3.66
-8 2 4 42.24 4.47
-8 2 4 36.47 3.92
8 -2 -4 45.61 4.69
8 -2 -4 37.71 3.74
8 -2 -4 44.91 4.49
8 2 -4 51.28 4.87
8 2 -4 47.16 4.38
8 2 -4 37.57 3.82
8 2 -4 50.86 3.92
-8 -2 3 10.97 2.91
-8 -2 3 5.82 1.8
-8 2 3 5.62 1.96
-8 2 3 8.92 2.37
8 -2 -3 8.42 2.49
8 -2 -3 10.54 2.41
8 -2 -3 8.81 2.46
8 2 -3 12.67 3.02
8 2 -3 11.39 2.7
8 2 -3 7.41 2.24
8 2 -3 9.51 2.4
-8 -2 2 1.11 1.65
-8 -2 2 3.84 2
-8 -2 2 2.39 1.35
-8 2 2 2.16 1.53
8 -2 -2 3.74 1.75
8 -2 -2 1.89 1.25
8 -2 -2 0.85 1.11
8 2 -2 2.85 1.98
8 2 -2 2 1.58
8 2 -2 2.93 1.52
8 2 -2 1.97 1.46
-8 -2 1 1.64 1.61
-8 -2 1 1.12 1.51
-8 -2 1 0.21 1.06
-8 2 1 1.27 1.27
8 -2 -1 0.8 1.16
8 -2 -1 -0.19 0.92
8 -2 -1 0.74 1.3
8 2 -1 1.54 1.66
8 2 -1 1.66 1.48
8 2 -1 1.07 1.21
8 2 -1 0.25 1.02
-8 -2 0 28.06 4.43
-8 -2 0 38.76 4.38
-8 -2 0 29.65 3.51
-8 2 0 21.99 3.65
8 -2 0 34.47 3.94
8 -2 0 33.59 3.39
8 2 0 41.37 4.68
8 2 0 38.91 4.33
8 2 0 31.19 3.87
8 2 0 32.63 4.03
-8 -2 -1 0.8 1.47
-8 -2 -1 0.14 1.56
-8 -2 -1 0.44 1.2
-8 2 -1 1.01 1.28
8 -2 1 0.38 1.22
8 -2 1 0.93 1.14
8 2 1 1.21 1.7
8 2 1 1.42 1.46
8 2 1 1.37 1.42
8 2 1 -0.42 0.96
-8 -2 -2 4.82 2.54
-8 -2 -2 3.69 2.17
-8 -2 -2 4.4 2.08
-8 2 -2 1.96 1.72
8 -2 2 4.89 2.01
8 -2 2 5.96 2.02
8 -2 2 4.62 2.19
8 2 2 4.71 2.25
8 2 2 4.54 2.28
8 2 2 5.82 2.33
-8 -2 -3 13.47 3.45
-8 -2 -3 14.82 3.57
-8 -2 -3 17.08 3.43
-8 2 -3 18.87 3.89
8 -2 3 22.35 3.47
8 -2 3 22.45 4.35
8 2 3 26.45 4.81
8 2 3 23.73 4.64
8 2 3 23.19 4.36
-8 -2 -4 -0.32 1.76
-8 -2 -4 0.87 1.65
-8 -2 -4 0.03 1.46
-8 2 -4 -0.67 1.31
8 -2 4 -0.29 0.98
8 -2 4 0.38 1.5
8 2 4 0.25 1.26
8 2 4 0.21 1.53
8 2 4 0.76 1.6
8 2 4 -0.54 1.32
-8 -2 -5 0.47 1.83
-8 -2 -5 0.05 1.91
-8 -2 -5 0.02 1.58
-8 2 -5 -0.32 1.58
8 -2 5 -0.57 1.23
8 2 5 0.26 1.44
8 2 5 -0.22 1.38
8 2 5 -0.11 1.71
8 2 5 -0.94 1.35
-8 -2 -6 -0.25 1.97
-8 -2 -6 -0.05 1.55
-8 2 -6 0.14 1.99
8 -2 6 0.65 1.86
8 2 6 1.41 1.63
8 2 6 2.77 2.28
8 2 6 -0.28 1.88
8 2 6 2.66 2.17
-8 -2 -7 4.94 2.99
-8 -2 -7 7.24 2.99
-8 2 -7 6.51 2.99
8 -2 7 6.17 3.12
8 2 7 4.91 2.52
8 2 7 9.54 3.53
8 2 7 12.07 4.14
8 2 7 2.92 2.44
-8 -2 -8 4.84 3.01
-8 -2 -8 2.52 2.4
-8 2 -8 4.8 3
8 -2 8 2.62 2.24
8 2 8 7.44 3.01
8 2 8 6.14 3.19
8 2 8 5.01 2.9
-8 -2 -9 -0.22 2.62
-8 -2 -9 0.82 2.24
-8 2 -9 -2.33 1.87
8 -2 9 -0.19 1.84
8 2 9 1.3 2.2
8 2 9 -0.33 2.14
8 2 9 0.17 2.42
-8 3 14 -0.08 2.34
-8 3 14 0.63 2.51
8 -3 -14 0.5 2.22
8 -3 -14 0.58 2.18
-8 3 13 -0.3 1.75
-8 3 13 0.99 2.66
-8 3 13 0.47 2.23
8 -3 -13 -0.48 1.51
8 -3 -13 1.54 1.98
-8 3 12 3.87 2.74
-8 3 12 1.35 2.39
-8 3 12 0.54 1.92
8 -3 -12 2.87 2.57
8 -3 -12 0.75 1.93
-8 3 11 0.43 1.93
-8 3 11 -1.23 1.78
-8 3 11 0.01 1.59
8 -3 -11 -0.51 1.43
8 -3 -11 0.9 1.6
-8 -3 10 -0.26 1.77
-8 3 10 -0.87 1.65
-8 3 10 0.05 1.93
-8 3 10 2.53 2.11
8 -3 -10 0.52 1.67
8 -3 -10 1.41 1.82
-8 -3 9 2.49 2.26
-8 3 9 0.73 1.78
-8 3 9 0.01 1.66
8 -3 -9 -1.6 1.09
8 -3 -9 0.66 1.29
-8 -3 8 4.94 2.82
-8 3 8 4.51 2.57
-8 3 8 3.89 2.38
8 -3 -8 3.26 1.99
8 -3 -8 2.8 1.82
8 3 -8 6.11 2.44
-8 -3 7 0.99 1.77
-8 3 7 -0.22 1.23
-8 3 7 -0.26 1.33
8 -3 -7 -0.13 1.14
8 -3 -7 0.53 1.13
8 3 -7 -0.31 1.46
8 3 -7 0.14 1.11
-8 -3 6 0.15 1.52
-8 3 6 1.33 1.66
-8 3 6 1.91 1.66
8 -3 -6 2.58 1.77
8 -3 -6 1.09 1.2
8 3 -6 3.31 2.07
8 3 -6 1.63 1.23
-8 -3 5 1.54 1.8
-8 3 5 7.24 2.68
-8 3 5 6.35 2.17
8 -3 -5 1.5 1.45
8 -3 -5 3.74 1.62
8 3 -5 6.03 2.56
8 3 -5 5.18 2.1
8 3 -5 2.99 1.44
-8 -3 4 4.89 2.4
-8 3 4 3.71 1.9
-8 3 4 3.46 1.86
8 -3 -4 3.85 2.07
8 -3 -4 3.51 1.73
8 -3 -4 4.31 1.67
8 3 -4 4.83 2.37
8 3 -4 4.98 2
8 3 -4 3.38 1.59
-8 -3 3 0.43 1.62
-8 -3 3 0.43 1.32
-8 3 3 1.2 1.46
-8 3 3 2.24 1.66
8 -3 -3 2.24 1.69
8 3 -3 3.53 1.96
8 3 -3 1.44 1.52
8 3 -3 1.24 1.2
-8 -3 2 0.48 1.67
-8 -3 2 0.77 1.71
-8 3 2 2.26 1.87
-8 3 2 0.63 1.23
8 -3 -2 1.38 1.53
8 3 -2 2.91 2.07
8 3 -2 1.96 1.71
8 3 -2 1.84 1.43
8 3 -2 3.82 1.94
-8 -3 1 13.42 3.59
-8 -3 1 13 3.59
-8 -3 1 13.4 3.07
-8 3 1 14.42 3.07
8 -3 -1 16.9 3.57
8 3 -1 23.83 4.66
8 3 -1 18.21 3.57
8 3 -1 12.18 2.98
8 3 -1 18.07 3.53
-8 -3 0 2.2 1.85
-8 -3 0 2.01 1.98
-8 -3 0 2.27 1.38
-8 3 0 1.83 1.67
8 -3 0 1.66 1.52
8 3 0 0.92 1.62
8 3 0 4.41 2.11
8 3 0 4.14 2.24
-8 -3 -1 3.11 2.2
-8 -3 -1 6.47 3.02
-8 -3 -1 4.56 1.9
8 -3 1 4.83 2.08
8 3 1 4.43 2.4
8 3 1 5.3 2.42
8 3 1 9.46 3.1
-8 -3 -2 4.57 2.33
-8 -3 -2 7.64 3.02
-8 -3 -2 3.35 1.9
8 3 2 4.8 2.55
8 3 2 4.61 2.4
8 3 2 7.76 3
-8 -3 -3 5.91 2.8
-8 -3 -3 9.44 3.37
-8 -3 -3 5.58 2.19
8 3 3 5.79 2.95
8 3 3 7 2.71
8 3 3 6.78 2.85
-8 -3 -4 1.07 1.87
-8 -3 -4 0.51 2.1
-8 -3 -4 -0.11 1.33
8 3 4 2.09 2.09
8 3 4 -0.28 1.86
8 3 4 -1.04 1.4
-8 -3 -5 0.72 2.04
-8 -3 -5 2.02 2.18
-8 -3 -5 0.05 1.38
8 3 5 1.14 2.07
8 3 5 1.11 2.25
8 3 5 1.2 2.08
-8 -3 -6 0.69 2.23
-8 -3 -6 0.97 2.26
-8 -3 -6 -0.61 1.56
8 3 6 -0.41 1.77
8 3 6 1.13 2.07
8 3 6 -1.07 1.78
-8 -3 -7 -0.69 2.18
-8 -3 -7 -1.63 1.68
8 3 7 -0.86 1.8
8 3 7 -0.17 2.08
8 3 7 1.48 2.47
-8 -3 -8 -1.32 2.26
-8 -3 -8 1.57 2.34
8 3 8 1.03 2.45
8 3 8 -0.12 2.56
8 3 8 0.34 2.23
-8 4 12 4.68 3.07
-8 4 12 4.75 3.39
-8 4 12 0.2 2.56
8 -4 -12 5.71 3.08
-8 4 11 5.26 3.13
-8 4 11 4.82 3.13
-8 4 11 4.01 2.73
8 -4 -11 6.04 3.33
-8 -4 10 4.82 3.02
-8 4 10 2.55 2.74
-8 4 10 0.18 2.04
-8 4 10 1.94 2.46
8 -4 -10 -0.24 1.61
-8 -4 9 2.08 2.36
-8 4 9 4.45 2.97
-8 4 9 2.16 2.35
-8 4 9 1.66 1.99
8 -4 -9 0.55 1.85
-8 -4 8 -0.39 1.98
-8 4 8 2.07 2.25
-8 4 8 0.99 2.11
8 -4 -8 2.4 1.95
-8 -4 7 1.77 2.1
-8 4 7 0.78 1.77
-8 4 7 -0.84 1.75
8 -4 -7 0.2 1.44
-8 -4 6 7 3.16
-8 4 6 2.34 2.11
8 -4 -6 4.8 2.33
8 4 -6 11.07 3.37
-8 -4 5 -0.32 1.45
-8 4 5 1.09 1.77
8 4 -5 -0.12 1.7
-8 -4 4 0.38 1.93
-8 -4 4 -0.05 1.6
-8 4 4 -0.11 1.52
8 4 -4 -0.04 1.59
-8 -4 3 3.09 2.42
-8 -4 3 1.45 1.93
-8 4 3 1.04 1.65
8 4 -3 0.58 1.91
-8 -4 2 -1.09 1.33
-8 -4 2 0.51 1.83
-8 4 2 1.16 1.9
8 4 -2 0.44 1.93
-8 -4 1 3.07 2.36
-8 -4 1 1.94 2.24
-8 4 1 1.48 1.93
8 4 -1 3.4 2.62
8 4 -1 3.62 2.05
-8 -4 0 1.03 1.93
-8 -4 0 3.57 2.41
8 4 0 3.85 2.46
8 4 0 0.46 1.74
-8 -4 -1 1.19 2.11
-8 -4 -1 1.43 2.26
8 4 1 0.53 1.91
8 4 1 1.96 2.22
-8 -4 -2 0.26 1.95
-8 -4 -2 2.36 2.14
8 4 2 1.51 2.06
8 4 2 2.67 2.61
8 4 2 0.92 2.03
-8 -4 -3 1.44 2.31
-8 -4 -3 -0.56 1.89
8 4 3 1.06 1.84
8 4 3 -0.78 2.02
8 4 3 2.37 2.05
-8 -4 -4 -0.72 1.94
-8 -4 -4 -0.6 2.46
8 4 4 1.09 2.3
8 4 4 1.5 2.36
8 4 4 0.49 2.12
-8 -4 -5 2.42 2.83
-8 -4 -5 3.08 2.83
8 4 5 5.67 3.42
8 4 5 5.82 3.21
8 4 5 3.66 2.87
-8 -4 -6 3.12 2.81
-8 -4 -6 3.8 3.33
8 4 6 7.51 3.83
8 4 6 5.93 3.49
8 4 6 8.87 4.13
-8 -5 9 0 2.32
-8 5 9 -1.19 2.57
-8 5 9 -0.12 1.73
8 -5 -9 -0.79 1.97
-8 -5 8 -1.57 2.24
-8 5 8 -0.19 2.55
-8 5 8 -0.26 2.04
8 -5 -8 -0.44 1.82
-8 -5 7 2.04 2.68
-8 5 7 3.77 3.07
-8 5 7 3.18 2.79
-8 -5 6 12.01 4.07
-8 5 6 14.96 4.53
-8 -5 5 3.8 2.73
-8 5 5 1.66 2.64
8 5 -5 4.18 2.79
-8 -5 4 12.75 4.15
-8 -5 4 6.37 2.92
-8 5 4 8.23 3.66
8 5 -4 12.22 4.27
-8 -5 3 0.12 2.16
-8 -5 3 0.39 2.05
-8 5 3 0.33 2.11
8 5 -3 2.27 2.64
-8 -5 2 1.82 2.78
-8 -5 2 1.49 2.13
-8 5 2 0.68 2.28
8 5 -2 4.47 3.01
-8 -5 1 2.24 2.66
-8 -5 1 4.72 2.89
-8 5 1 5.76 3.26
8 5 -1 8.42 3.74
-8 -5 0 -0.26 2.14
-8 -5 0 0.7 2.04
-8 5 0 1.51 2.35
8 5 0 0.04 2.23
-8 -5 -1 1.13 2.3
-8 -5 -1 -1.74 2.04
-8 5 -1 -0.18 2.06
8 5 1 -0.2 2.17
8 5 1 -2.01 2
-8 -5 -2 0.54 2.32
-8 -5 -2 4.54 3.26
-8 5 -2 2.48 2.53
8 5 2 0.23 2.3
8 5 2 2.31 2.6
-8 -5 -3 3.23 2.89
-8 -5 -3 1.39 2.65
8 5 3 3.52 3.43
8 5 3 2 2.98
-9 0 16 3.66 2.7
9 0 -16 2.2 3.19
-9 0 15 0.87 1.81
9 0 -15 1.85 2.71
-9 0 14 0.54 1.72
9 0 -14 -0.15 2.17
-9 0 13 -0.82 1.35
9 0 -13 2.63 2.29
-9 0 12 5.61 2.51
9 0 -12 7.98 2.88
9 0 -12 9.99 3.28
-9 0 11 0.1 1.27
9 0 -11 -0.23 1.35
9 0 -11 0.75 1.56
-9 0 10 -0.29 1.17
9 0 -10 0.4 1.58
9 0 -10 -0.46 1.59
-9 0 9 -0.59 1.11
9 0 -9 -0.54 1
9 0 -9 -0.01 1.44
9 0 -9 0.32 1.67
-9 0 8 4.85 2.14
9 0 -8 11.29 3.17
9 0 -8 7.84 2.56
9 0 -8 7.55 2.53
-9 0 7 0.17 1.58
-9 0 7 -0.04 1.3
9 0 -7 -0.4 1.1
9 0 -7 -1.45 1.05
9 0 -7 -0.13 1.32
-9 0 6 42.23 3.89
-9 0 6 37.4 3.46
-9 0 6 37.58 4.19
9 0 -6 48.2 4.83
9 0 -6 34.29 4.04
9 0 -6 38.7 4.41
-9 0 5 -0.34 1.05
-9 0 5 0.07 0.97
-9 0 5 0.45 1.16
9 0 -5 1.04 1.25
9 0 -5 -0.09 1.11
9 0 -5 -0.45 1.11
-9 0 4 65.38 4.36
-9 0 4 58.85 4.19
-9 0 4 60.03 5.07
9 0 -4 70.23 5.69
9 0 -4 58.42 5.06
9 0 -4 58.21 5.07
9 0 -4 62.03 4.88
-9 0 3 -0.56 0.99
-9 0 3 -0.01 1.12
9 0 -3 -0.1 1.07
9 0 -3 0.25 1.12
9 0 -3 -0.5 1.11
9 0 -3 0.57 1.11
-9 0 2 25.94 3.03
-9 0 2 23.27 3.83
9 0 -2 28.56 4.55
9 0 -2 22.52 3.8
9 0 -2 22.49 3.82
9 0 -2 30.07 3.69
-9 0 1 0.3 1.18
-9 0 1 -0.75 0.9
9 0 -1 -0.12 0.92
9 0 -1 -0.54 0.94
9 0 -1 0.39 1.19
9 0 -1 0.14 1.14
-9 0 0 -0.28 1.11
-9 0 0 0.19 1.27
9 0 0 -0.01 0.99
9 0 0 -0.03 0.97
9 0 0 -0.43 1.05
9 0 0 0.51 1.27
-9 0 -1 0.51 1.35
-9 0 -1 -0.04 1.2
9 0 1 1.14 1.45
9 0 1 -0.56 1.17
9 0 1 0.6 1.23
9 0 1 0.78 1.1
-9 0 -2 1.78 1.6
9 0 2 1.49 1.53
9 0 2 1.53 1.4
9 0 2 2.31 1.87
9 0 2 2.94 1.89
-9 0 -3 -0.95 1.08
9 0 3 0.87 1.42
9 0 3 -0.61 1.11
9 0 3 0.01 1.4
9 0 3 0.47 1.34
-9 0 -4 -0.66 1.64
9 0 4 -0.34 1.27
9 0 4 0.46 1.51
9 0 4 -0.5 1.37
-9 0 -5 -0.89 1.82
9 0 5 -0.62 1.41
9 0 5 0.15 1.62
9 0 5 -0.18 1.57
-9 0 -6 12.13 3.71
9 0 6 13.41 3.65
9 0 6 17.44 4.49
-9 0 -7 1.74 2.39
9 0 7 -0.45 1.44
9 0 7 -0.03 1.83
-9 0 -8 1.03 2.52
9 0 8 6.95 3.18
9 0 8 3.84 2.51
-9 0 -9 -1.16 2.48
9 0 9 0.16 2.15
9 0 9 1.66 2.37
-9 1 16 0.88 2.21
9 -1 -16 0.56 2.64
9 -1 -16 0.11 2.54
9 1 -16 0.63 2.5
-9 -1 15 3.52 2.62
-9 1 15 2.17 2.51
9 -1 -15 4.84 3.13
9 -1 -15 2.66 2.63
9 1 -15 2.98 2.94
-9 -1 14 0.97 1.58
-9 1 14 0.22 1.96
9 -1 -14 -0.7 2.02
9 -1 -14 2 2.2
9 1 -14 1.78 2.26
-9 -1 13 4.68 2.39
-9 1 13 3.69 2.46
-9 1 13 3.13 2.51
9 -1 -13 3.27 2.62
9 1 -13 5.45 2.76
-9 -1 12 45.85 4.97
-9 1 12 53.99 5.57
-9 1 12 44.3 5.46
9 -1 -12 46.74 5.53
9 -1 -12 45.32 5.47
9 1 -12 49.24 5.86
-9 -1 11 1.85 1.58
-9 1 11 1.21 1.69
-9 1 11 2.67 2.07
9 -1 -11 2.63 2.09
9 -1 -11 -0.04 1.39
9 1 -11 2.94 2.04
9 1 -11 2.18 2.26
-9 -1 10 24.32 4.06
-9 1 10 27.43 4.46
-9 1 10 15.51 3.69
9 -1 -10 18.88 3.96
9 -1 -10 25.57 4.73
9 1 -10 20.6 3.91
9 1 -10 20.57 4.18
-9 -1 9 7.03 2.26
-9 1 9 8.11 2.43
-9 1 9 4.86 2.16
9 -1 -9 9.97 3.15
9 -1 -9 5.75 2.2
9 -1 -9 3.75 2.15
9 1 -9 7.86 2.69
9 1 -9 7.54 2.81
-9 -1 8 23.54 4.19
-9 -1 8 13.31 3.02
-9 1 8 20.05 3.58
-9 1 8 11.5 2.99
9 -1 -8 17.43 3.95
9 -1 -8 16.43 3.59
9 -1 -8 17.76 3.86
9 1 -8 18.4 3.61
9 1 -8 18.58 3.75
9 1 -8 13.64 3.29
-9 -1 7 2.63 1.91
-9 -1 7 1.85 1.47
-9 1 7 0.59 1.32
-9 1 7 2.83 1.69
9 -1 -7 3.15 2.01
9 -1 -7 1.49 1.63
9 -1 -7 1.3 1.41
9 1 -7 3.41 1.98
9 1 -7 2.17 1.77
9 1 -7 2.47 1.68
-9 -1 6 2.16 1.6
-9 -1 6 2.94 1.52
-9 1 6 1.35 1.26
-9 1 6 1.54 1.41
9 -1 -6 2.37 1.73
9 -1 -6 0.44 1.39
9 -1 -6 0.91 1.44
9 1 -6 4.76 2.01
9 1 -6 1.01 1.38
9 1 -6 2.16 1.59
9 1 -6 3 1.44
-9 -1 5 13.3 2.96
-9 -1 5 13.25 2.9
-9 1 5 9.59 2.44
-9 1 5 12.81 3.06
9 -1 -5 9.59 2.7
9 -1 -5 10.62 2.79
9 -1 -5 8.51 2.56
9 1 -5 13.64 3.13
9 1 -5 13.15 3.14
9 1 -5 6.74 2.21
9 1 -5 11.95 2.53
-9 -1 4 0.19 1.12
-9 -1 4 -0.54 0.88
-9 1 4 0.27 1.17
-9 1 4 0.27 1.26
9 -1 -4 0.58 1.24
9 -1 -4 0.19 1.12
9 -1 -4 -0.01 1.2
9 1 -4 -0.44 1
9 1 -4 -0.63 1.18
9 1 -4 0.39 1.24
9 1 -4 1.06 1.18
-9 -1 3 5.98 2.05
-9 -1 3 9.37 2.44
-9 1 3 12.6 3.09
9 -1 -3 13.28 3.16
9 -1 -3 11.9 2.82
9 -1 -3 8.26 2.48
9 1 -3 10.42 2.76
9 1 -3 8.51 2.52
9 1 -3 10.18 2.63
9 1 -3 9.74 2.48
-9 -1 2 9.32 2.54
-9 -1 2 7.59 2.24
-9 1 2 5.09 1.96
9 -1 -2 7.3 2.5
9 -1 -2 7.34 2.3
9 -1 -2 8.5 2.56
9 -1 -2 6.98 2.43
9 1 -2 7.84 2.51
9 1 -2 7.64 2.39
9 1 -2 5.18 2
9 1 -2 6.53 2.2
-9 -1 1 17.02 3.31
-9 -1 1 13.23 2.92
-9 1 1 15.65 3.32
9 -1 -1 19.52 3.91
9 -1 -1 14.6 3.02
9 -1 -1 19.69 3.7
9 -1 -1 20.06 4.07
9 1 -1 19.93 3.95
9 1 -1 15.6 3.34
9 1 -1 16.57 3.46
9 1 -1 16.58 3.52
-9 -1 0 9.42 2.58
-9 -1 0 7.96 2.47
-9 1 0 11.15 2.89
9 -1 0 9.74 2.69
9 -1 0 14.22 3.19
9 -1 0 9.96 2.81
9 -1 0 10.42 3.04
9 1 0 13.35 3.4
9 1 0 7.32 2.51
9 1 0 8.96 2.68
9 1 0 14.75 3.38
-9 -1 -1 -0.6 1.14
-9 -1 -1 -0.96 1.21
-9 -1 -1 0.97 1.32
-9 1 -1 -0.84 1.22
9 -1 1 0.6 1.18
9 -1 1 0.69 1.22
9 -1 1 -0.63 0.9
9 -1 1 -0.19 1.19
9 1 1 -0.32 1.17
9 1 1 -0.19 1.37
9 1 1 0.51 1.27
9 1 1 -0.38 1.39
-9 -1 -2 4.11 2.15
-9 -1 -2 4.57 2.68
-9 -1 -2 5.39 2.28
-9 1 -2 4.15 2.34
9 -1 2 4.31 2
9 -1 2 2.3 1.55
9 -1 2 2.45 1.7
9 -1 2 4.68 2.38
9 1 2 5.05 2.32
9 1 2 8.13 2.93
9 1 2 3.56 2.22
-9 -1 -3 28.1 4.54
-9 -1 -3 25.88 4.53
-9 1 -3 21.36 4.25
9 -1 3 35.07 4.12
9 -1 3 36.44 4.39
9 -1 3 26.58 4.82
9 -1 3 35.62 5.75
9 1 3 38.58 5.76
9 1 3 28.15 4.9
9 1 3 40.8 6.15
-9 -1 -4 39.84 4.93
-9 -1 -4 34.87 5.51
-9 1 -4 43.11 5.35
9 -1 4 48.4 5.01
9 -1 4 45.32 5.4
9 1 4 55.28 5.69
9 1 4 39.15 5.81
9 1 4 57.7 6.31
-9 -1 -5 9.01 3.16
-9 -1 -5 11.47 3.62
-9 1 -5 14.53 3.82
9 -1 5 21.15 4.47
9 -1 5 19.09 4.46
9 1 5 21.5 4.38
9 1 5 15.04 3.79
9 1 5 21.77 4.94
-9 -1 -6 7.13 3.08
-9 -1 -6 6.63 3.01
-9 1 -6 7.16 2.96
9 -1 6 7.63 2.99
9 -1 6 8.39 3.12
9 1 6 7.42 3.07
9 1 6 15.26 4.28
9 1 6 8.07 3.5
-9 -1 -7 0.28 2.05
-9 -1 -7 1.87 2.13
-9 1 -7 -0.22 2.25
9 -1 7 0.52 1.74
9 -1 7 -1.36 1.76
9 1 7 1.38 2.25
9 1 7 0.82 2.21
-9 -1 -8 -0.56 2.18
-9 -1 -8 -1.64 1.89
-9 1 -8 1.04 2.27
9 -1 8 0.47 1.82
9 -1 8 0.21 2.21
9 1 8 -0.46 2.08
9 1 8 -1.46 1.85
-9 -1 -9 -1.61 2.25
-9 -1 -9 -0.15 2.25
-9 1 -9 -0.08 2.65
9 -1 9 -0.4 2.32
9 1 9 -0.83 1.9
9 1 9 -2.03 1.94
-9 2 15 0.71 2.18
-9 2 15 -0.48 2.37
9 -2 -15 0.72 2.11
9 -2 -15 1.52 2.19
9 2 -15 -0.68 2.57
-9 2 14 2.39 2.55
-9 2 14 3.57 2.81
9 -2 -14 0.11 1.89
9 -2 -14 1.71 2.47
9 2 -14 3.3 3.18
-9 2 13 0.21 1.99
-9 2 13 0.3 2.11
9 -2 -13 0.1 1.71
9 -2 -13 -0.33 1.93
9 2 -13 0.69 2.28
-9 2 12 0.55 1.73
-9 2 12 0.07 1.89
9 -2 -12 -0.66 1.43
9 -2 -12 -0.21 1.48
9 2 -12 -0.34 2.03
-9 2 11 7.47 2.91
-9 2 11 8.17 3.41
-9 2 11 1.91 1.84
9 -2 -11 2.57 2.21
9 -2 -11 1.76 1.95
9 2 -11 6.06 2.81
-9 2 10 47.39 5.44
-9 2 10 40.45 6.01
9 -2 -10 40.36 5.03
9 -2 -10 43.74 5.21
9 2 -10 42.33 8.53
9 2 -10 47.9 5.44
-9 -2 9 3.76 2.25
-9 -2 9 3.05 1.64
-9 2 9 3.3 1.96
-9 2 9 2.48 2.03
9 -2 -9 0.33 1.33
9 -2 -9 2.95 2.25
9 -2 -9 2.74 1.89
9 -2 -9 1.59 2.07
9 2 -9 4.01 2.16
9 2 -9 2.27 2
-9 -2 8 1.37 1.9
-9 -2 8 1.88 1.41
-9 2 8 1.11 1.5
-9 2 8 0.9 1.95
9 -2 -8 2.29 2.05
9 -2 -8 1.04 1.64
9 -2 -8 1.6 1.64
9 -2 -8 1.2 1.74
9 2 -8 1.91 1.7
9 2 -8 2.28 1.88
-9 -2 7 8.3 2.92
-9 -2 7 10.38 2.59
-9 2 7 6.41 2.36
-9 2 7 8.19 2.96
9 -2 -7 6.77 2.55
9 -2 -7 8.54 2.61
9 -2 -7 9.78 3.04
9 2 -7 13.93 3.32
9 2 -7 7.3 2.5
-9 -2 6 2.19 1.69
-9 -2 6 3.09 1.6
-9 2 6 1.08 1.35
-9 2 6 3.1 1.84
9 -2 -6 4.02 2.01
9 -2 -6 1.29 1.58
9 -2 -6 0.88 1.5
9 2 -6 5.55 2.32
9 2 -6 4.42 1.94
9 2 -6 1.83 1.5
-9 -2 5 0.29 1.35
-9 -2 5 0.34 0.97
-9 2 5 -0.04 1.13
-9 2 5 0.67 1.22
9 -2 -5 -0.34 1.05
9 -2 -5 0.57 1.23
9 -2 -5 0.32 1.49
9 2 -5 -0.04 1.37
9 2 -5 -0.1 1.2
9 2 -5 0.2 1.07
-9 -2 4 1.15 1.69
-9 -2 4 0.56 1.08
-9 2 4 1.36 1.43
-9 2 4 2 1.66
9 -2 -4 2.97 1.93
9 -2 -4 1.99 1.56
9 -2 -4 2.13 1.54
9 2 -4 -0.67 1.11
9 2 -4 1.1 1.46
9 2 -4 2.44 1.56
9 2 -4 2.07 1.38
-9 -2 3 1.11 1.71
-9 -2 3 3.92 1.69
-9 2 3 1.03 1.4
-9 2 3 1.59 1.36
9 -2 -3 1.11 1.61
9 -2 -3 1.64 1.36
9 -2 -3 0.65 1.39
9 2 -3 1.2 1.48
9 2 -3 2.09 1.71
9 2 -3 1.92 1.4
9 2 -3 2.49 1.6
-9 -2 2 0.42 1.56
-9 -2 2 -0.13 1.04
-9 2 2 -0.38 1.12
9 -2 -2 -0.2 0.89
9 -2 -2 -0.14 1.13
9 -2 -2 0.7 1.68
9 2 -2 0.23 1.52
9 2 -2 1.02 1.6
9 2 -2 1.51 1.55
9 2 -2 0.44 1.2
-9 -2 1 4.06 2.25
-9 -2 1 5.82 2.65
-9 -2 1 4.37 1.96
-9 2 1 6.16 2.29
9 -2 -1 2.93 1.79
9 -2 -1 4.01 1.81
9 2 -1 6.42 2.45
9 2 -1 4.22 1.93
9 2 -1 3.02 1.89
-9 -2 0 16.05 3.62
-9 -2 0 14.72 3.46
-9 -2 0 14.93 3.14
-9 2 0 13.9 3.05
9 -2 0 21.11 3.98
9 -2 0 17.42 3.3
9 2 0 22.38 4.55
9 2 0 19.69 4.1
9 2 0 17.8 3.9
-9 -2 -1 47.48 5.34
-9 -2 -1 54.54 5.5
-9 -2 -1 51.07 5.05
-9 2 -1 52.65 5.13
9 -2 1 51.8 5.04
9 -2 1 48.26 4.45
9 2 1 64.3 6.17
9 2 1 56.5 5.54
9 2 1 61.55 5.95
-9 -2 -2 56.83 5.84
-9 -2 -2 68 6.02
-9 -2 -2 60.39 5.6
-9 2 -2 58.54 5.65
9 -2 2 61.1 5.36
9 -2 2 64.61 5.11
9 -2 2 60.11 6.14
9 2 2 73.48 6.71
9 2 2 61.26 6.02
9 2 2 72.92 6.5
-9 -2 -3 8.99 3.04
-9 -2 -3 11.2 3.28
-9 -2 -3 7.37 2.64
-9 2 -3 6.73 2.69
9 -2 3 7.27 2.44
9 -2 3 11.54 3.56
9 2 3 12.7 3.71
9 2 3 12.79 3.86
9 2 3 7.59 2.92
-9 -2 -4 0.61 1.87
-9 -2 -4 -0.49 1.21
-9 2 -4 0.61 1.81
9 -2 4 -0.36 1.51
9 2 4 1.41 1.88
9 2 4 0.06 1.55
9 2 4 -0.05 1.56
-9 -2 -5 7.73 3.17
-9 -2 -5 11.04 3.55
-9 2 -5 7.57 3.1
9 -2 5 10.89 3.78
9 2 5 16.38 4.2
9 2 5 14.63 4.38
9 2 5 12.88 3.99
-9 -2 -6 -0.25 2.12
-9 -2 -6 2.17 2.38
-9 2 -6 2.13 2.39
9 -2 6 2.3 2
9 2 6 2.82 2.37
9 2 6 3.59 2.67
9 2 6 2.7 2.32
-9 -2 -7 0.06 2.4
-9 -2 -7 -0.96 1.77
-9 2 -7 1.25 2.39
9 -2 7 1.07 1.99
9 2 7 -0.31 1.8
9 2 7 0.01 2.36
9 2 7 -0.78 1.44
-9 -2 -8 -1.58 2.42
-9 -2 -8 -0.02 1.96
-9 2 -8 -0.28 2.51
9 -2 8 -1.41 1.93
9 2 8 -1.17 2.07
9 2 8 -0.54 2.37
9 2 8 0.8 2.53
-9 3 14 2.37 2.92
-9 3 14 5.03 3.14
9 -3 -14 3.18 2.76
9 -3 -14 2.85 2.5
-9 3 13 2.49 2.67
-9 3 13 3.38 2.75
9 -3 -13 2.05 2.16
9 -3 -13 1.37 2.18
-9 3 12 1.39 2.49
-9 3 12 0.33 2.21
-9 3 12 1.01 2.14
9 -3 -12 1.11 2.18
9 -3 -12 0.42 1.86
-9 3 11 2.49 2.51
-9 3 11 1.16 2.38
-9 3 11 1.73 2.11
9 -3 -11 1.37 2.06
9 -3 -11 1.23 1.9
-9 -3 10 3.21 2.49
-9 3 10 5.21 2.76
-9 3 10 7.24 3.23
9 -3 -10 3.04 2.01
9 -3 -10 3.91 2.22
-9 -3 9 10.63 3.68
-9 3 9 7.02 2.75
-9 3 9 9.11 3.44
9 -3 -9 7.52 2.71
9 -3 -9 9.19 2.91
-9 -3 8 0.17 1.75
-9 3 8 -0.04 1.43
-9 3 8 -0.24 1.78
9 -3 -8 1.19 1.57
9 -3 -8 -0.25 1.3
9 3 -8 1.54 1.91
-9 -3 7 2.71 2.02
-9 3 7 2.09 1.83
-9 3 7 2.58 2.14
9 -3 -7 1.94 1.65
9 -3 -7 2.71 1.76
9 3 -7 2.11 1.97
-9 -3 6 22.87 4.75
-9 3 6 18.01 4.12
-9 3 6 20.95 4.2
9 -3 -6 18.19 3.73
9 -3 -6 27.09 4.09
9 3 -6 33.33 5.3
9 3 -6 19.78 3.97
-9 -3 5 49.25 5.61
-9 3 5 51.58 5.71
-9 3 5 46.66 5.1
9 -3 -5 43.85 4.24
9 3 -5 60.99 5.97
9 3 -5 50.41 5.06
-9 -3 4 5.47 2.51
-9 3 4 6.27 2.61
-9 3 4 5.45 2.45
9 -3 -4 3.07 1.97
9 3 -4 5.88 2.58
9 3 -4 3.02 2.19
-9 -3 3 28.23 5.04
-9 3 3 33.02 5.29
-9 3 3 32.57 4.88
9 -3 -3 30.87 5.12
9 3 -3 37.91 5.83
9 3 -3 38.1 4.57
-9 -3 2 8.14 3.06
-9 -3 2 10.51 3.32
-9 3 2 9.52 3.06
-9 3 2 13.08 3.16
9 -3 -2 9 2.84
9 3 -2 11.23 3.35
9 3 -2 11.71 3.27
9 3 -2 11.89 3.12
-9 -3 1 0 1.76
-9 -3 1 1.9 2
-9 -3 1 0.93 1.97
-9 3 1 -0.64 1.39
9 -3 -1 1.03 1.39
9 3 -1 1.95 2.07
9 3 -1 0.48 1.77
9 3 -1 0.67 1.61
-9 -3 0 0.55 1.76
-9 -3 0 -0.42 1.69
-9 -3 0 0.1 1.22
-9 3 0 -1.42 1.25
9 -3 0 -0.41 1.2
9 3 0 0.56 1.83
9 3 0 -0.49 1.42
9 3 0 -0.53 1.41
-9 -3 -1 2.25 2.15
-9 -3 -1 0.06 1.91
-9 -3 -1 -0.29 1.25
-9 3 -1 2.11 2.22
9 -3 1 1.75 1.82
9 3 1 0.08 1.28
9 3 1 1.9 1.77
9 3 1 3.24 2.28
-9 -3 -2 0.98 1.84
-9 -3 -2 0.27 2
-9 -3 -2 -0.45 1.18
9 3 2 -0.84 1.62
9 3 2 0.18 1.7
9 3 2 2.03 1.9
-9 -3 -3 -0.11 1.92
-9 -3 -3 -1.58 1.81
-9 -3 -3 0.34 1.48
9 3 3 -0.72 1.42
9 3 3 -0.14 1.65
9 3 3 1.16 1.99
-9 -3 -4 1.82 2.48
-9 -3 -4 1.19 2.51
-9 -3 -4 0.39 1.63
9 3 4 1.09 2.15
9 3 4 -1.41 1.71
9 3 4 0.6 2.01
-9 -3 -5 2.33 2.54
-9 -3 -5 -0.29 2.26
-9 -3 -5 -0.08 1.45
9 3 5 0.19 2.01
9 3 5 0.78 2.37
9 3 5 0.76 2.14
-9 -3 -6 -0.24 2.23
-9 -3 -6 -0.45 1.58
9 3 6 -0.39 1.88
9 3 6 -1.08 2.01
9 3 6 0.11 2.25
-9 -3 -7 2.09 2.91
-9 -3 -7 -0.63 2.11
9 3 7 1.39 2.34
9 3 7 2.13 2.63
9 3 7 2.16 2.78
-9 4 12 7.6 3.78
-9 4 12 6.24 3.36
-9 4 12 6.75 3.33
9 -4 -12 5.06 3.09
-9 -4 11 3.62 3.29
-9 4 11 -0.72 2.39
-9 4 11 3.26 2.84
-9 4 11 -0.37 1.83
9 -4 -11 1.56 2.36
-9 -4 10 1.44 2.67
-9 4 10 5.43 3.2
-9 4 10 3.62 2.76
-9 4 10 3.26 2.5
9 -4 -10 5.69 2.88
-9 -4 9 0.56 2.67
-9 4 9 2.67 2.72
-9 4 9 1.71 2.1
9 -4 -9 2.53 2.38
-9 -4 8 0.41 2.23
-9 4 8 2.19 2.43
-9 4 8 -0.15 1.85
9 -4 -8 0.76 1.71
-9 -4 7 5.24 2.9
-9 4 7 5.96 3.05
9 4 -7 6.04 2.98
-9 -4 6 0.4 1.97
-9 4 6 0.05 1.82
9 4 -6 1.22 2.21
-9 -4 5 0.03 1.78
-9 4 5 -0.47 1.48
9 4 -5 -0.84 2
-9 -4 4 8.8 3.58
-9 -4 4 4.19 2.49
-9 4 4 3.94 2.51
9 4 -4 13.49 3.9
-9 -4 3 1.93 2.03
-9 -4 3 3.42 2.57
-9 4 3 5.64 2.65
9 4 -3 4.21 2.47
-9 -4 2 -0.84 1.76
-9 -4 2 0.57 2.11
-9 4 2 1.57 1.9
9 4 -2 1.21 2.03
-9 -4 1 0.44 2.17
-9 -4 1 2.64 2.39
-9 4 1 1.15 2.04
9 4 -1 1.92 2.4
-9 -4 0 8.81 3.52
-9 -4 0 10 3.69
9 4 0 9.69 3.6
9 4 0 13.24 3.86
-9 -4 -1 0.45 1.91
-9 -4 -1 0.4 2.1
9 4 1 0.48 1.95
9 4 1 0.97 1.93
-9 -4 -2 2.75 2.82
-9 -4 -2 4.98 3.22
9 4 2 6.64 3.5
9 4 2 9.14 3.4
9 4 2 5.31 2.98
-9 -4 -3 0.8 2.42
-9 -4 -3 1.96 3.06
9 4 3 3.95 3.16
9 4 3 1.92 2.91
9 4 3 0.43 2.15
-9 -4 -4 0.79 2.22
-9 -4 -4 0.69 2.6
9 4 4 -1.49 1.68
9 4 4 0.74 2.57
9 4 4 -0.13 2.05
-9 -4 -5 0.94 2.72
-9 -4 -5 1.21 2.88
9 4 5 1.43 2.39
9 4 5 5.07 3.57
9 4 5 -0.77 2.27
-9 -5 8 0.16 2.71
-9 5 8 -0.11 2.4
-9 5 8 0.18 2.54
-9 -5 7 1.2 2.47
-9 5 7 1.28 2.23
-9 -5 6 1.51 2.66
-9 5 6 2.4 2.58
-9 -5 5 3.18 2.8
-9 5 5 0.88 2.46
9 5 -5 2.77 2.66
-9 -5 4 0.19 2.22
-9 -5 4 -0.3 2.12
-9 5 4 0.1 1.79
9 5 -4 0.42 2.26
-9 -5 3 0.19 2.06
-9 -5 3 -0.61 1.64
-9 5 3 1.65 2.38
9 5 -3 0.05 2.4
-9 -5 2 -1.38 1.84
-9 -5 2 0.5 2.17
-9 5 2 -0.66 2.1
9 5 -2 -0.11 2.29
-9 -5 1 0.12 1.97
-9 -5 1 4.39 3.26
-9 5 1 -0.23 2.07
9 5 -1 1 2.64
-9 -5 0 1.6 2.7
-9 -5 0 1.16 2.2
-9 5 0 1.21 2.42
9 5 0 0.55 2.72
-9 -5 -1 -1.84 2.17
-9 -5 -1 2.66 2.91
-9 5 -1 2.35 2.74
9 5 1 0.1 2.74
-10 0 15 -0.21 1.78
10 0 -15 0.4 2.4
-10 0 14 1.03 1.97
10 0 -14 3.46 2.62
-10 0 13 0.03 1.5
10 0 -13 -1.02 1.84
-10 0 12 0.69 1.65
10 0 -12 0.37 1.65
10 0 -12 -0.31 1.63
-10 0 11 0.11 1.34
10 0 -11 0.09 1.57
10 0 -11 0.91 1.91
-10 0 10 47.59 5.29
10 0 -10 51.93 5.65
10 0 -10 42.69 5.14
-10 0 9 0.65 1.21
10 0 -9 -1.16 1.3
10 0 -9 -0.43 1.55
-10 0 8 86.94 6.69
10 0 -8 99.5 7.36
10 0 -8 91.67 6.93
-10 0 7 -0.93 1.2
-10 0 7 1.58 1.53
10 0 -7 -0.57 1.13
10 0 -7 -0.14 1.57
10 0 -7 0.02 1.64
-10 0 6 728.52 15.88
-10 0 6 590.26 16.39
10 0 -6 722.58 18.94
10 0 -6 634.57 17.21
10 0 -6 578.37 16.73
-10 0 5 -0.67 1.15
10 0 -5 1.73 1.66
10 0 -5 -1.6 1.35
10 0 -5 -1.55 1.28
-10 0 4 44.49 4.62
-10 0 4 43.57 4.63
10 0 -4 50.22 5.16
10 0 -4 41.03 4.62
10 0 -4 45.18 5.01
10 0 -4 44.67 4.58
-10 0 3 -0.35 1.25
10 0 -3 -0.1 1.09
10 0 -3 -0.13 1.14
10 0 -3 -0.15 1.41
10 0 -3 0.4 1.17
-10 0 2 -0.08 1.18
10 0 -2 -0.49 1.26
10 0 -2 0.77 1.4
10 0 -2 0.7 1.35
10 0 -2 -0.81 1.04
-10 0 1 -0.8 1.16
10 0 -1 -0.06 1.23
10 0 -1 -0.39 1.25
10 0 -1 0.29 1.47
10 0 -1 0.26 1.29
-10 0 0 0.24 1.53
10 0 0 0.92 1.26
10 0 0 -0.01 1.2
10 0 0 0.73 1.46
10 0 0 1.67 1.75
-10 0 -1 -0.73 1.19
10 0 1 0.25 1.39
10 0 1 0.44 1.38
10 0 1 0.1 1.5
10 0 1 -0.54 1.33
-10 0 -2 1.83 1.85
10 0 2 1.88 2
10 0 2 1.65 1.68
10 0 2 2.57 1.89
-10 0 -3 0.11 1.86
10 0 3 -0.56 1.28
10 0 3 -0.13 1.42
10 0 3 0.12 1.56
-10 0 -4 0 1.71
10 0 4 0.52 1.72
10 0 4 0.93 1.92
10 0 4 0.96 2.13
-10 0 -5 -2.01 1.64
10 0 5 0.51 1.64
10 0 5 0.69 1.87
-10 0 -6 31.2 6.11
10 0 6 47.78 7.37
10 0 6 49.6 7.56
-10 0 -7 -0.57 2.19
10 0 7 -0.36 1.87
10 0 7 0.28 1.96
-10 0 -8 5.97 3.55
10 0 8 6.51 3.5
10 0 8 4.83 3.22
-10 1 15 -0.18 2.01
10 -1 -15 -0.21 2.14
10 -1 -15 3.38 2.55
10 1 -15 3.64 2.93
-10 -1 14 1.01 1.88
-10 1 14 -0.36 2.01
10 -1 -14 0.94 1.9
10 1 -14 -1.72 2.11
-10 -1 13 -0.29 1.48
-10 1 13 -0.27 1.71
10 -1 -13 1.21 2.26
10 1 -13 0.99 2.26
-10 -1 12 6.16 2.52
-10 1 12 9.15 3.33
10 -1 -12 5.74 2.91
10 -1 -12 7.23 2.95
10 1 -12 5.93 3.02
-10 -1 11 1.51 1.73
-10 1 11 1.58 2.59
-10 1 11 -0.71 1.59
10 -1 -11 0.33 1.83
10 -1 -11 0.7 1.61
10 1 -11 0.31 1.7
10 1 -11 1.16 2.32
-10 -1 10 56.33 5.39
-10 1 10 62.35 5.71
-10 1 10 55.71 5.88
10 -1 -10 53.65 5.77
10 -1 -10 64.43 6.25
10 1 -10 73.01 6.47
10 1 -10 57.6 6.17
-10 -1 9 41.97 4.67
-10 1 9 51.62 5.04
-10 1 9 48.28 5.4
10 -1 -9 47.45 5.54
10 -1 -9 47.96 5.45
10 1 -9 49.39 5.44
10 1 -9 47.26 5.27
-10 -1 8 111.05 7.39
-10 -1 8 99.27 6.79
-10 1 8 110.41 6.93
-10 1 8 89.17 6.89
10 -1 -8 107.29 7.8
10 -1 -8 102.43 7.34
10 -1 -8 102.03 8.42
10 1 -8 124.25 8.11
10 1 -8 115.75 7.86
-10 -1 7 5.64 2.35
-10 -1 7 2.08 1.52
-10 1 7 5.57 2.19
-10 1 7 3.11 1.89
10 -1 -7 4.87 2.55
10 -1 -7 3.66 2.23
10 -1 -7 4.91 2.36
10 1 -7 7.68 2.65
10 1 -7 5.58 2.35
-10 -1 6 29.36 4.44
-10 -1 6 23.71 4.01
-10 1 6 21.77 3.64
-10 1 6 27.39 4.62
10 -1 -6 30.78 5.16
10 -1 -6 29.61 4.75
10 -1 -6 21.74 4.21
10 1 -6 32.82 5.16
10 1 -6 29.94 4.82
-10 -1 5 -0.34 1.36
-10 -1 5 0.55 1.14
-10 1 5 0.05 1.1
-10 1 5 -0.12 1.3
10 -1 -5 0.82 1.44
10 -1 -5 -0.04 1.39
10 -1 -5 0.12 1.33
10 1 -5 -0.25 1.17
10 1 -5 0.45 1.5
10 1 -5 0.21 1.58
10 1 -5 -0.48 1.02
-10 -1 4 37.42 4.3
-10 -1 4 35.76 4.22
-10 1 4 40.75 4.33
-10 1 4 32.4 4.79
10 -1 -4 46.39 5.1
10 -1 -4 37.03 4.33
10 -1 -4 42.58 4.84
10 1 -4 46.2 5.13
10 1 -4 37.7 4.61
10 1 -4 34.91 4.33
10 1 -4 44.24 4.44
-10 -1 3 12.55 2.94
-10 -1 3 17.89 3.57
-10 1 3 14.22 3.2
10 -1 -3 19.96 4.03
10 -1 -3 12.43 3.04
10 -1 -3 11 2.99
10 1 -3 17.76 4.02
10 1 -3 14.89 3.67
10 1 -3 8.6 2.63
10 1 -3 12.33 3.03
-10 -1 2 1 1.6
-10 -1 2 -0.08 1.05
-10 1 2 0.91 1.42
10 -1 -2 1.17 1.37
10 -1 -2 0.81 1.47
10 -1 -2 0.23 1.39
10 -1 -2 -0.61 0.89
10 1 -2 2.38 1.78
10 1 -2 1.12 1.58
10 1 -2 0.01 1.6
10 1 -2 0.47 1.19
-10 -1 1 12.49 3.05
-10 -1 1 7.75 2.64
-10 1 1 8.81 2.76
10 -1 -1 12.94 3.54
10 -1 -1 9.84 2.83
10 -1 -1 8.08 2.8
10 -1 -1 9.4 3.1
10 1 -1 11.05 3.21
10 1 -1 10.04 2.9
10 1 -1 13.28 3.15
-10 -1 0 33.07 4.13
-10 -1 0 29.42 4.74
-10 1 0 26.99 4.56
10 -1 0 39.09 4.77
10 -1 0 34.57 4.26
10 -1 0 27.93 4.81
10 -1 0 31.46 5.1
10 1 0 38.03 5.86
10 1 0 28.1 4.73
10 1 0 38.83 5.79
-10 -1 -1 1.45 1.75
-10 -1 -1 -0.65 1.24
-10 1 -1 0.57 1.66
10 -1 1 0.33 1.39
10 -1 1 0.09 1.29
10 -1 1 1.68 1.62
10 -1 1 1.03 1.81
10 1 1 0.4 1.44
10 1 1 -0.87 1.28
10 1 1 -0.12 1.39
-10 -1 -2 15.09 3.61
-10 -1 -2 15.71 3.67
-10 1 -2 16.7 3.76
10 -1 2 20.76 4.23
10 -1 2 17.1 3.78
10 -1 2 14.67 3.92
10 -1 2 10.76 3.38
10 1 2 20.24 4.26
10 1 2 17 4.04
10 1 2 15.11 3.96
-10 -1 -3 9.77 3.15
-10 -1 -3 10.25 3.31
-10 1 -3 9.99 3.55
10 -1 3 6.39 2.64
10 -1 3 8.41 2.83
10 -1 3 11.3 3.6
10 1 3 12.03 3.59
10 1 3 13.85 3.98
10 1 3 9.19 3.38
-10 -1 -4 6.54 2.87
-10 -1 -4 7.7 3.19
-10 1 -4 5.8 3.01
10 -1 4 10.53 3.41
10 -1 4 9.1 3.48
10 1 4 11.14 3.3
10 1 4 8.84 3.39
10 1 4 10.82 3.63
-10 -1 -5 1.23 2.46
-10 -1 -5 0.66 2.19
-10 1 -5 2.17 2.37
10 -1 5 0.61 1.63
10 -1 5 1.16 2.1
10 1 5 5.01 2.65
10 1 5 3 2.33
10 1 5 1.05 2.15
-10 -1 -6 -0.87 3.01
-10 -1 -6 -0.99 2.02
-10 1 -6 -0.09 1.91
10 -1 6 1.28 1.78
10 -1 6 -1.18 1.48
10 1 6 -0.35 1.72
10 1 6 -1.28 1.62
-10 -1 -7 0.69 2.42
-10 1 -7 -0.55 2.33
10 -1 7 0.91 2.11
10 -1 7 -1.09 2.11
10 1 7 2.77 2.71
10 1 7 0.95 2.17
-10 -1 -8 2 2.7
-10 1 -8 4.06 3.04
10 -1 8 -0.99 2.92
10 -1 8 4.44 3.33
10 1 8 2.96 3.03
10 1 8 3.09 2.76
-10 2 14 5.29 3.05
-10 2 14 2.51 2.61
10 -2 -14 4.86 3.12
10 -2 -14 6.74 3.39
10 2 -14 2.45 2.98
-10 2 13 0.64 1.93
-10 2 13 -0.9 1.92
10 -2 -13 0 1.8
10 -2 -13 -0.12 1.74
10 2 -13 3.12 2.58
-10 2 12 -1.34 1.61
-10 2 12 0.28 1.84
10 -2 -12 0.18 1.79
10 -2 -12 0.92 1.95
10 2 -12 0.8 2.21
-10 2 11 0.74 2
-10 2 11 -0.94 1.85
10 -2 -11 1.24 1.68
10 -2 -11 0.16 1.74
10 2 -11 -0.35 1.97
-10 -2 10 0.27 2.05
-10 2 10 1.07 1.72
-10 2 10 0.72 2.08
10 -2 -10 -0.98 1.48
10 -2 -10 1.87 1.99
10 -2 -10 -0.01 1.47
10 2 -10 2.36 1.98
10 2 -10 2.7 2.4
-10 -2 9 1.73 1.95
-10 -2 9 0.27 1.33
-10 2 9 2.9 1.88
-10 2 9 1.55 2.03
10 -2 -9 1.94 1.87
10 -2 -9 1.34 1.7
10 2 -9 -0.18 1.62
10 2 -9 0.69 1.8
-10 -2 8 -0.53 1.61
-10 -2 8 -0.68 0.99
-10 2 8 -0.1 1.38
-10 2 8 -0.2 1.58
10 -2 -8 -1.05 1.26
10 -2 -8 -0.38 1.34
10 -2 -8 -0.52 1.58
10 2 -8 0.6 1.69
10 2 -8 0.41 1.72
-10 -2 7 2.59 2.09
-10 -2 7 1.59 1.47
-10 2 7 1.47 1.69
-10 2 7 0.63 1.72
10 -2 -7 0.95 1.42
10 -2 -7 1.64 1.61
10 -2 -7 0.9 1.86
10 2 -7 2.17 2.2
10 2 -7 2.21 2.1
-10 -2 6 1.59 1.81
-10 -2 6 1.86 1.31
-10 2 6 0.42 1.28
-10 2 6 1.37 1.61
10 -2 -6 2.23 2.04
10 -2 -6 2.85 1.69
10 -2 -6 1.94 2.07
10 2 -6 1.39 1.89
10 2 -6 1.78 1.96
-10 -2 5 2.35 1.83
-10 -2 5 -0.51 0.96
-10 2 5 -0.86 1.28
-10 2 5 0.62 1.57
10 -2 -5 -0.28 1.15
10 -2 -5 -1.4 1.08
10 -2 -5 0.11 1.46
10 2 -5 0.81 1.82
10 2 -5 -0.49 1.5
-10 -2 4 3.05 2.13
-10 -2 4 2.31 1.51
-10 2 4 4.34 2.08
-10 2 4 3.93 2.17
10 -2 -4 4.53 2.31
10 -2 -4 4.74 2.19
10 -2 -4 0.86 2.77
10 2 -4 6.25 2.53
10 2 -4 3.86 2.09
10 2 -4 4.67 2.04
-10 -2 3 11.75 3.15
-10 -2 3 16.28 3.36
-10 2 3 9.61 2.85
-10 2 3 15.89 3.63
10 -2 -3 15.48 3.73
10 -2 -3 19.89 3.7
10 2 -3 21.19 4.34
10 2 -3 17.71 3.91
10 2 -3 19.14 3.7
-10 -2 2 7.27 2.84
-10 -2 2 5.74 2.1
-10 2 2 7.21 2.75
10 -2 -2 6.83 2.64
10 -2 -2 5.85 2.33
10 2 -2 6.08 2.68
10 2 -2 7.88 2.94
10 2 -2 7.75 2.64
-10 -2 1 0.55 1.76
-10 -2 1 2.97 1.76
-10 2 1 0.77 1.88
10 -2 -1 1.43 1.75
10 -2 -1 1.59 1.55
10 2 -1 0.32 1.51
10 2 -1 3.87 2.22
10 2 -1 3.89 2.22
-10 -2 0 2.89 2.25
-10 -2 0 3.81 2.39
-10 -2 0 2.22 1.71
-10 2 0 1.7 1.88
10 -2 0 3.4 2.17
10 -2 0 1.88 1.52
10 2 0 4.33 2.31
10 2 0 2.54 2.1
10 2 0 5.77 2.43
-10 -2 -1 -1.91 1.62
-10 -2 -1 0.37 2
-10 -2 -1 -0.41 1.33
-10 2 -1 -0.95 1.66
10 -2 1 0.59 1.46
10 -2 1 -0.04 1.25
10 2 1 0.35 1.91
10 2 1 -0.37 1.79
10 2 1 -0.2 1.36
-10 -2 -2 3.84 2.38
-10 -2 -2 4.74 2.56
-10 -2 -2 1.95 1.74
-10 2 -2 3.77 2.41
10 -2 2 3.89 2.04
10 -2 2 4.87 2.63
10 2 2 3.99 2.37
10 2 2 4.2 2.7
10 2 2 3.64 2.36
-10 -2 -3 7.78 3.14
-10 -2 -3 6.73 2.87
-10 2 -3 4.24 2.61
10 -2 3 4.19 2.66
10 2 3 6.22 2.9
10 2 3 5.2 2.95
10 2 3 5.3 2.98
-10 -2 -4 0.35 2.09
-10 -2 -4 -0.26 1.64
-10 2 -4 -1.47 1.78
10 -2 4 0.45 1.9
10 2 4 -0.89 1.35
10 2 4 -0.34 1.88
10 2 4 -0.15 1.78
-10 -2 -5 0.33 2.3
-10 -2 -5 0.47 1.79
-10 2 -5 0.3 1.89
10 -2 5 -0.38 1.97
10 2 5 -0.39 1.87
10 2 5 0.76 1.96
10 2 5 -0.56 1.62
-10 -2 -6 0.66 2.55
-10 -2 -6 -0.9 1.99
-10 2 -6 -2.33 1.86
10 -2 6 0.2 1.99
10 2 6 0.59 1.97
10 2 6 -0.74 2.36
10 2 6 0.99 2.42
-10 -2 -7 -1.17 2.58
-10 -2 -7 0.99 2.58
-10 2 -7 0.55 2.73
10 -2 7 1.01 2.47
10 2 7 -0.12 2.12
10 2 7 -1.98 2.04
-10 3 13 -1.78 1.95
-10 3 13 1.29 2.9
10 -3 -13 -1.17 1.73
10 -3 -13 1.35 2.01
-10 3 12 1.59 2.33
-10 3 12 0.63 2.37
-10 3 12 -0.21 1.93
10 -3 -12 0.2 1.87
10 -3 -12 -0.47 1.72
-10 -3 11 0.25 2.33
-10 3 11 0.95 2.5
-10 3 11 0.21 2.38
-10 3 11 0.47 2.08
10 -3 -11 -0.08 1.74
10 -3 -11 3.17 2.45
-10 -3 10 0.71 2.33
-10 3 10 -0.15 1.78
-10 3 10 -0.88 1.72
10 -3 -10 0.55 1.5
10 -3 -10 -0.18 1.44
-10 -3 9 -0.74 2.22
-10 3 9 0.35 1.65
-10 3 9 -0.4 1.86
10 -3 -9 -0.19 1.35
10 -3 -9 -0.9 1.42
10 3 -9 -0.9 2.15
-10 -3 8 -0.78 1.83
-10 3 8 0.46 1.67
-10 3 8 0.18 1.87
10 -3 -8 0.57 1.52
10 -3 -8 1.74 1.61
10 3 -8 1.24 2.34
-10 -3 7 -0.31 1.5
-10 3 7 -0.4 1.48
-10 3 7 0.43 1.92
10 -3 -7 0.61 1.31
10 -3 -7 1.21 1.65
10 3 -7 0.13 2.06
10 3 -7 -0.38 1.85
-10 -3 6 0.29 2.08
-10 3 6 0.35 1.55
-10 3 6 0.3 1.66
10 -3 -6 -1.28 1.41
10 -3 -6 -0.48 1.29
10 3 -6 -0.38 1.75
10 3 -6 -0.44 1.72
-10 -3 5 1.52 2.15
-10 3 5 3.85 2.2
-10 3 5 0.57 1.72
10 -3 -5 2.24 2.17
10 3 -5 3.4 2.49
10 3 -5 1.24 1.89
-10 -3 4 -1.1 1.58
-10 3 4 0.82 1.8
-10 3 4 -0.59 1.44
10 -3 -4 1.31 1.73
10 3 -4 0.57 1.77
10 3 -4 0.86 1.87
-10 -3 3 1.04 1.95
-10 3 3 1.93 1.9
-10 3 3 0.38 1.62
10 -3 -3 1.02 1.69
10 3 -3 1.73 2.25
10 3 -3 -0.07 1.69
-10 -3 2 -1.01 1.85
-10 -3 2 0.12 1.96
-10 3 2 0.41 1.5
-10 3 2 0.02 1.66
10 -3 -2 0.33 1.57
10 3 -2 1.92 2.13
10 3 -2 0.08 1.63
10 3 -2 -0.05 1.51
-10 -3 1 0.14 1.89
-10 -3 1 0.95 2.11
-10 3 1 1.52 1.96
10 -3 -1 0.56 1.74
10 3 -1 1.7 1.92
10 3 -1 0.02 1.75
10 3 -1 2.32 2.04
-10 -3 0 1.77 2
-10 -3 0 -0.16 1.94
-10 -3 0 -0.1 1.35
-10 3 0 3.26 2.1
10 -3 0 -0.93 1.33
10 3 0 1.24 1.85
10 3 0 2.14 2.23
10 3 0 0.53 1.88
-10 -3 -1 1.79 2.25
-10 -3 -1 1.37 2.22
-10 -3 -1 1.97 1.67
-10 3 -1 0.89 2.41
10 3 1 -0.14 1.64
10 3 1 -0.33 1.93
10 3 1 -0.01 1.78
-10 -3 -2 0.78 2.36
-10 -3 -2 -1.03 2.17
-10 -3 -2 -0.36 1.52
10 3 2 2.06 2.14
10 3 2 1.96 2.43
10 3 2 -1.21 1.63
-10 -3 -3 2.23 2.54
-10 -3 -3 0.29 2.19
-10 -3 -3 -0.43 1.74
10 3 3 0.31 2.06
10 3 3 0.92 2.28
10 3 3 -1.17 1.71
-10 -3 -4 0.92 2.41
-10 -3 -4 -0.26 2.53
-10 -3 -4 -0.29 1.76
10 3 4 0.22 1.91
10 3 4 -0.05 2.18
10 3 4 0.12 2.22
-10 -3 -5 -0.13 2.48
-10 -3 -5 -1.91 1.77
10 3 5 1.18 2.34
10 3 5 0.43 2.45
10 3 5 -0.64 2.29
10 3 6 0.68 2.7
-10 -4 11 2.11 3
-10 4 11 1.2 2.63
-10 4 11 0.99 2.91
-10 4 11 0.56 2.31
10 -4 -11 -0.18 1.93
-10 -4 10 0.55 2.41
-10 4 10 -1.07 2.15
-10 4 10 -1.4 2.37
-10 4 10 -1.44 2.09
10 -4 -10 0.1 1.75
-10 -4 9 0.16 2.55
-10 4 9 -0.62 2.06
-10 4 9 -0.08 2.44
10 -4 -9 0.95 1.83
-10 -4 8 0.29 2.31
-10 4 8 1.23 1.99
-10 4 8 -0.07 2.18
-10 -4 7 1.86 2.42
-10 4 7 1.54 2.31
10 4 -7 0.53 2.51
-10 -4 6 -0.12 2.28
-10 4 6 0 1.75
10 4 -6 -0.18 1.76
-10 -4 5 0 1.95
-10 4 5 -1.11 1.6
10 4 -5 0.54 2.13
-10 -4 4 0.92 2.25
-10 4 4 0.74 1.99
10 4 -4 0.59 2.06
-10 -4 3 -0.83 1.71
-10 -4 3 1.77 2.55
-10 4 3 -0.71 1.73
10 4 -3 -1.29 1.63
-10 -4 2 0.44 2.24
-10 -4 2 1.95 2.23
-10 4 2 2.07 2.07
10 4 -2 0.42 2.17
-10 -4 1 2.61 2.72
-10 -4 1 1.03 2.19
-10 4 1 2.24 2.16
10 4 -1 2.25 2.62
-10 -4 0 3.2 2.78
-10 -4 0 1.51 2.72
10 4 0 0.86 2.36
10 4 0 0.29 2.08
-10 -4 -1 3.26 2.36
-10 -4 -1 1.26 2.61
10 4 1 0.59 2
10 4 1 0.76 2.49
10 4 1 0.54 2.19
-10 -4 -2 0.06 2.37
-10 -4 -2 -0.41 2.73
10 4 2 0.95 2.59
10 4 2 1.32 2.32
10 4 2 0.44 2.19
-10 -4 -3 0.05 2.36
-10 -4 -3 0.44 2.51
10 4 3 0.76 2.46
10 4 3 1.25 2.59
10 4 3 2.5 2.81
-10 -5 6 1.32 2.78
10 5 -6 -0.45 3.94
-10 -5 5 -0.08 2.43
-10 5 5 -0.05 2.21
10 5 -5 -0.68 2.22
-10 -5 4 -1.85 1.93
-10 5 4 0.35 2.12
10 5 -4 -0.29 2.55
-10 -5 3 1.48 2.8
-10 -5 3 -0.54 2.43
-10 5 3 0.84 2.49
10 5 -3 0.98 2.81
-10 -5 2 0.78 2.72
-10 -5 2 1.98 2.81
-10 5 2 1.17 2.42
10 5 -2 2.33 3.11
-11 0 15 -0.51 1.98
11 0 -15 -0.49 2.33
-11 0 14 2.64 2.5
11 0 -14 4.16 3.05
-11 0 13 -0.3 1.59
11 0 -13 -0.23 1.75
11 0 -13 0.17 2.23
-11 0 12 0.64 1.67
11 0 -12 0.21 1.82
11 0 -12 2.13 2.44
-11 0 11 0.23 1.67
11 0 -11 0.22 1.92
11 0 -11 -1.5 1.82
-11 0 10 37.87 5.71
11 0 -10 46.18 5.57
11 0 -10 36.64 5.87
-11 0 9 -1.01 1.21
11 0 -9 0.92 1.75
11 0 -9 -0.42 1.52
-11 0 8 7.61 2.67
11 0 -8 12.19 3.55
11 0 -8 9.02 2.98
-11 0 7 1.87 1.65
11 0 -7 0.16 1.65
11 0 -7 0.96 1.56
-11 0 6 2.25 1.95
11 0 -6 3.72 2.35
11 0 -6 4.43 2.29
-11 0 5 -0.36 1.47
11 0 -5 2.08 1.8
11 0 -5 -1.4 1.42
-11 0 4 7.91 2.76
11 0 -4 11.24 3.45
11 0 -4 10.95 3.23
11 0 -4 9.79 3.01
-11 0 3 0.15 1.35
11 0 -3 -0.41 1.08
11 0 -3 -1.07 1.35
11 0 -3 0.38 1.39
-11 0 2 2.18 2.06
11 0 -2 0.66 1.67
11 0 -2 2.41 1.95
11 0 -2 1.17 1.6
-11 0 1 0.55 1.6
11 0 -1 0.25 1.26
11 0 -1 -0.18 1.26
11 0 -1 -0.24 1.35
-11 0 0 9.13 3.19
11 0 0 10.72 3.38
11 0 0 11.95 3.46
11 0 0 12.16 3.76
-11 0 -1 0.06 1.43
11 0 1 -0.27 1.33
11 0 1 0.93 1.74
11 0 1 -0.51 1.31
-11 0 -2 -0.11 1.68
11 0 2 1.19 1.73
11 0 2 0.29 1.68
11 0 2 1.42 2.05
-11 0 -3 1.18 1.83
11 0 3 0.89 1.92
11 0 3 2.01 2.14
11 0 3 0.28 1.92
-11 0 -4 9.05 3.55
11 0 4 9.37 3.37
11 0 4 6.88 3.12
11 0 4 9.54 3.65
-11 0 -5 -1.27 2.29
11 0 5 0.52 1.81
11 0 5 0.99 2.13
-11 0 -6 6.61 3.52
11 0 6 4.64 2.9
11 0 6 6.39 3.45
-11 1 15 2.67 2.93
11 -1 -15 3.16 2.97
11 1 -15 3.81 3.2
-11 -1 14 0.02 1.89
-11 1 14 -0.09 2.28
11 -1 -14 3.19 2.68
11 1 -14 0.51 2.32
-11 -1 13 -0.72 1.44
-11 1 13 1.31 2.3
11 -1 -13 0.39 1.92
11 -1 -13 -0.1 1.66
11 1 -13 0.51 2.48
-11 -1 12 3.54 2.22
-11 1 12 7.55 3.27
11 -1 -12 4.23 2.53
11 -1 -12 6.23 2.99
11 1 -12 4.52 3.11
11 1 -12 5.2 3.06
-11 -1 11 1.18 1.62
-11 1 11 2.16 2.07
11 -1 -11 2.9 2.2
11 -1 -11 2.47 2.06
11 1 -11 1.91 2.05
11 1 -11 1.37 2.33
-11 -1 10 -0.32 1.27
-11 1 10 0.76 1.76
11 -1 -10 -0.64 1.7
11 -1 -10 -1.56 1.41
11 1 -10 -0.18 1.56
11 1 -10 0.83 2
-11 -1 9 8.34 2.99
-11 -1 9 5.33 2.39
-11 1 9 6.58 2.9
11 -1 -9 2.82 2.4
11 -1 -9 8.16 2.87
11 1 -9 7.05 3.05
11 1 -9 7.4 3.11
-11 -1 8 0.84 1.73
-11 -1 8 -0.55 1.25
-11 1 8 0.65 1.39
-11 1 8 -0.54 1.36
11 -1 -8 0.59 1.72
11 -1 -8 -1.17 1.32
11 1 -8 1.23 1.86
11 1 -8 -0.5 1.69
-11 -1 7 1.77 1.97
-11 -1 7 1.79 1.67
-11 1 7 0.24 1.24
-11 1 7 1.73 1.97
11 -1 -7 0.85 1.99
11 -1 -7 1.51 1.78
11 1 -7 0.83 1.61
11 1 -7 0.16 1.72
-11 -1 6 0.59 1.82
-11 -1 6 1.71 1.54
-11 1 6 -0.25 1.16
-11 1 6 -0.58 1.65
11 -1 -6 0.43 1.88
11 -1 -6 0.87 1.39
11 1 -6 -1.16 1.25
11 1 -6 0.18 1.67
-11 -1 5 23.04 4.05
-11 -1 5 21.31 4.06
-11 1 5 21.65 3.91
-11 1 5 21.79 4.39
11 -1 -5 30.03 5.46
11 -1 -5 16.83 3.69
11 -1 -5 21.72 4.38
11 1 -5 23.79 4.81
11 1 -5 28.17 5.06
11 1 -5 19.39 3.87
-11 -1 4 26.98 4.34
-11 -1 4 24.72 4.4
-11 1 4 19.54 3.6
-11 1 4 19.01 4.04
11 -1 -4 31.49 5.5
11 -1 -4 28.04 4.83
11 -1 -4 21.18 4.11
11 1 -4 24.38 4.66
11 1 -4 28.79 5.14
11 1 -4 25.18 4.39
-11 -1 3 15.69 3.49
-11 -1 3 12.39 3.19
-11 1 3 15.61 3.68
11 -1 -3 29.01 5.34
11 -1 -3 14.97 3.59
11 -1 -3 17.02 4.15
11 1 -3 20.54 4.62
11 1 -3 14.15 3.79
11 1 -3 16.51 3.72
-11 -1 2 -0.66 1.56
-11 -1 2 1.47 1.7
-11 1 2 -0.83 1.39
11 -1 -2 1.78 1.58
11 -1 -2 0.41 1.44
11 -1 -2 0.13 1.58
11 -1 -2 -0.47 1.17
11 1 -2 0.8 1.63
11 1 -2 0.11 1.6
11 1 -2 0.59 1.66
-11 -1 1 -0.42 1.77
-11 -1 1 0.13 1.44
-11 1 1 0.3 1.62
11 -1 -1 -0.36 1.22
11 -1 -1 0.06 1.34
11 -1 -1 0.31 1.58
11 -1 -1 0.14 1.54
11 1 -1 -0.3 1.35
11 1 -1 0.33 1.85
11 1 -1 1.43 1.71
-11 -1 0 1.94 1.95
-11 -1 0 2.39 2.09
-11 1 0 2.24 2.16
11 -1 0 2.94 2.33
11 -1 0 1.6 1.77
11 -1 0 0.45 1.84
11 1 0 0.49 1.84
11 1 0 1.17 1.92
11 1 0 1.14 1.69
-11 -1 -1 6.64 2.96
-11 1 -1 4.73 2.57
11 -1 1 11.36 3.5
11 -1 1 8.02 2.95
11 -1 1 8.87 3.39
11 1 1 8.36 3.23
11 1 1 7.58 3.09
11 1 1 8.41 3.08
-11 -1 -2 12.68 3.83
-11 1 -2 6.81 3
11 -1 2 11.54 3.64
11 -1 2 8.4 3.11
11 -1 2 7.99 3.11
11 1 2 14.31 4.01
11 1 2 11.65 3.86
11 1 2 10.9 3.66
-11 -1 -3 6.18 2.83
-11 1 -3 9.14 3.24
11 -1 3 7.05 2.85
11 -1 3 7.92 3.44
11 1 3 13.87 4.05
11 1 3 8.96 3.85
11 1 3 9.82 3.69
-11 -1 -4 0.78 1.8
-11 1 -4 -0.72 2.18
11 -1 4 3.09 2.09
11 -1 4 -0.57 2.04
11 1 4 2.99 2.25
11 1 4 3.54 2.75
11 1 4 4.38 2.97
-11 -1 -5 0.32 2.2
-11 1 -5 -1.5 2.45
11 -1 5 1.41 2.11
11 -1 5 0.13 2.23
11 1 5 1.1 2.14
11 1 5 -0.67 1.9
11 1 5 0.66 1.99
-11 -1 -6 0.16 2.47
-11 1 -6 0.31 2.81
11 -1 6 4.1 3.02
11 -1 6 3.08 2.73
11 1 6 3.06 3.09
11 1 6 0.13 1.83
-11 2 14 2.19 2.85
11 -2 -14 0.27 2.26
11 -2 -14 0.78 2.37
11 2 -14 1.17 2.47
-11 2 13 4.19 2.77
-11 2 13 2.65 2.68
11 -2 -13 3.99 2.71
11 -2 -13 1.86 2.5
11 2 -13 1.3 2.76
-11 2 12 0.64 2.17
-11 2 12 -0.23 2.14
11 -2 -12 0.11 1.65
11 -2 -12 1.98 2.29
11 2 -12 0.28 2.52
-11 2 11 15.5 4.02
-11 2 11 20.66 5.1
11 -2 -11 14.15 4.5
11 -2 -11 12.87 3.9
11 -2 -11 17.58 4.2
11 2 -11 11.25 3.91
-11 -2 10 15.03 4.37
-11 2 10 7.44 2.92
-11 2 10 14.75 4.19
11 -2 -10 6.66 2.94
11 -2 -10 8.82 3.67
11 -2 -10 8.92 3.38
11 2 -10 14.57 4.07
11 2 -10 9.2 3.44
-11 -2 9 1.76 2.41
-11 -2 9 1.08 1.53
-11 2 9 1.34 1.93
-11 2 9 0.31 2.11
11 -2 -9 1.54 2.12
11 -2 -9 1.52 1.81
11 2 -9 1.57 2.26
11 2 -9 -0.64 1.93
-11 -2 8 16.83 4.24
-11 -2 8 12.99 3.28
-11 2 8 17.13 3.95
-11 2 8 17.11 4.49
11 -2 -8 12.33 3.98
11 -2 -8 14.68 3.64
11 2 -8 20.62 4.59
11 2 -8 17.5 4.21
-11 -2 7 4.19 2.53
-11 -2 7 0.4 1.36
-11 2 7 2.46 2.05
-11 2 7 3.46 2.38
11 -2 -7 1.37 1.74
11 -2 -7 1.54 1.9
11 2 -7 3.47 2.36
11 2 -7 2.36 2.11
-11 -2 6 1.32 1.9
-11 -2 6 -0.75 1.26
-11 2 6 1.16 1.61
-11 2 6 -0.94 1.57
11 -2 -6 0.5 1.9
11 -2 -6 0.5 1.42
11 2 -6 2.45 2.28
11 2 -6 0.5 1.88
-11 -2 5 13.73 3.64
-11 -2 5 5.63 2.17
-11 2 5 8.14 2.81
-11 2 5 10.75 3.29
11 -2 -5 11.35 3.81
11 -2 -5 5.56 2.42
11 2 -5 13.83 3.98
11 2 -5 7.92 2.91
-11 -2 4 18.38 4.23
-11 -2 4 16.13 3.4
-11 2 4 22.3 4.39
-11 2 4 16.92 3.89
11 -2 -4 20.06 4.48
11 -2 -4 17.18 3.65
11 2 -4 24.01 4.87
11 2 -4 24.63 4.75
-11 -2 3 9.38 3.19
-11 -2 3 6.4 2.42
-11 2 3 9.61 3.01
-11 2 3 8.54 2.98
11 -2 -3 10.4 3.31
11 -2 -3 10.71 2.98
11 2 -3 12.09 3.72
11 2 -3 10.79 3.5
11 2 -3 12.67 3.36
-11 -2 2 13.19 3.67
-11 -2 2 11.33 3.08
-11 2 2 13.37 3.6
11 -2 -2 12.47 3.73
11 -2 -2 12.26 3.21
11 2 -2 16.27 4.28
11 2 -2 13.09 3.81
11 2 -2 14.37 3.71
-11 -2 1 2.81 2.3
-11 -2 1 2.88 1.81
-11 2 1 3.73 2.42
11 -2 -1 2.76 2.09
11 -2 -1 5.69 2.43
11 2 -1 6.59 3.09
11 2 -1 5.04 2.93
11 2 -1 3.58 2.19
-11 -2 0 0.11 1.54
-11 -2 0 -0.61 1.32
-11 2 0 0.18 1.71
11 -2 0 0.08 1.64
11 -2 0 0.2 1.45
11 2 0 1.01 1.79
11 2 0 -0.59 1.94
11 2 0 -0.11 1.67
-11 -2 -1 7.87 3.07
-11 -2 -1 10.01 3.49
-11 -2 -1 3.18 2.05
-11 2 -1 8.53 3.34
11 -2 1 6.77 2.8
11 -2 1 9.38 2.9
11 2 1 9.94 3.48
11 2 1 6.33 3.27
11 2 1 7.54 3.36
-11 -2 -2 1.1 2.15
-11 -2 -2 -1.58 1.4
-11 2 -2 0.49 2.13
11 -2 2 0.06 1.77
11 2 2 0.06 1.97
11 2 2 1.3 2.16
11 2 2 0.16 1.87
-11 -2 -3 4.39 2.91
-11 -2 -3 2.94 2.29
-11 2 -3 3.09 2.76
11 -2 3 2.48 2.38
11 2 3 5.32 3.23
11 2 3 4.21 3.1
11 2 3 5.98 3.26
-11 -2 -4 0.62 2.28
-11 -2 -4 -0.55 2.04
-11 2 -4 1.6 2.24
11 -2 4 0.49 1.89
11 2 4 0 2.08
11 2 4 0.69 2.54
11 2 4 0.11 2.18
-11 -2 -5 0.66 2.46
-11 -2 -5 -0.01 2
-11 2 -5 0.04 2.8
11 -2 5 1.79 2.43
11 2 5 0.12 2.41
11 2 5 0.46 2.08
11 2 5 -1.84 1.97
-11 3 12 4.13 3.15
-11 3 12 0.88 2.92
-11 3 12 2.41 2.66
11 -3 -12 1.77 2.14
11 -3 -12 4.17 2.7
-11 -3 11 2.9 2.9
-11 3 11 1.41 2.47
-11 3 11 2.15 2.93
11 -3 -11 5.49 2.95
11 -3 -11 2.96 2.29
-11 -3 10 7.03 3.72
-11 3 10 2.64 2.69
-11 3 10 5.99 3.5
11 -3 -10 1.96 2.26
11 -3 -10 5.4 2.72
-11 -3 9 4.83 3.08
-11 3 9 9.24 3.4
-11 3 9 5.34 2.88
11 -3 -9 5.94 2.9
11 -3 -9 10.87 3.4
11 3 -9 13 3.97
-11 -3 8 6.15 3.43
-11 3 8 6.1 2.82
-11 3 8 7.28 3.23
11 -3 -8 5.84 2.77
11 -3 -8 7.18 2.79
11 3 -8 5.34 2.85
-11 -3 7 0.33 2.04
-11 3 7 -0.7 1.53
-11 3 7 1.31 2.13
11 -3 -7 0.78 2.17
11 -3 -7 0.8 1.63
11 3 -7 0.69 2.2
11 3 -7 -0.86 1.78
-11 -3 6 8.17 3.51
-11 3 6 5.54 2.57
-11 3 6 5.7 2.81
11 -3 -6 10.03 3.49
11 3 -6 11.38 3.96
11 3 -6 5.68 2.87
-11 -3 5 -0.45 1.84
-11 3 5 0.29 1.75
-11 3 5 0.35 1.87
11 -3 -5 1.27 1.86
11 3 -5 0.32 2.23
11 3 -5 -1.04 1.81
-11 -3 4 0.09 2.09
-11 3 4 -0.02 1.51
-11 3 4 -0.72 1.86
11 -3 -4 0.34 1.59
11 3 -4 2.53 2.47
11 3 -4 1.64 2.07
-11 -3 3 4.25 2.69
-11 3 3 5.71 2.9
-11 3 3 6.63 3.07
11 -3 -3 4.62 2.58
11 3 -3 6.09 3.27
11 3 -3 2.32 2.08
-11 -3 2 1.55 2.48
-11 3 2 2.42 2.29
-11 3 2 1.9 2.21
11 -3 -2 3.54 2.65
11 3 -2 2.31 2.29
11 3 -2 3.88 2.8
-11 -3 1 0.37 2.27
-11 -3 1 3.69 2.91
-11 3 1 1.38 2.07
11 -3 -1 3.19 2.42
11 3 -1 4.34 2.66
11 3 -1 3.75 2.71
11 3 -1 3.55 2.47
-11 -3 0 1.03 2.34
-11 -3 0 1.27 2.59
-11 3 0 -1.06 1.87
11 -3 0 0.35 1.68
11 3 0 0.78 2.09
11 3 0 0.8 2.27
11 3 0 0.25 1.97
-11 -3 -1 0.45 2.32
-11 -3 -1 3.44 2.9
-11 -3 -1 1.72 2.01
-11 3 -1 0.49 2.39
11 3 1 3.73 2.98
11 3 1 3.2 3.05
11 3 1 1.16 2.17
-11 -3 -2 -0.4 2.12
-11 -3 -2 -0.08 2.37
-11 -3 -2 -0.42 1.73
11 3 2 1.83 2.43
11 3 2 0.5 2.36
11 3 2 -0.82 2.13
-11 -3 -3 2.66 3.11
-11 -3 -3 0.85 1.93
11 3 3 1.66 2.83
11 3 3 1.28 2.77
11 3 3 1.59 2.56
-11 -3 -4 0.13 2.79
-11 -3 -4 -1.04 1.94
11 3 4 -0.48 2.35
11 3 4 -1.54 2.31
11 3 4 -0.37 2.39
-11 -4 9 0.28 2.86
-11 4 9 1.38 2.78
-11 4 9 1.12 2.63
-11 -4 8 0.77 2.78
-11 4 8 -0.72 1.9
-11 4 8 -0.85 2.3
-11 -4 7 3.2 2.75
-11 4 7 0.99 2.27
11 4 -7 2.46 2.88
-11 -4 6 -0.32 2.41
-11 4 6 0.26 2.05
11 4 -6 -0.65 2.51
-11 -4 5 1.97 2.54
-11 4 5 1.65 2.13
11 4 -5 4 3.09
-11 -4 4 0.11 2.4
-11 4 4 1.75 2.38
11 4 -4 -0.8 2.19
-11 -4 3 0.86 2.39
-11 4 3 1.57 2.13
11 4 -3 1.37 2.34
-11 -4 2 0.9 2.56
-11 -4 2 0.54 2.77
-11 4 2 2.52 2.2
11 4 -2 2.39 2.53
-11 -4 1 -0.61 2.37
-11 -4 1 1.37 2.41
-11 4 1 0.29 2.05
11 4 -1 -1.68 2.19
-11 -4 0 2.74 2.79
-11 -4 0 3.18 3.09
-11 4 0 1.16 2.35
11 4 0 4.42 3.13
-11 -4 -1 3.23 3.47
-11 -4 -1 6.66 3.8
11 4 1 2.05 3.06
11 4 1 0.75 3.1
11 4 1 1.84 2.43
-12 0 14 -0.78 1.82
12 0 -14 -1.94 2.28
-12 0 13 0.31 1.78
12 0 -13 0.51 1.86
12 0 -13 0.26 2.52
-12 0 12 1.77 2.12
12 0 -12 1.15 2.18
12 0 -12 1.36 2.64
-12 0 11 0.05 1.69
12 0 -11 -0.23 1.73
12 0 -11 1.22 2.25
-12 0 10 14.53 4.06
12 0 -10 14.7 4.37
12 0 -10 13.76 4.11
-12 0 9 -1.11 1.54
12 0 -9 -0.73 1.54
12 0 -9 -0.14 2
-12 0 8 111.95 8.25
12 0 -8 138.35 9.69
12 0 -8 115.79 8.66
-12 0 7 -1.26 1.44
12 0 -7 0.75 1.72
12 0 -7 0.19 1.53
-12 0 6 13.13 3.76
12 0 -6 13.59 3.87
12 0 -6 8.58 3.23
-12 0 5 0.99 1.88
12 0 -5 -0.65 1.35
12 0 -5 -0.61 1.66
-12 0 4 15.74 3.95
12 0 -4 18.34 4.53
12 0 -4 14.89 3.85
12 0 -4 16.55 3.98
-12 0 3 0.38 1.58
12 0 -3 -0.32 1.41
12 0 -3 0.09 1.54
12 0 -3 0.72 1.75
-12 0 2 -0.08 1.58
12 0 -2 0.17 1.65
12 0 -2 0.43 1.69
12 0 -2 0.37 1.45
-12 0 1 -0.1 1.9
12 0 -1 -0.44 1.56
12 0 -1 -0.69 1.69
12 0 -1 -0.34 1.51
-12 0 0 1.35 2.01
12 0 0 2.55 2.28
12 0 0 1.3 1.86
12 0 0 2.3 2.3
-12 0 -1 -1.2 1.67
12 0 1 -0.67 1.6
12 0 1 0.11 1.9
12 0 1 -1.32 1.46
-12 0 -2 9.41 3.71
12 0 2 14.85 4.17
12 0 2 14.8 4.3
12 0 2 14.68 4.35
-12 0 -3 -0.9 2.42
12 0 3 -0.06 1.8
12 0 3 0.78 2.35
12 0 3 0.17 2.11
-12 0 -4 20.43 5.14
12 0 4 18.99 4.9
12 0 4 17.58 4.89
-12 0 -5 3.41 2.93
12 0 5 1.42 2.21
12 0 5 -2.55 1.98
-12 -1 14 4.96 3.01
-12 1 14 6.07 3.5
12 -1 -14 0.87 2.45
12 -1 -14 1.42 2.64
12 1 -14 5.56 3.21
-12 -1 13 5.96 2.9
-12 1 13 5.65 3.11
12 -1 -13 4.09 2.55
12 -1 -13 -0.26 2
12 1 -13 2.08 3.14
-12 -1 12 -0.13 1.64
-12 1 12 0.02 2.1
12 -1 -12 0.76 2.27
12 -1 -12 -0.08 2.08
12 1 -12 0.06 2.12
12 1 -12 1.58 2.27
-12 -1 11 -0.18 1.64
-12 1 11 0.69 1.96
12 -1 -11 1.49 2.01
12 -1 -11 2.05 2.12
12 1 -11 1.77 2.1
12 1 -11 0.25 2.17
-12 -1 10 -0.06 1.48
-12 1 10 0.95 1.84
12 -1 -10 -0.49 1.62
12 -1 -10 0.12 1.95
12 1 -10 1.33 2.37
12 1 -10 0 2.25
-12 -1 9 3.69 2.51
-12 -1 9 2.49 2.02
-12 1 9 6.73 3.2
12 -1 -9 1.84 2.22
12 -1 -9 3.46 2.33
12 1 -9 4.92 2.88
12 1 -9 1.81 2.56
-12 -1 8 2.28 2.14
-12 -1 8 2.58 2.07
-12 1 8 1.51 2.05
12 -1 -8 2.9 2.54
12 -1 -8 1.89 2.01
12 1 -8 3.73 2.7
12 1 -8 2.55 2.51
-12 -1 7 13.56 3.76
-12 -1 7 8.34 2.77
-12 1 7 13.85 3.78
12 -1 -7 11.57 4
12 -1 -7 9.78 3.34
12 1 -7 9.48 3.48
12 1 -7 13.09 3.96
-12 -1 6 17.99 6.47
-12 -1 6 16.75 3.86
-12 1 6 15.69 3.95
12 -1 -6 18.19 4.43
12 -1 -6 13.48 3.71
12 1 -6 27.09 5.64
12 1 -6 14.81 3.81
-12 -1 5 44.93 5.27
-12 1 5 40.51 6.27
-12 1 5 45.31 6.47
12 -1 -5 46.46 5.72
12 -1 -5 42.09 5.14
12 1 -5 59.43 6.57
12 1 -5 53.17 6.11
12 1 -5 37.97 4.66
-12 -1 4 16.66 3.92
-12 1 4 20.97 4.07
-12 1 4 21.91 4.72
12 -1 -4 21.17 4.63
12 -1 -4 25.11 4.83
12 1 -4 20.16 4.85
12 1 -4 21.39 4.58
12 1 -4 27.61 5.02
-12 -1 3 -0.96 1.24
-12 1 3 0.9 1.82
12 -1 -3 1.64 1.83
12 -1 -3 -0.11 1.55
12 1 -3 1.24 1.77
12 1 -3 -0.59 1.66
12 1 -3 -1.02 1.29
-12 -1 2 11.68 3.54
-12 1 2 12.22 3.88
12 -1 -2 19.84 4.67
12 -1 -2 13.63 3.64
12 1 -2 17.09 4.54
12 1 -2 13.7 4
12 1 -2 14.16 3.93
-12 -1 1 2.84 2.36
-12 1 1 4.61 2.85
12 -1 -1 7.94 3
12 -1 -1 10.11 3.32
12 -1 -1 5.59 2.7
12 1 -1 9.51 3.66
12 1 -1 8.43 3.43
12 1 -1 6.2 2.72
-12 -1 0 1.1 1.97
-12 1 0 1.47 1.96
12 -1 0 0.28 1.75
12 -1 0 -0.4 1.49
12 -1 0 1.04 1.77
12 1 0 1.51 2.2
12 1 0 0.77 1.99
12 1 0 2.42 2.04
-12 -1 -1 0.74 1.9
-12 1 -1 -1.73 1.77
12 -1 1 -1.19 1.68
12 -1 1 0.06 1.77
12 -1 1 -0.75 1.79
12 1 1 -0.94 1.76
12 1 1 0.64 1.86
12 1 1 -0.79 1.58
-12 -1 -2 -0.64 1.71
-12 1 -2 0.09 2.21
12 -1 2 -0.25 1.93
12 -1 2 0.94 2.08
12 -1 2 -0.14 2.04
12 1 2 0.72 1.96
12 1 2 1.15 2.35
12 1 2 1.66 2.23
-12 -1 -3 -1.75 2.05
-12 1 -3 -0.02 2.37
12 -1 3 0.1 1.78
12 -1 3 0 1.76
12 1 3 -0.8 1.83
12 1 3 -0.15 2.05
12 1 3 0.9 1.78
-12 -1 -4 -1 2.27
-12 1 -4 1.39 2.52
12 -1 4 -1.41 1.92
12 -1 4 -0.87 1.99
12 1 4 -0.65 2.17
12 1 4 -0.61 2.12
12 1 4 0.23 2.17
12 -1 5 -1.39 2
12 1 5 0.58 2.39
-12 2 13 3.39 2.99
12 -2 -13 1.76 2.69
12 -2 -13 1.79 2.74
12 2 -13 2.9 2.84
-12 2 12 3.43 2.76
12 -2 -12 0.45 2.29
12 -2 -12 0.95 1.95
12 -2 -12 1.74 2.2
12 2 -12 0.68 2.73
-12 2 11 -1.44 2.33
-12 2 11 -0.48 2.32
12 -2 -11 0.44 1.99
12 -2 -11 -0.12 1.99
12 -2 -11 1.59 2.08
12 2 -11 -0.02 2.52
12 2 -11 -0.62 2.23
-12 -2 10 2.21 2.6
-12 2 10 -0.01 1.87
-12 2 10 1.09 2.11
12 -2 -10 1.83 2.27
12 -2 -10 -0.14 1.71
12 2 -10 3.43 2.8
12 2 -10 1.14 2.55
-12 -2 9 2.61 2.64
-12 2 9 2.8 2.32
-12 2 9 -0.9 2.13
12 -2 -9 1.27 2.14
12 -2 -9 2.99 2.43
12 2 -9 4.56 2.91
12 2 -9 2.54 2.59
-12 -2 8 1.32 2.38
-12 -2 8 0.46 1.55
-12 2 8 0.83 1.78
-12 2 8 -0.92 1.96
12 -2 -8 0.41 1.81
12 -2 -8 -0.01 1.78
12 2 -8 -1.32 2.07
12 2 -8 0.76 2.4
-12 -2 7 0.87 2.18
-12 -2 7 0.03 1.45
-12 2 7 0.9 1.61
-12 2 7 0.6 2.03
12 -2 -7 1.24 1.99
12 -2 -7 0.33 1.63
12 2 -7 0.32 2.03
12 2 -7 0.86 2.32
-12 -2 6 1.67 1.95
-12 -2 6 2.69 2.04
-12 2 6 1.16 2.01
-12 2 6 1.46 2.41
12 -2 -6 0.72 1.72
12 -2 -6 2.26 2.08
12 2 -6 2.88 2.61
12 2 -6 -0.21 2.12
-12 -2 5 2.75 2.41
-12 -2 5 0.84 1.52
-12 2 5 4.8 2.33
-12 2 5 2.32 2.25
12 -2 -5 2.27 2.29
12 -2 -5 1.33 1.94
12 2 -5 1.62 2.44
12 2 -5 1.12 2.18
-12 -2 4 -0.04 1.87
-12 -2 4 2.96 1.94
-12 2 4 1.63 1.83
-12 2 4 1.81 2.28
12 -2 -4 2.53 2.49
12 -2 -4 1.08 1.68
12 2 -4 -0.1 1.96
12 2 -4 0.9 2.18
-12 -2 3 2.91 2.44
-12 -2 3 1.89 1.86
-12 2 3 2.11 2.23
-12 2 3 4.01 2.58
12 -2 -3 4.37 2.67
12 -2 -3 1.37 1.95
12 2 -3 4.71 3.12
12 2 -3 0.87 2.12
12 2 -3 4.09 2.25
-12 -2 2 -0.94 2.04
-12 -2 2 0.92 1.83
-12 2 2 1.26 2.3
12 -2 -2 3.56 2.49
12 -2 -2 3.85 2.28
12 2 -2 4.63 3.06
12 2 -2 2.24 2.46
12 2 -2 2.57 2.14
-12 -2 1 0.2 2.22
-12 -2 1 -0.08 1.68
-12 2 1 -1 1.92
12 -2 -1 -0.37 1.65
12 -2 -1 1.28 1.84
12 2 -1 0.75 2.01
12 2 -1 1.98 2.11
12 2 -1 1.84 2
-12 -2 0 1.79 2.45
-12 -2 0 0.59 1.87
-12 2 0 -0.06 1.88
12 -2 0 2.46 2.3
12 -2 0 2.67 2.2
12 2 0 2.78 2.53
12 2 0 0.26 2.31
12 2 0 1.68 2.19
-12 -2 -1 1.86 2.69
-12 -2 -1 3.9 2.55
-12 2 -1 1.29 2.68
12 -2 1 -0.85 2.69
12 2 1 -0.16 2.07
12 2 1 3.14 2.63
12 2 1 6.34 3.11
-12 -2 -2 -0.24 2.12
-12 -2 -2 1.67 2.11
-12 2 -2 1.32 2.24
12 2 2 0.07 2.13
12 2 2 1.14 2.37
12 2 2 0.52 2.19
-12 -2 -3 -1.35 2.43
-12 -2 -3 -0.37 2.17
-12 2 -3 -1.26 2.34
12 -2 3 -0.05 2.22
12 2 3 -0.23 2.22
12 2 3 -0.95 2.28
12 2 3 -1.05 2.21
-12 -2 -4 0.13 2.17
-12 2 -4 1.46 2.95
12 -2 4 -0.49 2.13
12 2 4 1.34 2.63
12 2 4 1.53 2.71
12 2 4 1.15 2.56
-12 -3 11 3.78 3.35
-12 3 11 2.41 2.6
-12 3 11 4.76 3.48
12 -3 -11 4.23 2.92
12 -3 -11 2.93 2.4
-12 -3 10 0.85 2.57
-12 3 10 0.57 2.26
-12 3 10 0.75 2.51
12 -3 -10 -0.34 1.67
12 -3 -10 -0.26 1.99
-12 -3 9 3.64 3.17
-12 3 9 2.45 2.35
-12 3 9 5.42 3.45
12 -3 -9 2.49 2.1
12 3 -9 5.74 3.26
-12 -3 8 0.47 2.33
-12 3 8 0.84 2.12
-12 3 8 -1.38 2.48
12 -3 -8 0.27 2.25
12 -3 -8 1.25 2.67
12 3 -8 1.83 2.59
12 3 -8 0.22 2.33
-12 -3 7 -0.46 2.09
-12 3 7 2.2 2.3
-12 3 7 0.6 2.08
12 -3 -7 -0.18 1.79
12 3 -7 -1.29 2.37
12 3 -7 1 2.39
-12 -3 6 -0.11 2.46
-12 3 6 0.97 1.84
-12 3 6 0.35 2.15
12 -3 -6 1.02 1.92
12 3 -6 1.68 2.45
12 3 -6 1.21 2.31
-12 -3 5 -0.6 2.03
-12 3 5 -0.55 1.77
-12 3 5 0.3 2.03
12 -3 -5 0.28 1.96
12 3 -5 -0.48 2.33
12 3 -5 0.43 2.24
-12 -3 4 -1.01 2.31
-12 3 4 -0.84 1.64
-12 3 4 0.5 2.29
12 -3 -4 1.4 2.29
12 3 -4 -1.8 2.14
12 3 -4 1.23 2.27
-12 -3 3 1.46 2.34
-12 3 3 0.67 1.88
-12 3 3 -0.42 2.15
12 -3 -3 -1.16 1.76
12 3 -3 0.18 2.32
12 3 -3 0.96 2.49
-12 -3 2 -0.16 2.61
-12 3 2 -1.47 1.51
-12 3 2 1.57 2.25
12 -3 -2 -0.32 1.85
12 3 -2 0.79 2.52
12 3 -2 -0.24 1.98
-12 -3 1 0.03 2.34
-12 3 1 0.31 2.27
12 -3 -1 1.24 1.99
12 3 -1 1.16 2.16
12 3 -1 -1.28 2.13
12 3 -1 1.03 2.37
-12 -3 0 1.45 2.6
-12 3 0 -0.2 2.46
12 3 0 -0.78 2.19
12 3 0 1.06 2.77
12 3 0 -0.75 1.88
-12 -3 -1 1.99 2.9
-12 -3 -1 -2.06 2.46
-12 3 -1 1.94 2.82
12 3 1 1.24 2.54
12 3 1 0.89 2.57
12 3 1 1.38 2.72
-12 -3 -2 0.57 2.79
12 3 2 -0.74 2.01
12 3 2 -0.03 2.67
12 3 2 -0.81 2.48
-12 -4 7 1.02 2.61
-12 4 7 -0.64 2.06
12 4 -7 1.7 3.1
-12 -4 6 0.72 3.08
-12 4 6 3.18 2.85
12 4 -6 4.76 3.77
-12 -4 5 1.16 2.65
-12 4 5 0.64 2.25
12 4 -5 -0.17 2.77
-12 -4 4 -0.66 2.43
-12 4 4 -0.26 2.12
12 4 -4 1.2 2.72
-12 -4 3 0.96 2.77
-12 4 3 0.04 2.16
12 4 -3 -0.37 2.54
-12 -4 2 -0.49 2.57
-12 4 2 -0.25 2.06
12 4 -2 0.45 2.53
-13 0 13 2.67 2.21
13 0 -13 0.54 2.36
13 0 -13 1.05 2.62
-13 0 12 4.09 2.68
13 0 -12 5.22 3.39
13 0 -12 8.82 4.06
-13 0 11 1.13 1.98
13 0 -11 -0.52 2.21
13 0 -11 -0.38 2.29
-13 0 10 1.16 1.95
13 0 -10 -0.59 2.06
13 0 -10 0.66 2.1
-13 0 9 -1.01 1.78
13 0 -9 -0.26 1.86
13 0 -9 0.38 1.81
-13 0 8 1.43 1.97
13 0 -8 1.63 2.01
13 0 -8 1.93 2.61
-13 0 7 -1.19 1.7
13 0 -7 0.48 2.06
13 0 -7 -0.15 1.97
-13 0 6 0.06 1.64
13 0 -6 3.8 2.75
13 0 -6 3.08 2.44
-13 0 5 0.51 1.88
13 0 -5 -1.11 1.6
13 0 -5 -2.12 1.55
-13 0 4 1.56 2.07
13 0 -4 0.7 1.87
13 0 -4 0.21 1.79
13 0 -4 0.5 1.82
-13 0 3 1.34 1.88
13 0 -3 0.53 1.86
13 0 -3 -0.67 1.72
13 0 -3 -0.91 1.67
-13 0 2 0.13 1.58
13 0 -2 1.24 1.97
13 0 -2 0.5 1.81
13 0 -2 0.89 2.1
-13 0 1 0.8 2.25
13 0 -1 -0.27 1.71
13 0 -1 0.55 2.11
13 0 -1 -0.92 1.55
-13 0 0 -0.8 2.03
13 0 0 -0.13 2.01
13 0 0 0.51 2.21
13 0 0 0.03 1.87
-13 0 -1 0.29 1.9
13 0 1 0.42 2.27
13 0 1 0.88 2.1
13 0 1 -0.52 2.19
-13 0 -2 0.47 2.74
13 0 2 1.66 2.47
13 0 2 1.78 2.38
13 0 2 2.23 2.72
-13 0 -3 -0.05 2.52
13 0 3 0.25 3.45
13 0 3 1.67 2.6
13 0 3 -1.79 2.04
-13 -1 13 0.16 1.81
13 -1 -13 -0.35 2.21
13 -1 -13 0.12 2.34
13 1 -13 0.33 2.73
-13 -1 12 1.27 1.99
-13 1 12 2.88 2.76
13 -1 -12 0.91 2.34
13 -1 -12 1.85 2.52
13 1 -12 0.29 2.28
13 1 -12 -1.47 2.54
-13 -1 11 0.07 1.82
-13 1 11 0.58 2.65
13 -1 -11 1.99 2.2
13 -1 -11 0.09 1.94
13 1 -11 1.14 2.26
13 1 -11 -1.18 2.16
-13 -1 10 -0.71 1.82
-13 1 10 -0.8 1.67
13 -1 -10 0.12 1.96
13 -1 -10 0.14 1.8
13 1 -10 0.39 2.43
13 1 -10 0.84 2.38
-13 -1 9 2.64 2.33
-13 1 9 5.03 2.97
13 -1 -9 6.03 3.05
13 -1 -9 4.45 2.75
13 1 -9 4.76 3.21
13 1 -9 5.67 3.35
-13 -1 8 1.79 1.76
-13 1 8 8.06 3.4
13 -1 -8 7.46 3.42
13 -1 -8 7.1 3.28
13 1 -8 14.44 4.75
13 1 -8 7.13 3.24
-13 -1 7 0.3 1.55
-13 1 7 1.45 2.04
13 -1 -7 -0.13 2.19
13 -1 -7 1.59 2.14
13 1 -7 0.77 2.15
13 1 -7 1.99 2.45
-13 -1 6 12.93 3.68
-13 1 6 15.13 4.17
13 -1 -6 15.79 4.51
13 -1 -6 11.96 3.67
13 1 -6 19.84 4.95
13 1 -6 16.04 4.28
-13 -1 5 1.09 1.8
-13 1 5 1.2 2.39
13 -1 -5 1.1 2.04
13 -1 -5 2.17 2.13
13 1 -5 2.12 2.48
13 1 -5 1.74 2.33
-13 -1 4 0.66 1.82
-13 1 4 1.31 2.07
13 -1 -4 -1.39 1.39
13 -1 -4 1.22 1.98
13 1 -4 -0.2 1.94
13 1 -4 -0.06 2.08
13 1 -4 1.13 2
-13 -1 3 3.14 2.4
-13 1 3 5 2.99
13 -1 -3 2.78 2.11
13 -1 -3 1.71 1.96
13 1 -3 7.43 3.25
13 1 -3 3.5 2.65
13 1 -3 2.71 2.47
-13 -1 2 4.97 2.89
-13 1 2 7.25 3.33
13 -1 -2 8.06 3.45
13 -1 -2 5.37 2.54
13 1 -2 8.52 3.42
13 1 -2 2.25 2.6
13 1 -2 6.27 3.04
-13 -1 1 0.41 2.1
-13 1 1 1.54 2.38
13 -1 -1 0.57 2.08
13 -1 -1 -1.24 1.87
13 -1 -1 1.06 2.26
13 1 -1 1.3 2.36
13 1 -1 0.85 2.31
13 1 -1 1.45 1.89
-13 -1 0 0.94 2.15
-13 1 0 1.46 2.77
13 -1 0 -0.06 2.02
13 -1 0 0.83 2.05
13 -1 0 -0.34 1.81
13 1 0 0.89 2.29
13 1 0 1.85 2.48
13 1 0 -0.94 2.11
-13 -1 -1 -1.47 1.89
-13 1 -1 -0.66 1.99
13 -1 1 -0.27 1.85
13 -1 1 -0.39 1.88
13 -1 1 0.96 2.48
13 1 1 0 2.26
13 1 1 -1.1 2.02
13 1 1 1.74 2.28
-13 -1 -2 -0.3 2.26
-13 1 -2 -0.04 2.64
13 -1 2 -0.66 2
13 -1 2 0.98 2.64
13 1 2 -0.17 2.53
13 1 2 4.19 2.55
13 1 2 0.6 2.25
-13 -1 -3 -1.89 2.2
-13 1 -3 0.99 2.94
13 -1 3 0.34 2.12
13 -1 3 0.96 2.59
13 1 3 -0.53 2.32
13 1 3 2.58 2.69
13 1 3 4.94 3.13
-13 2 11 -0.49 2.33
13 -2 -11 2 2.58
13 -2 -11 -0.39 1.86
13 -2 -11 -0.25 2.14
13 2 -11 1.09 2.78
13 2 -11 0.73 2.6
-13 -2 10 2.65 2.75
-13 2 10 1.51 2.63
13 -2 -10 4.81 3.12
13 -2 -10 3.82 2.66
13 2 -10 4.9 3.43
13 2 -10 3.55 3.14
-13 -2 9 1.92 2.6
-13 2 9 0.92 2.4
13 -2 -9 -0.23 2.02
13 -2 -9 1.65 2.04
13 2 -9 0.8 2.28
13 2 -9 1.47 2.62
-13 -2 8 0.29 2.64
-13 -2 8 0.83 1.77
-13 2 8 0.24 2.08
-13 2 8 1.55 2.19
13 -2 -8 2.29 2.35
13 -2 -8 -0.37 1.93
13 2 -8 2.36 2.91
13 2 -8 3.02 3.06
-13 -2 7 1.78 2.64
-13 -2 7 1.55 1.74
-13 2 7 0.7 2.05
-13 2 7 1.44 2.3
13 -2 -7 -1.32 1.63
13 -2 -7 2.03 2.12
13 2 -7 1.12 2.04
13 2 -7 -1.1 1.95
-13 -2 6 1.41 2.23
-13 -2 6 3.06 2.06
-13 2 6 1.23 2.11
-13 2 6 1.58 2.39
13 -2 -6 0.68 2.33
13 -2 -6 -1.22 1.53
13 2 -6 0.34 2.26
13 2 -6 1.54 2.51
-13 -2 5 2.39 2.63
-13 -2 5 2.96 2.09
-13 2 5 -0.3 1.54
-13 2 5 1.45 2.26
13 -2 -5 1.23 2.01
13 -2 -5 0.41 1.91
13 2 -5 0.33 2.41
13 2 -5 -0.31 2.1
-13 -2 4 6.22 3.1
-13 -2 4 10.69 3.46
-13 2 4 7.29 2.94
-13 2 4 12.58 4.32
13 -2 -4 10.36 4.16
13 -2 -4 8.41 3.1
13 2 -4 9.65 4.03
13 2 -4 11.32 4.03
-13 -2 3 16.36 4.33
-13 -2 3 13.81 3.72
-13 2 3 7.34 2.93
-13 2 3 12.69 4.1
13 -2 -3 19.79 4.98
13 -2 -3 18.03 4.24
13 2 -3 21.66 5.49
13 2 -3 16.88 4.65
-13 -2 2 0.67 2.75
-13 -2 2 0.92 1.96
-13 2 2 -1 2.32
13 -2 -2 1.2 2.3
13 -2 -2 0.97 1.94
13 2 -2 0.17 2.26
13 2 -2 0.85 2.39
13 2 -2 0.66 1.94
-13 -2 1 6.5 2.94
-13 2 1 4.38 3.22
13 -2 -1 5.2 2.97
13 -2 -1 3.47 2.5
13 2 -1 4.02 3.09
13 2 -1 9.02 4.16
13 2 -1 9.24 3.39
-13 -2 0 0.76 1.98
-13 2 0 0.34 2.66
13 -2 0 -0.15 1.85
13 2 0 0.52 2.32
13 2 0 1.54 2.51
13 2 0 -0.63 2.01
-13 -2 -1 1.43 2.17
-13 2 -1 0.24 2.3
13 2 1 1.25 2.55
13 2 1 -0.83 2.56
13 2 1 2.26 2.6
13 2 2 2.49 2.55
-13 -3 9 7.3 4.19
-13 3 9 6.48 3.2
-13 3 9 0.83 3.12
13 -3 -9 3.72 3
13 3 -9 8.52 3.96
13 3 -9 6.99 4.63
-13 -3 8 -1.71 2.47
-13 3 8 -0.26 1.98
-13 3 8 -0.92 2.58
13 -3 -8 -0.95 2.15
13 3 -8 -0.15 2.55
13 3 -8 -0.59 2.53
-13 -3 7 3.64 3.3
-13 3 7 1.96 2.16
-13 3 7 6.23 3.55
13 -3 -7 2.09 2.54
13 3 -7 4.35 3.42
13 3 -7 3.15 2.94
-13 -3 6 -0.29 2.57
-13 3 6 0.33 1.92
-13 3 6 0.22 2.13
13 -3 -6 1.74 2.4
13 3 -6 -0.95 2.75
13 3 -6 -0.04 2.43
-13 -3 5 0.84 2.67
-13 3 5 0.35 2.19
-13 3 5 -0.57 2.43
13 -3 -5 1.34 2.32
13 3 -5 2.44 2.84
13 3 -5 -0.45 2.4
-13 -3 4 0.86 2.74
-13 3 4 1.84 2.45
-13 3 4 0.55 2.68
13 -3 -4 0.68 2.29
13 3 -4 2.57 2.94
13 3 -4 3.28 3.23
-13 -3 3 1.02 2.7
-13 3 3 0.08 2.04
-13 3 3 -1.48 2.47
13 -3 -3 -1.28 2.2
13 3 -3 1.34 2.69
13 3 -3 0.29 2.36
-13 -3 2 -0.9 2.6
-13 3 2 -0.03 1.96
-13 3 2 -0.64 2.32
13 -3 -2 0.14 2.4
13 3 -2 -1.77 2.34
13 3 -2 -0.44 2.5
-13 -3 1 0.96 2.88
-13 3 1 -0.39 2.6
13 -3 -1 3.23 3.9
13 3 -1 4.88 3.56
13 3 -1 3.01 3.02
-14 0 11 -0.39 2.44
14 0 -11 -0.38 2.13
14 0 -11 -1.46 2.13
-14 0 10 3.99 2.84
14 0 -10 2.94 3
14 0 -10 1.9 2.89
-14 0 9 -0.18 1.83
14 0 -9 1.72 2.17
14 0 -9 0.21 2.36
-14 0 8 2.64 2.39
14 0 -8 0.91 2.19
14 0 -8 1.77 2.42
-14 0 7 0.35 2.08
14 0 -7 -0.74 2.24
14 0 -7 0.12 1.67
-14 0 6 1.91 2.37
14 0 -6 3.61 2.82
14 0 -6 2.19 2.37
-14 0 5 -0.99 1.98
14 0 -5 -0.86 1.91
14 0 -5 -1 2.03
-14 0 4 4.31 3.17
14 0 -4 2.02 2.46
14 0 -4 2.39 2.29
-14 0 3 -1.05 2.33
14 0 -3 1.14 2.33
14 0 -3 -0.13 1.95
14 0 -3 0.45 1.93
-14 0 2 5.35 3.07
14 0 -2 7.62 3.51
14 0 -2 2.45 2.37
14 0 -2 3.55 2.9
-14 0 1 0.97 2.42
14 0 -1 0.58 2.32
14 0 -1 0.82 2.23
14 0 -1 0.52 2.31
-14 0 0 6.72 3.33
14 0 0 12.3 4.46
14 0 0 4.2 2.79
14 0 0 5.53 3.12
14 0 1 0.24 2.38
14 0 1 -0.14 2.47
-14 -1 11 0.88 2.07
-14 1 11 2.95 2.63
14 -1 -11 1.99 3.03
14 -1 -11 -0.63 2.35
14 1 -11 2.62 2.84
14 1 -11 0.06 2.6
-14 -1 10 -1.23 1.79
-14 1 10 -0.17 2.05
14 -1 -10 1.07 2.54
14 -1 -10 0.44 2.22
14 1 -10 -0.41 2.83
14 1 -10 0.76 2.48
-14 -1 9 2.7 2.33
-14 1 9 3.54 2.56
14 -1 -9 4.51 3.38
14 -1 -9 1.86 2.68
14 1 -9 5.79 3.46
14 1 -9 3.23 2.83
-14 -1 8 -0.12 1.83
-14 1 8 1.86 2.37
14 -1 -8 -1.55 1.87
14 -1 -8 1 2.25
14 1 -8 0.37 2.78
14 1 -8 0.5 2.5
-14 -1 7 10.43 3.63
-14 1 7 11.95 3.95
14 -1 -7 13.19 4.54
14 -1 -7 12.9 4.07
14 1 -7 9.87 4.3
14 1 -7 7.14 3.26
-14 -1 6 1.64 2.31
-14 1 6 -0.87 1.89
14 -1 -6 0.45 2.14
14 -1 -6 0.07 2
14 1 -6 1.48 2.25
14 1 -6 1.43 2.41
-14 -1 5 0.88 1.92
-14 1 5 0.21 2.01
14 -1 -5 1.71 2.27
14 -1 -5 1.69 2.1
14 1 -5 0.72 2.19
14 1 -5 -0.58 2
-14 -1 4 0.65 1.68
-14 1 4 -1.74 2.04
14 -1 -4 -0.03 2.08
14 -1 -4 -0.59 1.73
14 1 -4 1.23 2.56
14 1 -4 -1.02 2.23
14 1 -4 0.81 2.11
-14 -1 3 1.12 1.98
-14 1 3 2.95 2.45
14 -1 -3 -0.73 1.8
14 -1 -3 2.22 2.33
14 1 -3 3.52 3.14
14 1 -3 -0.06 2.33
14 1 -3 1.43 2.35
-14 -1 2 0.43 1.99
-14 1 2 -0.44 2.45
14 -1 -2 0.12 1.97
14 -1 -2 -1.15 1.92
14 1 -2 2.3 2.53
14 1 -2 -1.1 1.82
14 1 -2 -1.86 1.93
-14 -1 1 -1.04 2.23
-14 1 1 -1.52 2.01
14 -1 -1 0.52 2.09
14 -1 -1 0.49 2.11
14 1 -1 -0.09 2.15
14 1 -1 -0.47 1.93
14 1 -1 -1.37 1.86
-14 -1 0 0.98 2.35
-14 1 0 1.45 2.79
14 -1 0 1.99 2.4
14 -1 0 0.9 2.32
14 -1 0 -0.53 2.04
14 1 0 1.08 2.21
14 1 0 0.59 2.39
14 1 0 0.2 2.29
-14 2 9 5.89 3.47
14 -2 -9 2.58 2.82
14 -2 -9 3.09 2.75
14 2 -9 3.16 3.1
14 2 -9 6.54 3.85
-14 2 8 2.98 2.8
14 -2 -8 1.95 2.38
14 -2 -8 -1.16 2.07
14 2 -8 1.27 2.84
14 2 -8 2.46 3
-14 -2 7 1.15 1.91
-14 2 7 0.99 2.84
14 -2 -7 -0.34 2.34
14 -2 -7 1.24 2.12
14 2 -7 -0.9 2.62
14 2 -7 0.8 2.38
-14 -2 6 0.88 1.87
-14 2 6 -0.01 2.63
14 -2 -6 -0.16 2.12
14 -2 -6 -0.95 1.79
14 2 -6 0.95 2.2
14 2 -6 0.35 2.65
-14 -2 5 2.84 2.32
-14 2 5 0.92 2.67
14 -2 -5 1.88 2.5
14 -2 -5 3.41 2.64
14 2 -5 1.54 2.42
14 2 -5 2.61 2.95
-14 -2 4 0.51 2
-14 2 4 1.96 2.39
-14 2 4 2.99 2.88
14 -2 -4 -0.36 2.46
14 -2 -4 2.5 2.37
14 2 -4 4.1 3.24
14 2 -4 0.4 2.36
-14 -2 3 1.18 1.92
-14 2 3 0.27 2.16
-14 2 3 -0.75 2.61
14 -2 -3 0.46 2.27
14 -2 -3 2.34 2.31
14 2 -3 1.06 2.83
14 2 -3 2.52 2.81
-14 -2 2 0.86 2.1
-14 2 2 0.69 1.92
-14 2 2 0.87 2.54
14 -2 -2 2.28 2.61
14 -2 -2 1.2 2.25
14 2 -2 0.87 2.66
14 2 -2 -1.98 2.23
14 2 -2 -0.83 2.52
14 2 -1 0.98 2.41
-15 0 8 1.33 2.45
15 0 -8 0.45 2.41
15 0 -8 2.21 2.83
-15 0 7 -1.47 1.91
15 0 -7 0.76 2.84
15 0 -7 -0.94 1.83
-15 0 6 0.95 2.31
15 0 -6 1.1 2.44
15 0 -6 1.67 2.69
-15 0 5 0.58 2.01
15 0 -5 0.9 2.19
15 0 -5 -0.01 2.27
-15 0 4 -1.44 2.12
15 0 -4 -0.05 2.18
15 0 -4 1.13 2.57
-15 0 3 -0.34 2.46
15 0 -3 -1.53 2.36
15 0 -3 0.27 2.42
15 0 -3 -0.37 2.3
-15 -1 7 2.73 2.44
-15 1 7 0.32 2.23
15 -1 -7 1.69 2.58
15 -1 -7 0.34 2.22
15 1 -7 -1.19 2.17
15 1 -7 2.59 2.99
-15 -1 6 -0.13 2.03
-15 1 6 -1.83 2.13
15 -1 -6 -0.38 2.3
15 -1 -6 0.48 2
15 1 -6 1.58 2.57
15 1 -6 -1 2.25
-15 -1 5 -1.55 1.76
-15 1 5 -0.32 2.63
15 -1 -5 0.69 2.57
15 -1 -5 -0.32 2.18
15 1 -5 2.1 2.95
15 1 -5 -1.23 2.25
15 -1 -4 -0.78 2
15 -1 -4 0.17 2.2
15 1 -4 0.9 2.66
15 1 -4 0.48 2.29
