#------------------------------------------------------------------------------
#$Date: 2019-10-28 17:43:26 +0200 (Mon, 28 Oct 2019) $
#$Revision: 220158 $
#$URL: file:///home/coder/svn-repositories/cod/cif/4/51/50/4515022.cif $
#------------------------------------------------------------------------------
#
# This file is available in the Crystallography Open Database (COD),
# http://www.crystallography.net/
#
# All data on this site have been placed in the public domain by the
# contributors.
#
data_4515022
loop_
_publ_author_name
'T\'oth, Bal\'azs L'
'B\'eke, Ferenc'
'Egyed, Orsolya'
'B\'enyei, Attila'
'Stirling, Andr\'as'
'Nov\'ak, Zolt\'an'
_publ_section_title
;
 Synthesis of Multifunctional Aryl(trifloxyalkenyl)iodonium Triflate
 Salts.
;
_journal_issue                   5
_journal_name_full               'ACS omega'
_journal_page_first              9188
_journal_page_last               9197
_journal_paper_doi               10.1021/acsomega.9b00728
_journal_volume                  4
_journal_year                    2019
_chemical_formula_moiety         'C10 H8 Br F3 I O3 S, C F3 O3 S'
_chemical_formula_sum            'C11 H8 Br F6 I O6 S2'
_chemical_formula_weight         621.10
_chemical_name_common            Novak
_space_group_crystal_system      triclinic
_space_group_IT_number           2
_space_group_name_Hall           '-P 1'
_space_group_name_H-M_alt        'P -1'
_symmetry_space_group_name_Hall  '-P 1'
_symmetry_space_group_name_H-M   'P -1'
_atom_sites_solution_hydrogens   geom
_atom_sites_solution_primary     direct
_atom_sites_solution_secondary   difmap
_cell_angle_alpha                72.6250(10)
_cell_angle_beta                 85.102(2)
_cell_angle_gamma                89.061(2)
_cell_formula_units_Z            2
_cell_length_a                   8.0462(4)
_cell_length_b                   10.4191(5)
_cell_length_c                   11.8606(5)
_cell_measurement_reflns_used    1462
_cell_measurement_temperature    298.00(10)
_cell_measurement_theta_max      27.4705
_cell_measurement_theta_min      1.8809
_cell_volume                     945.44(8)
_computing_cell_refinement       'APEX3 v2017.3-0 (Bruker AXS)'
_computing_data_collection       'Bruker Instrument Service vV6.2.6'
_computing_data_reduction        'SAINT V8.38A (Bruker AXS Inc., 2017)'
_computing_molecular_graphics    Mercury
_computing_publication_material  'WinGX, PublCIF'
_computing_structure_refinement  'SHELXL-2016/6 (Sheldrick, 2016)'
_computing_structure_solution    'SHELXT 2014/5 (Sheldrick, 2014)'
_diffrn_ambient_temperature      298.00(10)
_diffrn_detector_area_resol_mean 7.3910
_diffrn_measured_fraction_theta_full 0.998
_diffrn_measured_fraction_theta_max 0.998
_diffrn_measurement_device_type  'Bruker D8 VENTURE'
_diffrn_measurement_method       '\w and \p scan'
_diffrn_radiation_monochromator  'multilayer mirror'
_diffrn_radiation_type           ' Mo K\a'
_diffrn_radiation_wavelength     0.71073
_diffrn_reflns_av_R_equivalents  0.0549
_diffrn_reflns_av_unetI/netI     0.0358
_diffrn_reflns_limit_h_max       10
_diffrn_reflns_limit_h_min       -10
_diffrn_reflns_limit_k_max       13
_diffrn_reflns_limit_k_min       -13
_diffrn_reflns_limit_l_max       14
_diffrn_reflns_limit_l_min       -14
_diffrn_reflns_number            28486
_diffrn_reflns_theta_full        26.37
_diffrn_reflns_theta_max         26.37
_diffrn_reflns_theta_min         2.54
_diffrn_source                   'microfocus sealed tube'
_diffrn_source_type              'INCOATEC I\mS 3.0'
_exptl_absorpt_coefficient_mu    4.110
_exptl_absorpt_correction_T_max  0.745
_exptl_absorpt_correction_T_min  0.487
_exptl_absorpt_correction_type   numerical
_exptl_absorpt_process_details
;
SADABS-2016/2 - Bruker AXS area detector scaling and absorption correction
;
_exptl_crystal_colour            colourless
_exptl_crystal_density_diffrn    2.182
_exptl_crystal_density_method    'not measured'
_exptl_crystal_description       prism
_exptl_crystal_F_000             592
_exptl_crystal_size_max          0.325
_exptl_crystal_size_mid          0.154
_exptl_crystal_size_min          0.106
_refine_diff_density_max         0.930
_refine_diff_density_min         -0.886
_refine_ls_extinction_coef       0.0040(8)
_refine_ls_extinction_method     'SHELXL-2016/6 (Sheldrick 2016)'
_refine_ls_goodness_of_fit_ref   0.997
_refine_ls_hydrogen_treatment    constr
_refine_ls_matrix_type           full
_refine_ls_number_parameters     245
_refine_ls_number_reflns         3854
_refine_ls_number_restraints     0
_refine_ls_restrained_S_all      0.997
_refine_ls_R_factor_all          0.0305
_refine_ls_R_factor_gt           0.0265
_refine_ls_shift/su_max          0.000
_refine_ls_shift/su_mean         0.000
_refine_ls_structure_factor_coef Fsqd
_refine_ls_weighting_details
'w=1/[\s^2^(Fo^2^)+(0.0360P)^2^+0.9007P] where P=(Fo^2^+2Fc^2^)/3'
_refine_ls_weighting_scheme      calc
_refine_ls_wR_factor_gt          0.0678
_refine_ls_wR_factor_ref         0.0708
_reflns_number_gt                3506
_reflns_number_total             3854
_reflns_threshold_expression     'I > 2\s(I)'
_cod_data_source_file            ao9b00728_si_002.cif
_cod_data_source_block           7l
_cod_database_code               4515022
_publcif_datablock.id            {15708219-21d2-4832-93c3-dcbcdb9017b7}
_shelx_res_file
;

TITL mo_18124_0m_a.res in P-1
    mo_18124_0m.res
    created by SHELXL-2016/6 at 19:38:12 on 18-Oct-2018
CELL 0.71073 8.0462 10.4191 11.8606 72.625 85.102 89.061
ZERR 2.00 0.0004 0.0005 0.0005 0.001 0.002 0.002
LATT 1
SFAC C H O F S BR I
UNIT 22 16 12 12 4 2 2
LIST 4
TEMP 25
ACTA
L.S. 14
FMAP 2
PLAN  4
HTAB
BOND $H
CONF
HTAB
WGHT    0.036000    0.900700
EXTI    0.003956
FVAR       0.44800
C1    1    0.560234    0.244322    0.531488    11.00000    0.02924    0.04153 =
         0.03980   -0.01391   -0.00449   -0.00450
AFIX  43
H1    2    0.463020    0.229174    0.582145    11.00000   -1.20000
AFIX   0
C2    1    0.564790    0.208810    0.434233    11.00000    0.02898    0.03301 =
         0.04024   -0.01155   -0.00656   -0.00126
C3    1    0.704707    0.216196    0.342839    11.00000    0.04330    0.04762 =
         0.05189   -0.02374    0.00315   -0.00808
AFIX  23
H3A   2    0.807310    0.235993    0.372019    11.00000   -1.20000
H3B   2    0.685273    0.289055    0.272226    11.00000   -1.20000
AFIX   0
C10   1    0.293283    0.313742    0.222381    11.00000    0.07555    0.10543 =
         0.06072   -0.03197   -0.02556    0.02568
C11   1    0.756969    0.199468    0.748355    11.00000    0.03344    0.04072 =
         0.03666   -0.00843   -0.00746   -0.00308
C12   1    0.857559    0.088836    0.769012    11.00000    0.05246    0.04794 =
         0.05061   -0.01365   -0.00625    0.00800
AFIX  43
H12   2    0.925873    0.071353    0.708092    11.00000   -1.20000
AFIX   0
C13   1    0.853560    0.004589    0.883439    11.00000    0.07271    0.04871 =
         0.06578   -0.00293   -0.01883    0.00679
AFIX  43
H13   2    0.920503   -0.071269    0.900486    11.00000   -1.20000
AFIX   0
C14   1    0.753290    0.030803    0.971569    11.00000    0.07611    0.06804 =
         0.04733    0.00333   -0.01430   -0.01392
AFIX  43
H14   2    0.752314   -0.027140    1.048377    11.00000   -1.20000
AFIX   0
C15   1    0.654309    0.140761    0.948839    11.00000    0.07424    0.09182 =
         0.04551   -0.01553    0.01054   -0.00046
AFIX  43
H15   2    0.585517    0.157035    1.010101    11.00000   -1.20000
AFIX   0
C16   1    0.654737    0.229301    0.834894    11.00000    0.05219    0.06494 =
         0.04910   -0.01441   -0.00022    0.01281
AFIX  43
H16   2    0.588342    0.305482    0.818329    11.00000   -1.20000
AFIX   0
C20   1    0.836627    0.609568    0.135453    11.00000    0.04721    0.05392 =
         0.03689   -0.00834   -0.00333    0.00608
O11   3    0.417609    0.152730    0.409579    11.00000    0.03456    0.04640 =
         0.05140   -0.02273   -0.00696   -0.00411
O12   3    0.237918    0.337423    0.435230    11.00000    0.07114    0.11052 =
         0.09108   -0.06888   -0.03802    0.04803
O13   3    0.127746    0.137721    0.394642    11.00000    0.03992    0.14533 =
         0.11184   -0.05640   -0.01209   -0.02145
O21   3    0.964218    0.570322    0.334801    11.00000    0.04747    0.06701 =
         0.05356   -0.01780   -0.01993    0.00220
O22   3    0.671925    0.525014    0.339731    11.00000    0.05134    0.06048 =
         0.04543   -0.01115    0.00239   -0.01901
O23   3    0.771276    0.755076    0.273806    11.00000    0.07654    0.04083 =
         0.06524   -0.01819    0.00388    0.00509
F11   4    0.354941    0.226820    0.171132    11.00000    0.12053    0.15024 =
         0.06403   -0.05434   -0.01579    0.03805
F12   4    0.159921    0.360329    0.178820    11.00000    0.12603    0.25935 =
         0.08992   -0.05141   -0.06596    0.10846
F13   4    0.405994    0.408514    0.202991    11.00000    0.18114    0.10932 =
         0.09430    0.01178   -0.02809   -0.02708
F21   4    0.703440    0.655162    0.078725    11.00000    0.08126    0.14664 =
         0.04925   -0.03183   -0.03030    0.04177
F22   4    0.860215    0.485986    0.131198    11.00000    0.10251    0.06618 =
         0.06438   -0.03412    0.00247    0.00621
F23   4    0.964846    0.682151    0.076407    11.00000    0.08786    0.09724 =
         0.05548   -0.01300    0.02524   -0.02373
S1    5    0.252913    0.234767    0.381529    11.00000    0.03525    0.08589 =
         0.05865   -0.04073   -0.01459    0.00904
S2    5    0.808044    0.616675    0.287858    11.00000    0.03892    0.03727 =
         0.03332   -0.00918   -0.00437   -0.00260
BR1   6    0.729716    0.050072    0.302042    11.00000    0.05810    0.05815 =
         0.06366   -0.03275    0.00365    0.00725
I1    7    0.764694    0.333825    0.575943    11.00000    0.03985    0.04178 =
         0.03611   -0.01027   -0.00985   -0.00694
HKLF 4 1 1 0 0 0 1 0 0 0 1




REM  mo_18124_0m_a.res in P-1
REM R1 =  0.0265 for    3506 Fo > 4sig(Fo)  and  0.0305 for all    3854 data
REM    245 parameters refined using      0 restraints

END

WGHT      0.0232      1.0751

REM Instructions for potential hydrogen bonds
EQIV $1 -x+1, -y+1, -z+1
HTAB C1 O23_$1
HTAB C3 I1
HTAB C3 F13
HTAB C3 F22
EQIV $2 -x+2, -y, -z+1
HTAB C12 Br1_$2
HTAB C16 F21_$1

REM Highest difference peak  0.930,  deepest hole -0.886,  1-sigma level  0.090
Q1    1   0.7649  0.1187  0.2552  11.00000  0.05    0.93
Q2    1   0.7554  0.0451  0.3672  11.00000  0.05    0.70
Q3    1   0.6617  0.3214  0.5979  11.00000  0.05    0.69
Q4    1   0.6271  0.0439  0.2993  11.00000  0.05    0.57
;
_shelx_res_checksum              36208
_shelx_hkl_file
;
  -1   0   0    7.40    1.00
   1   0   0    7.30    0.80
   2   0   0 9619.94  628.24
  -3   0   0   28.90    2.70
  -3   0   0   16.60    2.60
  -3   0   0   25.70    2.70
  -3   0   0   20.60    2.60
  -3   0   0   17.10    2.90
   3   0   0   24.30    2.60
   3   0   0   24.10    2.50
   3   0   0   21.50    2.90
   3   0   0   26.70    3.20
   3   0   0   26.10    2.90
  -4   0   0 1592.34  114.99
  -4   0   0 1836.62  114.49
  -4   0   0 1802.92  114.79
  -4   0   0 1842.72  114.59
  -4   0   0 1925.91  114.49
   4   0   0 1840.02  114.49
   4   0   0 1907.71  115.49
   4   0   0 1949.90  114.59
   4   0   0 1905.41  114.29
  -5   0   0   74.49    7.60
  -5   0   0   86.09    7.30
  -5   0   0   98.09    7.80
  -5   0   0   83.49    7.30
  -5   0   0  103.19    7.40
   5   0   0   76.59    6.70
   5   0   0   76.79    7.00
   5   0   0   80.49    7.90
   5   0   0   85.69    7.00
  -6   0   0  620.64   40.60
  -6   0   0  614.74   39.90
  -6   0   0  618.84   40.20
  -6   0   0  621.24   40.00
  -6   0   0  538.75   40.70
   6   0   0  633.04   39.80
   6   0   0  640.14   41.20
   6   0   0  601.14   39.50
   6   0   0  629.74   40.10
  -7   0   0    4.90    2.80
  -7   0   0    0.60    2.40
  -7   0   0    1.70    2.70
  -7   0   0    3.60    2.70
  -7   0   0    1.50    2.20
  -7   0   0    6.20    2.50
   7   0   0    0.40    2.10
   7   0   0    5.60    2.40
   7   0   0    3.80    2.10
  -8   0   0  110.79   11.20
  -8   0   0  119.49   11.10
  -8   0   0  136.49   11.10
  -8   0   0  116.69   10.80
   8   0   0  116.79   10.70
   8   0   0  130.39   10.40
   8   0   0  118.49   11.50
  -9   0   0   30.00    5.30
  -9   0   0   19.70    5.20
  -9   0   0   20.60    4.80
   9   0   0   24.80   10.50
   9   0   0   20.40    4.80
   9   0   0   15.50    4.40
   9   0   0   22.10    4.00
 -10   0   0   62.99    8.30
 -10   0   0   66.99    7.70
 -10   0   0   39.20    8.00
 -10   0   0   49.90    7.70
  10   0   0   72.59    6.70
  10   0   0   44.70   14.60
  10   0   0   54.49    7.30
  10   0   0   47.30    7.30
   9  -1   0   98.99    9.20
   9  -1   0   85.99    9.80
   9  -1   0   98.29   10.70
  -9   1   0   89.69   10.00
  -9   1   0  108.09   11.00
  -9   1   0   99.49    9.90
  -9   1   0   99.99   10.40
   8  -1   0   90.99    9.50
   8  -1   0  106.79   10.90
   8  -1   0   99.49    9.20
  -8   1   0  110.49    9.90
  -8   1   0   97.89    9.70
  -8   1   0  103.49   10.40
  -8   1   0  108.49   10.30
   7  -1   0  427.66   30.90
   7  -1   0  425.96   29.00
   7  -1   0  469.35   29.70
   7  -1   0  452.35   29.90
  -7   1   0  458.25   29.80
  -7   1   0  387.96   30.70
  -7   1   0  410.46   30.10
  -7   1   0  445.96   29.80
  -7   1   0  445.56   29.90
  -7   1   0  428.56   30.10
   6  -1   0   62.49    6.40
   6  -1   0   58.69    9.00
   6  -1   0   63.09    6.10
   6  -1   0   53.49    5.60
  -6   1   0   48.10    6.30
  -6   1   0   63.69    6.70
  -6   1   0   67.69    6.50
  -6   1   0   58.29    6.20
  -6   1   0   56.19    6.30
  -6   1   0   59.59    5.70
   5  -1   0 1021.60   62.99
   5  -1   0  968.60   62.39
   5  -1   0 1009.80   62.99
   5  -1   0 1061.79   64.29
  -5   1   0  922.11   63.59
  -5   1   0  972.40   63.99
  -5   1   0  995.80   62.79
  -5   1   0  953.20   63.09
  -5   1   0 1022.40   62.89
   4  -1   0    5.20    1.80
   4  -1   0    4.60    1.50
   4  -1   0    6.60    2.10
  -4   1   0    3.80    1.80
  -4   1   0    4.60    1.80
  -4   1   0    4.00    1.70
  -4   1   0    6.00    1.90
  -4   1   0    4.80    2.40
   3  -1   0 1002.90   60.89
   3  -1   0  997.50   61.29
   3  -1   0 1007.50   61.19
   3  -1   0  856.61   61.39
  -3   1   0 1055.99   61.19
  -3   1   0  969.30   61.19
  -3   1   0  992.70   61.29
  -3   1   0  987.40   60.99
  -3   1   0  923.01   61.49
   2  -1   0  129.69    8.90
   2  -1   0  115.69    9.00
   2  -1   0  134.59    8.90
   2  -1   0  130.49    8.70
  -2   1   0  136.69    8.80
  -2   1   0  128.89    9.00
  -2   1   0  125.09    8.80
  -2   1   0  128.89    9.10
   1  -1   0  391.36   23.90
   1  -1   0  393.46   23.70
   1  -1   0  360.26   23.80
  -1   1   0  400.96   23.80
  -1   1   0  349.96   23.90
  -1  -1   0   91.29    6.60
  -1  -1   0   94.89    6.50
  -1  -1   0  109.99    6.60
  -1  -1   0  100.39    6.80
  -1  -1   0  100.19    6.50
   1   1   0  101.89    6.50
   1   1   0  101.29    6.60
   1   1   0  106.29    6.80
  -2  -1   0  105.79    6.90
  -2  -1   0   89.49    6.90
  -2  -1   0   91.29    6.70
  -2  -1   0   97.89    6.70
  -2  -1   0  101.19    7.30
   2   1   0  106.29    6.80
   2   1   0  102.09    7.20
   2   1   0   96.99    7.00
   2   1   0   97.29    6.70
   2   1   0  104.39    6.80
  -3  -1   0  214.78   15.10
  -3  -1   0  219.78   14.40
  -3  -1   0  209.28   14.70
  -3  -1   0  228.38   14.50
  -3  -1   0  206.48   14.20
   3   1   0  221.78   14.90
   3   1   0  231.68   14.50
   3   1   0  209.78   14.70
   3   1   0  212.68   14.60
   3   1   0  214.98   14.30
  -4  -1   0   42.90    5.10
  -4  -1   0   48.70    4.40
  -4  -1   0   42.90    4.70
  -4  -1   0   49.40    4.50
  -4  -1   0   50.29    4.40
   4   1   0   60.99    4.70
   4   1   0   47.80    4.30
   4   1   0   41.00    4.60
   4   1   0   50.59    5.00
   4   1   0   46.50    4.20
  -5  -1   0    2.50    1.80
  -5  -1   0   -0.70    1.30
  -5  -1   0   -0.10    1.30
  -5  -1   0    0.60    1.60
  -5  -1   0    0.10    1.30
   5   1   0   -0.40    1.10
   5   1   0    1.20    1.50
   5   1   0   -0.30    1.10
   5   1   0   -0.60    1.40
   5   1   0   -0.40    1.60
  -6  -1   0   10.40    3.30
  -6  -1   0    8.20    2.70
  -6  -1   0    8.50    2.60
  -6  -1   0    6.90    2.70
  -6  -1   0   10.80    3.00
   6   1   0   12.60    2.60
   6   1   0   11.80    3.40
   6   1   0   13.40    2.60
   6   1   0   13.90    3.00
  -7  -1   0    4.70    2.80
  -7  -1   0    4.30    2.90
  -7  -1   0    7.10    2.70
  -7  -1   0    7.20    3.00
  -7  -1   0    8.50    3.00
  -7  -1   0    4.20    2.50
   7   1   0    5.80    2.30
   7   1   0    4.40    2.90
   7   1   0    4.90    2.50
   7   1   0    3.60    2.10
  -8  -1   0   19.60    4.30
  -8  -1   0   22.10    4.20
  -8  -1   0   25.70    5.00
  -8  -1   0   19.70    5.10
   8   1   0   13.30    8.40
   8   1   0   24.60    3.90
   8   1   0   19.40    4.00
   8   1   0   21.60    4.40
  -9  -1   0    4.50    3.20
  -9  -1   0    1.00    2.90
  -9  -1   0   -1.30    2.70
  -9  -1   0   -1.50    2.90
   9   1   0    3.00    2.20
   9   1   0    0.90    5.50
   9   1   0    4.10    2.80
   9   1   0    2.50    2.50
   9  -2   0    3.40    2.50
   9  -2   0    1.60    2.60
   9  -2   0    2.20    3.60
  -9   2   0   -1.50    2.90
  -9   2   0   -0.40    3.00
  -9   2   0    4.00    3.70
   8  -2   0  143.19   12.20
   8  -2   0  141.59   13.80
   8  -2   0  144.29   12.70
  -8   2   0  131.29   14.20
  -8   2   0  156.48   12.70
  -8   2   0  143.69   13.30
  -8   2   0  144.49   11.60
  -8   2   0  162.98   13.60
   7  -2   0   46.10    7.60
   7  -2   0   43.90    5.90
   7  -2   0   38.40    6.30
   7  -2   0   41.50    5.60
  -7   2   0   30.80    6.00
  -7   2   0   43.40    7.00
  -7   2   0   44.10    6.50
  -7   2   0   40.10    5.90
  -7   2   0   39.10    5.90
  -7   2   0   40.60    5.30
   6  -2   0  337.67   23.10
   6  -2   0  343.77   23.20
   6  -2   0  335.87   24.50
   6  -2   0  332.47   22.40
  -6   2   0  318.27   22.80
  -6   2   0  341.37   23.40
  -6   2   0  361.56   23.10
  -6   2   0  294.67   23.50
  -6   2   0  326.37   23.30
  -6   2   0  312.07   22.00
   5  -2   0    3.30    1.60
   5  -2   0    0.80    1.90
   5  -2   0   -0.20    1.50
   5  -2   0    0.90    1.90
  -5   2   0    0.40    1.20
  -5   2   0    2.00    2.00
  -5   2   0    0.70    1.80
  -5   2   0    1.50    1.90
  -5   2   0    1.40    2.10
   4  -2   0  539.55   41.10
   4  -2   0  641.34   40.80
   4  -2   0  656.43   40.40
  -4   2   0  614.24   41.20
  -4   2   0  689.43   40.80
  -4   2   0  648.64   40.90
  -4   2   0  652.43   41.10
  -4   2   0  645.84   40.70
  -4   2   0  622.84   39.90
   3  -2   0   22.70    3.20
   3  -2   0   20.50    2.50
   3  -2   0   22.30    3.10
   3  -2   0   22.40    3.00
  -3   2   0   27.30    3.30
  -3   2   0   26.00    3.20
  -3   2   0   24.50    3.10
  -3   2   0   25.30    3.20
  -3   2   0   18.90    2.10
   2  -2   0  298.77   19.40
   2  -2   0  258.27   19.30
   2  -2   0  289.97   18.80
   2  -2   0  294.97   19.10
  -2   2   0  275.07   18.30
  -2   2   0  307.27   19.10
  -2   2   0  283.27   19.30
  -2   2   0  312.37   19.40
  -2   2   0  321.87   19.10
   1  -2   0   55.49    3.60
   1  -2   0   55.49    3.80
   1  -2   0   41.40    3.80
   1  -2   0   36.90    3.60
  -1   2   0   44.20    3.90
  -1   2   0   50.49    3.70
  -1   2   0   37.90    3.60
  -1   2   0   57.19    3.70
   0  -2   0  868.51   57.69
   0  -2   0  945.21   58.29
   0   2   0  955.70   58.19
   0   2   0  977.10   57.89
  -1  -2   0 1338.17   73.59
  -1  -2   0 1045.60   75.59
  -2  -2   0   76.79    6.10
  -2  -2   0   89.39    6.10
  -2  -2   0   88.29    6.30
  -2  -2   0   91.59    6.10
  -2  -2   0   89.79    6.70
  -2  -2   0   88.09    6.10
   2   2   0   82.09    5.90
   2   2   0   82.29    6.30
   2   2   0   91.39    6.10
   2   2   0   87.59    6.40
   2   2   0   88.99    6.00
   2   2   0   79.59    9.00
  -3  -2   0  101.99    7.30
  -3  -2   0   97.79    8.10
  -3  -2   0  118.89    7.60
  -3  -2   0   96.19    7.60
  -3  -2   0   96.99    7.20
   3   2   0  104.89    7.30
   3   2   0   97.79    7.20
   3   2   0  103.29    7.80
   3   2   0  102.59    7.70
   3   2   0   99.49    7.10
  -4  -2   0   16.90    2.60
  -4  -2   0    8.50    1.90
  -4  -2   0   12.30    3.00
  -4  -2   0    9.90    2.20
  -4  -2   0   14.20    2.70
   4   2   0   13.40    2.10
   4   2   0   11.50    2.10
   4   2   0   14.90    2.80
   4   2   0   10.90    2.50
   4   2   0   15.30    2.50
  -5  -2   0  538.35   34.90
  -5  -2   0  532.95   35.10
  -5  -2   0  540.05   35.10
  -5  -2   0  539.65   35.70
  -5  -2   0  506.45   36.30
   5   2   0  518.15   35.60
   5   2   0  575.44   35.10
   5   2   0  545.05   34.60
   5   2   0  579.24   35.60
  -6  -2   0   23.70    4.50
  -6  -2   0   31.90    4.50
  -6  -2   0   25.00    4.10
  -6  -2   0   29.10    4.20
   6   2   0   25.30    4.20
   6   2   0   18.20    7.60
   6   2   0   29.90    4.20
   6   2   0   28.10    6.00
   6   2   0   26.90    3.40
   6   2   0   24.60    3.70
  -7  -2   0  507.75   32.10
  -7  -2   0  484.35   31.80
  -7  -2   0  488.75   33.90
  -7  -2   0  403.36   32.60
  -7  -2   0  491.75   31.60
  -7  -2   0  463.35   32.50
   7   2   0  500.05   31.80
   7   2   0  389.96   40.30
   7   2   0  430.56   31.00
   7   2   0  510.55   30.90
   7   2   0  517.25   31.80
  -8  -2   0   28.00    6.10
  -8  -2   0   16.40    4.90
  -8  -2   0   25.20    4.50
  -8  -2   0   20.80    4.40
  -8  -2   0   19.60    4.60
   8   2   0   26.40    4.20
   8   2   0   30.20    4.00
   8   2   0   33.90    5.00
  -9  -2   0  156.78   12.60
  -9  -2   0  123.79   13.10
  -9  -2   0  150.28   13.00
  -9  -2   0  164.08   13.00
   9   2   0  158.88   11.10
   9   2   0  150.48   10.70
   9   2   0  143.69   12.30
   9   2   0  119.89   20.80
   9  -3   0   11.50    4.30
   9  -3   0   21.10    5.50
   9  -3   0   26.20    6.40
  -9   3   0   17.10    5.20
  -9   3   0   14.90    4.80
  -9   3   0   20.80    5.10
  -9   3   0   20.30    5.70
   8  -3   0    8.00    3.50
   8  -3   0   19.10    4.40
   8  -3   0   16.20    5.40
  -8   3   0   14.30    3.20
  -8   3   0    8.00    3.90
  -8   3   0   14.60    5.20
  -8   3   0    7.10    3.70
   7  -3   0   55.99    6.60
   7  -3   0   50.09    7.10
  -7   3   0   45.30    7.10
  -7   3   0   47.60    5.10
  -7   3   0   51.49    6.70
  -7   3   0   34.10    6.00
  -7   3   0   44.80    7.20
  -7   3   0   52.19    7.30
   6  -3   0   60.09    6.50
   6  -3   0   46.80    6.00
   6  -3   0   41.70    5.00
   6  -3   0   52.39    6.50
  -6   3   0   55.99    6.40
  -6   3   0   51.79    6.30
  -6   3   0   46.60    6.30
  -6   3   0   49.20    4.90
  -6   3   0   52.59    6.10
  -6   3   0   49.50    6.40
   5  -3   0   12.80    3.40
   5  -3   0   17.60    4.00
   5  -3   0   25.10    4.40
   5  -3   0   19.50    3.10
  -5   3   0   19.70    4.00
  -5   3   0   23.40    4.00
  -5   3   0   22.10    4.30
  -5   3   0   25.80    4.20
  -5   3   0   21.90    4.10
   4  -3   0  651.13   41.60
   4  -3   0  680.63   42.00
   4  -3   0  567.64   41.90
   4  -3   0  654.73   41.00
  -4   3   0  663.23   41.40
  -4   3   0  636.94   40.30
  -4   3   0  652.23   41.40
  -4   3   0  637.44   42.00
   3  -3   0  253.77   17.50
   3  -3   0  259.17   18.00
   3  -3   0  274.17   18.40
   3  -3   0  249.78   18.40
  -3   3   0  269.77   17.90
  -3   3   0  270.07   17.90
  -3   3   0  260.47   16.80
  -3   3   0  272.47   18.50
  -3   3   0  277.97   18.40
   2  -3   0 2539.85  156.88
   1  -3   0   15.50    1.80
   1  -3   0   14.40    2.20
   1  -3   0   15.80    2.60
   1  -3   0   14.90    2.10
  -1   3   0   22.30    2.50
  -1   3   0   19.70    2.10
  -1   3   0   15.10    2.50
  -1   3   0   11.40    1.90
   0  -3   0 3195.08  231.48
  -1  -3   0  823.72   52.49
  -1  -3   0  847.32   52.39
  -1  -3   0  928.81   52.29
  -1  -3   0  875.41   52.49
  -1  -3   0  851.01   52.39
  -1  -3   0  828.32   53.09
   1   3   0  866.11   52.89
   1   3   0  860.41   52.29
   1   3   0  871.11   52.49
   1   3   0  792.32   54.99
   1   3   0  803.62   52.29
   1   3   0  840.42   52.59
   1   3   0  787.02   52.39
  -2  -3   0 2400.26  152.88
  -2  -3   0 2636.74  152.28
   2   3   0 2251.87  156.18
   2   3   0 2593.64  152.28
  -3  -3   0 1170.78   73.69
  -3  -3   0 1169.18   74.39
  -3  -3   0 1123.09   73.39
  -3  -3   0 1214.18   73.39
  -3  -3   0 1203.18   73.39
  -3  -3   0 1234.78   73.29
   3   3   0 1150.38   73.39
   3   3   0 1185.08   73.09
   3   3   0 1251.47   73.69
   3   3   0 1041.90   78.59
   3   3   0 1279.97   73.29
   3   3   0 1109.19   74.39
  -4  -3   0 2533.85  156.88
  -4  -3   0 2490.75  158.18
  -4  -3   0 2598.04  156.78
  -4  -3   0 2678.23  156.78
  -4  -3   0 2481.55  157.18
   4   3   0 2591.64  156.78
   4   3   0 2710.13  157.08
   4   3   0 2181.38  163.38
   4   3   0 2454.95  157.38
   4   3   0 2468.15  156.38
   4   3   0 2707.83  156.78
  -5  -3   0  377.26   27.70
  -5  -3   0  396.16   26.90
  -5  -3   0  431.86   26.30
  -5  -3   0  371.56   26.70
  -5  -3   0  400.06   26.30
  -5  -3   0  393.66   26.40
   5   3   0  389.06   27.00
   5   3   0  397.66   25.70
   5   3   0  401.26   26.10
   5   3   0  444.86   26.30
   5   3   0  362.26   33.90
   5   3   0  415.66   26.40
  -6  -3   0  485.05   29.20
  -6  -3   0  420.86   29.80
  -6  -3   0  438.46   30.00
  -6  -3   0  419.86   30.90
  -6  -3   0  442.56   29.30
  -6  -3   0  441.36   29.40
   6   3   0  427.56   28.90
   6   3   0  480.45   29.20
   6   3   0  399.66   38.10
   6   3   0  470.15   29.10
   6   3   0  439.66   28.40
   6   3   0  407.16   29.90
  -7  -3   0  365.66   25.10
  -7  -3   0  356.66   25.00
  -7  -3   0  376.06   25.90
  -7  -3   0  377.06   24.80
  -7  -3   0  328.67   25.40
   7   3   0  382.16   24.30
   7   3   0  387.26   24.80
   7   3   0  375.46   23.80
   7   3   0  349.87   24.50
   7   3   0  319.47   34.60
  -8  -3   0  100.29    9.60
  -8  -3   0  101.09   10.50
  -8  -3   0  105.99    9.40
  -8  -3   0   90.49   10.30
   8   3   0  111.19    9.30
   8   3   0  107.69   18.50
   8   3   0  104.19    7.70
   8   3   0  112.49    8.10
  -9  -3   0   78.19    8.00
  -9  -3   0   63.19    9.10
  -9  -3   0   78.69    8.50
  -9  -3   0   71.69    8.50
   9   3   0   71.19   18.30
   9   3   0   79.39    7.80
   9  -4   0   60.59    8.60
   9  -4   0   60.39    9.70
  -9   4   0   49.90    8.10
  -9   4   0   49.20    8.50
  -9   4   0   54.49    8.70
   8  -4   0    9.00    3.90
   8  -4   0    3.20    3.50
  -8   4   0    7.30    4.70
  -8   4   0   12.30    3.70
  -8   4   0    8.00    4.30
  -8   4   0   10.20    2.50
  -8   4   0    7.10    3.80
   7  -4   0  290.77   21.80
   7  -4   0  266.47   21.40
   7  -4   0  247.38   21.90
  -7   4   0  314.57   22.60
  -7   4   0  304.67   19.80
  -7   4   0  305.57   21.30
  -7   4   0  285.27   21.50
  -7   4   0  309.07   21.90
   6  -4   0   28.20    5.40
   6  -4   0   34.00    4.60
   6  -4   0   29.10    5.80
   6  -4   0   36.40    5.70
  -6   4   0   30.70    5.60
  -6   4   0   23.10    4.80
  -6   4   0   35.50    5.50
  -6   4   0   37.30    3.80
  -6   4   0   36.70    5.20
  -6   4   0   31.00    5.80
   5  -4   0  964.60   62.99
   5  -4   0 1024.10   64.39
   5  -4   0  837.52   64.39
   5  -4   0  963.90   63.79
  -5   4   0 1021.40   64.39
  -5   4   0 1007.70   63.79
  -5   4   0 1024.30   62.19
  -5   4   0 1068.39   63.79
  -5   4   0 1054.69   64.69
  -5   4   0  994.90   63.79
   4  -4   0   10.40    3.00
   4  -4   0   16.60    2.80
   4  -4   0   16.40    3.40
   4  -4   0    7.90    3.00
  -4   4   0   12.50    2.80
  -4   4   0   13.70    3.20
  -4   4   0   12.50    1.70
  -4   4   0   10.10    2.70
  -4   4   0   11.50    3.30
   3  -4   0 1842.52  116.99
   3  -4   0 1882.61  117.59
   3  -4   0 1632.94  117.29
   3  -4   0 1822.62  116.39
  -3   4   0 1893.31  117.29
  -3   4   0 1984.70  115.39
  -3   4   0 2019.30  117.09
  -3   4   0 1880.61  117.69
  -3   4   0 1941.01  116.89
   2  -4   0    7.20    1.90
   2  -4   0    5.30    1.60
   2  -4   0    4.20    1.80
   2  -4   0    7.50    2.10
  -2   4   0    5.70    1.80
  -2   4   0    7.60    2.00
  -2   4   0    6.90    2.20
   1  -4   0 3102.69  232.38
  -1   4   0 3015.50  228.28
   0  -4   0   35.90    4.10
   0  -4   0   34.40    4.70
   0  -4   0   46.50    3.80
   0  -4   0   38.50    3.30
   0  -4   0   37.30    3.40
   0  -4   0   41.30    3.60
   0   4   0   52.09    5.60
   0   4   0   38.30    3.60
   0   4   0   38.80    3.50
   0   4   0   38.00    3.30
   0   4   0   39.10    4.10
   0   4   0   40.00    3.60
  -1  -4   0 1437.66   85.19
  -1  -4   0 1405.56   85.39
  -1  -4   0 1444.36   85.29
  -1  -4   0 1328.57   86.19
  -1  -4   0 1159.78   88.29
  -1  -4   0 1376.46   85.29
   1   4   0 1377.26   85.49
   1   4   0 1423.26   85.09
   1   4   0 1411.26   88.59
   1   4   0 1368.86   84.99
   1   4   0 1443.46   85.99
   1   4   0 1383.86   85.39
   1   4   0 1339.17   85.19
  -2  -4   0   19.20    2.50
  -2  -4   0   21.60    2.50
  -2  -4   0   20.50    2.10
  -2  -4   0   14.20    2.90
  -2  -4   0   18.70    2.50
  -2  -4   0   17.10    2.20
   2   4   0   18.40    2.50
   2   4   0   18.80    2.10
   2   4   0   18.20    2.20
   2   4   0   18.50    5.10
   2   4   0   20.30    2.70
  -3  -4   0  317.17   21.10
  -3  -4   0  318.97   21.40
  -3  -4   0  331.37   21.30
  -3  -4   0  334.37   21.30
  -3  -4   0  348.27   21.20
  -3  -4   0  298.37   22.20
   3   4   0  340.07   21.00
   3   4   0  357.16   21.60
   3   4   0  309.37   20.90
   3   4   0  307.67   26.70
   3   4   0  313.07   21.60
   3   4   0  309.87   21.20
  -4  -4   0   35.60    4.20
  -4  -4   0   42.40    4.10
  -4  -4   0   37.30    4.40
  -4  -4   0   45.10    4.30
  -4  -4   0   43.30    4.30
  -4  -4   0   34.50    4.90
   4   4   0   47.00    4.40
   4   4   0   42.90    3.80
   4   4   0   33.80    4.40
   4   4   0   41.60    4.10
   4   4   0   46.00    4.10
   4   4   0   43.70    8.90
  -5  -4   0   54.09    5.70
  -5  -4   0   55.29    6.00
  -5  -4   0   59.79    6.00
  -5  -4   0   59.69    5.60
  -5  -4   0   61.89    6.00
  -5  -4   0   60.59    6.90
   5   4   0   55.79    6.20
   5   4   0   57.29    5.40
   5   4   0   65.29   11.90
   5   4   0   63.49    5.50
   5   4   0   59.79    5.50
   5   4   0   60.79    5.00
  -6  -4   0   21.90    4.70
  -6  -4   0   23.00    4.30
  -6  -4   0   22.00    3.80
  -6  -4   0   23.50    3.90
  -6  -4   0   27.50    4.80
  -6  -4   0   27.00    4.40
   6   4   0   24.10    9.60
   6   4   0   20.90    2.80
   6   4   0   15.70    3.90
   6   4   0   26.60    3.50
   6   4   0   23.90    3.80
   6   4   0   24.40    3.80
  -7  -4   0   41.90    5.50
  -7  -4   0   42.50    6.40
  -7  -4   0   45.60    6.00
  -7  -4   0   39.80    5.40
  -7  -4   0   40.20    5.50
  -7  -4   0   47.70    8.70
   7   4   0   38.10    3.90
   7   4   0   45.50   13.70
   7   4   0   39.90    4.70
   7   4   0   37.20    5.00
   7   4   0   40.10    3.60
  -8  -4   0    8.70    3.40
  -8  -4   0    7.30    3.20
  -8  -4   0   13.20    3.50
   8   4   0    4.90    7.40
   8   4   0   11.70    3.20
  -9  -4   0   10.80    3.80
  -9  -4   0   20.90    5.00
  -9  -4   0    9.20    3.50
   9   4   0    7.60    8.70
   9   4   0    8.50    3.20
   9  -5   0    5.00    3.80
   9  -5   0    3.50    4.40
  -9   5   0    9.60    5.40
  -9   5   0   11.80    2.80
  -9   5   0    0.90    3.40
  -9   5   0    6.90    4.60
   8  -5   0  136.09   15.00
   8  -5   0  149.79   14.30
  -8   5   0  188.08   16.20
  -8   5   0  179.58   15.10
  -8   5   0  176.48   15.30
  -8   5   0  182.78   12.50
   7  -5   0   15.40    4.80
   7  -5   0   17.90    5.20
  -7   5   0   24.90    5.90
  -7   5   0   12.90    5.80
  -7   5   0   28.00    5.70
  -7   5   0   21.50    4.60
  -7   5   0   22.60    3.20
   6  -5   0  339.57   25.60
   6  -5   0  343.37   25.90
  -6   5   0  348.17   25.20
  -6   5   0  365.76   25.70
  -6   5   0  354.36   25.70
  -6   5   0  388.56   25.20
  -6   5   0  383.46   26.80
   5  -5   0  124.89   11.20
   5  -5   0  104.89   11.00
   5  -5   0  112.49    9.80
   5  -5   0  110.69   10.70
  -5   5   0  127.89   10.90
  -5   5   0  139.19   10.70
  -5   5   0  133.69   11.60
  -5   5   0  142.19   11.20
  -5   5   0  130.89    8.60
   4  -5   0  101.29    9.40
   4  -5   0   91.39    8.80
   4  -5   0  100.39    8.10
   4  -5   0   94.29    9.30
  -4   5   0  110.99    6.80
  -4   5   0   99.59    8.60
  -4   5   0   98.39    9.30
  -4   5   0   99.69    8.90
  -4   5   0  102.89    9.00
   3  -5   0  153.38   13.20
   3  -5   0  156.48   12.10
   3  -5   0  161.28   12.80
   3  -5   0  174.88   13.60
  -3   5   0  180.38   12.80
  -3   5   0  185.18   13.00
  -3   5   0  193.48   13.20
  -3   5   0  186.98   13.80
   2  -5   0   62.69    5.90
   2  -5   0   59.99    6.40
   2  -5   0   62.29    5.40
  -2   5   0   64.39    5.80
  -2   5   0   63.19    5.70
  -2   5   0   70.69    5.80
  -2   5   0   65.29    6.60
   1  -5   0   30.40    4.10
   1  -5   0   25.60    1.90
   1  -5   0   27.20    3.60
   1  -5   0   31.90    4.40
   1  -5   0   31.80    3.90
  -1   5   0   26.10    3.10
  -1   5   0   31.90    4.00
  -1   5   0   33.50    3.50
  -1   5   0   31.60    3.40
  -1   5   0   26.00    2.80
   0  -5   0    2.20    1.40
   0  -5   0    2.50    1.20
   0  -5   0   -0.40    1.10
   0  -5   0    3.00    1.90
   0  -5   0    1.60    1.90
   0   5   0    1.10    1.30
   0   5   0    2.10    1.60
   0   5   0    3.80    1.50
   0   5   0    1.30    1.20
   0   5   0    1.20    0.90
  -1  -5   0   98.99    7.20
  -1  -5   0   84.49    8.00
  -1  -5   0  103.29    7.10
  -1  -5   0   91.09    7.10
  -1  -5   0   96.59    6.90
  -1  -5   0   74.19    9.40
   1   5   0   98.49    7.00
   1   5   0  103.89   10.20
   1   5   0   89.39    7.10
   1   5   0   94.49    7.30
   1   5   0   97.19    6.70
   1   5   0  106.09    8.10
  -2  -5   0    5.10    1.50
  -2  -5   0    4.40    2.10
  -2  -5   0    7.40    1.90
  -2  -5   0    4.00    1.20
  -2  -5   0    2.30    1.40
  -2  -5   0    5.00    1.60
   2   5   0    4.00    1.20
   2   5   0    4.50    1.50
   2   5   0    4.40    1.50
   2   5   0    4.10    1.80
   2   5   0    1.90    2.80
   2   5   0    5.10    1.40
   2   5   0    3.50    1.80
  -3  -5   0  178.88   11.80
  -3  -5   0  165.88   12.10
  -3  -5   0  157.88   11.80
  -3  -5   0  145.59   12.80
  -3  -5   0  171.28   12.00
  -3  -5   0  170.58   11.50
   3   5   0  167.98   12.20
   3   5   0  184.28   11.60
   3   5   0  154.68   11.40
   3   5   0  179.78   12.20
   3   5   0  172.68   12.10
  -4  -5   0    4.20    1.90
  -4  -5   0    1.80    2.30
  -4  -5   0    2.10    1.70
  -4  -5   0    2.10    1.90
  -4  -5   0    2.30    1.60
  -4  -5   0    0.90    1.50
   4   5   0    1.80    1.70
   4   5   0    2.50    1.40
   4   5   0    3.70    1.50
   4   5   0   -0.30    1.30
   4   5   0    4.10    1.60
   4   5   0    2.30    4.10
  -5  -5   0   52.39    5.50
  -5  -5   0   57.49    6.10
  -5  -5   0   56.29    5.60
  -5  -5   0   48.10    7.40
  -5  -5   0   52.49    5.20
  -5  -5   0   54.79    5.60
   5   5   0   48.60    5.10
   5   5   0   48.60   11.00
   5   5   0   56.79    5.10
   5   5   0   49.99    4.50
   5   5   0   55.39    5.00
   5   5   0   53.89    6.00
  -6  -5   0   92.99    8.20
  -6  -5   0   68.49    6.80
  -6  -5   0   70.29    6.90
  -6  -5   0   83.69    6.90
  -6  -5   0   70.69    8.70
  -6  -5   0   81.29    7.40
   6   5   0   64.09   13.70
   6   5   0   77.09    5.80
   6   5   0   70.29    6.40
   6   5   0   63.89    6.30
   6   5   0   55.99    7.30
   6   5   0   67.79    5.40
  -7  -5   0  114.99   10.90
  -7  -5   0  104.39    9.70
  -7  -5   0  110.79   10.20
  -7  -5   0  106.09    9.70
  -7  -5   0  125.69   10.00
  -7  -5   0  102.69   11.40
   7   5   0  124.29    9.40
  -8  -5   0   21.70    4.60
  -8  -5   0   11.60    4.50
  -8  -5   0   25.80    4.50
  -8  -5   0   14.40    3.80
   8   5   0   20.90    4.00
   8   5   0   14.50   10.20
  -9  -5   0   84.69    8.80
  -9  -5   0   90.69    9.20
  -9  -5   0   83.29    8.60
  -9  -5   0   79.09    9.90
   9   5   0   77.29   20.20
   9   5   0   83.79    8.10
   8  -6   0   -2.80    3.00
   8  -6   0    0.60    3.00
  -8   6   0    0.40    3.50
  -8   6   0    2.10    1.70
  -8   6   0   -5.40    3.00
  -8   6   0    3.20    3.60
   7  -6   0    0.20    3.00
   7  -6   0   -2.10    2.80
  -7   6   0    0.10    3.00
  -7   6   0    1.30    3.60
  -7   6   0    0.70    1.30
  -7   6   0   -1.40    2.80
   6  -6   0   -0.20    2.80
   6  -6   0   -1.00    2.30
  -6   6   0   -1.10    2.80
  -6   6   0    1.70    2.60
  -6   6   0   -3.00    2.30
  -6   6   0   -1.00    2.90
  -6   6   0    0.70    1.00
   5  -6   0   32.10    6.10
   5  -6   0   32.70    4.80
   5  -6   0   32.50    5.90
   5  -6   0   37.00    6.40
  -5   6   0   33.10    6.70
  -5   6   0   35.20    5.80
  -5   6   0   26.10    5.90
  -5   6   0   40.80    2.90
  -5   6   0   30.20    5.60
   4  -6   0    2.70    1.90
   4  -6   0    1.60    2.30
   4  -6   0    6.40    3.00
   4  -6   0    5.30    3.00
  -4   6   0    6.10    3.10
  -4   6   0    6.00    2.40
  -4   6   0    3.50    2.40
   3  -6   0    0.40    1.60
   3  -6   0   -0.60    1.90
   3  -6   0    2.60    2.30
   3  -6   0    1.80    2.10
  -3   6   0    0.40    1.70
  -3   6   0    0.80    1.80
  -3   6   0    2.30    2.00
  -3   6   0   -3.00    1.60
   2  -6   0   23.70    4.10
   2  -6   0   23.70    4.20
   2  -6   0   18.90    3.00
   2  -6   0   19.90    3.70
   2  -6   0   18.20    4.00
  -2   6   0   24.90    3.90
  -2   6   0   22.00    4.30
  -2   6   0   30.20    5.80
  -2   6   0   25.70    3.70
   1  -6   0   30.50    4.70
   1  -6   0   30.10    4.10
   1  -6   0   30.80    5.10
   1  -6   0   27.20    3.20
   1  -6   0   30.50    2.10
   1  -6   0   25.70    3.80
  -1   6   0   30.80    3.70
  -1   6   0   34.30    4.20
  -1   6   0   22.90    4.30
  -1   6   0   28.30    3.90
  -1   6   0   31.10    3.50
   0  -6   0  266.07   17.50
   0  -6   0  240.38   18.90
   0  -6   0  296.57   19.30
   0  -6   0  235.88   20.20
   0  -6   0  266.17   18.00
   0   6   0  260.77   17.80
   0   6   0  281.27   19.10
   0   6   0  281.87   17.90
   0   6   0  259.67   17.90
   0   6   0  263.77   17.40
  -1  -6   0  199.58   13.30
  -1  -6   0  182.68   12.90
  -1  -6   0  180.78   14.30
  -1  -6   0  194.48   12.80
  -1  -6   0  174.08   13.00
   1   6   0  225.18   17.20
   1   6   0  197.98   12.60
   1   6   0  199.68   14.00
   1   6   0  192.38   13.00
   1   6   0  157.08   12.90
   1   6   0  170.18   12.80
   1   6   0  176.18   13.20
  -2  -6   0  727.13   43.80
  -2  -6   0  650.63   45.40
  -2  -6   0  707.23   44.20
  -2  -6   0  694.13   44.00
  -2  -6   0  683.83   43.90
   2   6   0  708.53   44.40
   2   6   0  692.13   43.80
   2   6   0  765.62   44.80
   2   6   0  648.94   44.00
   2   6   0  703.03   49.30
   2   6   0  630.64   43.40
  -3  -6   0   86.39    7.80
  -3  -6   0   88.29    7.50
  -3  -6   0   96.69    7.00
  -3  -6   0  104.89    7.80
  -3  -6   0   85.49    8.70
  -3  -6   0   93.29    8.10
   3   6   0   91.39   12.40
   3   6   0  110.29    8.10
   3   6   0   85.29    7.00
   3   6   0   95.09    8.60
   3   6   0  103.49    7.30
   3   6   0   85.29    7.70
  -4  -6   0  514.25   30.80
  -4  -6   0  485.05   31.00
  -4  -6   0  473.25   30.40
  -4  -6   0  463.55   30.70
  -4  -6   0  473.75   31.10
  -4  -6   0  430.26   32.50
   4   6   0  512.15   30.80
   4   6   0  427.46   30.10
   4   6   0  507.35   30.40
   4   6   0  443.16   30.80
   4   6   0  470.15   39.00
   4   6   0  432.76   31.30
  -5  -6   0  195.08   17.50
  -5  -6   0  219.48   16.00
  -5  -6   0  211.78   15.60
  -5  -6   0  217.28   15.40
  -5  -6   0  238.08   15.60
  -5  -6   0  213.78   15.80
   5   6   0  207.88   14.60
   5   6   0  240.18   15.20
   5   6   0  204.08   24.00
   5   6   0  205.08   15.50
   5   6   0  208.18   16.40
   5   6   0  245.98   15.20
  -6  -6   0  259.17   19.30
  -6  -6   0  263.07   18.80
  -6  -6   0  242.98   22.30
  -6  -6   0  275.27   18.80
  -6  -6   0  302.77   19.00
  -6  -6   0  229.08   18.60
   6   6   0  261.37   17.00
   6   6   0  280.17   18.20
   6   6   0  276.87   17.10
   6   6   0  263.47   29.40
   6   6   0  243.18   18.30
  -7  -6   0  117.09   10.10
  -7  -6   0  112.49   12.10
  -7  -6   0  117.89   10.10
  -7  -6   0  111.09    9.80
  -7  -6   0  121.29   11.00
  -7  -6   0  112.79    9.90
   7   6   0  100.99   19.40
   7   6   0  117.59    9.30
  -8  -6   0   81.39    9.20
  -8  -6   0   82.29    8.30
  -8  -6   0   83.99    8.50
  -8  -6   0   84.29    8.50
   8   6   0   77.99   17.60
   8   6   0   83.89    7.70
   8  -7   0    0.70    4.00
   8  -7   0    7.40    4.10
  -8   7   0    3.30    4.70
  -8   7   0    6.50    4.30
  -8   7   0    1.30    1.50
  -8   7   0    6.20    4.20
   7  -7   0   59.69    9.20
   7  -7   0   60.49   10.20
  -7   7   0   64.29    8.90
  -7   7   0   73.19    9.90
  -7   7   0   73.39    9.80
   6  -7   0    8.00    4.10
   6  -7   0   11.00    4.40
  -6   7   0    6.50    4.20
   5  -7   0  181.28   15.20
   5  -7   0  165.08   15.60
  -5   7   0  197.48   14.80
  -5   7   0  207.78   15.70
  -5   7   0  184.28   16.10
   4  -7   0   37.90    6.50
   4  -7   0   35.40    4.90
   4  -7   0   36.00    6.00
   4  -7   0   39.00    6.50
  -4   7   0   46.10    5.70
  -4   7   0   33.60    6.60
  -4   7   0   43.90    5.90
  -4   7   0   41.30    6.90
   3  -7   0  811.32   52.99
   3  -7   0  796.12   51.89
   3  -7   0  803.92   53.99
   3  -7   0  727.43   53.39
  -3   7   0  893.71   53.09
  -3   7   0  811.22   53.89
  -3   7   0  875.41   53.49
   2  -7   0  286.37   21.70
   2  -7   0  283.77   20.70
   2  -7   0  295.07   21.80
   2  -7   0  271.77   21.10
  -2   7   0  286.87   19.50
  -2   7   0  304.57   21.70
  -2   7   0  288.47   20.40
  -2   7   0  294.57   20.60
  -2   7   0  332.77   20.50
   1  -7   0 1060.09   67.89
   1  -7   0  984.00   65.29
   1  -7   0 1032.00   68.69
   1  -7   0 1038.50   66.69
   1  -7   0  968.10   69.19
   1  -7   0 1039.30   67.39
  -1   7   0 1136.09   68.59
  -1   7   0 1127.89   70.49
  -1   7   0 1101.69   66.59
  -1   7   0 1118.19   67.09
  -1   7   0 1126.59   67.49
   0  -7   0  581.54   39.90
   0  -7   0  527.65   37.10
   0  -7   0  584.14   37.90
   0  -7   0  511.15   41.10
   0  -7   0  579.74   38.50
   0  -7   0  631.84   38.90
   0   7   0  607.94   38.40
   0   7   0  609.44   38.40
   0   7   0  581.24   38.50
   0   7   0  647.04   39.70
   0   7   0  680.23   37.80
   0   7   0  600.44   37.90
  -1  -7   0 1170.88   73.39
  -1  -7   0 1114.29   73.39
  -1  -7   0 1163.08   75.19
  -1  -7   0 1283.77   73.79
  -1  -7   0 1191.48   73.09
   1   7   0 1155.78   73.79
   1   7   0 1109.99   73.19
   1   7   0 1225.88   73.39
   1   7   0 1062.59   73.39
   1   7   0 1208.68   72.79
  -2  -7   0 1022.70   60.19
  -2  -7   0  906.31   61.79
  -2  -7   0  932.71   59.99
  -2  -7   0  996.40   59.79
  -2  -7   0  952.40   60.19
   2   7   0  992.10   66.49
   2   7   0  945.51   59.89
   2   7   0  817.82   59.19
   2   7   0  870.91   59.99
   2   7   0 1022.00   60.89
   2   7   0  932.31   60.49
   2   7   0 1006.60   59.89
  -3  -7   0  596.84   40.80
  -3  -7   0  650.73   40.40
  -3  -7   0  566.04   42.10
  -3  -7   0  688.13   40.50
  -3  -7   0  634.34   40.40
   3   7   0  673.93   48.20
   3   7   0  570.64   40.40
   3   7   0  649.93   40.00
   3   7   0  554.54   40.60
   3   7   0  605.34   40.90
   3   7   0  701.93   41.00
  -4  -7   0  540.25   33.00
  -4  -7   0  471.35   35.70
  -4  -7   0  530.35   33.70
  -4  -7   0  463.75   34.00
  -4  -7   0  534.45   33.90
  -4  -7   0  561.34   33.70
   4   7   0  540.35   42.80
   4   7   0  467.55   34.10
   4   7   0  484.95   32.90
   4   7   0  466.65   33.80
   4   7   0  549.15   33.20
   4   7   0  541.75   33.60
  -5  -7   0  179.58   16.80
  -5  -7   0  186.88   14.90
  -5  -7   0  196.78   14.10
  -5  -7   0  208.58   14.60
  -5  -7   0  223.98   15.20
  -5  -7   0  206.88   14.70
   5   7   0  208.68   13.80
   5   7   0  211.88   14.10
   5   7   0  180.88   14.30
   5   7   0  204.38   23.90
   5   7   0  174.48   15.10
   5   7   0  190.28   13.40
  -6  -7   0  142.79   12.30
  -6  -7   0  152.18   12.70
  -6  -7   0  158.48   11.90
  -6  -7   0  164.28   12.30
  -6  -7   0  141.59   14.60
  -6  -7   0  163.38   12.40
   6   7   0  160.68   11.60
   6   7   0  154.58   21.70
  -7  -7   0   57.29    6.40
  -7  -7   0   57.89    6.60
  -7  -7   0   49.30    5.90
  -7  -7   0   62.49    6.50
   7   7   0   37.90   13.40
   7   7   0   49.00    5.50
  -8  -7   0   35.20    6.80
  -8  -7   0   33.80    6.00
  -8  -7   0   34.50    5.50
  -8  -7   0   30.90    7.50
   8   7   0   35.70    5.00
   8   7   0   30.70   13.40
   7  -8   0    3.80    4.30
  -7   8   0    6.20    3.70
  -7   8   0    2.90    4.50
  -7   8   0    9.00    4.70
   6  -8   0  153.38   20.00
  -6   8   0  137.59   14.10
   5  -8   0   34.50    8.00
   5  -8   0   33.60    6.40
  -5   8   0   36.70    6.40
   4  -8   0  401.46   29.00
   4  -8   0  386.26   29.90
  -4   8   0  430.86   30.30
  -4   8   0  431.96   29.30
   3  -8   0   56.39    8.00
   3  -8   0   81.29    8.70
   3  -8   0   65.39    8.20
  -3   8   0   86.09    7.80
  -3   8   0   70.79    8.00
  -3   8   0   74.09    8.70
  -3   8   0   72.89    6.50
   2  -8   0  145.99   12.90
   2  -8   0  134.79   10.70
   2  -8   0  134.59   12.40
   2  -8   0  134.69   12.80
   2  -8   0  133.09   11.80
  -2   8   0  158.98   13.10
  -2   8   0  153.98   10.70
  -2   8   0  148.19   11.90
  -2   8   0  154.28   11.40
  -2   8   0  159.58   11.90
   1  -8   0  115.99   10.30
   1  -8   0   95.09   11.00
   1  -8   0  129.29   10.10
   1  -8   0  108.19   10.70
   1  -8   0  126.29    9.10
  -1   8   0  117.19    9.30
  -1   8   0  129.09   11.00
  -1   8   0  111.59    9.70
  -1   8   0  113.99    9.60
  -1   8   0  118.19    8.80
   0  -8   0   38.80    5.40
   0  -8   0   39.10    7.10
   0  -8   0   44.00    4.60
   0  -8   0   39.90    3.60
   0  -8   0   42.20    7.70
   0  -8   0   49.60    5.70
   0   8   0   47.80    5.20
   0   8   0   46.90    5.30
   0   8   0   48.20    4.30
   0   8   0   43.90    4.50
   0   8   0   45.50    6.30
   0   8   0   45.30    5.20
  -1  -8   0  135.69   10.50
  -1  -8   0  141.09   10.70
  -1  -8   0  122.79   10.00
  -1  -8   0  131.29    9.90
  -1  -8   0  125.49    9.40
  -1  -8   0  124.99   11.80
   1   8   0  126.89   10.30
   1   8   0  129.49    9.40
   1   8   0  144.49   11.40
   1   8   0  143.59   10.80
   1   8   0  147.99   10.50
   1   8   0  112.19    9.80
  -2  -8   0    2.70    2.70
  -2  -8   0    4.00    1.90
  -2  -8   0    2.90    2.20
  -2  -8   0    5.40    2.40
  -2  -8   0    1.90    1.80
  -2  -8   0    1.80    2.20
   2   8   0    0.70    1.70
   2   8   0    0.30    1.10
   2   8   0    2.70    2.50
   2   8   0    1.10    2.10
   2   8   0    6.60    2.50
   2   8   0    3.10    2.00
   2   8   0    5.70    4.70
  -3  -8   0    4.80    2.20
  -3  -8   0   -2.40    2.00
  -3  -8   0    4.00    3.50
  -3  -8   0    1.40    2.30
  -3  -8   0    2.80    1.80
  -3  -8   0   -0.50    2.00
   3   8   0    2.40    2.20
   3   8   0    1.70    2.00
   3   8   0   -1.10    2.10
   3   8   0    3.50    4.80
   3   8   0    2.60    1.80
   3   8   0    0.80    2.00
  -4  -8   0    1.50    2.20
  -4  -8   0    1.20    1.90
  -4  -8   0    0.40    2.60
  -4  -8   0   -0.40    1.80
  -4  -8   0    5.70    2.60
   4   8   0   -0.10    1.80
   4   8   0    0.80    1.80
   4   8   0    0.30    2.00
   4   8   0    3.10    5.30
  -5  -8   0   27.80    4.50
  -5  -8   0   22.60    3.50
  -5  -8   0   30.90    6.10
  -5  -8   0   24.50    4.30
  -5  -8   0   28.20    4.60
  -5  -8   0   24.80    5.20
   5   8   0   36.80    4.40
   5   8   0   26.00   10.00
   5   8   0   24.40    3.40
   5   8   0   24.20    3.10
  -6  -8   0    1.30    1.80
  -6  -8   0    1.00    2.50
  -6  -8   0    5.60    3.00
   6   8   0   -0.80    6.30
   6   8   0    4.20    2.40
  -7  -8   0   21.30    4.40
  -7  -8   0   11.70    3.50
  -7  -8   0   16.90    3.50
  -7  -8   0   15.20    4.50
   7   8   0   13.00   10.10
   7   8   0   14.40    3.30
   6  -9   0   13.90    5.40
   6  -9   0   20.50    7.20
  -6   9   0   14.70    5.50
  -6   9   0   15.50    5.20
   5  -9   0    3.10    3.50
   5  -9   0    8.80    4.70
  -5   9   0   10.20    4.80
  -5   9   0   13.50    4.90
   4  -9   0   19.30    4.80
   4  -9   0   14.60    4.70
  -4   9   0    9.90    3.00
  -4   9   0   12.90    4.70
   3  -9   0    0.30    2.30
   3  -9   0    4.80    3.40
   3  -9   0    5.70    3.30
   3  -9   0    2.90    2.20
  -3   9   0    1.00    3.20
  -3   9   0    1.10    1.90
  -3   9   0    1.60    3.70
   2  -9   0   20.40    5.20
   2  -9   0   20.50    4.60
   2  -9   0   16.20    4.80
   2  -9   0   19.30    3.60
  -2   9   0   20.40    3.40
  -2   9   0   21.00    4.20
  -2   9   0   20.90    5.40
  -2   9   0   23.60    4.80
   1  -9   0    3.10    2.70
   1  -9   0    3.20    2.70
   1  -9   0    3.70    2.20
  -1   9   0    0.00    1.60
  -1   9   0    4.10    2.60
  -1   9   0    1.70    3.00
  -1   9   0    4.90    2.60
   0  -9   0   44.60    7.80
   0  -9   0   53.69    5.70
   0  -9   0   64.29    7.80
   0  -9   0   54.99    4.50
   0  -9   0   71.99    7.30
   0  -9   0   55.89    6.60
   0   9   0   56.09    6.30
   0   9   0   67.49    7.50
   0   9   0   57.19    5.60
   0   9   0   67.19    5.40
   0   9   0   57.39    6.30
  -1  -9   0   -0.30    1.20
  -1  -9   0    1.40    2.30
  -1  -9   0    1.90    2.20
  -1  -9   0    2.60    2.70
  -1  -9   0    1.50    2.00
   1   9   0    1.20    1.30
   1   9   0    0.80    1.60
   1   9   0   -0.10    2.30
   1   9   0    0.30    2.30
   1   9   0    0.20    2.00
  -2  -9   0   50.49    5.30
  -2  -9   0   50.89    6.10
  -2  -9   0   62.69    6.60
  -2  -9   0   45.30    7.80
  -2  -9   0   52.09    5.40
  -2  -9   0   52.29    6.10
   2   9   0   42.00    5.40
   2   9   0   52.49    5.70
   2   9   0   56.99   10.50
   2   9   0   49.00    5.80
   2   9   0   64.29    6.90
   2   9   0   51.39    4.70
  -3  -9   0   -0.30    1.90
  -3  -9   0    2.50    2.80
  -3  -9   0    0.30    1.90
  -3  -9   0    0.90    2.30
  -3  -9   0    5.10    3.40
  -3  -9   0    3.00    2.40
   3   9   0    0.50    1.80
   3   9   0    0.80    2.10
   3   9   0   -1.60    1.90
   3   9   0    2.00    2.60
   3   9   0    2.30    5.00
  -4  -9   0  134.29   10.60
  -4  -9   0  136.59   10.70
  -4  -9   0  122.39   10.60
  -4  -9   0  100.19   10.80
  -4  -9   0  123.89   10.80
   4   9   0  140.19   10.40
   4   9   0  121.79    9.70
   4   9   0  110.89   10.90
   4   9   0  134.19   10.30
   4   9   0  163.78   19.70
  -5  -9   0   23.40    4.40
  -5  -9   0   22.80    4.60
  -5  -9   0   16.50    3.80
  -5  -9   0   19.80    4.20
   5   9   0   21.80    2.90
   5   9   0   15.70    8.50
   5   9   0   23.10    3.10
  -6  -9   0   76.59    7.60
  -6  -9   0   67.19    6.60
  -6  -9   0   73.89    7.90
  -6  -9   0   69.99    8.20
   6   9   0   66.19    6.60
   6   9   0   65.29   16.60
   6 -10   0    0.60    4.50
   6 -10   0    7.50    4.20
  -6  10   0   15.00    6.00
  -6  10   0   17.10    6.00
   5 -10   0    1.00    3.50
   5 -10   0    2.20    4.10
   5 -10   0    2.10    3.60
  -5  10   0    5.70    3.90
  -5  10   0    2.80    4.20
   4 -10   0   15.00    4.70
   4 -10   0   15.20    5.70
   4 -10   0   14.20    6.70
  -4  10   0   29.10    6.10
  -4  10   0   17.40    3.50
  -4  10   0   16.70    5.80
   3 -10   0   15.90    4.60
   3 -10   0   13.60    6.10
   3 -10   0    9.90    5.50
  -3  10   0   15.20    3.40
  -3  10   0   15.50    5.50
  -3  10   0   12.20    4.60
   2 -10   0   71.99    9.80
   2 -10   0   65.79    8.50
   2 -10   0   53.49    7.80
  -2  10   0   58.39    8.00
  -2  10   0   70.89    6.50
  -2  10   0   65.99    8.90
   1 -10   0   52.09    8.50
   1 -10   0   70.19    6.70
   1 -10   0   69.69    8.20
  -1  10   0   76.59    9.00
  -1  10   0   71.69    6.50
  -1  10   0   75.99    8.00
   0 -10   0   84.39    9.10
   0 -10   0   76.79    6.10
   0 -10   0   78.79    7.60
   0 -10   0   91.39   12.90
   0  10   0  102.29   10.10
   0  10   0   90.19    7.10
   0  10   0   85.19    7.70
   0  10   0   95.09    8.90
   0  10   0   92.29    8.30
  -1 -10   0  183.18   14.20
  -1 -10   0  179.78   13.10
  -1 -10   0  221.48   15.60
   1  10   0  164.68   13.90
   1  10   0  208.78   16.00
   1  10   0  182.48   13.10
   1  10   0  206.38   14.90
  -2 -10   0   84.49    8.70
  -2 -10   0   83.89    7.50
  -2 -10   0  117.29    9.40
  -2 -10   0   84.89    7.90
  -2 -10   0   96.89    8.60
   2  10   0   72.19    8.00
   2  10   0   96.79    9.30
   2  10   0   90.69    8.10
   2  10   0   95.39    8.60
  -3 -10   0  137.39   11.80
  -3 -10   0  128.29   10.80
  -3 -10   0  142.89   11.60
  -3 -10   0  139.09   11.00
  -3 -10   0  133.99   11.90
   3  10   0  175.38   19.60
   3  10   0  128.49   10.50
   3  10   0  143.79   11.60
   3  10   0  144.79   11.30
   3  10   0  107.29   11.10
  -4 -10   0  173.88   13.60
  -4 -10   0  176.78   13.90
  -4 -10   0  174.28   13.30
   4  10   0  191.88   22.70
   4  10   0  166.68   13.90
   4  10   0  149.19   12.10
  -5 -10   0   31.20    5.50
  -5 -10   0   28.50    5.30
  -5 -10   0   25.90    5.00
  -5 -10   0   30.20    5.50
   5  10   0   30.70    4.90
   5  10   0   32.20    3.10
   5  10   0   21.50   11.00
   5  10   0   25.90    3.10
   4 -11   0   57.69    7.90
   4 -11   0   64.29    9.80
   4 -11   0   76.39   11.40
  -4  11   0  102.09   10.80
  -4  11   0   85.19   10.70
   3 -11   0   53.19    7.70
   3 -11   0   59.39    8.80
   3 -11   0   73.39    9.80
  -3  11   0   62.69    6.80
  -3  11   0   73.99    9.50
  -3  11   0   79.59   10.40
   2 -11   0   85.99    9.90
   2 -11   0   87.49   10.50
  -2  11   0   95.59   10.20
  -2  11   0   95.99   11.00
  -2  11   0   95.09    8.50
   1 -11   0   95.69    9.90
   1 -11   0   94.39   10.20
  -1  11   0   85.29    8.20
  -1  11   0   90.09    9.60
  -1  11   0   92.19    7.60
  -1  11   0   94.79   10.60
   0 -11   0   82.59    9.00
   0 -11   0   72.99    7.90
   0 -11   0   84.39    6.00
   0 -11   0   82.39   10.70
   0  11   0   79.79    7.80
   0  11   0   89.09    7.20
   0  11   0  111.49   10.90
   0  11   0  103.19    9.60
  -1 -11   0   43.10    4.30
  -1 -11   0   55.39    6.00
  -1 -11   0   40.40    6.60
   1  11   0   41.50    6.20
   1  11   0   47.90    6.60
   1  11   0   47.80    4.50
   1  11   0   45.20    6.00
   1  11   0   46.80    7.50
  -2 -11   0   22.50    3.40
  -2 -11   0   14.40    4.20
  -2 -11   0   32.50    4.90
   2  11   0   15.60    4.30
   2  11   0   17.30    4.40
   2  11   0   19.40    4.70
  -3 -11   0   38.80    7.50
  -3 -11   0   31.10    5.70
  -3 -11   0   42.40    5.10
  -3 -11   0   30.40    5.60
  -3 -11   0   35.70    5.20
   3  11   0   47.50    5.00
   3  11   0   46.50   11.80
   3  11   0   45.00    6.30
   3  11   0   42.20    6.20
  -4 -11   0    6.00    3.60
  -4 -11   0   17.10    3.60
  -4 -11   0   10.60    3.60
  -4 -11   0    2.20    2.80
   4  11   0    6.90    3.30
   4  11   0   11.20    2.50
   2 -12   0   10.00    4.80
   2 -12   0    8.90    3.80
  -2  12   0   17.00    6.10
  -2  12   0   10.90    4.70
   1 -12   0   -1.80    3.20
   1 -12   0    3.20    4.00
  -1  12   0   -2.90    3.60
  -1  12   0    0.80    1.80
  -1  12   0    3.60    3.70
   0 -12   0   13.50    4.60
   0 -12   0    9.30    4.50
   0  12   0   12.50    4.80
   0  12   0   14.50    2.70
  -1 -12   0    8.10    1.90
  -1 -12   0    8.10    4.30
  -1 -12   0    1.60    3.40
   1  12   0    3.50    3.50
   1  12   0    9.50    4.40
   1  12   0    7.10    1.80
  -2 -12   0    2.90    3.30
  -2 -12   0    5.50    4.20
  -2 -12   0   12.00    3.40
   2  12   0    4.60    2.50
   2  12   0    6.00    3.40
   2  12   0    7.20    3.90
   1  12  -1   20.70    4.60
   1  12  -1   31.20    4.90
   1  12  -1   43.00    5.30
   1  12  -1   41.40    6.50
   1  12  -1   34.60    5.90
  -1 -12   1   30.40    4.60
  -1 -12   1   27.10    3.30
  -1 -12   1   35.00    6.40
  -1 -12   1   35.30    6.90
   0  12  -1   24.30    3.80
   0  12  -1   24.20    5.50
   0  12  -1   13.70    3.90
   0  12  -1   33.70    6.40
   0 -12   1   24.70    6.20
   0 -12   1   19.70    5.00
  -1  12  -1   41.10    7.60
  -1  12  -1   37.80    6.90
  -1  12  -1   37.10    4.70
  -1  12  -1   24.00    4.80
   1 -12   1   30.80    6.40
   1 -12   1   24.90    6.50
   4  11  -1   24.90   12.60
   4  11  -1   31.90    5.50
  -4 -11   1   25.70    4.90
  -4 -11   1   26.30    5.40
  -4 -11   1   36.90    6.00
  -4 -11   1   26.10    5.30
   3  11  -1   45.70    6.60
   3  11  -1   52.99    5.10
  -3 -11   1   53.49    6.10
  -3 -11   1   53.29    5.50
  -3 -11   1   64.09    7.40
  -3 -11   1   49.40    6.90
  -3 -11   1   42.70    6.70
   2  11  -1    4.50    3.10
   2  11  -1   10.80    3.70
   2  11  -1   13.60    4.00
   2  11  -1    6.40    2.70
   2  11  -1   14.50    2.90
  -2 -11   1    9.10    2.30
  -2 -11   1   15.60    3.60
  -2 -11   1   12.60    5.00
  -2 -11   1    6.60    3.30
   1  11  -1   63.29    6.50
   1  11  -1   49.90    7.10
   1  11  -1   40.70    6.00
   1  11  -1   71.69    7.90
  -1 -11   1   52.99    7.40
  -1 -11   1   57.19    4.90
  -1 -11   1   58.99    9.60
  -1 -11   1   52.29    7.00
   0  11  -1   25.60    5.70
   0  11  -1   20.70    4.00
   0  11  -1   19.60    3.60
   0  11  -1   24.50    5.00
   0 -11   1   27.10    5.30
   0 -11   1   23.90    2.20
   0 -11   1   22.80    4.10
   0 -11   1   25.70    5.90
  -1  11  -1   59.69    6.30
  -1  11  -1   66.89    8.50
  -1  11  -1   59.89    6.00
  -1  11  -1   72.59    9.00
   1 -11   1   43.80    8.50
   1 -11   1   50.79    7.60
   1 -11   1   62.29    8.20
  -2  11  -1   38.20    7.10
  -2  11  -1   37.60    7.10
   2 -11   1   25.00    5.70
   2 -11   1   24.90    6.50
   2 -11   1   26.30    6.20
  -3  11  -1   37.90    7.50
  -3  11  -1   35.30    5.00
  -3  11  -1   37.10    7.20
   3 -11   1   36.80    7.80
   3 -11   1   35.00    7.00
   3 -11   1   29.60    7.30
  -4  11  -1   15.50    5.60
  -4  11  -1   12.40    4.10
  -4  11  -1   21.20    6.30
   4 -11   1   16.60    6.30
   4 -11   1   18.70    5.50
   4 -11   1   10.30    5.00
   5  10  -1   16.60   10.00
   5  10  -1   12.10    3.40
  -5 -10   1   21.20    4.40
  -5 -10   1   11.40    4.20
  -5 -10   1   16.90    4.00
  -5 -10   1   13.30    3.60
   4  10  -1   51.19    6.20
   4  10  -1   50.89    4.10
   4  10  -1   54.19   18.70
   4  10  -1   57.09    4.90
  -4 -10   1   59.39    6.60
  -4 -10   1   50.49    6.70
  -4 -10   1   56.59    6.30
   3  10  -1    5.80    2.20
   3  10  -1    6.10    2.60
   3  10  -1    2.70    2.20
   3  10  -1    9.70    3.50
   3  10  -1   11.10    7.60
  -3 -10   1    8.30    4.80
  -3 -10   1    9.40    3.70
  -3 -10   1   10.00    3.80
  -3 -10   1    7.30    2.70
  -3 -10   1    7.70    2.30
   2  10  -1   41.00    6.50
   2  10  -1   57.09    5.50
   2  10  -1   51.59    6.20
   2  10  -1   42.00    6.00
   2  10  -1   46.10    5.10
  -2 -10   1   55.69    5.20
  -2 -10   1   50.59    6.60
  -2 -10   1   54.99    6.90
  -2 -10   1   56.49    6.70
   1  10  -1   48.50    5.10
   1  10  -1   58.49    5.80
   1  10  -1   54.59    6.40
   1  10  -1   60.99    7.00
   1  10  -1   45.60    5.50
  -1 -10   1   50.29    5.70
  -1 -10   1   39.90    4.40
  -1 -10   1   49.99    6.40
  -1 -10   1   42.70    6.10
   0  10  -1   64.99    5.70
   0  10  -1   42.80    5.30
   0  10  -1   63.19    7.10
   0  10  -1   61.29    7.70
   0  10  -1   53.09    6.10
   0 -10   1   53.29    4.10
   0 -10   1   42.60    8.90
   0 -10   1   52.29    7.10
   0 -10   1   60.99    7.30
   0 -10   1   48.70    5.60
  -1  10  -1   36.90    4.80
  -1  10  -1   54.19    5.40
  -1  10  -1   40.30    5.30
  -1  10  -1   51.99    7.80
  -1  10  -1   52.29    6.90
   1 -10   1   37.40    5.30
   1 -10   1   39.50    6.40
   1 -10   1   35.90    8.10
  -2  10  -1    5.40    3.90
  -2  10  -1    7.40    4.00
  -2  10  -1    8.70    2.60
   2 -10   1   11.70    6.70
   2 -10   1   10.70    2.90
   2 -10   1    8.60    4.30
   2 -10   1    7.00    4.00
  -3  10  -1   34.40    6.50
  -3  10  -1   28.00    4.10
  -3  10  -1   32.90    6.80
   3 -10   1   21.90    5.90
   3 -10   1   26.70    5.80
   3 -10   1   26.60    6.50
  -4  10  -1    9.00    5.40
  -4  10  -1    9.90    3.10
  -4  10  -1   11.10    4.70
   4 -10   1    9.70    5.10
   4 -10   1   10.50    5.00
   4 -10   1   15.60    5.00
  -5  10  -1   12.00    5.40
  -5  10  -1   19.60    5.70
   5 -10   1   13.90    5.00
   5 -10   1    9.80    5.40
   5 -10   1    9.80    5.40
   6   9  -1   47.60    5.80
   6   9  -1   50.19   14.70
  -6  -9   1   61.59    6.40
  -6  -9   1   38.90    5.90
  -6  -9   1   50.69    6.30
   5   9  -1    1.20    2.20
   5   9  -1   -2.50    6.10
  -5  -9   1    0.40    2.70
  -5  -9   1   -0.30    2.60
  -5  -9   1   -0.20    2.20
  -5  -9   1    2.80    2.50
   4   9  -1   89.79    9.80
   4   9  -1  112.39    9.30
   4   9  -1  111.99    7.90
   4   9  -1  104.59    7.70
   4   9  -1  130.09   18.00
  -4  -9   1  125.19    9.80
  -4  -9   1  115.89    9.70
  -4  -9   1  128.09    9.80
   3   9  -1   49.50    5.60
   3   9  -1   41.30    6.50
   3   9  -1   43.70    5.20
   3   9  -1   50.99   11.50
  -3  -9   1   56.09    6.20
  -3  -9   1   43.90    6.40
  -3  -9   1   43.50    8.70
  -3  -9   1   58.09    5.70
  -3  -9   1   56.29    7.20
  -3  -9   1   44.40    5.80
   2   9  -1  153.88   11.30
   2   9  -1  147.39   11.70
   2   9  -1  137.29   11.60
   2   9  -1  184.98   19.20
   2   9  -1  140.39   11.20
   2   9  -1  168.18   12.40
  -2  -9   1  134.09   13.60
  -2  -9   1  145.99   12.00
  -2  -9   1  143.49   11.90
  -2  -9   1  143.19   11.10
  -2  -9   1  170.78   12.40
  -2  -9   1  156.18   11.40
   1   9  -1  302.47   22.00
   1   9  -1  338.77   22.30
   1   9  -1  345.07   21.90
   1   9  -1  368.96   23.50
  -1  -9   1  297.77   21.20
  -1  -9   1  316.27   24.50
  -1  -9   1  328.17   22.70
  -1  -9   1  359.46   23.30
  -1  -9   1  275.67   27.30
  -1  -9   1  325.17   22.20
   0   9  -1   81.79    6.90
   0   9  -1   76.19    8.40
   0   9  -1   77.29    7.60
   0   9  -1   85.49    7.40
   0   9  -1   76.29    6.70
   0  -9   1   93.59   10.80
   0  -9   1   70.19   10.60
   0  -9   1   72.29    7.80
   0  -9   1   68.69    6.70
   0  -9   1   83.79    8.20
   0  -9   1   71.69    5.50
  -1   9  -1  329.87   22.60
  -1   9  -1  303.77   20.70
  -1   9  -1  311.37   20.10
  -1   9  -1  294.77   21.40
   1  -9   1  245.58   23.90
   1  -9   1  294.27   21.50
   1  -9   1  308.47   20.50
   1  -9   1  308.47   22.20
  -2   9  -1   30.80    4.80
  -2   9  -1   27.50    3.70
  -2   9  -1   35.60    6.40
  -2   9  -1   26.60    5.10
   2  -9   1   22.20    4.00
   2  -9   1   32.00    6.60
   2  -9   1   18.20    4.60
   2  -9   1   31.40    6.00
  -3   9  -1  206.78   17.70
  -3   9  -1  235.38   15.10
  -3   9  -1  211.38   16.90
   3  -9   1  194.88   16.60
   3  -9   1  201.88   18.30
   3  -9   1  207.18   18.00
  -4   9  -1   21.70    6.00
  -4   9  -1   16.30    3.20
  -4   9  -1   11.80    4.60
   4  -9   1   18.30    5.00
   4  -9   1   11.20    5.00
   4  -9   1   13.10    4.90
  -5   9  -1   88.99   10.50
  -5   9  -1   81.39   10.40
   5  -9   1   53.89    9.70
   5  -9   1   75.29   10.10
  -6   9  -1    7.20    5.30
  -6   9  -1    1.80    2.90
  -6   9  -1    9.70    4.70
   6  -9   1    6.50    4.40
   6  -9   1    8.30    4.80
   7   8  -1   57.29    5.80
   7   8  -1   62.69   17.00
  -7  -8   1   57.09    7.90
  -7  -8   1   62.99    7.00
  -7  -8   1   57.79    6.70
  -7  -8   1   80.59    7.20
   6   8  -1   74.99   16.40
  -6  -8   1   72.79    7.30
  -6  -8   1   75.69    7.40
  -6  -8   1   70.59    7.90
   5   8  -1  123.09   18.40
  -5  -8   1  117.59    9.80
  -5  -8   1  123.19    9.40
  -5  -8   1  105.79   12.00
  -5  -8   1  129.69   10.30
  -5  -8   1  116.69    9.60
  -5  -8   1  101.49    9.80
   4   8  -1  120.79    8.80
   4   8  -1  148.19   19.00
   4   8  -1  139.39   10.00
   4   8  -1  133.69    9.00
   4   8  -1  113.99   10.80
  -4  -8   1  137.79   10.50
  -4  -8   1  139.39   10.50
  -4  -8   1  119.99   10.80
  -4  -8   1  116.49   13.40
  -4  -8   1  141.39   10.60
  -4  -8   1  126.39   10.80
   3   8  -1   27.20    8.70
   3   8  -1   19.60    2.90
   3   8  -1   17.50    3.20
   3   8  -1   22.50    3.50
   3   8  -1   26.20    4.10
   3   8  -1   17.50    3.70
  -3  -8   1   21.90    4.80
  -3  -8   1   25.60    3.90
  -3  -8   1   14.40    3.80
  -3  -8   1   23.90    3.80
  -3  -8   1   22.90    3.90
  -3  -8   1   23.50    3.60
   2   8  -1  393.26   25.70
   2   8  -1  390.26   26.50
   2   8  -1  363.76   25.40
   2   8  -1  380.96   25.40
   2   8  -1  420.66   26.30
   2   8  -1  353.26   25.80
  -2  -8   1  356.96   25.40
  -2  -8   1  381.36   25.90
  -2  -8   1  429.56   26.20
  -2  -8   1  366.26   27.80
  -2  -8   1  416.56   25.60
   1   8  -1   41.70    4.90
   1   8  -1   57.89    5.20
   1   8  -1   55.29    6.10
   1   8  -1   44.20    5.90
   1   8  -1   55.69    5.50
   1   8  -1   52.19    5.50
  -1  -8   1   58.39    5.90
  -1  -8   1   44.90    8.70
  -1  -8   1   48.10    5.10
  -1  -8   1   50.49    6.60
  -1  -8   1   43.40    5.40
  -1  -8   1   52.79    4.60
   0   8  -1  313.17   21.60
   0   8  -1  283.27   19.80
   0   8  -1  342.97   20.30
   0   8  -1  295.47   20.80
   0   8  -1  315.97   20.50
   0   8  -1  316.67   20.80
   0  -8   1  297.77   20.90
   0  -8   1  309.87   21.30
   0  -8   1  282.87   20.00
   0  -8   1  286.47   19.00
   0  -8   1  245.68   24.10
  -1   8  -1   92.89    8.20
  -1   8  -1   93.79    8.40
  -1   8  -1   87.29    7.10
  -1   8  -1   99.19    7.90
  -1   8  -1   92.69    9.10
   1  -8   1   86.09   10.70
   1  -8   1   96.39    8.90
   1  -8   1   84.89    7.40
   1  -8   1   89.99    9.40
   1  -8   1   89.79    8.50
  -2   8  -1  113.19    8.90
  -2   8  -1  116.49   10.60
  -2   8  -1  103.99    7.90
  -2   8  -1  102.09    9.10
  -2   8  -1  109.89    9.60
   2  -8   1  105.29   11.30
   2  -8   1   88.19    9.80
   2  -8   1   85.09    9.10
   2  -8   1   88.09    9.50
  -3   8  -1   37.80    6.20
  -3   8  -1   38.30    4.30
  -3   8  -1   38.00    5.20
   3  -8   1   45.80    7.30
   3  -8   1   28.40    6.20
   3  -8   1   39.50    6.30
   3  -8   1   37.20    5.10
  -4   8  -1   48.30    7.80
  -4   8  -1   40.30    6.70
   4  -8   1   43.40    6.80
   4  -8   1   47.10    7.40
   4  -8   1   42.60    7.50
  -5   8  -1   79.79    9.30
  -5   8  -1   91.19   10.20
   5  -8   1   85.09    9.10
   5  -8   1   62.19    9.10
  -6   8  -1   20.20    4.90
  -6   8  -1   14.50    6.00
  -6   8  -1   26.50    6.50
   6  -8   1   23.20    6.30
   6  -8   1   22.50    5.80
  -7   8  -1   16.70    5.80
  -7   8  -1   11.20    5.50
   7  -8   1   14.60    5.70
   7  -8   1    5.60    4.30
   7   7  -1   92.09   18.70
   7   7  -1   85.99    7.60
  -7  -7   1   98.29    8.60
  -7  -7   1   87.49    8.60
  -7  -7   1  107.99    9.00
   6   7  -1   98.69    8.10
   6   7  -1  122.39   19.70
  -6  -7   1   98.59    8.90
  -6  -7   1   94.39   11.10
  -6  -7   1  113.49    9.00
  -6  -7   1  102.69    9.50
  -6  -7   1   97.99    8.80
  -6  -7   1  107.89    9.90
   5   7  -1  146.19   11.60
   5   7  -1  159.18   11.30
   5   7  -1  179.98   21.80
   5   7  -1  125.29   12.50
  -5  -7   1  178.38   12.10
  -5  -7   1  158.78   11.80
  -5  -7   1  151.58   12.10
  -5  -7   1  163.78   12.40
  -5  -7   1  168.38   12.00
  -5  -7   1  142.49   13.90
   4   7  -1   81.19    7.20
   4   7  -1   86.59   14.00
   4   7  -1   86.59    7.90
   4   7  -1   77.89    5.80
   4   7  -1   84.89    5.90
  -4  -7   1   72.99    7.40
  -4  -7   1   87.99    7.00
  -4  -7   1   66.59    7.40
  -4  -7   1   91.29    7.50
  -4  -7   1   83.59    7.00
  -4  -7   1   88.89    7.20
  -4  -7   1   71.59    8.60
   3   7  -1  181.28   11.90
   3   7  -1  143.99   12.20
   3   7  -1  201.58   19.80
   3   7  -1  169.38   11.80
   3   7  -1  151.88   12.40
   3   7  -1  146.19   11.20
  -3  -7   1  148.49   12.10
  -3  -7   1  181.68   12.10
  -3  -7   1  176.88   12.20
  -3  -7   1  177.18   12.10
  -3  -7   1  142.49   12.30
  -3  -7   1  159.58   13.60
   2   7  -1  417.96   28.50
   2   7  -1  422.56   28.10
   2   7  -1  494.55   35.00
   2   7  -1  436.26   27.80
   2   7  -1  447.76   28.30
   2   7  -1  384.56   27.90
   2   7  -1  398.96   27.70
  -2  -7   1  475.35   28.20
  -2  -7   1  411.76   29.60
  -2  -7   1  413.86   28.10
  -2  -7   1  400.66   27.80
  -2  -7   1  415.76   28.00
   1   7  -1  179.78   12.50
   1   7  -1  164.98   12.20
   1   7  -1  171.58   12.40
   1   7  -1  190.88   13.40
   1   7  -1  191.98   12.50
   1   7  -1  168.58   12.80
  -1  -7   1  136.99   16.30
  -1  -7   1  173.28   12.30
  -1  -7   1  194.18   13.00
  -1  -7   1  175.08   12.10
  -1  -7   1  165.68   12.60
  -1  -7   1  172.78   14.10
  -1  -7   1  170.88   12.00
   0   7  -1  343.07   20.40
   0   7  -1  289.97   20.50
   0   7  -1  295.07   19.90
   0   7  -1  294.07   20.60
   0   7  -1  325.87   20.60
   0   7  -1  322.57   21.50
   0  -7   1  323.07   21.10
   0  -7   1  286.87   21.90
   0  -7   1  272.57   24.10
   0  -7   1  296.47   20.70
   0  -7   1  282.87   19.30
   0  -7   1  305.67   20.20
  -1   7  -1  193.68   13.60
  -1   7  -1  184.08   13.20
  -1   7  -1  173.18   13.40
  -1   7  -1  187.88   14.50
  -1   7  -1  187.98   12.60
   1  -7   1  174.38   12.80
   1  -7   1  180.28   14.60
   1  -7   1  186.78   13.80
   1  -7   1  181.18   14.00
  -2   7  -1  112.89   11.70
  -2   7  -1  112.49    8.60
  -2   7  -1  140.99   11.00
  -2   7  -1  123.79   10.10
  -2   7  -1  132.99    9.80
   2  -7   1  110.69    9.10
   2  -7   1  131.79   13.50
   2  -7   1  100.29    9.80
   2  -7   1  112.99   10.40
   2  -7   1  110.69   10.60
  -3   7  -1  424.86   29.10
  -3   7  -1  426.06   28.30
  -3   7  -1  422.06   27.90
  -3   7  -1  470.45   28.80
   3  -7   1  380.76   27.10
   3  -7   1  387.26   28.10
   3  -7   1  383.76   28.90
   3  -7   1  382.66   28.70
  -4   7  -1   41.50    6.10
  -4   7  -1   59.39    7.50
  -4   7  -1   52.59    6.20
  -4   7  -1   49.00    7.60
   4  -7   1   44.40    6.80
   4  -7   1   45.70    5.30
   4  -7   1   34.00    6.60
   4  -7   1   52.19    8.40
  -5   7  -1  140.79   13.00
  -5   7  -1  148.49   12.50
   5  -7   1  135.39   13.30
   5  -7   1  117.79   11.90
  -6   7  -1   15.30    4.40
  -6   7  -1   14.00    5.10
   6  -7   1   16.60    6.00
   6  -7   1   19.60    5.30
  -7   7  -1   24.50    5.70
  -7   7  -1   30.40    5.70
  -7   7  -1   27.00    6.40
   7  -7   1   15.80    5.30
   7  -7   1   13.60    5.60
  -8   7  -1   11.30    4.60
  -8   7  -1   19.00    6.40
  -8   7  -1   18.90    2.40
  -8   7  -1   24.60    5.90
   8  -7   1   14.30    5.20
   8  -7   1   12.00    5.60
   8   6  -1   27.40   12.00
   8   6  -1   23.50    3.60
  -8  -6   1   37.80    5.40
  -8  -6   1   32.50    6.10
  -8  -6   1   17.90    5.60
  -8  -6   1   23.50    4.50
   7   6  -1   49.90    4.80
   7   6  -1   36.70   13.10
  -7  -6   1   40.70    7.50
  -7  -6   1   47.00    6.80
  -7  -6   1   40.20    5.70
  -7  -6   1   43.90    5.40
  -7  -6   1   36.40    5.60
  -7  -6   1   39.40    5.20
   6   6  -1  127.99   10.10
   6   6  -1  141.29    9.80
   6   6  -1  132.19   19.60
  -6  -6   1  131.59   10.40
  -6  -6   1  142.59   10.60
  -6  -6   1  126.99   10.40
  -6  -6   1  142.79   11.50
  -6  -6   1  115.79   12.20
  -6  -6   1  126.89   10.70
   5   6  -1   35.80    3.60
   5   6  -1   20.80    4.30
   5   6  -1   43.30   11.90
  -5  -6   1   27.80    4.60
  -5  -6   1   32.80    4.40
  -5  -6   1   28.30    5.60
  -5  -6   1   33.20    4.80
  -5  -6   1   23.80    3.80
  -5  -6   1   34.90    4.40
  -5  -6   1   30.00    4.00
   4   6  -1   90.89    6.80
   4   6  -1   97.79   14.20
   4   6  -1   80.39    7.80
   4   6  -1   80.89    5.90
   4   6  -1   90.79    6.10
   4   6  -1   92.39    7.30
  -4  -6   1   91.19    7.30
  -4  -6   1   93.29    7.60
  -4  -6   1   78.19    7.80
  -4  -6   1   86.89    7.20
  -4  -6   1   77.09    8.60
  -4  -6   1   96.99    7.90
  -4  -6   1   93.39    7.30
   3   6  -1    0.30    1.50
   3   6  -1    1.50    1.60
   3   6  -1    2.20    3.60
   3   6  -1    1.40    1.10
   3   6  -1    1.30    1.40
  -3  -6   1    2.40    1.70
  -3  -6   1    0.70    2.00
  -3  -6   1    1.00    1.60
  -3  -6   1    0.40    1.40
  -3  -6   1    1.30    1.70
  -3  -6   1    1.50    1.30
  -3  -6   1   -0.20    1.60
   2   6  -1  485.15   29.60
   2   6  -1  508.05   36.10
   2   6  -1  426.96   29.90
   2   6  -1  427.96   28.80
   2   6  -1  420.56   29.40
   2   6  -1  477.85   29.10
   2   6  -1  423.66   29.20
  -2  -6   1  415.56   30.50
  -2  -6   1  459.35   29.50
  -2  -6   1  471.25   29.30
  -2  -6   1  434.06   29.30
  -2  -6   1  476.75   29.20
  -2  -6   1  463.05   29.30
   1   6  -1   39.30    7.30
   1   6  -1   31.20    3.70
   1   6  -1   28.50    3.40
   1   6  -1   28.70    3.30
   1   6  -1   33.30    3.50
   1   6  -1   38.50    3.70
   1   6  -1   30.00    3.90
  -1  -6   1   30.10    3.10
  -1  -6   1   30.50    4.90
  -1  -6   1   28.40    3.30
  -1  -6   1   28.90    3.90
  -1  -6   1   26.50    6.00
  -1  -6   1   32.50    3.80
  -1  -6   1   35.10    3.30
   0   6  -1   28.60    4.50
   0   6  -1   31.30    3.70
   0   6  -1   31.00    3.60
   0   6  -1   29.80    3.00
   0   6  -1   28.50    3.40
   0  -6   1   30.10    3.30
   0  -6   1   33.00    5.00
   0  -6   1   25.40    5.50
   0  -6   1   27.10    3.80
   0  -6   1   28.30    2.60
   0  -6   1   34.90    4.00
  -1   6  -1  139.49    9.90
  -1   6  -1  130.79   10.00
  -1   6  -1  139.99   10.20
  -1   6  -1  129.29    9.20
   1  -6   1  134.99   12.40
   1  -6   1  119.19   10.80
   1  -6   1  143.89   10.70
   1  -6   1  123.59   10.10
  -2   6  -1    4.70    2.60
  -2   6  -1    7.10    2.60
  -2   6  -1    2.90    1.40
  -2   6  -1    5.00    2.10
  -2   6  -1    4.20    3.50
   2  -6   1    6.80    2.00
   2  -6   1    7.20    3.30
   2  -6   1    7.40    2.80
   2  -6   1    7.30    2.60
   2  -6   1    5.60    2.60
  -3   6  -1 1008.60   58.19
  -3   6  -1  917.61   57.99
  -3   6  -1  931.61   57.79
  -3   6  -1  926.01   58.89
   3  -6   1  905.91   58.89
   3  -6   1  805.02   58.49
   3  -6   1  870.51   57.09
   3  -6   1  854.91   57.99
  -4   6  -1    5.60    2.60
  -4   6  -1    4.70    2.70
  -4   6  -1    7.50    3.40
   4  -6   1   10.90    3.50
   4  -6   1    6.10    2.40
   4  -6   1    4.60    3.10
   4  -6   1    7.40    3.10
  -5   6  -1  535.05   35.40
  -5   6  -1  560.34   34.30
  -5   6  -1  528.65   34.70
  -5   6  -1  507.05   34.40
   5  -6   1  467.25   33.00
   5  -6   1  474.05   34.20
   5  -6   1  428.96   34.80
   5  -6   1  516.65   35.10
  -6   6  -1   23.60    5.10
  -6   6  -1   17.80    4.80
  -6   6  -1   19.90    2.20
  -6   6  -1   16.80    4.40
  -6   6  -1   16.50    5.00
   6  -6   1   20.00    5.40
   6  -6   1   25.90    5.70
  -7   6  -1  191.98   15.00
  -7   6  -1  193.48   17.10
   7  -6   1  159.78   15.00
   7  -6   1  151.28   17.60
  -8   6  -1    4.50    4.10
  -8   6  -1    1.40    3.80
  -8   6  -1    1.30    1.70
  -8   6  -1   -0.30    3.40
   8  -6   1   -1.30    3.30
   8  -6   1    5.90    6.10
   8   5  -1    6.20    2.40
   8   5  -1   -0.80    7.10
  -8  -5   1    7.20    4.70
  -8  -5   1    7.80    3.90
  -8  -5   1    4.30    2.30
  -8  -5   1    6.90    3.30
   7   5  -1  167.18   11.30
   7   5  -1  129.09   21.10
  -7  -5   1  152.08   12.60
  -7  -5   1  136.39   11.70
  -7  -5   1  157.28   11.80
  -7  -5   1  157.48   12.00
  -7  -5   1  148.69   12.90
   6   5  -1   40.80    6.50
   6   5  -1   59.99    5.00
   6   5  -1   48.40   12.90
   6   5  -1   46.50    5.00
  -6  -5   1   47.40    6.60
  -6  -5   1   55.89    5.60
  -6  -5   1   57.99    6.70
  -6  -5   1   51.49    6.00
  -6  -5   1   51.89    5.50
  -6  -5   1   50.59    5.40
   5   5  -1  131.99    9.50
   5   5  -1  118.69   17.00
   5   5  -1  130.79    9.20
   5   5  -1  114.09   10.40
  -5  -5   1  120.79    9.60
  -5  -5   1  132.89   10.20
  -5  -5   1  133.89   10.50
  -5  -5   1  128.79    9.60
  -5  -5   1  130.79   10.40
  -5  -5   1  115.79   11.30
  -5  -5   1  124.99   10.40
   4   5  -1  714.23   43.40
   4   5  -1  676.53   44.50
   4   5  -1  658.23   45.30
   4   5  -1  738.53   44.10
   4   5  -1  738.23   53.69
   4   5  -1  673.13   43.40
  -4  -5   1  634.54   46.00
  -4  -5   1  732.83   44.90
  -4  -5   1  719.63   44.50
  -4  -5   1  718.73   45.10
  -4  -5   1  775.22   44.60
  -4  -5   1  670.13   45.20
  -4  -5   1  664.23   44.60
   3   5  -1  315.27   18.80
   3   5  -1  286.77   19.30
   3   5  -1  289.87   25.50
   3   5  -1  266.97   19.60
   3   5  -1  274.77   18.50
   3   5  -1  303.17   18.80
  -3  -5   1  282.77   19.10
  -3  -5   1  303.37   19.50
  -3  -5   1  273.37   19.60
  -3  -5   1  266.87   20.20
  -3  -5   1  286.87   19.40
  -3  -5   1  311.67   19.10
  -3  -5   1  290.07   19.70
   2   5  -1 1493.55   93.69
   2   5  -1 1389.56   92.99
   2   5  -1 1629.84   93.59
   2   5  -1 1428.56   93.49
   2   5  -1 1442.66   93.69
   2   5  -1 1630.24   99.59
  -2  -5   1 1555.24   95.69
  -2  -5   1 1257.67   98.49
  -2  -5   1 1578.44   93.39
  -2  -5   1 1532.65   93.59
  -2  -5   1 1612.04   93.49
  -2  -5   1 1524.25   93.39
  -2  -5   1 1491.95   93.59
   1   5  -1   90.09    7.60
   1   5  -1  104.69    8.00
   1   5  -1  105.49    7.70
   1   5  -1  119.89   11.60
   1   5  -1  107.49    8.20
   1   5  -1  113.19    7.80
   1   5  -1  116.59    8.00
  -1  -5   1  113.59    7.60
  -1  -5   1  122.09    8.10
  -1  -5   1   87.59   10.90
  -1  -5   1  103.59    7.90
  -1  -5   1  100.79    7.60
  -1  -5   1  109.19    7.70
   0   5  -1  991.20   60.09
   0   5  -1  951.20   59.49
   0   5  -1 1010.70   60.79
   0   5  -1 1032.30   59.99
   0   5  -1  934.61   59.89
   0  -5   1  930.41   63.29
   0  -5   1  932.71   60.89
   0  -5   1  885.91   59.19
   0  -5   1  935.31   59.99
   0  -5   1  927.51   59.59
   0  -5   1 1003.00   60.29
  -1   5  -1  223.98   14.80
  -1   5  -1  210.88   14.00
  -1   5  -1  224.68   14.90
  -1   5  -1  218.98   15.50
  -1   5  -1  230.68   14.70
   1  -5   1  198.58   15.00
   1  -5   1  201.08   15.50
   1  -5   1  211.38   14.40
   1  -5   1  195.78   14.80
   1  -5   1  227.58   17.00
  -2   5  -1 1811.22  102.29
  -2   5  -1 1752.62  102.19
  -2   5  -1 1689.93  103.89
   2  -5   1 1544.65  101.59
   2  -5   1 1547.65  102.19
   2  -5   1 1530.55  102.59
   2  -5   1 1584.04  102.89
  -3   5  -1  134.49   10.60
  -3   5  -1  137.99   10.80
  -3   5  -1  157.68   11.10
  -3   5  -1  140.99   11.40
   3  -5   1  128.59   11.20
   3  -5   1  131.39   10.10
   3  -5   1  125.29   10.80
   3  -5   1  142.09   11.50
  -4   5  -1  355.06   24.30
  -4   5  -1  371.46   24.00
  -4   5  -1  371.46   24.20
  -4   5  -1  361.96   21.60
  -4   5  -1  327.27   24.50
   4  -5   1  347.27   24.70
   4  -5   1  346.47   24.20
   4  -5   1  301.97   24.50
   4  -5   1  339.17   23.30
  -5   5  -1   34.10    6.00
  -5   5  -1   29.90    4.80
  -5   5  -1   40.00    5.80
  -5   5  -1   36.30    3.10
  -5   5  -1   38.50    5.80
  -5   5  -1   36.80    5.80
   5  -5   1   36.00    4.80
   5  -5   1   39.40    5.90
   5  -5   1   37.50    6.10
   5  -5   1   35.70    6.30
  -6   5  -1  234.98   18.60
  -6   5  -1  256.67   16.60
  -6   5  -1  266.97   20.00
  -6   5  -1  265.97   19.30
  -6   5  -1  259.87   18.90
   6  -5   1  226.18   18.80
   6  -5   1  242.88   19.40
  -7   5  -1   27.70    5.00
  -7   5  -1   18.90    4.60
  -7   5  -1   24.80    3.40
   7  -5   1   19.00    5.50
   7  -5   1   30.40    6.20
  -8   5  -1  151.08   13.00
  -8   5  -1  136.39   12.90
  -8   5  -1  138.39   13.50
  -8   5  -1  131.09   10.10
   8  -5   1  109.89   12.80
   8  -5   1  140.39   13.10
  -9   5  -1   31.40    7.90
  -9   5  -1   33.80    6.90
  -9   5  -1   33.20    4.40
  -9   5  -1   27.40    6.50
   9  -5   1   26.80    7.70
   9  -5   1   31.70    7.50
   9   4  -1   65.99   17.90
   9   4  -1   73.79    7.00
  -9  -4   1   79.99    8.20
  -9  -4   1   66.79    7.50
  -9  -4   1   75.59    7.60
  -9  -4   1   50.39    8.50
   8   4  -1   35.20    4.70
   8   4  -1   37.70   12.90
  -8  -4   1   43.00    5.50
  -8  -4   1   31.40    5.10
  -8  -4   1   24.70    5.70
  -8  -4   1   34.80    5.50
   7   4  -1  135.19   20.70
   7   4  -1  147.19   11.10
   7   4  -1  138.09   11.00
  -7  -4   1  148.29   13.40
  -7  -4   1  156.18   12.70
  -7  -4   1  142.79   11.60
  -7  -4   1  150.78   12.90
  -7  -4   1  164.48   11.70
  -7  -4   1  152.08   11.70
   6   4  -1    9.40    6.90
   6   4  -1   16.50    3.90
   6   4  -1   15.70    2.80
   6   4  -1   22.80    3.30
  -6  -4   1   17.70    4.10
  -6  -4   1   20.20    3.50
  -6  -4   1   18.40    4.30
  -6  -4   1   19.40    3.50
  -6  -4   1   20.60    4.20
  -6  -4   1   17.70    3.50
  -6  -4   1   20.60    4.10
   5   4  -1  446.26   30.90
   5   4  -1  494.95   29.60
   5   4  -1  431.66   29.60
   5   4  -1  426.66   38.60
  -5  -4   1  476.35   30.00
  -5  -4   1  502.15   31.00
  -5  -4   1  427.36   31.40
  -5  -4   1  438.66   30.50
  -5  -4   1  439.66   30.60
  -5  -4   1  475.05   30.10
  -5  -4   1  492.45   29.90
   4   4  -1   16.40    2.30
   4   4  -1   21.70    2.80
   4   4  -1   16.50    6.50
   4   4  -1   15.20    3.00
  -4  -4   1   18.80    3.20
  -4  -4   1   16.70    2.70
  -4  -4   1   15.50    2.50
  -4  -4   1   14.70    2.60
  -4  -4   1   12.60    3.20
  -4  -4   1   15.50    3.00
  -4  -4   1   17.00    3.00
   3   4  -1  507.15   29.40
   3   4  -1  437.16   29.10
   3   4  -1  468.35   29.80
   3   4  -1  461.55   30.40
   3   4  -1  490.35   29.50
   3   4  -1  433.76   38.20
  -3  -4   1  463.45   29.70
  -3  -4   1  448.76   30.30
  -3  -4   1  487.15   29.90
  -3  -4   1  464.85   30.20
  -3  -4   1  480.25   30.00
  -3  -4   1  484.15   29.70
  -3  -4   1  427.96   30.60
   2   4  -1  318.67   19.20
   2   4  -1  300.27   24.00
   2   4  -1  282.27   19.40
   2   4  -1  317.77   18.90
   2   4  -1  282.07   19.30
   2   4  -1  282.87   18.80
  -2  -4   1  302.97   20.00
  -2  -4   1  289.87   19.10
  -2  -4   1  266.67   19.30
  -2  -4   1  306.17   19.30
  -2  -4   1  242.58   23.30
  -2  -4   1  323.97   19.30
  -2  -4   1  321.27   19.20
  -2  -4   1  296.67   19.30
   1   4  -1 1108.19   67.59
   1   4  -1 1021.20   67.19
   1   4  -1 1136.59   67.19
   1   4  -1 1126.49   67.19
   1   4  -1 1063.39   67.39
   1   4  -1 1214.98   71.59
   1   4  -1 1095.29   67.49
  -1  -4   1 1135.69   67.09
  -1  -4   1  983.20   67.09
  -1  -4   1  942.01   70.89
  -1  -4   1 1039.20   67.99
  -1  -4   1 1092.59   67.19
  -1  -4   1 1120.09   67.29
  -1  -4   1 1081.59   67.29
   0   4  -1  165.08   11.40
   0   4  -1  164.38   10.90
   0   4  -1  164.48   10.90
   0   4  -1  166.88   11.00
   0   4  -1  153.48   10.40
   0  -4   1  148.49   10.30
   0  -4   1  156.28   11.60
   0  -4   1  155.08   14.00
   0  -4   1  154.58   10.90
   0  -4   1  173.38   11.10
  -1   4  -1 2379.36  156.78
  -1   4  -1 2696.13  157.58
   1  -4   1 2580.84  157.58
  -2   4  -1  182.98   13.60
  -2   4  -1  191.58   13.20
  -2   4  -1  181.68   13.00
  -2   4  -1  208.08   13.40
   2  -4   1  187.08   13.30
   2  -4   1  173.18   13.50
   2  -4   1  184.98   13.70
   2  -4   1  184.08   12.70
  -3   4  -1  483.95   29.10
  -3   4  -1  477.35   29.40
  -3   4  -1  408.96   30.50
  -3   4  -1  420.16   27.20
  -3   4  -1  462.05   29.10
   3  -4   1  422.26   28.40
   3  -4   1  473.75   29.80
   3  -4   1  407.96   29.00
   3  -4   1  404.56   29.60
  -4   4  -1  122.49    9.50
  -4   4  -1  124.19    9.50
  -4   4  -1  107.59    7.60
  -4   4  -1  127.69    9.90
  -4   4  -1  114.09    9.90
   4  -4   1   99.39    9.30
   4  -4   1  110.49    9.70
   4  -4   1  109.09    9.90
   4  -4   1  104.19    8.70
  -5   4  -1  305.77   21.40
  -5   4  -1  306.57   19.90
  -5   4  -1  315.97   21.80
  -5   4  -1  316.17   22.20
  -5   4  -1  316.67   22.40
  -5   4  -1  323.77   21.70
   5  -4   1  270.17   22.30
   5  -4   1  321.77   21.90
   5  -4   1  283.27   20.80
   5  -4   1  307.07   22.90
  -6   4  -1    2.30    2.60
  -6   4  -1    1.20    2.80
  -6   4  -1    2.30    1.60
  -6   4  -1    4.90    2.60
  -6   4  -1    3.90    2.90
  -6   4  -1    4.80    2.80
   6  -4   1    7.20    3.20
   6  -4   1    1.90    2.90
   6  -4   1    6.20    3.10
   6  -4   1    0.50    2.00
  -7   4  -1  151.88   12.80
  -7   4  -1  154.58   13.00
  -7   4  -1  150.68   10.90
  -7   4  -1  145.09   13.50
  -7   4  -1  153.78   13.10
   7  -4   1  119.39   13.00
   7  -4   1  145.99   12.80
   7  -4   1  153.58   13.10
  -8   4  -1   -0.90    2.80
  -8   4  -1    3.30    1.90
  -8   4  -1    1.80    3.10
   8  -4   1   -0.60    3.00
  -9   4  -1   14.10    4.80
  -9   4  -1   15.90    5.00
  -9   4  -1   18.10    3.40
  -9   4  -1   14.40    5.30
   9  -4   1   14.80    6.40
   9  -4   1   21.90    5.50
   9   3  -1   24.90    4.40
   9   3  -1   17.90   10.60
  -9  -3   1   24.30    5.40
  -9  -3   1   25.80    5.10
  -9  -3   1   21.20    4.30
  -9  -3   1   23.70    5.00
   8   3  -1   98.39    8.00
   8   3  -1   85.99   30.40
  -8  -3   1   89.99    8.20
  -8  -3   1   90.19    9.60
  -8  -3   1   87.79    8.10
  -8  -3   1   68.99    9.00
  -8  -3   1   82.49    8.30
   7   3  -1  184.18   24.50
   7   3  -1  217.08   15.20
   7   3  -1  232.28   15.50
  -7  -3   1  217.28   16.90
  -7  -3   1  216.18   16.90
  -7  -3   1  223.38   15.60
  -7  -3   1  215.68   15.80
  -7  -3   1  217.38   15.80
   6   3  -1   71.69    6.00
   6   3  -1   58.49   12.80
   6   3  -1   56.89    7.40
   6   3  -1   69.79    6.10
  -6  -3   1   70.19    6.10
  -6  -3   1   71.49    7.20
  -6  -3   1   67.49    7.30
  -6  -3   1   69.99    7.00
  -6  -3   1   64.99    7.50
  -6  -3   1   74.59    6.40
  -6  -3   1   71.39    6.50
   5   3  -1  213.78   13.40
   5   3  -1  182.78   14.30
   5   3  -1  177.38   20.60
   5   3  -1  187.58   13.30
  -5  -3   1  171.18   14.00
  -5  -3   1  175.68   14.60
  -5  -3   1  193.18   13.60
  -5  -3   1  208.08   13.70
  -5  -3   1  207.58   13.50
  -5  -3   1  217.08   14.60
  -5  -3   1  189.38   14.30
   4   3  -1  413.16   26.40
   4   3  -1  452.05   26.40
   4   3  -1  383.96   27.20
   4   3  -1  402.16   33.80
  -4  -3   1  423.16   26.60
  -4  -3   1  411.86   27.20
  -4  -3   1  434.66   26.50
  -4  -3   1  406.46   26.50
  -4  -3   1  404.86   27.10
  -4  -3   1  374.76   27.50
   3   3  -1  496.05   39.20
   3   3  -1  493.05   33.70
   3   3  -1  551.94   33.40
   3   3  -1  526.75   32.90
   3   3  -1  579.44   33.00
  -3  -3   1  498.05   34.30
  -3  -3   1  514.55   33.90
  -3  -3   1  553.64   33.60
  -3  -3   1  536.65   33.60
  -3  -3   1  549.54   34.10
  -3  -3   1  535.35   33.50
   2   3  -1 1077.79   61.79
   2   3  -1  977.10   61.59
   2   3  -1 1068.39   61.79
   2   3  -1  913.41   62.19
   2   3  -1 1000.30   66.79
   2   3  -1 1025.30   61.99
   2   3  -1  918.81   62.19
  -2  -3   1 1090.19   61.89
  -2  -3   1 1019.80   61.89
  -2  -3   1  836.92   66.09
  -2  -3   1 1032.30   61.99
  -2  -3   1  996.00   62.29
  -2  -3   1  984.70   62.49
  -2  -3   1 1039.20   62.29
  -2  -3   1  986.20   62.19
   1   3  -1  133.89    9.30
   1   3  -1  139.29    9.50
   1   3  -1  129.79    9.20
   1   3  -1  142.29   12.20
   1   3  -1  140.69    9.40
   1   3  -1  146.69    9.10
  -1  -3   1  123.19   12.10
  -1  -3   1  144.49    9.20
  -1  -3   1  129.79    9.10
  -1  -3   1  160.48    9.40
  -1  -3   1  144.19    9.20
  -1  -3   1  137.59    9.70
  -1  -3   1  144.89    9.30
  -1  -3   1  122.89    9.20
   0   3  -1  171.08   11.30
   0   3  -1  173.28   12.00
   0   3  -1  182.98   11.70
   0   3  -1  197.98   11.70
   0   3  -1  176.38   11.60
   0  -3   1  164.68   11.40
   0  -3   1  184.58   11.60
   0  -3   1  173.78   11.70
   0  -3   1  169.38   11.30
   0  -3   1  170.58   12.10
   0  -3   1  188.08   11.80
   0  -3   1  180.78   13.90
  -1   3  -1  142.69    9.20
  -1   3  -1  136.19    9.20
  -1   3  -1  136.29    9.20
  -1   3  -1  128.89    9.50
   1  -3   1  132.39    9.00
   1  -3   1  133.89    9.20
   1  -3   1  116.59    9.30
   1  -3   1  127.69    9.60
  -2   3  -1  415.96   27.80
  -2   3  -1  452.55   27.50
  -2   3  -1  435.86   27.50
  -2   3  -1  443.46   27.70
   2  -3   1  416.96   27.10
   2  -3   1  434.06   27.60
   2  -3   1  383.26   27.70
   2  -3   1  416.96   27.80
  -3   3  -1    0.30    1.40
  -3   3  -1    0.90    1.40
  -3   3  -1    0.50    1.40
  -3   3  -1    2.50    1.80
   3  -3   1   -1.40    1.20
   3  -3   1    0.60    1.20
   3  -3   1    1.40    1.60
   3  -3   1    0.70    1.60
  -4   3  -1   39.40    5.40
  -4   3  -1   41.60    5.10
  -4   3  -1   40.30    4.70
  -4   3  -1   35.60    4.80
  -4   3  -1   42.00    4.70
   4  -3   1   47.80    5.70
   4  -3   1   39.30    4.30
   4  -3   1   37.10    5.10
   4  -3   1   44.80    5.10
  -5   3  -1  128.79   11.00
  -5   3  -1  130.09   11.10
  -5   3  -1  134.99   10.60
  -5   3  -1  154.88   11.00
  -5   3  -1  126.89   10.60
   5  -3   1  136.59   11.00
   5  -3   1  105.89   11.10
   5  -3   1  142.09   11.20
   5  -3   1  121.89   10.00
  -6   3  -1   -2.10    1.30
  -6   3  -1   -0.40    2.30
  -6   3  -1    1.10    2.30
  -6   3  -1   -1.50    2.10
  -6   3  -1    1.40    2.40
  -6   3  -1    0.50    2.00
   6  -3   1   -0.80    2.30
   6  -3   1    1.50    1.90
   6  -3   1    1.50    2.30
   6  -3   1    1.90    2.20
  -7   3  -1  116.59   11.00
  -7   3  -1  127.59   11.50
  -7   3  -1  123.59   10.90
  -7   3  -1  116.19    9.40
  -7   3  -1  124.39   11.20
   7  -3   1  125.39   11.20
   7  -3   1  113.29   10.80
  -8   3  -1    3.10    3.20
  -8   3  -1    4.20    3.20
  -8   3  -1    2.80    2.00
  -8   3  -1    0.40    3.00
   8  -3   1   -2.00    2.20
   8  -3   1    0.10    3.90
   8  -3   1   -0.50    2.70
  -9   3  -1   14.90    5.10
  -9   3  -1   21.50    5.80
  -9   3  -1   18.10    5.60
   9  -3   1   17.00    5.70
   9  -3   1   27.80    6.10
   9   2  -1   28.40   11.70
   9   2  -1   27.40    4.90
  -9  -2   1   14.80    6.60
  -9  -2   1   17.60    4.60
  -9  -2   1   21.20    5.60
  -9  -2   1   22.90    5.60
   8   2  -1   -1.10    5.40
   8   2  -1   -1.40    2.00
  -8  -2   1   -1.10    2.70
  -8  -2   1   -4.60    1.80
  -8  -2   1   -2.10    1.90
  -8  -2   1    1.90    2.20
   7   2  -1   17.70    8.70
   7   2  -1   24.10    4.00
   7   2  -1   30.70    3.90
  -7  -2   1   20.60    3.80
  -7  -2   1   28.10    5.20
  -7  -2   1   22.30    4.80
  -7  -2   1   28.20    4.50
  -7  -2   1   24.70    4.80
  -7  -2   1   22.90    4.00
   6   2  -1  120.19    9.00
   6   2  -1  100.59   15.50
   6   2  -1  110.79    8.60
   6   2  -1  119.19    7.70
   6   2  -1  112.39    7.80
  -6  -2   1  107.39    8.70
  -6  -2   1  113.59   10.00
  -6  -2   1  111.19    9.70
  -6  -2   1  105.09    8.90
  -6  -2   1  110.19    9.50
   5   2  -1  185.48   12.00
   5   2  -1  171.18   11.70
   5   2  -1  145.19   18.10
   5   2  -1  177.38   11.20
   5   2  -1  159.88   12.70
   5   2  -1  177.38   11.00
  -5  -2   1  179.48   11.90
  -5  -2   1  156.68   11.90
  -5  -2   1  166.38   13.20
  -5  -2   1  161.98   12.40
  -5  -2   1  168.08   12.00
  -5  -2   1  161.28   12.80
  -5  -2   1  158.48   12.80
   4   2  -1  234.58   25.30
   4   2  -1  235.88   17.20
   4   2  -1  258.67   15.90
   4   2  -1  276.87   15.80
   4   2  -1  259.87   16.40
   4   2  -1  235.18   16.30
  -4  -2   1  239.18   16.50
  -4  -2   1  250.97   17.10
  -4  -2   1  255.97   16.40
  -4  -2   1  256.37   16.60
  -4  -2   1  226.88   17.10
  -4  -2   1  233.68   17.30
  -4  -2   1  248.98   17.30
   3   2  -1  199.98   12.30
   3   2  -1  173.18   17.00
   3   2  -1  186.58   11.70
   3   2  -1  181.68   12.20
   3   2  -1  184.78   12.90
   3   2  -1  198.68   11.80
  -3  -2   1  176.58   12.90
  -3  -2   1  185.88   12.40
  -3  -2   1  194.38   13.00
  -3  -2   1  183.38   12.30
  -3  -2   1  174.28   12.80
  -3  -2   1  175.78   12.80
  -3  -2   1  197.78   12.30
   2   2  -1  946.41   61.99
   2   2  -1 1068.39   61.59
   2   2  -1  984.90   65.89
   2   2  -1  906.71   61.99
  -2  -2   1 1012.20   61.99
  -2  -2   1 1006.70   61.99
  -2  -2   1 1069.09   61.59
  -2  -2   1  847.92   65.39
  -2  -2   1 1029.10   62.09
  -2  -2   1 1032.70   61.59
  -2  -2   1 1037.30   61.59
  -2  -2   1 1002.40   61.99
   1   2  -1    2.20    0.80
   1   2  -1    2.30    1.90
   1   2  -1    1.80    0.70
   1   2  -1    1.70    0.70
   1   2  -1    1.40    0.50
   1   2  -1    1.80    0.50
  -1  -2   1    2.50    1.90
  -1  -2   1    1.70    0.60
  -1  -2   1    1.90    0.60
  -1  -2   1    1.50    0.70
  -1  -2   1    1.50    0.60
  -1  -2   1    2.20    0.60
  -1  -2   1    2.00    0.80
  -1  -2   1    1.50    0.70
   0  -2   1 4555.14  300.37
  -1   2  -1  138.59    9.90
  -1   2  -1  140.49    9.70
  -1   2  -1  164.38    9.80
  -1   2  -1  151.88    9.70
   1  -2   1  155.08    9.60
   1  -2   1  129.79    9.80
   1  -2   1  135.99    9.70
   1  -2   1  134.09    9.90
  -2   2  -1 4227.88  295.67
   2  -2   1 3565.24  281.97
  -3   2  -1  756.22   48.10
  -3   2  -1  771.52   49.70
  -3   2  -1  768.72   48.20
  -3   2  -1  751.52   48.60
  -3   2  -1  825.32   48.40
   3  -2   1  774.02   48.60
   3  -2   1  756.42   48.00
   3  -2   1  789.02   48.40
   3  -2   1  671.53   48.70
  -4   2  -1 2129.99  134.79
  -4   2  -1 2113.99  133.89
  -4   2  -1 2274.77  134.09
  -4   2  -1 2221.28  134.49
   4  -2   1 2204.48  134.39
   4  -2   1 2246.48  133.79
   4  -2   1 1907.01  134.69
  -5   2  -1  209.18   14.40
  -5   2  -1  179.08   14.70
  -5   2  -1  198.18   14.20
  -5   2  -1  202.18   14.20
  -5   2  -1  186.18   14.40
   5  -2   1  159.68   14.50
   5  -2   1  195.58   14.30
   5  -2   1  186.88   13.70
   5  -2   1  208.58   14.50
  -6   2  -1  733.23   46.70
  -6   2  -1  748.63   46.40
  -6   2  -1  689.43   46.10
  -6   2  -1  681.53   47.10
  -6   2  -1  705.63   46.30
   6  -2   1  670.33   46.20
   6  -2   1  723.03   46.50
  -7   2  -1    3.40    2.90
  -7   2  -1    5.30    3.10
  -7   2  -1    5.70    2.30
  -7   2  -1    3.10    3.00
  -7   2  -1   10.70    3.30
  -7   2  -1    8.90    3.20
   7  -2   1    2.90    2.60
   7  -2   1   11.50    4.10
   7  -2   1    6.70    3.00
  -8   2  -1  122.49   11.90
  -8   2  -1  130.59   12.00
  -8   2  -1  120.39   11.30
  -8   2  -1  129.19   10.40
   8  -2   1  131.79   11.40
   8  -2   1  114.29   12.70
   8  -2   1  120.99   11.60
  -9   2  -1   20.50    5.60
  -9   2  -1   16.40    5.20
  -9   2  -1   31.30    5.40
  -9   2  -1   23.40    5.30
   9  -2   1   19.00    4.90
   9  -2   1   22.10    6.40
   9   1  -1   30.20    5.00
   9   1  -1   29.50   11.70
  -9  -1   1   26.00    4.70
  -9  -1   1   21.60    5.90
  -9  -1   1   25.90    5.50
   8   1  -1   33.80    3.50
   8   1  -1   37.50    5.30
   8   1  -1   36.00   12.20
   8   1  -1   37.00    3.80
  -8  -1   1   30.10    7.10
  -8  -1   1   35.70    5.50
  -8  -1   1   32.90    5.70
  -8  -1   1   36.00    5.30
  -8  -1   1   37.80    6.50
   7   1  -1  222.78   15.40
   7   1  -1  181.88   23.10
   7   1  -1  222.28   14.80
   7   1  -1  220.08   14.30
   7   1  -1  206.48   14.80
  -7  -1   1  213.18   15.70
  -7  -1   1  170.68   15.90
  -7  -1   1  207.88   16.40
  -7  -1   1  217.88   15.40
  -7  -1   1  196.18   15.50
  -7  -1   1  224.38   15.40
   6   1  -1   17.90    2.90
   6   1  -1   18.30    2.70
   6   1  -1   18.40    3.30
   6   1  -1   18.10    3.20
   6   1  -1   17.50    7.20
  -6  -1   1   19.90    3.60
  -6  -1   1   22.60    3.80
  -6  -1   1   15.90    3.80
  -6  -1   1   17.50    3.20
  -6  -1   1   15.90    3.90
  -6  -1   1   16.40    3.80
   5   1  -1 1560.94   89.99
   5   1  -1 1234.08   96.89
   5   1  -1 1404.46   89.59
   5   1  -1 1536.95   89.39
   5   1  -1 1483.45   89.89
  -5  -1   1 1555.94   90.09
  -5  -1   1 1453.45   90.09
  -5  -1   1 1211.88   90.49
  -5  -1   1 1478.05   90.29
  -5  -1   1 1410.96   90.69
  -5  -1   1 1510.45   89.89
   4   1  -1    0.70    1.40
   4   1  -1    1.00    1.10
   4   1  -1    4.10    3.40
   4   1  -1    2.90    1.10
   4   1  -1    2.60    1.10
   4   1  -1    3.30    1.40
  -4  -1   1    1.90    1.20
  -4  -1   1    3.40    1.40
  -4  -1   1    2.20    1.30
  -4  -1   1    3.70    1.80
  -4  -1   1    2.30    1.80
  -4  -1   1    4.20    1.40
   3   1  -1 2257.77  161.08
   3   1  -1 2584.24  156.98
   3   1  -1 2636.94  156.18
  -3  -1   1 2711.83  156.48
  -3  -1   1 2564.54  156.98
  -3  -1   1 2474.15  156.68
   2   1  -1   88.89    9.40
   2   1  -1   99.69    6.40
   2   1  -1  100.19    7.00
  -2  -1   1   90.39    6.80
  -2  -1   1  101.49    6.40
  -2  -1   1   95.69    6.90
  -2  -1   1   97.79    6.50
  -2  -1   1   90.59    6.90
  -2  -1   1   99.39    6.40
  -2  -1   1   97.89    6.70
   1   1  -1 2392.56  162.48
  -1  -1   1 2544.35  164.38
   0   1  -1    6.00    0.70
   0   1  -1    4.70    0.80
   0   1  -1    5.50    0.50
   0   1  -1    5.60    0.80
   0   1  -1    6.10    0.70
   0  -1   1    5.30    0.80
   0  -1   1    6.50    0.50
   0  -1   1    8.00    0.80
   0  -1   1    7.70    1.80
   0  -1   1    5.50    0.60
   0  -1   1    6.30    0.80
   0  -1   1    5.10    0.70
  -1   1  -1  435.36   28.70
  -1   1  -1  461.45   28.60
  -1   1  -1  452.05   28.60
  -1   1  -1  479.45   28.50
   1  -1   1  428.76   28.70
   1  -1   1  466.35   28.70
   1  -1   1  456.95   28.60
   1  -1   1  460.15   28.50
  -2   1  -1  732.13   49.80
  -2   1  -1  789.42   49.70
  -2   1  -1  784.52   49.40
  -2   1  -1  844.52   49.70
  -2   1  -1  823.22   49.50
   2  -1   1  824.12   49.50
   2  -1   1  792.92   49.70
   2  -1   1  842.42   49.70
   2  -1   1  698.73   49.80
  -3   1  -1 1155.58   71.89
  -3   1  -1 1006.20   71.99
  -3   1  -1 1125.79   71.59
  -3   1  -1 1243.98   71.69
  -3   1  -1 1192.28   71.79
   3  -1   1 1155.48   71.49
   3  -1   1 1106.29   71.79
   3  -1   1 1195.58   71.79
  -4   1  -1   14.20    2.80
  -4   1  -1   11.60    2.90
  -4   1  -1    9.50    2.50
  -4   1  -1   10.40    2.40
  -4   1  -1    7.10    2.10
   4  -1   1   11.50    2.50
   4  -1   1   10.60    2.80
   4  -1   1   11.00    2.20
   4  -1   1   11.90    2.60
  -5   1  -1  784.82   53.29
  -5   1  -1  796.92   53.49
  -5   1  -1  838.62   52.39
  -5   1  -1  808.22   52.69
  -5   1  -1  792.02   52.49
   5  -1   1  829.42   52.59
   5  -1   1  841.02   53.99
   5  -1   1  891.11   52.79
   5  -1   1  793.12   51.99
  -6   1  -1   44.90    5.80
  -6   1  -1   46.80    6.00
  -6   1  -1   49.40    6.40
  -6   1  -1   47.20    6.30
  -6   1  -1   48.60    5.80
   6  -1   1   47.80    6.40
   6  -1   1   48.50    5.20
   6  -1   1   56.99    5.90
   6  -1   1   52.79    7.80
  -7   1  -1  166.78   13.90
  -7   1  -1  166.48   14.60
  -7   1  -1  172.58   13.70
  -7   1  -1  161.08   13.50
  -7   1  -1  179.58   14.10
   7  -1   1  168.08   13.80
   7  -1   1  164.38   12.90
   7  -1   1  175.48   15.20
   7  -1   1  173.58   13.50
  -8   1  -1   -0.10    2.60
  -8   1  -1   -5.00    2.30
  -8   1  -1    1.00    2.00
  -8   1  -1   -1.60    2.50
  -8   1  -1    0.00    2.60
   8  -1   1   -3.00    2.60
   8  -1   1    4.90    2.70
   8  -1   1   -2.70    2.50
  -9   1  -1   34.70    6.50
  -9   1  -1   30.10    6.00
   9  -1   1   22.00    6.30
   9  -1   1   26.90    5.90
   9  -1   1   25.00    4.80
 -10   1  -1   -2.30    3.60
 -10   1  -1    8.50    3.60
 -10   1  -1    0.40    3.20
  10  -1   1    7.00    3.70
   9   0  -1   -1.00    5.60
   9   0  -1    6.00    2.20
   9   0  -1   -1.10    2.20
   9   0  -1    3.60    2.20
  -9   0   1   -2.20    2.80
  -9   0   1    0.30    3.30
  -9   0   1    0.00    2.80
  -9   0   1    0.60    3.10
   8   0  -1  197.08   15.90
   8   0  -1  216.28   15.90
   8   0  -1  181.48   24.10
   8   0  -1  238.58   17.20
  -8   0   1  215.18   16.10
  -8   0   1  221.18   16.20
  -8   0   1  202.58   17.40
  -8   0   1  219.08   16.80
   7   0  -1   47.80    5.90
   7   0  -1   45.60    4.80
   7   0  -1   43.10    5.60
   7   0  -1   25.60    9.10
   7   0  -1   42.50    4.80
  -7   0   1   43.60    5.50
  -7   0   1   46.50    5.80
  -7   0   1   48.70    6.80
  -7   0   1   40.40    5.50
  -7   0   1   41.30    6.70
  -7   0   1   47.90    5.60
   6   0  -1  825.32   54.39
   6   0  -1  739.33   62.29
   6   0  -1  887.61   55.09
   6   0  -1  916.51   55.59
   6   0  -1  910.51   54.59
  -6   0   1  780.32   55.79
  -6   0   1  848.22   54.89
  -6   0   1  909.11   55.09
  -6   0   1  871.31   55.09
  -6   0   1  926.41   55.49
  -6   0   1  854.01   55.79
   5   0  -1  100.99    7.40
   5   0  -1   93.99    7.60
   5   0  -1  100.19    9.20
   5   0  -1   95.29    8.00
  -5   0   1   88.09    7.70
  -5   0   1   92.09    7.50
  -5   0   1   94.39    7.60
  -5   0   1   95.29    7.70
  -5   0   1   83.39    8.00
  -5   0   1  101.99    8.50
   4   0  -1 2376.06  143.29
   4   0  -1 2260.67  143.19
   4   0  -1 2366.26  143.49
   4   0  -1 2414.56  143.99
  -4   0   1 2250.47  143.59
  -4   0   1 2193.98  143.99
  -4   0   1 2362.76  143.39
  -4   0   1 2223.18  143.49
  -4   0   1 2432.66  143.49
   3   0  -1  492.65   30.50
   3   0  -1  501.55   30.70
   3   0  -1  510.55   31.00
   3   0  -1  498.75   30.60
  -3   0   1  426.06   30.90
  -3   0   1  500.75   30.60
  -3   0   1  452.25   31.10
  -3   0   1  504.85   30.70
  -3   0   1  469.85   30.80
  -3   0   1  486.85   30.70
   2   0  -1 1308.97   77.19
   2   0  -1 1057.39   79.69
   2   0  -1 1333.17   76.99
  -2   0   1 1222.18   77.29
  -2   0   1 1292.17   77.09
  -2   0   1 1290.37   77.09
  -2   0   1 1238.18   77.49
   1   0  -1  184.98   11.20
  -1   0   1  170.88   11.60
  -1   0   1  161.48   12.90
  -1   0   1  195.08   11.20
  -1   0   1  175.88   11.50
  -1   0   1  189.18   11.30
  -1   0  -1   11.20    1.10
  -2   0  -1 2131.09  182.38
   2   0   1 2798.22  201.68
  -3   0  -1   11.40    2.40
  -3   0  -1   15.40    2.30
  -3   0  -1   12.90    2.20
  -3   0  -1   21.60    2.70
  -3   0  -1   15.40    2.40
   3   0   1   16.60    3.10
   3   0   1   21.90    2.80
   3   0   1   12.80    2.20
   3   0   1   13.70    2.30
   3   0   1   16.60    2.30
  -4   0  -1  580.64   38.40
  -4   0  -1  633.54   38.50
  -4   0  -1  525.15   38.90
  -4   0  -1  609.04   38.30
  -4   0  -1  594.34   38.50
   4   0   1  589.54   38.40
   4   0   1  595.64   38.10
   4   0   1  633.14   39.60
   4   0   1  623.24   38.50
  -5   0  -1  124.89    9.90
  -5   0  -1  115.89    9.90
  -5   0  -1  147.69   10.10
  -5   0  -1  105.89   10.30
   5   0   1  128.69    9.60
   5   0   1  123.69   11.00
   5   0   1  125.99    9.80
   5   0   1  132.49   10.00
  -6   0  -1  464.85   30.70
  -6   0  -1  471.75   30.60
  -6   0  -1  401.76   31.20
  -6   0  -1  490.25   30.50
  -6   0  -1  437.16   30.60
   6   0   1  464.75   30.30
   6   0   1  469.35   32.10
   6   0   1  444.86   30.00
   6   0   1  442.26   30.40
  -7   0  -1  257.47   18.60
  -7   0  -1  235.58   17.90
  -7   0  -1  247.58   18.20
  -7   0  -1  228.88   19.10
  -7   0  -1  250.67   18.40
   7   0   1  252.27   19.50
   7   0   1  248.48   18.20
   7   0   1  242.88   17.80
   7   0   1  236.08   17.40
  -8   0  -1   -1.50    2.40
  -8   0  -1    2.20    2.30
  -8   0  -1    0.00    2.70
  -8   0  -1    2.40    2.90
   8   0   1    2.40    3.50
   8   0   1    2.90    2.60
   8   0   1    2.60    2.40
  -9   0  -1  166.08   14.20
  -9   0  -1  142.09   14.20
  -9   0  -1  161.98   14.40
  -9   0  -1  187.08   14.40
   9   0   1  162.68   14.00
   9   0   1  171.38   13.60
   9   0   1  164.58   15.00
 -10   0  -1    2.70    3.20
 -10   0  -1   -0.40    3.30
 -10   0  -1    5.30    3.40
 -10   0  -1   -2.40    3.50
  10   0   1    7.00    3.90
  10   0   1   -0.70    3.00
  10   0   1    2.80    6.30
   9  -1  -1   48.70    7.30
   9  -1  -1   61.69    6.30
  -9   1   1   54.99    7.40
  -9   1   1   47.80    8.00
  -9   1   1   42.50    6.90
   8  -1  -1   18.30    4.10
   8  -1  -1   15.10    3.50
   8  -1  -1   16.20    8.10
  -8   1   1   17.60    4.60
  -8   1   1   13.70    4.00
  -8   1   1   18.90    4.40
   7  -1  -1  127.49   10.50
   7  -1  -1  125.19   10.10
   7  -1  -1  158.48   11.40
   7  -1  -1  149.59   12.00
  -7   1   1  134.59   11.00
  -7   1   1  138.09   11.00
  -7   1   1  123.49   11.50
  -7   1   1  123.39   11.10
  -7   1   1  112.79   11.30
  -7   1   1  126.79   10.50
   6  -1  -1   84.39    7.40
   6  -1  -1   73.89    6.90
   6  -1  -1   73.69    7.50
  -6   1   1   70.39    6.50
  -6   1   1   72.79    6.80
  -6   1   1   81.59    7.00
  -6   1   1   67.49    7.00
  -6   1   1   53.89    6.90
  -6   1   1   69.49    7.40
   5  -1  -1  245.18   16.80
   5  -1  -1  250.67   17.30
   5  -1  -1  260.07   17.30
   5  -1  -1  252.87   18.10
  -5   1   1  231.48   17.80
  -5   1   1  241.08   17.00
  -5   1   1  254.37   17.20
  -5   1   1  263.87   17.30
  -5   1   1  233.88   17.70
  -5   1   1  262.37   17.70
   4  -1  -1  113.09    8.80
   4  -1  -1  110.29    8.10
   4  -1  -1   94.79    8.00
   4  -1  -1   93.09    7.60
  -4   1   1  110.99    8.10
  -4   1   1  101.99    7.90
  -4   1   1  114.29    8.40
  -4   1   1  105.79    8.50
  -4   1   1  102.79    8.40
   3  -1  -1    0.90    0.90
   3  -1  -1   -0.20    0.80
  -3   1   1    1.30    1.20
  -3   1   1    0.60    0.90
  -3   1   1    0.80    1.10
  -3   1   1    1.10    1.00
  -3   1   1    0.10    0.80
  -3   1   1    1.90    0.90
   2  -1  -1    4.10    1.00
   2  -1  -1    3.80    1.10
   2  -1  -1    3.10    0.80
   2  -1  -1    4.60    1.10
  -2   1   1    3.70    1.00
  -2   1   1    3.80    1.10
  -2   1   1    4.10    0.90
  -2   1   1    3.20    1.00
  -2   1   1    5.10    1.30
   1  -1  -1 1299.77   94.49
  -1   1   1 1293.47   93.49
  -1  -1  -1    5.10    0.90
  -1  -1  -1    4.30    1.20
  -1  -1  -1    3.80    0.70
  -1  -1  -1    6.30    1.10
  -1  -1  -1    4.40    0.80
   1   1   1    4.00    1.10
   1   1   1    6.00    0.90
   1   1   1    8.00    1.10
   1   1   1    5.90    0.90
   1   1   1    6.10    1.00
  -2  -1  -1 2140.69  131.89
   2   1   1 2113.59  131.79
  -3  -1  -1  465.85   30.30
  -3  -1  -1  442.76   29.20
  -3  -1  -1  441.96   29.30
  -3  -1  -1  473.75   29.40
  -3  -1  -1  468.95   29.20
   3   1   1  465.05   30.20
   3   1   1  442.96   29.40
   3   1   1  440.86   29.20
   3   1   1  448.26   29.10
   3   1   1  484.55   29.40
  -4  -1  -1 1112.39   67.79
  -4  -1  -1 1080.49   67.69
  -4  -1  -1 1124.09   67.59
  -4  -1  -1 1053.59   67.79
   4   1   1  994.30   67.79
   4   1   1 1038.90   67.49
   4   1   1 1068.19   67.39
   4   1   1 1149.78   67.79
  -5  -1  -1  534.55   34.70
  -5  -1  -1  529.05   34.90
  -5  -1  -1  472.15   35.30
  -5  -1  -1  523.25   34.40
  -5  -1  -1  515.25   34.60
   5   1   1  588.24   34.80
   5   1   1  530.65   34.50
   5   1   1  509.25   34.90
   5   1   1  533.05   34.40
   5   1   1  578.54   36.10
  -6  -1  -1  147.49   12.50
  -6  -1  -1  168.08   12.30
  -6  -1  -1  183.68   13.70
  -6  -1  -1  150.58   12.30
  -6  -1  -1  153.68   13.20
   6   1   1  160.98   12.30
   6   1   1  150.08   11.80
   6   1   1  175.18   13.80
   6   1   1  156.58   12.60
   6   1   1  161.38   12.00
  -7  -1  -1  610.24   42.10
  -7  -1  -1  666.63   42.10
  -7  -1  -1  649.74   42.40
  -7  -1  -1  647.94   42.70
   7   1   1  653.83   43.50
   7   1   1  604.14   42.00
   7   1   1  643.94   41.80
  -8  -1  -1   70.09    8.10
  -8  -1  -1   70.79    8.60
  -8  -1  -1   74.09    8.20
  -8  -1  -1   86.59    8.30
   8   1   1   79.79    9.20
   8   1   1   83.49    9.50
   8   1   1   82.09    7.60
  -9  -1  -1   86.09    9.10
  -9  -1  -1   67.89    9.90
  -9  -1  -1   71.29    9.70
  -9  -1  -1   77.89    8.60
   9   1   1   69.69    8.30
   9   1   1   85.09    9.50
   9   1   1   97.89    8.30
 -10  -1  -1   53.09    8.20
 -10  -1  -1   61.79    8.30
 -10  -1  -1   44.70    7.90
 -10  -1  -1   47.40    8.00
  10   1   1   38.50   13.70
  10   1   1   42.20    6.80
  10   1   1   27.50    5.60
   9  -2  -1   20.80    5.00
   9  -2  -1   23.20    9.80
   9  -2  -1   24.10    5.10
  -9   2   1   22.70    5.40
  -9   2   1   20.70    5.70
  -9   2   1   22.30    5.70
  -9   2   1   23.20    5.00
   8  -2  -1   35.60    5.80
   8  -2  -1   32.70    6.30
   8  -2  -1   30.80   10.50
   8  -2  -1   54.09    5.80
  -8   2   1   36.50    6.30
  -8   2   1   37.20    5.40
  -8   2   1   36.10    5.80
  -8   2   1   40.30    6.90
  -8   2   1   41.30   10.60
   7  -2  -1  240.18   17.70
   7  -2  -1  224.78   16.60
   7  -2  -1  238.28   17.40
   7  -2  -1  245.98   18.70
  -7   2   1  242.58   17.60
  -7   2   1  228.68   18.30
  -7   2   1  245.88   18.40
  -7   2   1  242.48   16.90
  -7   2   1  228.18   18.10
  -7   2   1  232.58   17.60
   6  -2  -1   56.79    6.10
   6  -2  -1   56.59    5.90
   6  -2  -1   61.59    7.10
   6  -2  -1   51.89    5.20
  -6   2   1   51.89    6.20
  -6   2   1   47.60    6.20
  -6   2   1   58.59    5.40
  -6   2   1   64.99    7.30
  -6   2   1   51.39    6.40
  -6   2   1   54.29    6.00
   5  -2  -1  368.76   23.40
   5  -2  -1  377.76   24.10
   5  -2  -1  294.17   24.00
  -5   2   1  372.46   23.90
  -5   2   1  337.97   24.40
  -5   2   1  354.16   23.80
  -5   2   1  365.26   23.30
  -5   2   1  375.16   24.50
  -5   2   1  352.26   24.40
   4  -2  -1   87.29    7.30
   4  -2  -1   86.29    6.80
   4  -2  -1   91.19    7.50
   4  -2  -1   80.09    7.50
  -4   2   1   91.19    6.80
  -4   2   1   88.09    7.70
  -4   2   1  100.79    7.40
  -4   2   1   89.39    7.20
  -4   2   1   98.09    7.70
   3  -2  -1  171.68   12.00
   3  -2  -1  177.88   12.90
   3  -2  -1  175.38   12.70
   3  -2  -1  188.58   12.70
  -3   2   1  174.18   12.70
  -3   2   1  182.68   12.30
  -3   2   1  171.78   12.10
  -3   2   1  182.78   12.30
  -3   2   1  189.48   12.80
   2  -2  -1  158.68   10.80
   2  -2  -1  149.59   11.00
   2  -2  -1  167.78   11.10
   2  -2  -1  160.88   10.50
   2  -2  -1  145.99   10.20
  -2   2   1  154.68   10.20
  -2   2   1  155.98   11.00
  -2   2   1  161.98   10.70
  -2   2   1  167.68   10.70
  -2   2   1  171.38   11.20
   1  -2  -1 9999.00  587.14
  -1   2   1 8018.60  571.84
   0  -2  -1  140.79    8.90
   0  -2  -1  147.89    9.00
   0  -2  -1  132.39    8.90
   0  -2  -1  127.79    8.90
   0  -2  -1  134.59    9.40
   0   2   1  138.99    8.90
   0   2   1  119.49    9.10
   0   2   1  138.49    9.00
   0   2   1  144.99    8.90
   0   2   1  139.69    9.00
   0   2   1  141.79    9.50
  -1  -2  -1 5323.87  412.96
   1   2   1 7105.99  435.36
  -2  -2  -1    3.10    1.00
  -2  -2  -1    3.00    1.10
  -2  -2  -1    4.60    1.20
  -2  -2  -1    3.30    1.50
  -2  -2  -1    2.70    1.10
   2   2   1    7.90    1.40
   2   2   1    4.60    1.20
   2   2   1    3.90    1.00
   2   2   1    3.50    1.50
   2   2   1    2.00    0.90
  -3  -2  -1 3083.29  199.68
  -3  -2  -1 3286.97  198.78
   3   2   1 3299.37  198.58
  -4  -2  -1   44.80    4.60
  -4  -2  -1   44.90    4.80
  -4  -2  -1   54.79    4.70
  -4  -2  -1   42.80    4.70
   4   2   1   55.49    5.60
   4   2   1   51.39    4.60
   4   2   1   56.69    5.20
   4   2   1   52.49    4.70
   4   2   1   51.69    4.80
  -5  -2  -1  679.43   44.00
  -5  -2  -1  682.23   43.60
  -5  -2  -1  703.33   43.80
  -5  -2  -1  689.03   43.50
  -5  -2  -1  639.24   45.00
   5   2   1  749.53   43.80
   5   2   1  660.93   44.00
   5   2   1  678.83   44.60
   5   2   1  646.84   43.30
   5   2   1  655.23   43.40
  -6  -2  -1    3.60    2.10
  -6  -2  -1    2.30    2.30
  -6  -2  -1    1.70    1.80
  -6  -2  -1    0.50    1.80
  -6  -2  -1    2.40    2.30
   6   2   1    2.50    2.00
   6   2   1    0.70    2.30
   6   2   1    0.40    1.90
   6   2   1    1.10    1.60
   6   2   1    1.90    2.00
  -7  -2  -1  328.37   21.70
  -7  -2  -1  293.27   21.70
  -7  -2  -1  311.87   21.80
  -7  -2  -1  309.17   22.30
   7   2   1  310.47   21.10
   7   2   1  276.07   21.00
   7   2   1  309.17   21.70
  -8  -2  -1    2.40    2.70
  -8  -2  -1    1.30    2.90
  -8  -2  -1    4.80    2.90
   8   2   1   -0.20    2.20
   8   2   1    4.70    2.40
   8   2   1    0.80    2.90
  -9  -2  -1  193.88   15.80
  -9  -2  -1  214.78   17.00
  -9  -2  -1  218.18   16.30
   9   2   1  198.08   16.00
   9   2   1  199.08   14.90
   9   2   1  198.68   15.70
   9   2   1  169.58   25.50
   9  -3  -1    2.60    4.80
   9  -3  -1   -3.70    2.40
   9  -3  -1    2.20    3.60
  -9   3   1    0.40    3.10
  -9   3   1    0.50    3.00
  -9   3   1    0.30    3.70
  -9   3   1   -0.30    3.20
   8  -3  -1  202.18   17.40
   8  -3  -1  191.78   16.30
  -8   3   1  210.58   15.20
  -8   3   1  205.08   17.10
  -8   3   1  210.38   17.20
  -8   3   1  197.28   16.20
  -8   3   1  219.68   16.30
   7  -3  -1    0.80    2.20
   7  -3  -1    1.60    2.40
   7  -3  -1    3.30    3.00
  -7   3   1   -2.10    2.40
  -7   3   1    0.60    2.40
  -7   3   1   -1.10    2.30
  -7   3   1    2.50    2.00
  -7   3   1   -2.40    2.30
  -7   3   1   -1.60    2.30
   6  -3  -1  448.86   29.70
   6  -3  -1  423.76   29.50
   6  -3  -1  420.96   28.60
   6  -3  -1  390.86   29.80
  -6   3   1  429.66   30.10
  -6   3   1  460.75   30.20
  -6   3   1  434.16   29.30
  -6   3   1  434.46   29.40
  -6   3   1  441.06   30.20
  -6   3   1  456.55   28.50
   5  -3  -1    7.50    2.00
   5  -3  -1    9.60    2.90
   5  -3  -1    8.90    2.80
  -5   3   1    8.30    2.90
  -5   3   1    6.90    1.90
  -5   3   1   10.30    3.40
  -5   3   1    9.60    2.80
  -5   3   1    8.60    2.50
  -5   3   1   11.90    3.10
   4  -3  -1  807.92   60.59
   4  -3  -1  951.50   59.59
   4  -3  -1  966.70   60.59
   4  -3  -1  996.70   60.29
  -4   3   1  987.20   60.09
  -4   3   1  921.91   60.49
  -4   3   1  994.20   60.09
  -4   3   1  976.60   60.79
  -4   3   1  950.20   59.19
   3  -3  -1  123.19   10.70
   3  -3  -1  148.39   11.00
   3  -3  -1  145.99   10.10
  -3   3   1  138.99   10.80
  -3   3   1  157.48   10.60
  -3   3   1  150.98   11.10
  -3   3   1  145.99    9.60
  -3   3   1  158.78   10.50
   2  -3  -1 2657.03  207.38
  -2   3   1 2719.93  203.28
   1  -3  -1  237.68   16.20
   1  -3  -1  244.98   15.40
   1  -3  -1  240.08   16.10
   1  -3  -1  239.88   16.70
  -1   3   1  262.27   16.10
  -1   3   1  249.68   16.00
  -1   3   1  253.57   16.10
  -1   3   1  242.58   16.70
   0  -3  -1  401.26   27.00
   0  -3  -1  421.46   27.80
   0  -3  -1  433.76   27.10
   0  -3  -1  433.16   27.20
   0  -3  -1  428.06   26.90
   0   3   1  414.96   27.70
   0   3   1  430.86   27.10
   0   3   1  437.96   27.10
   0   3   1  426.96   26.90
   0   3   1  446.86   27.00
   0   3   1  436.46   27.60
  -1  -3  -1    3.30    1.10
  -1  -3  -1    3.60    1.20
  -1  -3  -1    1.70    0.80
  -1  -3  -1    4.10    1.10
  -1  -3  -1    2.70    0.50
  -1  -3  -1    3.00    1.40
   1   3   1    2.80    0.90
   1   3   1    1.30    0.90
   1   3   1    6.80    1.80
   1   3   1    3.90    1.00
   1   3   1    2.10    0.90
   1   3   1    1.30    1.40
  -2  -3  -1 1356.26   83.19
  -2  -3  -1 1282.97   84.09
  -2  -3  -1 1234.18   82.79
  -2  -3  -1 1374.46   83.09
  -2  -3  -1 1366.66   83.19
  -2  -3  -1 1357.56   83.29
   2   3   1 1351.56   83.29
   2   3   1 1397.76   83.99
   2   3   1 1459.65   83.19
   2   3   1 1276.57   83.09
   2   3   1 1300.67   83.29
  -3  -3  -1  569.34   34.30
  -3  -3  -1  497.55   35.40
  -3  -3  -1  563.74   34.30
  -3  -3  -1  535.65   34.40
  -3  -3  -1  569.24   34.60
   3   3   1  556.34   34.30
   3   3   1  499.55   34.50
   3   3   1  521.75   34.20
   3   3   1  529.35   34.40
  -4  -3  -1  817.72   52.69
  -4  -3  -1  814.22   54.29
  -4  -3  -1  839.12   52.99
  -4  -3  -1  834.02   53.99
  -4  -3  -1  855.91   52.89
   4   3   1  763.92   53.09
   4   3   1  869.71   53.79
   4   3   1  867.31   52.79
   4   3   1  775.22   52.49
   4   3   1  920.71   52.89
  -5  -3  -1   73.79    7.80
  -5  -3  -1   70.09    6.40
  -5  -3  -1   73.09    6.70
  -5  -3  -1   75.99    6.30
   5   3   1   75.99    6.40
   5   3   1   59.99    6.70
   5   3   1   62.49    6.50
   5   3   1   65.09    6.00
   5   3   1   69.39    6.10
  -6  -3  -1  303.37   21.30
  -6  -3  -1  291.57   21.70
  -6  -3  -1  303.97   21.50
  -6  -3  -1  317.27   21.20
  -6  -3  -1  295.47   23.10
   6   3   1  281.17   21.70
   6   3   1  317.37   21.10
   6   3   1  333.37   22.20
   6   3   1  312.77   21.30
   6   3   1  315.87   20.90
  -7  -3  -1  228.58   16.70
  -7  -3  -1  227.58   17.00
  -7  -3  -1  229.68   17.00
  -7  -3  -1  244.88   17.70
   7   3   1  235.78   16.80
   7   3   1  226.88   16.50
   7   3   1  252.07   17.70
   7   3   1  184.68   24.70
   7   3   1  220.58   16.10
  -8  -3  -1   49.00    7.40
  -8  -3  -1   44.50    6.50
  -8  -3  -1   55.89    6.90
  -8  -3  -1   48.40    6.20
   8   3   1   51.29    6.60
   8   3   1   38.20   12.70
   8   3   1   48.20    9.00
   8   3   1   48.70    5.30
  -9  -3  -1   69.69    8.80
  -9  -3  -1   71.69    8.40
  -9  -3  -1   90.29    8.70
  -9  -3  -1   81.99    9.50
   9   3   1   78.29    7.20
   9   3   1   79.39    8.40
   9   3   1   88.19   10.00
   9   3   1   61.99   16.90
   9  -4  -1   98.69   11.10
   9  -4  -1  122.59   11.80
   9  -4  -1   73.59   23.40
   9  -4  -1   80.29    9.60
  -9   4   1   83.89    9.60
  -9   4   1   95.39    9.80
  -9   4   1   98.99   11.40
  -9   4   1   87.19   10.80
   8  -4  -1    3.90    3.20
   8  -4  -1    4.60    3.80
   8  -4  -1   11.00    3.30
  -8   4   1    3.70    3.30
  -8   4   1    0.20    3.00
  -8   4   1    0.30    1.80
   7  -4  -1  135.19   13.70
   7  -4  -1  150.58   13.60
   7  -4  -1  176.08   14.00
  -7   4   1  180.38   14.80
  -7   4   1  169.98   13.80
  -7   4   1  166.18   12.20
  -7   4   1  174.98   14.50
  -7   4   1  177.68   13.60
   6  -4  -1   17.80    4.40
   6  -4  -1   28.00    5.00
   6  -4  -1   19.90    4.30
   6  -4  -1   25.10    3.80
  -6   4   1   27.00    4.90
  -6   4   1   20.60    4.60
  -6   4   1   27.60    4.70
  -6   4   1   25.20    4.80
  -6   4   1   26.10    5.40
  -6   4   1   22.70    3.30
   5  -4  -1  589.24   40.20
   5  -4  -1  603.54   40.60
   5  -4  -1  569.54   39.20
  -5   4   1  632.94   40.70
  -5   4   1  649.04   39.20
  -5   4   1  632.54   40.00
  -5   4   1  596.34   40.00
  -5   4   1  616.84   40.90
   4  -4  -1   26.40    4.40
   4  -4  -1   24.90    4.40
   4  -4  -1   28.20    4.40
   4  -4  -1   31.50    3.80
  -4   4   1   29.30    4.00
  -4   4   1   28.70    4.80
  -4   4   1   27.70    2.70
  -4   4   1   22.60    3.80
  -4   4   1   33.00    4.30
   3  -4  -1 1142.49   82.59
   3  -4  -1 1293.47   81.79
   3  -4  -1 1293.97   82.99
   3  -4  -1 1284.57   82.49
  -3   4   1 1372.36   83.19
  -3   4   1 1358.86   82.29
  -3   4   1 1405.26   80.99
  -3   4   1 1356.76   82.59
   2  -4  -1   31.20    3.50
   2  -4  -1   25.50    3.40
   2  -4  -1   27.50    2.20
   2  -4  -1   27.30    4.20
  -2   4   1   32.30    4.00
  -2   4   1   33.00    3.40
  -2   4   1   30.80    3.40
  -2   4   1   32.10    3.30
   1  -4  -1  978.50   66.39
   1  -4  -1 1022.30   65.39
   1  -4  -1 1020.40   65.99
   1  -4  -1 1049.30   65.69
   1  -4  -1 1115.49   65.79
  -1   4   1 1074.49   65.69
  -1   4   1 1039.80   66.49
  -1   4   1 1085.49   65.59
  -1   4   1 1081.29   65.69
   0  -4  -1   36.00    3.30
   0  -4  -1   38.30    4.10
   0  -4  -1   31.20    3.30
   0  -4  -1   30.00    3.80
   0  -4  -1   39.00    3.20
   0  -4  -1   38.20    3.50
   0   4   1   41.60    3.50
   0   4   1   36.40    3.20
   0   4   1   31.00    3.30
   0   4   1   41.90    4.20
   0   4   1   32.30    3.90
  -1  -4  -1  222.78   14.70
  -1  -4  -1  210.98   15.50
  -1  -4  -1  229.38   14.50
  -1  -4  -1  220.48   14.50
  -1  -4  -1  223.88   14.60
   1   4   1  226.78   15.40
   1   4   1  234.68   14.50
   1   4   1  203.08   13.80
   1   4   1  223.08   14.60
   1   4   1  231.88   14.90
   1   4   1  210.28   16.90
   1   4   1  214.28   14.70
  -2  -4  -1   93.99    8.40
  -2  -4  -1   99.79    7.70
  -2  -4  -1  111.89    7.50
  -2  -4  -1  111.59    7.60
  -2  -4  -1  103.69    7.00
  -2  -4  -1  100.29    7.60
   2   4   1   93.59   10.70
   2   4   1  100.19    7.60
   2   4   1  104.89    8.40
   2   4   1   88.39    8.30
   2   4   1  115.99    7.50
  -3  -4  -1    1.00    1.30
  -3  -4  -1    0.90    1.00
  -3  -4  -1   -0.20    1.10
  -3  -4  -1    0.40    1.20
  -3  -4  -1    1.20    1.40
   3   4   1   -0.90    1.00
   3   4   1   -0.60    1.60
   3   4   1    0.60    1.10
   3   4   1   -0.50    2.20
   3   4   1    1.40    1.40
   3   4   1    1.20    1.30
  -4  -4  -1    2.70    1.70
  -4  -4  -1    2.40    1.70
  -4  -4  -1    1.40    1.40
  -4  -4  -1    1.20    2.20
  -4  -4  -1    4.30    1.60
  -4  -4  -1    4.70    1.90
   4   4   1    3.00    1.80
   4   4   1    0.40    3.40
   4   4   1    4.40    1.70
   4   4   1    1.90    2.10
   4   4   1    2.80    1.50
   4   4   1    4.10    1.70
  -5  -4  -1    7.90    2.50
  -5  -4  -1   10.80    2.70
  -5  -4  -1    8.90    2.50
  -5  -4  -1   10.90    3.30
  -5  -4  -1    7.40    2.50
  -5  -4  -1   14.10    2.90
   5   4   1    8.20    2.50
   5   4   1    8.10    2.10
   5   4   1    6.50    2.80
   5   4   1    4.20    2.30
   5   4   1    2.00    4.10
  -6  -4  -1  354.26   22.50
  -6  -4  -1  332.47   22.60
  -6  -4  -1  310.27   24.40
  -6  -4  -1  297.17   22.40
  -6  -4  -1  320.37   22.90
  -6  -4  -1  339.47   22.50
   6   4   1  337.77   22.30
   6   4   1  339.27   23.90
   6   4   1  285.87   22.90
   6   4   1  291.87   31.00
   6   4   1  365.46   23.20
   6   4   1  316.67   22.30
  -7  -4  -1   29.00    4.90
  -7  -4  -1   21.80    5.50
  -7  -4  -1   26.50    4.80
  -7  -4  -1   24.90    4.90
  -7  -4  -1   26.10    4.80
  -7  -4  -1   38.80    5.30
   7   4   1   28.90    4.70
   7   4   1   23.50   10.60
   7   4   1   26.50    4.50
   7   4   1   24.80    4.00
  -8  -4  -1   68.79   12.30
  -8  -4  -1   91.09    8.90
  -8  -4  -1   87.39    8.70
   8   4   1   93.89    8.30
   8   4   1   86.89    8.50
  -9  -4  -1   16.00    4.40
  -9  -4  -1   19.90    4.80
  -9  -4  -1   13.60    4.50
  -9  -4  -1   14.10    3.80
   9   4   1   19.70    4.40
   9   4   1   13.20    2.70
   9   4   1   13.30    2.50
   9   4   1    8.90    8.80
   9  -5  -1    9.00    4.70
   9  -5  -1   -1.90    3.10
   9  -5  -1    0.60    4.90
  -9   5   1    8.90    4.30
  -9   5   1    0.00    4.20
  -9   5   1   -6.80    3.00
  -9   5   1    3.10    2.40
   8  -5  -1    2.60    3.10
   8  -5  -1    8.30    3.90
  -8   5   1    7.00    2.30
  -8   5   1   10.70    3.60
  -8   5   1    9.10    4.40
  -8   5   1    3.60    3.20
   7  -5  -1    4.30    2.90
   7  -5  -1    3.50    3.20
  -7   5   1    5.40    3.40
  -7   5   1    4.00    3.30
  -7   5   1    2.70    2.80
  -7   5   1    4.90    4.10
  -7   5   1    6.10    1.90
   6  -5  -1    2.20    2.80
   6  -5  -1    0.60    2.60
  -6   5   1   -1.20    2.70
  -6   5   1    1.30    2.80
  -6   5   1    0.60    2.50
  -6   5   1    1.50    2.40
  -6   5   1    3.60    1.60
   5  -5  -1   40.40    5.90
   5  -5  -1   32.10    4.40
   5  -5  -1   40.70    5.60
   5  -5  -1   30.40    5.60
  -5   5   1   37.70    5.40
  -5   5   1   41.20    3.50
  -5   5   1   45.60    6.90
  -5   5   1   36.50    5.60
   4  -5  -1   53.99    6.20
   4  -5  -1   43.00    4.80
   4  -5  -1   40.30    5.80
  -4   5   1   48.80    5.60
  -4   5   1   57.19    4.00
  -4   5   1   59.09    6.60
  -4   5   1   53.39    5.80
  -4   5   1   55.39    5.70
   3  -5  -1  356.66   26.70
   3  -5  -1  387.86   27.10
   3  -5  -1  393.26   25.70
   3  -5  -1  397.06   26.40
  -3   5   1  404.86   27.30
  -3   5   1  430.36   26.60
  -3   5   1  381.26   26.20
  -3   5   1  403.36   26.10
   2  -5  -1   12.00    2.20
   2  -5  -1    8.40    0.90
   2  -5  -1    8.70    2.80
   2  -5  -1    6.50    2.20
   2  -5  -1    8.90    2.40
  -2   5   1    9.90    2.40
  -2   5   1    4.10    2.00
  -2   5   1    6.20    1.90
  -2   5   1   11.30    2.40
   1  -5  -1  552.74   35.90
   1  -5  -1  561.64   35.50
   1  -5  -1  523.15   36.40
   1  -5  -1  518.55   35.70
  -1   5   1  574.44   36.50
  -1   5   1  562.94   35.50
  -1   5   1  560.74   35.30
  -1   5   1  578.04   35.40
   0  -5  -1  393.56   25.80
   0  -5  -1  420.76   26.40
   0  -5  -1  391.36   27.20
   0  -5  -1  390.66   26.10
   0   5   1  419.16   26.90
   0   5   1  399.36   26.00
   0   5   1  405.66   26.20
   0   5   1  409.16   25.90
   0   5   1  404.26   27.10
  -1  -5  -1  634.64   43.20
  -1  -5  -1  714.53   41.80
  -1  -5  -1  669.13   42.10
  -1  -5  -1  682.83   41.90
  -1  -5  -1  684.43   42.10
   1   5   1  579.54   42.00
   1   5   1  629.24   41.10
   1   5   1  683.73   41.80
   1   5   1  644.34   41.90
   1   5   1  675.63   44.90
   1   5   1  706.93   43.10
   1   5   1  664.53   42.20
  -2  -5  -1  947.61   67.39
  -2  -5  -1 1155.08   66.29
  -2  -5  -1 1120.59   65.39
  -2  -5  -1 1036.60   66.29
  -2  -5  -1 1130.19   66.19
  -2  -5  -1 1040.30   66.39
   2   5   1 1075.19   67.19
   2   5   1  959.40   66.19
   2   5   1 1095.89   65.99
   2   5   1 1096.49   66.29
   2   5   1  989.50   70.59
   2   5   1 1036.90   66.49
  -3  -5  -1 1090.29   67.99
  -3  -5  -1 1176.28   67.79
  -3  -5  -1 1067.19   67.09
  -3  -5  -1 1098.19   67.89
  -3  -5  -1  981.80   69.09
   3   5   1 1153.08   67.59
   3   5   1 1048.60   67.99
   3   5   1 1065.79   67.99
   3   5   1  983.40   73.59
   3   5   1 1227.48   68.89
   3   5   1  986.00   67.49
  -4  -5  -1  463.85   31.60
  -4  -5  -1  506.95   31.70
  -4  -5  -1  546.15   32.30
  -4  -5  -1  482.45   31.50
  -4  -5  -1  470.95   31.00
  -4  -5  -1  417.46   32.80
   4   5   1  449.56   31.80
   4   5   1  454.05   38.70
   4   5   1  538.25   32.30
   4   5   1  518.35   31.20
   4   5   1  481.25   31.50
   4   5   1  454.75   31.10
  -5  -5  -1  288.97   20.30
  -5  -5  -1  317.07   20.40
  -5  -5  -1  277.17   20.40
  -5  -5  -1  309.17   20.80
  -5  -5  -1  264.27   22.00
  -5  -5  -1  287.37   20.20
   5   5   1  328.57   20.20
   5   5   1  287.17   20.20
   5   5   1  271.97   20.80
   5   5   1  269.37   28.20
   5   5   1  339.07   21.10
  -6  -5  -1  281.67   23.80
  -6  -5  -1  301.07   21.90
  -6  -5  -1  294.17   21.90
  -6  -5  -1  332.37   21.90
  -6  -5  -1  326.47   22.50
  -6  -5  -1  325.47   21.90
   6   5   1  344.77   21.70
   6   5   1  305.37   21.60
   6   5   1  294.37   23.10
   6   5   1  336.47   22.20
   6   5   1  311.97   32.00
  -7  -5  -1  101.59    9.30
  -7  -5  -1   90.79    9.30
  -7  -5  -1  105.89    9.50
  -7  -5  -1   99.69   11.10
  -7  -5  -1  120.79   10.00
  -7  -5  -1  102.09    9.90
   7   5   1   96.39   17.90
   7   5   1  101.59    9.00
   7   5   1  115.19    9.20
  -8  -5  -1   51.69    6.70
  -8  -5  -1   48.80    7.60
  -8  -5  -1   52.09    6.90
  -8  -5  -1   45.50    6.80
   8   5   1   56.69    6.30
   8   5   1   47.20   15.00
   8   5   1   49.70    5.30
   8   5   1   55.99    5.10
  -9  -5  -1   53.59    8.10
  -9  -5  -1   65.39    7.40
  -9  -5  -1   54.39    7.40
   9   5   1   42.30   15.00
   9   5   1   64.29    7.10
   8  -6  -1   39.90    8.70
   8  -6  -1   37.50    7.00
  -8   6   1   41.10    7.30
  -8   6   1   39.30    4.40
  -8   6   1   43.50    7.70
  -8   6   1   37.10    7.80
   7  -6  -1    2.60    3.20
   7  -6  -1    0.60    2.90
  -7   6   1    2.80    1.60
  -7   6   1   -0.30    3.10
  -7   6   1    3.70    3.40
  -7   6   1    6.30    3.20
  -7   6   1    2.40    3.30
   6  -6  -1  152.48   14.00
   6  -6  -1  180.48   14.80
   6  -6  -1  137.39   14.30
  -6   6   1  192.78   15.60
  -6   6   1  181.98   15.20
  -6   6   1  158.28   14.10
  -6   6   1  178.08   11.60
   5  -6  -1  110.79   10.60
   5  -6  -1   95.19    9.70
   5  -6  -1   99.89    8.80
   5  -6  -1   95.79   10.40
  -5   6   1  119.49    7.50
  -5   6   1  107.19    9.90
  -5   6   1  116.19    9.80
  -5   6   1  106.09   10.80
  -5   6   1  110.59   10.00
   4  -6  -1  410.96   31.60
   4  -6  -1  479.45   32.20
   4  -6  -1  419.76   31.00
   4  -6  -1  411.76   30.00
  -4   6   1  455.95   31.10
  -4   6   1  516.25   31.60
  -4   6   1  495.75   31.00
  -4   6   1  509.05   32.60
   3  -6  -1  338.87   24.70
   3  -6  -1  355.16   25.70
   3  -6  -1  364.66   24.00
   3  -6  -1  331.97   25.30
  -3   6   1  363.86   24.70
  -3   6   1  370.16   25.80
  -3   6   1  410.76   25.00
  -3   6   1  367.66   24.60
   2  -6  -1  532.95   37.70
   2  -6  -1  509.85   38.10
   2  -6  -1  562.14   37.30
   2  -6  -1  640.14   37.50
  -2   6   1  572.44   38.30
  -2   6   1  591.84   37.20
  -2   6   1  551.54   37.10
  -2   6   1  606.44   37.20
   1  -6  -1  803.32   57.39
   1  -6  -1  882.51   56.39
   1  -6  -1  873.81   56.89
   1  -6  -1  893.31   57.39
   1  -6  -1  852.91   58.09
  -1   6   1  937.91   56.99
  -1   6   1  941.91   58.19
  -1   6   1  905.71   56.79
  -1   6   1  931.01   56.39
  -1   6   1  973.40   56.89
   0  -6  -1  471.15   31.60
   0  -6  -1  476.05   32.90
   0  -6  -1  494.05   32.70
   0  -6  -1  460.95   31.10
   0   6   1  479.45   31.20
   0   6   1  486.85   31.70
   0   6   1  503.25   31.40
   0   6   1  506.65   31.60
   0   6   1  509.95   32.80
  -1  -6  -1  218.08   16.70
  -1  -6  -1  223.78   15.40
  -1  -6  -1  233.68   15.10
  -1  -6  -1  220.28   15.20
   1   6   1  204.18   15.10
   1   6   1  229.38   15.70
   1   6   1  231.68   17.50
   1   6   1  215.98   14.30
   1   6   1  243.28   18.50
  -2  -6  -1  528.05   34.40
  -2  -6  -1  487.95   35.70
  -2  -6  -1  530.65   34.50
  -2  -6  -1  558.74   34.30
   2   6   1  468.35   34.20
   2   6   1  533.95   39.10
   2   6   1  579.64   34.10
   2   6   1  526.15   34.30
   2   6   1  570.74   35.40
   2   6   1  539.25   34.70
  -3  -6  -1   24.80    4.80
  -3  -6  -1   28.00    3.70
  -3  -6  -1   23.00    3.60
  -3  -6  -1   20.70    2.50
  -3  -6  -1   22.10    3.70
  -3  -6  -1   27.00    3.40
   3   6   1   24.00    3.10
   3   6   1   25.20    4.20
   3   6   1   25.20    7.10
   3   6   1   17.60    3.20
   3   6   1   28.70    3.50
   3   6   1   28.30    4.00
  -4  -6  -1  194.28   16.70
  -4  -6  -1  235.38   15.20
  -4  -6  -1  215.78   14.40
  -4  -6  -1  211.18   15.20
  -4  -6  -1  233.98   15.40
  -4  -6  -1  186.78   15.20
   4   6   1  191.48   21.60
   4   6   1  191.38   14.60
   4   6   1  206.08   15.50
   4   6   1  234.78   15.90
   4   6   1  230.78   14.80
  -5  -6  -1   93.19    7.70
  -5  -6  -1   73.29    7.10
  -5  -6  -1   58.19    6.80
  -5  -6  -1   64.39    8.30
  -5  -6  -1   73.79    6.50
  -5  -6  -1   77.59    7.00
   5   6   1   82.59   14.20
   5   6   1   79.09    6.70
   5   6   1   73.09    6.80
   5   6   1   69.39    6.40
   5   6   1   80.09    7.40
   5   6   1   66.29    7.20
  -6  -6  -1  200.48   14.80
  -6  -6  -1  200.18   14.50
  -6  -6  -1  182.78   16.90
  -6  -6  -1  186.78   15.00
  -6  -6  -1  189.58   14.50
   6   6   1  208.98   14.80
   6   6   1  187.78   24.10
   6   6   1  205.18   14.30
  -7  -6  -1   42.60    6.90
  -7  -6  -1   40.50    6.00
  -7  -6  -1   44.70    6.60
  -7  -6  -1   45.60    6.20
  -7  -6  -1   51.09    6.10
   7   6   1   47.70    5.60
   7   6   1   40.00    4.50
   7   6   1   26.30   11.40
   7   6   1   45.80    5.10
  -8  -6  -1   49.50    7.60
  -8  -6  -1   53.59    6.70
  -8  -6  -1   61.49    7.10
  -8  -6  -1   67.59    7.30
   8   6   1   58.59    4.80
   8   6   1   55.39    4.60
   8   6   1   50.29   15.80
   8   6   1   54.99    6.50
   8  -7  -1   31.20    7.10
   8  -7  -1   27.50    8.30
  -8   7   1   44.70    8.70
  -8   7   1   34.50    3.90
  -8   7   1   31.60    6.60
  -8   7   1   35.40    7.00
   7  -7  -1   86.99   11.30
   7  -7  -1   79.29   13.60
  -7   7   1  103.59   10.80
  -7   7   1   95.89   11.20
  -7   7   1   85.89   11.60
   6  -7  -1   90.19   10.40
   6  -7  -1   90.49   10.00
  -6   7   1  117.49   18.00
  -6   7   1  101.79    9.60
   5  -7  -1  189.98   15.60
   5  -7  -1  178.38   17.30
   5  -7  -1  180.58   17.50
  -5   7   1  197.78   15.10
  -5   7   1  200.68   15.70
  -5   7   1  209.58   16.80
   4  -7  -1  126.99   12.10
   4  -7  -1  122.89   12.00
   4  -7  -1  130.09   10.30
   4  -7  -1  111.49   11.20
  -4   7   1  159.18   11.70
  -4   7   1  137.69   13.70
  -4   7   1  137.09   11.60
  -4   7   1  149.39   12.90
   3  -7  -1  259.27   21.00
   3  -7  -1  267.97   20.40
  -3   7   1  295.97   21.70
  -3   7   1  299.87   20.50
  -3   7   1  316.67   20.40
   2  -7  -1   72.99    6.20
   2  -7  -1   81.69    7.90
   2  -7  -1   73.99    7.60
   2  -7  -1   67.29    7.00
   2  -7  -1   69.69    6.90
  -2   7   1   82.39    6.90
  -2   7   1   61.79    7.80
  -2   7   1   78.09    7.20
  -2   7   1   74.69    6.20
  -2   7   1   75.79    6.90
   1  -7  -1  381.56   26.80
   1  -7  -1  411.86   26.50
   1  -7  -1  359.06   27.50
   1  -7  -1  379.56   25.70
  -1   7   1  408.46   25.80
  -1   7   1  385.66   27.50
  -1   7   1  404.16   26.40
  -1   7   1  404.46   26.30
  -1   7   1  407.46   26.10
   0  -7  -1   48.50    5.60
   0  -7  -1   65.99    6.10
   0  -7  -1   55.89    6.60
   0  -7  -1   58.29    5.30
   0   7   1   67.59    6.90
   0   7   1   62.39    5.70
   0   7   1   63.19    5.80
   0   7   1   58.99    5.90
   0   7   1   56.29    5.30
  -1  -7  -1  659.83   41.20
  -1  -7  -1  679.63   41.60
  -1  -7  -1  585.64   42.90
  -1  -7  -1  631.54   41.20
  -1  -7  -1  631.04   41.40
   1   7   1  749.92   45.50
   1   7   1  697.43   41.30
   1   7   1  542.85   41.30
   1   7   1  603.54   41.10
   1   7   1  630.44   41.70
   1   7   1  699.33   42.90
   1   7   1  623.24   40.20
  -2  -7  -1  176.78   11.40
  -2  -7  -1  154.68   11.60
  -2  -7  -1  154.28   11.50
  -2  -7  -1  150.08   11.60
  -2  -7  -1  137.79   12.80
   2   7   1  150.48   11.90
   2   7   1  158.68   11.10
   2   7   1  162.98   16.00
   2   7   1  151.28   11.50
   2   7   1  139.39   11.30
  -3  -7  -1  351.36   22.40
  -3  -7  -1  286.57   24.00
  -3  -7  -1  333.47   22.50
  -3  -7  -1  292.87   23.60
  -3  -7  -1  363.36   22.50
   3   7   1  374.66   23.60
   3   7   1  321.27   22.20
   3   7   1  355.56   22.10
   3   7   1  290.57   22.40
   3   7   1  321.97   22.90
   3   7   1  342.77   29.10
  -4  -7  -1  261.87   17.20
  -4  -7  -1  257.87   17.40
  -4  -7  -1  261.97   17.40
  -4  -7  -1  250.07   16.20
  -4  -7  -1  206.28   18.80
   4   7   1  228.58   16.70
   4   7   1  226.58   17.50
   4   7   1  230.28   24.30
   4   7   1  219.28   17.70
   4   7   1  254.57   17.90
   4   7   1  273.57   16.90
  -5  -7  -1   36.10    5.00
  -5  -7  -1   37.00    4.10
  -5  -7  -1   33.20    5.00
  -5  -7  -1   38.00    5.40
  -5  -7  -1   28.70    6.80
  -5  -7  -1   40.50    5.40
   5   7   1   41.80    5.30
   5   7   1   36.90   11.00
   5   7   1   32.80    5.50
   5   7   1   46.80    4.70
   5   7   1   37.20    5.00
   5   7   1   27.20    4.00
  -6  -7  -1  153.28   11.60
  -6  -7  -1  131.59   11.60
  -6  -7  -1  148.59   11.70
  -6  -7  -1  140.59   11.90
  -6  -7  -1  123.69   13.30
  -6  -7  -1  134.09   10.70
   6   7   1  131.69   20.20
   6   7   1  150.08   11.00
   6   7   1  145.59   11.10
  -7  -7  -1    1.40    2.80
  -7  -7  -1   -1.90    4.60
  -7  -7  -1    2.10    2.40
  -7  -7  -1    7.10    3.10
   7   7   1    3.30    2.40
   7   7   1    2.90    1.90
   7   7   1    2.50    1.60
   7   7   1   -0.10    6.70
  -8  -7  -1   54.29    7.20
  -8  -7  -1   42.50    6.70
  -8  -7  -1   69.29    7.60
  -8  -7  -1   45.80    7.50
   8   7   1   64.09   17.10
   8   7   1   74.79    6.90
   7  -8  -1   -2.10    3.70
   7  -8  -1   -2.70    3.30
  -7   8   1    1.30    4.00
  -7   8   1    1.00    3.70
   6  -8  -1   20.80    5.60
   6  -8  -1   22.30    6.30
  -6   8   1   30.80    7.00
  -6   8   1   31.80    8.90
   5  -8  -1    2.90    3.20
   5  -8  -1    6.70    3.50
  -5   8   1    1.30    3.30
  -5   8   1    2.80    4.00
   4  -8  -1   93.49    9.40
   4  -8  -1   84.29    9.90
  -4   8   1   97.89   10.60
  -4   8   1   98.99    9.10
  -4   8   1   91.59   12.80
   3  -8  -1    5.90    2.20
   3  -8  -1    6.60    2.50
   3  -8  -1   10.30    3.60
   3  -8  -1    9.00    3.40
   3  -8  -1    6.10    3.30
  -3   8   1    6.30    2.90
  -3   8   1    4.60    3.00
  -3   8   1    5.60    2.90
  -3   8   1    9.20    2.50
  -3   8   1    6.70    3.80
   2  -8  -1   19.90    3.80
   2  -8  -1   26.00    5.20
   2  -8  -1   30.20    3.90
   2  -8  -1   22.50    4.50
   2  -8  -1   29.30    5.50
  -2   8   1   24.40    4.60
  -2   8   1   30.70    4.60
  -2   8   1   29.30    5.70
  -2   8   1   28.10    4.60
  -2   8   1   25.60    3.50
   1  -8  -1   77.89    6.60
   1  -8  -1   81.29    7.40
   1  -8  -1   71.49    8.40
   1  -8  -1   68.29    5.10
   1  -8  -1   62.09    7.50
   1  -8  -1   78.89    7.80
  -1   8   1   73.39    7.60
  -1   8   1   88.69    7.50
  -1   8   1   83.29    7.00
  -1   8   1   80.89    6.60
  -1   8   1   97.69    9.00
   0  -8  -1    9.50    3.40
   0  -8  -1    8.60    3.00
   0  -8  -1    8.80    2.50
   0  -8  -1    4.50    2.30
   0   8   1    5.80    3.00
   0   8   1    6.50    4.30
   0   8   1    7.60    2.20
   0   8   1    7.20    2.70
   0   8   1    6.20    2.70
   0   8   1    7.80    1.70
  -1  -8  -1  301.07   20.90
  -1  -8  -1  301.77   21.20
  -1  -8  -1  312.47   21.50
  -1  -8  -1  344.67   21.90
  -1  -8  -1  318.57   23.50
   1   8   1  309.67   21.10
   1   8   1  285.17   21.40
   1   8   1  296.07   19.90
   1   8   1  348.17   23.00
   1   8   1  317.57   21.90
  -2  -8  -1   47.20    5.80
  -2  -8  -1   51.69    6.90
  -2  -8  -1   52.29    5.40
  -2  -8  -1   53.49    5.80
  -2  -8  -1   56.79    5.80
   2   8   1   46.80    5.50
   2   8   1   51.99    6.60
   2   8   1   55.49    6.80
   2   8   1   60.49    9.90
   2   8   1   53.19    5.60
  -3  -8  -1  191.78   13.20
  -3  -8  -1  160.18   13.60
  -3  -8  -1  170.58   13.20
  -3  -8  -1  184.38   13.30
   3   8   1  159.08   13.30
   3   8   1  189.38   14.20
   3   8   1  164.28   12.90
   3   8   1  159.58   13.60
   3   8   1  192.68   19.70
   3   8   1  191.38   12.90
  -4  -8  -1  221.88   16.10
  -4  -8  -1  236.28   16.20
  -4  -8  -1  183.18   16.30
  -4  -8  -1  251.37   16.20
  -4  -8  -1  193.28   17.90
   4   8   1  232.18   24.00
   4   8   1  255.17   17.00
   4   8   1  196.68   15.30
   4   8   1  233.48   15.60
   4   8   1  189.18   16.20
  -5  -8  -1   79.89    7.90
  -5  -8  -1   79.79    6.50
  -5  -8  -1   88.59    7.70
  -5  -8  -1   75.69    7.80
  -5  -8  -1   63.29    7.90
  -5  -8  -1   76.09    9.70
   5   8   1   89.59    9.70
   5   8   1   83.69    7.20
   5   8   1   68.99    6.80
   5   8   1   91.39   15.50
  -6  -8  -1  154.18   12.00
  -6  -8  -1  134.49   11.70
  -6  -8  -1  135.29   13.40
  -6  -8  -1  132.39   10.60
  -6  -8  -1  140.99   12.20
   6   8   1  136.39   11.00
   6   8   1  156.18   11.20
  -7  -8  -1   26.70    5.10
  -7  -8  -1   28.50    5.50
  -7  -8  -1   27.00    4.80
  -7  -8  -1   20.40    4.90
   7   8   1   26.50    2.90
   7   8   1   20.60   10.50
   7   8   1   33.30    4.70
   7   8   1   23.70    2.80
   7  -9  -1    6.30    3.80
   7  -9  -1   -0.60    4.20
  -7   9   1    4.40    4.10
  -7   9   1   -0.10    4.50
   6  -9  -1   50.09   11.70
   6  -9  -1   34.40    7.60
  -6   9   1   54.89    9.30
  -6   9   1   70.49    9.70
   5  -9  -1    7.20    5.60
   5  -9  -1    5.00    7.20
  -5   9   1    9.70    4.80
  -5   9   1    4.70    4.10
   4  -9  -1  108.89   10.90
   4  -9  -1  116.49   10.30
  -4   9   1  117.49   11.20
  -4   9   1  135.69   21.70
   3  -9  -1   74.59    9.20
   3  -9  -1   76.29    8.40
   3  -9  -1   76.29    7.70
  -3   9   1  104.39   10.40
  -3   9   1   84.09    8.80
   2  -9  -1  153.18   13.00
   2  -9  -1  128.49   12.40
   2  -9  -1  158.68   12.00
   2  -9  -1  148.99   13.70
  -2   9   1  182.18   14.80
  -2   9   1  184.38   12.10
  -2   9   1  183.28   13.00
  -2   9   1  154.58   13.00
   1  -9  -1  164.48   13.20
   1  -9  -1  137.49    9.60
   1  -9  -1  155.38   11.60
   1  -9  -1  148.49   12.30
  -1   9   1  175.28   14.10
  -1   9   1  150.68   12.20
  -1   9   1  151.28   11.40
  -1   9   1  157.98   11.90
   0  -9  -1  178.58   14.90
   0  -9  -1  156.18   13.00
   0  -9  -1  155.48   12.30
   0  -9  -1  148.09   11.10
   0  -9  -1  174.28   13.60
   0   9   1  181.78   11.40
   0   9   1  171.38   13.00
   0   9   1  179.78   14.50
   0   9   1  157.78   12.20
   0   9   1  164.18   13.90
  -1  -9  -1  295.47   22.40
  -1  -9  -1  314.27   24.70
  -1  -9  -1  332.67   22.40
   1   9   1  303.07   20.80
   1   9   1  383.76   24.40
   1   9   1  335.37   22.50
   1   9   1  298.77   22.10
   1   9   1  351.86   22.80
  -2  -9  -1   55.39    6.30
  -2  -9  -1   59.49    6.00
  -2  -9  -1   68.29    6.70
  -2  -9  -1   55.89    6.40
  -2  -9  -1   60.69    8.10
   2   9   1   55.59    6.30
   2   9   1   69.69   10.70
   2   9   1   56.89    7.00
   2   9   1   55.29    6.20
   2   9   1   45.40    6.20
  -3  -9  -1  327.87   21.40
  -3  -9  -1  270.17   21.40
  -3  -9  -1  322.67   20.80
  -3  -9  -1  272.47   23.40
  -3  -9  -1  290.17   21.00
   3   9   1  284.57   20.60
   3   9   1  337.37   28.60
   3   9   1  251.97   20.80
   3   9   1  328.27   22.20
  -4  -9  -1   90.19    7.80
  -4  -9  -1   64.59    8.00
  -4  -9  -1   89.09    8.00
  -4  -9  -1   70.69    7.40
   4   9   1   71.59    7.40
   4   9   1   91.49   14.70
   4   9   1   67.19    6.60
   4   9   1   73.09    7.80
  -5  -9  -1   64.49    7.60
  -5  -9  -1   77.29    7.50
  -5  -9  -1   87.09    8.10
  -5  -9  -1   59.39    8.60
   5   9   1   78.49    7.20
   5   9   1   65.99    6.50
   5   9   1   81.09   15.50
  -6  -9  -1   67.89    7.70
  -6  -9  -1   53.59    5.50
  -6  -9  -1   53.29    7.20
  -6  -9  -1   54.19    7.80
   6   9   1   63.19    6.40
   6   9   1   51.69    5.70
  -7  -9  -1   19.60    3.70
  -7  -9  -1   29.30    5.50
  -7  -9  -1   39.70    6.00
  -7  -9  -1   20.60    4.90
  -7  -9  -1   30.00    5.40
   7   9   1   26.90   12.40
   7   9   1   27.00    4.60
   6 -10  -1   50.49    9.80
   6 -10  -1   52.29    9.70
   6 -10  -1   50.89    8.60
  -6  10   1   55.89    9.20
  -6  10   1   52.89    9.60
   5 -10  -1   35.80    5.40
   5 -10  -1   27.70    6.40
   5 -10  -1   32.00    7.70
  -5  10   1   35.70    7.60
  -5  10   1   42.90    7.60
   4 -10  -1   56.69    6.10
   4 -10  -1   78.19    9.80
  -4  10   1   58.69    9.60
  -4  10   1   72.09    9.40
   3 -10  -1   49.50    5.70
   3 -10  -1   47.70    7.50
   3 -10  -1   78.69    9.40
  -3  10   1   72.89    8.10
   2 -10  -1   52.39    8.90
  -2  10   1   47.70    5.70
  -2  10   1   63.49    9.10
  -2  10   1   51.59    7.40
   1 -10  -1  117.79    9.70
   1 -10  -1  111.49   10.60
   1 -10  -1  119.09   11.40
  -1  10   1  121.69   10.80
  -1  10   1  126.29   12.20
   0 -10  -1   94.39    9.30
   0 -10  -1   84.49    6.90
   0 -10  -1  107.49   10.00
   0  10   1  102.59   11.70
   0  10   1  107.09   10.70
   0  10   1   99.69    8.90
   0  10   1  104.19    7.30
   0  10   1   95.89    9.10
  -1 -10  -1   86.39    8.50
  -1 -10  -1   68.59    6.40
  -1 -10  -1   80.89    7.60
  -1 -10  -1   77.59    8.10
   1  10   1   85.39    9.20
   1  10   1   72.79    7.50
   1  10   1   68.49    7.30
   1  10   1   79.99    5.80
   1  10   1   87.79    8.00
  -2 -10  -1   38.70    5.20
  -2 -10  -1   49.70    6.20
  -2 -10  -1   57.39    6.40
  -2 -10  -1   42.80    4.80
   2  10   1   49.60    7.50
   2  10   1   55.29   10.30
   2  10   1   42.70    6.10
   2  10   1   30.20    5.20
  -3 -10  -1   66.49    6.70
  -3 -10  -1   59.49    7.20
  -3 -10  -1   56.09    6.80
  -3 -10  -1   48.20    7.10
   3  10   1   59.29    6.30
   3  10   1   60.79    6.70
   3  10   1   60.29   11.60
   3  10   1   65.19    7.80
  -4 -10  -1   50.29    7.60
  -4 -10  -1   61.19    7.90
  -4 -10  -1   68.09    7.20
  -4 -10  -1   59.09    8.20
   4  10   1   69.69    7.70
   4  10   1   62.89    7.10
   4  10   1   75.89   14.30
  -5 -10  -1   17.80    4.40
  -5 -10  -1    7.30    3.50
  -5 -10  -1   20.20    4.40
  -5 -10  -1   16.50    4.20
   5  10   1   14.10    3.80
   5  10   1   11.20    2.80
  -6 -10  -1   47.90    7.30
  -6 -10  -1   93.19    8.00
  -6 -10  -1   77.29    8.20
  -6 -10  -1   73.29    7.80
   6  10   1   70.39    5.70
   6  10   1   43.00   14.00
   6  10   1   69.59    5.90
   6  10   1   61.99    7.00
   5 -11  -1    2.10    4.10
   5 -11  -1   -6.30    3.20
  -5  11   1   -0.20    3.80
  -5  11   1   -2.20    4.00
   4 -11  -1   22.80    5.90
   4 -11  -1   31.40    7.90
  -4  11   1   36.00    7.00
  -4  11   1   35.10    7.90
   3 -11  -1    2.60    3.70
   3 -11  -1    7.00    4.60
  -3  11   1    4.00    4.10
  -3  11   1    6.60    4.20
   2 -11  -1   32.20    6.40
   2 -11  -1   41.20    7.70
  -2  11   1   35.00    6.50
  -2  11   1   49.00    8.80
  -2  11   1   45.40    5.80
   1 -11  -1   20.60    5.20
   1 -11  -1   19.90    5.00
  -1  11   1   22.30    3.10
  -1  11   1   18.50    3.90
  -1  11   1   30.50    6.70
  -1  11   1   18.50    4.80
   0 -11  -1   23.70    5.10
   0 -11  -1   22.40    2.70
   0 -11  -1   25.60    4.50
   0  11   1   27.20    4.60
   0  11   1   35.20    5.90
   0  11   1   31.30    3.20
   0  11   1   37.60    7.00
  -1 -11  -1   23.30    5.40
  -1 -11  -1   29.00    5.50
  -1 -11  -1   21.20    3.10
  -1 -11  -1   27.70    4.70
   1  11   1   24.70    5.00
   1  11   1   40.80    7.00
   1  11   1   20.30    4.20
  -2 -11  -1    3.00    3.20
  -2 -11  -1    4.40    2.10
  -2 -11  -1    7.30    3.70
  -2 -11  -1    3.30    3.80
   2  11   1    6.70    3.90
   2  11   1    0.20    2.20
   2  11   1    5.60    3.30
  -3 -11  -1   68.19    7.50
  -3 -11  -1   66.99    6.80
  -3 -11  -1   70.29    7.70
  -3 -11  -1   74.79    9.80
  -3 -11  -1   77.99    8.10
   3  11   1   72.89    8.10
   3  11   1   74.09    7.90
   3  11   1   85.79    9.00
  -4 -11  -1    7.00    3.70
  -4 -11  -1   11.60    3.80
  -4 -11  -1    6.50    3.20
  -4 -11  -1    7.00    2.80
   4  11   1   10.90    2.60
   4  11   1    2.80    6.60
   4  11   1   10.70    3.80
   4  11   1    1.80    2.90
   3 -12  -1    3.20    4.00
   3 -12  -1    4.50    3.60
  -3  12   1   -1.00    3.90
  -3  12   1   -4.50    3.70
   2 -12  -1    9.00    4.70
   2 -12  -1   15.70    5.20
  -2  12   1   22.30    8.20
  -2  12   1   15.60    5.60
   1 -12  -1   51.99    8.50
   1 -12  -1   50.59    7.90
  -1  12   1   59.39    9.60
  -1  12   1   46.50    8.10
  -1  12   1   54.89    5.10
   0 -12  -1   18.70    5.50
   0 -12  -1   13.90    4.20
   0 -12  -1   11.30    1.60
   0  12   1   13.80    2.10
   0  12   1   13.30    4.50
   0  12   1   17.60    5.80
  -1 -12  -1   75.69    6.50
  -1 -12  -1   62.09    8.90
  -1 -12  -1   82.19    9.50
   1  12   1  101.69    9.60
   1  12   1   85.69    9.90
  -2 -12  -1   12.40    4.40
  -2 -12  -1   15.30    4.80
  -2 -12  -1   13.90    4.80
  -2 -12  -1   21.10    3.20
   2  12   1   17.10    5.20
   2  12   1   14.00    4.40
  -3 -12  -1   47.10    7.70
  -3 -12  -1   66.09    8.20
  -3 -12  -1   87.09    7.90
   3  12   1   51.99    7.70
   3  12   1   63.79    6.90
   3  12   1   67.99    8.40
   3  11  -2    6.50    3.70
   3  11  -2   18.50    4.40
  -3 -11   2   13.20    3.20
  -3 -11   2   20.40    4.50
  -3 -11   2   26.00    5.40
  -3 -11   2   20.70    4.60
   2  11  -2   47.90    4.40
   2  11  -2   32.90    4.90
   2  11  -2   27.10    4.80
   2  11  -2   37.00    5.80
  -2 -11   2   36.30    4.20
  -2 -11   2   42.10    6.50
  -2 -11   2   27.30    5.60
  -2 -11   2   42.10    5.80
   1  11  -2    3.50    2.30
   1  11  -2   -1.10    2.10
   1  11  -2    1.10    2.90
   1  11  -2    2.10    2.10
   1  11  -2    5.20    2.70
  -1 -11   2    4.80    3.40
  -1 -11   2    1.40    1.40
  -1 -11   2    4.30    3.50
  -1 -11   2    2.30    2.50
   0  11  -2   28.10    5.40
   0  11  -2   22.10    3.80
   0  11  -2   22.30    3.90
   0  11  -2   22.80    5.40
   0  11  -2   20.20    4.20
   0 -11   2   16.10    4.60
   0 -11   2   20.50    4.00
   0 -11   2   23.20    5.60
   0 -11   2    9.30    5.50
  -1  11  -2   -3.30    1.80
  -1  11  -2    0.90    2.10
  -1  11  -2    0.00    3.00
  -1  11  -2   -0.40    3.40
   1 -11   2   -3.60    3.30
   1 -11   2   -4.80    2.20
   1 -11   2    0.30    3.30
   1 -11   2   -1.40    3.00
  -2  11  -2   -2.20    3.00
  -2  11  -2    2.70    3.70
  -2  11  -2   -2.90    1.90
   2 -11   2   -4.50    3.30
   2 -11   2   -4.40    2.70
   2 -11   2   -4.40    2.90
  -3  11  -2    7.10    4.50
  -3  11  -2   -1.60    3.50
   3 -11   2    5.10    4.00
   3 -11   2   -3.20    4.10
   3 -11   2   -0.10    3.10
   4  10  -2   -2.50    2.00
  -4 -10   2   -0.80    2.30
  -4 -10   2   -0.50    2.40
  -4 -10   2    3.80    3.10
   3  10  -2   10.80    3.40
   3  10  -2   11.90    3.40
   3  10  -2   12.10    1.60
  -3 -10   2   11.20    3.90
  -3 -10   2    9.30    2.70
  -3 -10   2   11.60    2.80
  -3 -10   2   10.60    3.60
  -3 -10   2   14.80    3.80
   2  10  -2    2.50    2.90
   2  10  -2    5.00    2.60
   2  10  -2    4.80    2.00
   2  10  -2    5.50    2.40
   2  10  -2    4.90    2.50
  -2 -10   2    2.30    1.70
  -2 -10   2   10.00    3.20
  -2 -10   2    4.40    3.30
  -2 -10   2    5.80    5.20
   1  10  -2   41.40    5.70
   1  10  -2   45.40    5.10
   1  10  -2   39.90    5.70
   1  10  -2   40.00    4.70
   1  10  -2   34.90    4.80
  -1 -10   2   44.00    6.60
  -1 -10   2   34.60    9.20
  -1 -10   2   37.90    3.90
  -1 -10   2   32.70    4.90
  -1 -10   2   36.90    6.20
   0  10  -2    0.60    1.80
   0  10  -2    4.30    2.50
   0  10  -2    3.50    3.00
   0  10  -2   -0.20    2.50
   0  10  -2    1.20    2.70
   0 -10   2    2.30    4.20
   0 -10   2   -1.10    2.60
   0 -10   2    1.20    1.00
   0 -10   2    0.80    3.80
   0 -10   2    2.30    2.20
  -1  10  -2   40.50    5.30
  -1  10  -2   33.20    6.50
  -1  10  -2   39.00    6.10
  -1  10  -2   31.90    4.30
  -1  10  -2   38.90    5.00
   1 -10   2   36.30    5.50
   1 -10   2   30.50    7.80
   1 -10   2   31.40    6.30
   1 -10   2   37.70    6.90
  -2  10  -2   10.00    4.20
  -2  10  -2    4.90    2.20
  -2  10  -2    5.50    4.00
   2 -10   2    6.00    2.70
   2 -10   2    4.60    4.30
   2 -10   2    3.50    3.20
   2 -10   2    2.80    4.10
  -3  10  -2   23.80    3.60
  -3  10  -2   30.40    6.10
  -3  10  -2   26.30    6.10
   3 -10   2   12.50    5.80
   3 -10   2   24.40    6.00
   3 -10   2   30.50    5.80
  -4  10  -2   49.60    8.50
  -4  10  -2   55.69    5.90
  -4  10  -2   47.00    8.40
   4 -10   2   53.89    9.40
   4 -10   2   52.09    9.90
   4 -10   2   44.70    7.80
  -5  10  -2   32.80    4.80
  -5  10  -2   34.20    7.60
  -5  10  -2   25.90    6.40
   5 -10   2   23.80    7.00
   5 -10   2   29.40    8.50
   5 -10   2   34.70    8.50
   6   9  -2   26.00   11.80
   6   9  -2   19.20    3.50
  -6  -9   2   26.10    4.10
  -6  -9   2   29.40    4.90
  -6  -9   2   24.80    4.30
   5   9  -2   22.40   10.90
   5   9  -2   21.40    3.60
  -5  -9   2   22.00    4.50
  -5  -9   2   23.30    4.50
  -5  -9   2   26.40    4.40
  -5  -9   2   24.30    4.00
   4   9  -2   68.59   14.40
   4   9  -2   53.29    5.70
   4   9  -2   50.39    6.30
  -4  -9   2   57.79    6.10
  -4  -9   2   56.09    7.90
  -4  -9   2   37.40    5.80
  -4  -9   2   68.09    6.60
   3   9  -2   85.39   14.30
   3   9  -2   55.39    4.20
   3   9  -2   63.49    6.00
   3   9  -2   49.40    4.10
   3   9  -2   47.70    6.30
   3   9  -2   48.60    5.80
  -3  -9   2   56.99    5.80
  -3  -9   2   59.59    7.20
  -3  -9   2   60.79    6.60
  -3  -9   2   56.49    5.80
  -3  -9   2   54.09    6.10
  -3  -9   2   62.09    7.70
   2   9  -2   96.59    8.50
   2   9  -2   94.49    8.50
   2   9  -2  110.09    8.40
   2   9  -2  112.29    8.80
  -2  -9   2  114.29    8.90
  -2  -9   2  107.59    9.30
  -2  -9   2   84.89   13.80
  -2  -9   2  101.09    8.00
  -2  -9   2   98.79   10.30
  -2  -9   2   92.59    7.90
  -2  -9   2   78.09    8.50
   1   9  -2   89.59    8.10
   1   9  -2   88.99    8.20
   1   9  -2   80.09    7.30
   1   9  -2   82.19    7.60
   1   9  -2   87.19    7.40
  -1  -9   2   92.79    8.40
  -1  -9   2   84.59    8.30
  -1  -9   2   90.99    7.70
  -1  -9   2   84.09    6.60
  -1  -9   2   77.39    9.10
   0   9  -2  176.28   12.20
   0   9  -2  163.38   13.10
   0   9  -2  158.98   12.70
   0   9  -2  146.09   11.40
   0   9  -2  176.48   12.30
   0  -9   2  147.49   10.40
   0  -9   2  155.18   13.10
   0  -9   2  148.79   12.60
   0  -9   2  147.99   11.70
  -1   9  -2  133.09   11.10
  -1   9  -2  127.59   11.50
  -1   9  -2  130.19    9.30
   1  -9   2  108.99   13.90
   1  -9   2  124.59   11.40
   1  -9   2  125.69    9.80
   1  -9   2  106.79   10.80
  -2   9  -2  114.69   11.00
  -2   9  -2  110.19    9.40
  -2   9  -2  113.29    8.40
  -2   9  -2  109.99   10.40
   2  -9   2  109.69   11.50
   2  -9   2   92.09   10.40
   2  -9   2  104.99   13.00
   2  -9   2  104.19   10.90
  -3   9  -2  296.97   22.60
  -3   9  -2  297.17   19.40
  -3   9  -2  288.87   21.60
   3  -9   2  275.67   22.40
   3  -9   2  250.47   21.10
   3  -9   2  294.27   24.50
  -4   9  -2   46.00    7.50
  -4   9  -2   45.20    7.80
  -4   9  -2   36.10    4.50
   4  -9   2   27.20    6.40
   4  -9   2   45.40    8.80
   4  -9   2   34.90    7.30
  -5   9  -2  144.29   13.70
  -5   9  -2  155.28   14.40
   5  -9   2  138.49   21.20
   5  -9   2  132.69   14.50
  -6   9  -2    5.20    7.30
  -6   9  -2   -1.60    3.70
  -6   9  -2    0.00    2.60
   6  -9   2    3.80    4.20
   6  -9   2   -0.30    3.50
   6   8  -2   86.19   17.80
   6   8  -2   75.39    6.70
  -6  -8   2   78.09    7.50
  -6  -8   2   81.39    7.20
  -6  -8   2   67.49    7.40
   5   8  -2  173.78   23.10
   5   8  -2  158.58   11.80
  -5  -8   2  162.18   15.00
  -5  -8   2  164.28   12.30
  -5  -8   2  151.98   12.40
  -5  -8   2  173.38   12.60
  -5  -8   2  163.58   12.80
   4   8  -2   96.89   10.50
   4   8  -2  113.09    8.70
   4   8  -2  128.59   17.90
  -4  -8   2  120.49    9.40
  -4  -8   2  102.79    9.40
  -4  -8   2  109.99    9.30
  -4  -8   2  106.89    9.60
  -4  -8   2  113.19    9.20
   3   8  -2   89.89    8.50
   3   8  -2   97.79    6.60
   3   8  -2   96.09    6.60
   3   8  -2  112.59    8.20
   3   8  -2   86.89    8.30
   3   8  -2   84.39    8.40
   3   8  -2  122.99   16.10
  -3  -8   2   95.29    8.20
  -3  -8   2  117.19    8.60
  -3  -8   2   93.49    9.60
  -3  -8   2  104.39    8.40
  -3  -8   2  108.89    8.10
  -3  -8   2   66.79    8.20
   2   8  -2  291.97   21.10
   2   8  -2  321.57   21.70
   2   8  -2  309.57   20.70
   2   8  -2  294.07   20.10
   2   8  -2  296.37   21.00
   2   8  -2  332.17   21.00
  -2  -8   2  348.17   21.50
  -2  -8   2  297.87   21.00
  -2  -8   2  283.47   20.50
  -2  -8   2  313.57   23.00
  -2  -8   2  339.57   20.70
  -2  -8   2  251.97   27.10
  -2  -8   2  329.97   21.30
   1   8  -2   55.39    5.70
   1   8  -2   55.99    5.10
   1   8  -2   45.50    4.90
   1   8  -2   53.19    5.80
   1   8  -2   50.49    5.60
  -1  -8   2   49.50    5.10
  -1  -8   2   45.20    9.20
  -1  -8   2   49.40    6.50
  -1  -8   2   48.00    6.10
  -1  -8   2   48.00    4.50
  -1  -8   2   53.89    5.80
   0   8  -2  227.68   15.50
   0   8  -2  215.88   15.80
   0   8  -2  207.38   15.20
   0   8  -2  223.38   15.00
   0   8  -2  211.48   14.80
   0   8  -2  196.18   14.20
   0  -8   2  195.28   13.50
   0  -8   2  204.08   14.50
   0  -8   2  198.78   16.50
   0  -8   2  213.48   15.70
   0  -8   2  187.18   19.60
   0  -8   2  217.78   15.50
  -1   8  -2    2.20    2.20
  -1   8  -2    0.40    2.50
  -1   8  -2    0.10    1.20
  -1   8  -2    1.20    2.40
  -1   8  -2    1.60    2.00
   1  -8   2    3.50    2.70
   1  -8   2   -0.10    2.40
   1  -8   2   -1.10    2.50
   1  -8   2    1.20    3.10
   1  -8   2    1.90    1.80
  -2   8  -2   73.09    6.90
  -2   8  -2   69.19    5.80
  -2   8  -2   80.79    8.60
  -2   8  -2   79.59    7.90
   2  -8   2   64.49    8.70
   2  -8   2   70.49    9.90
   2  -8   2   68.69    7.60
   2  -8   2   62.59    7.80
  -3   8  -2   12.70    4.30
  -3   8  -2   11.70    2.30
  -3   8  -2   10.10    3.80
  -3   8  -2    9.60    3.20
   3  -8   2    8.90    4.50
   3  -8   2   12.00    3.10
   3  -8   2    8.50    3.60
   3  -8   2   18.70    4.90
  -4   8  -2    8.40    4.20
  -4   8  -2    6.90    3.70
   4  -8   2    3.40    3.10
   4  -8   2    2.60    3.20
  -5   8  -2   -1.50    3.30
  -5   8  -2   -0.40    2.50
  -6   8  -2   -1.80    2.40
  -6   8  -2    0.30    3.80
  -6   8  -2   -0.80    3.20
   6  -8   2    0.70    3.60
   6  -8   2    3.40    3.70
  -7   8  -2    0.40    3.80
  -7   8  -2   -1.90    2.50
  -7   8  -2    3.70    4.50
   7  -8   2    5.50    4.80
   7   7  -2  106.89   20.30
  -7  -7   2   91.89    8.60
  -7  -7   2   98.09    9.10
  -7  -7   2   97.59    8.40
  -7  -7   2   80.69   10.30
  -6  -7   2   12.50    4.10
  -6  -7   2   15.20    3.50
  -6  -7   2   13.80    3.70
  -6  -7   2   10.60    2.90
  -6  -7   2   17.10    3.10
  -6  -7   2   16.20    3.40
   5   7  -2   30.30    5.10
   5   7  -2   41.00   11.90
   5   7  -2   33.10    3.90
   5   7  -2   31.30    3.80
  -5  -7   2   37.00    6.70
  -5  -7   2   37.00    4.60
  -5  -7   2   37.80    5.10
  -5  -7   2   33.20    4.30
  -5  -7   2   34.40    4.60
  -5  -7   2   37.80    4.30
   4   7  -2    1.70    5.60
   4   7  -2    1.90    1.60
   4   7  -2   -1.50    1.80
   4   7  -2    2.40    1.70
  -4  -7   2    3.20    2.00
  -4  -7   2    2.80    1.90
  -4  -7   2    1.10    1.70
  -4  -7   2   -0.30    2.20
  -4  -7   2    4.80    2.50
  -4  -7   2    3.40    2.10
  -4  -7   2    0.90    1.90
   3   7  -2   91.79    8.40
   3   7  -2   96.69    8.50
   3   7  -2  106.09    7.90
   3   7  -2   92.59    8.40
   3   7  -2  125.59   15.60
  -3  -7   2  104.49    8.10
  -3  -7   2  100.29    9.60
  -3  -7   2  112.69    8.30
  -3  -7   2   99.59    8.40
  -3  -7   2   75.19    8.20
  -3  -7   2  106.69    8.20
   2   7  -2   39.70    3.70
   2   7  -2   35.50    5.00
   2   7  -2   43.90    4.50
   2   7  -2   42.40    4.20
   2   7  -2   49.20   10.00
   2   7  -2   37.40    4.40
   2   7  -2   36.20    4.70
  -2  -7   2   32.80    4.20
  -2  -7   2   43.50    5.70
  -2  -7   2   45.90    4.70
  -2  -7   2   41.60    4.10
  -2  -7   2   37.50    9.50
  -2  -7   2   37.20    4.40
  -2  -7   2   44.50    4.70
   1   7  -2   31.10    4.10
   1   7  -2   29.40    4.20
   1   7  -2   28.70    4.10
   1   7  -2   33.90    3.60
   1   7  -2   30.60    4.30
  -1  -7   2   33.50    4.50
  -1  -7   2   26.10    3.60
  -1  -7   2   22.80    3.10
  -1  -7   2   32.70    4.00
  -1  -7   2   27.30    3.20
  -1  -7   2   27.20    7.60
  -1  -7   2   26.60    5.20
   0   7  -2   99.59    7.80
   0   7  -2   91.19    7.30
   0   7  -2   88.59    7.50
   0   7  -2   78.99    6.60
   0   7  -2   99.89    7.60
   0  -7   2   82.19    6.20
   0  -7   2   90.49    7.80
   0  -7   2   97.59    8.10
   0  -7   2   80.39   11.00
   0  -7   2   82.39    7.00
   0  -7   2   87.79    8.60
  -1   7  -2   -0.40    2.30
  -1   7  -2   -0.10    1.00
  -1   7  -2    0.00    1.50
  -1   7  -2    0.00    1.80
   1  -7   2   -1.30    2.20
   1  -7   2    1.00    2.80
   1  -7   2    0.40    1.90
   1  -7   2    0.90    2.10
  -2   7  -2  331.37   22.10
  -2   7  -2  353.96   22.00
  -2   7  -2  319.07   22.40
  -2   7  -2  318.37   22.90
  -2   7  -2  327.97   21.60
   2  -7   2  341.87   25.70
   2  -7   2  303.17   22.90
   2  -7   2  279.87   22.10
   2  -7   2  316.77   21.50
   2  -7   2  270.37   24.00
  -3   7  -2   17.00    3.80
  -3   7  -2   25.20    4.80
  -3   7  -2   19.30    4.80
  -3   7  -2   24.90    4.30
  -3   7  -2   21.10    2.90
   3  -7   2   22.30    5.00
   3  -7   2   17.40    3.50
   3  -7   2   19.40    4.70
   3  -7   2   13.80    3.80
  -4   7  -2   22.80    5.10
  -4   7  -2   23.80    5.20
  -4   7  -2   16.30    4.10
   4  -7   2   19.90    4.70
   4  -7   2   21.10    5.20
   4  -7   2   21.90    4.10
  -5   7  -2   21.10    5.40
  -5   7  -2   21.10    5.40
  -5   7  -2   14.40    3.70
   5  -7   2   18.30    5.30
   5  -7   2   20.50    7.00
  -6   7  -2   44.00    6.40
  -6   7  -2   33.00    7.70
   6  -7   2   44.00   11.70
   6  -7   2   33.00    7.30
  -7   7  -2   10.00    5.00
  -7   7  -2   15.90    4.30
  -7   7  -2    6.90    4.00
   7  -7   2    6.30    4.60
   7  -7   2    6.80    4.50
  -8   7  -2   59.69    9.50
  -8   7  -2   59.49    9.90
   8  -7   2   47.10    9.50
   8  -7   2   57.19    9.40
   8   6  -2   12.50   10.10
  -8  -6   2   24.00    3.60
  -8  -6   2   22.90    4.00
  -8  -6   2   21.20    4.30
  -8  -6   2   14.50    4.70
   7   6  -2    8.10    7.20
   7   6  -2    2.80    1.80
  -7  -6   2    7.00    2.40
  -7  -6   2   10.50    2.80
  -7  -6   2   13.20    4.20
  -7  -6   2    7.80    3.70
  -7  -6   2   10.80    3.00
   6   6  -2   30.50    3.60
   6   6  -2   31.60    3.70
  -6  -6   2   35.80    4.60
  -6  -6   2   35.10    5.20
  -6  -6   2   33.70    5.40
  -6  -6   2   36.10    6.40
  -6  -6   2   34.40    4.30
  -6  -6   2   38.50    4.40
   5   6  -2   22.10    8.90
   5   6  -2   22.80    4.30
   5   6  -2   17.00    2.50
   5   6  -2   21.80    3.20
  -5  -6   2   20.00    3.30
  -5  -6   2   25.10    3.60
  -5  -6   2   23.30    5.20
  -5  -6   2   31.60    6.70
  -5  -6   2   23.40    4.10
  -5  -6   2   19.40    3.20
  -5  -6   2   19.80    3.70
   4   6  -2    1.40    4.90
   4   6  -2   -1.20    1.30
   4   6  -2    1.40    1.30
  -4  -6   2    5.40    3.60
  -4  -6   2   -0.20    1.40
  -4  -6   2    1.80    2.30
  -4  -6   2    3.20    1.80
  -4  -6   2    3.70    1.70
  -4  -6   2    0.70    1.70
   3   6  -2  116.89    9.50
   3   6  -2  103.89    9.10
   3   6  -2  119.39    9.50
   3   6  -2  154.58   16.70
   3   6  -2  128.29    8.80
  -3  -6   2  125.89    9.00
  -3  -6   2  126.09    9.60
  -3  -6   2  125.89    9.00
  -3  -6   2  109.69    9.20
  -3  -6   2  124.59   10.40
  -3  -6   2   92.89   14.20
  -3  -6   2  124.99    9.30
   2   6  -2   37.90    8.20
   2   6  -2   21.60    3.30
   2   6  -2   22.00    2.80
   2   6  -2   27.60    3.70
   2   6  -2   28.80    3.10
   2   6  -2   23.50    2.50
   2   6  -2   28.40    3.80
  -2  -6   2   27.20    3.60
  -2  -6   2   24.00    3.00
  -2  -6   2   18.80    6.80
  -2  -6   2   31.50    3.70
  -2  -6   2   23.40    3.40
  -2  -6   2   27.00    4.50
  -2  -6   2   24.40    3.20
   1   6  -2  418.46   25.70
   1   6  -2  404.46   26.40
   1   6  -2  384.76   25.70
   1   6  -2  406.26   25.90
   1   6  -2  406.56   26.10
  -1  -6   2  391.96   25.70
  -1  -6   2  418.16   26.20
  -1  -6   2  429.36   25.50
  -1  -6   2  383.86   26.00
  -1  -6   2  391.76   27.20
  -1  -6   2  373.16   25.50
  -1  -6   2  360.66   31.30
   0   6  -2  246.28   15.50
   0   6  -2  225.58   15.10
   0   6  -2  221.48   14.60
   0   6  -2  231.18   15.80
   0   6  -2  234.28   15.50
   0   6  -2  225.68   15.40
   0  -6   2  211.58   14.80
   0  -6   2  214.58   16.30
   0  -6   2  186.08   15.20
   0  -6   2  209.78   19.20
   0  -6   2  231.58   15.70
   0  -6   2  219.28   14.30
  -1   6  -2  969.00   58.09
  -1   6  -2  924.41   58.49
  -1   6  -2  983.60   58.49
  -1   6  -2  914.51   57.29
   1  -6   2  904.71   57.89
   1  -6   2  950.70   62.19
   1  -6   2  878.31   58.89
   1  -6   2  871.01   59.29
   1  -6   2  887.01   58.49
  -2   6  -2  167.38   11.60
  -2   6  -2  147.49   13.30
  -2   6  -2  148.79   11.80
  -2   6  -2  143.59   10.40
  -2   6  -2  163.58   11.80
   2  -6   2  146.19   12.50
   2  -6   2  139.69   12.20
   2  -6   2  140.39   11.80
   2  -6   2  156.98   11.30
   2  -6   2  179.28   15.00
  -3   6  -2  788.02   45.20
  -3   6  -2  744.53   45.30
  -3   6  -2  723.73   44.90
  -3   6  -2  703.03   45.70
   3  -6   2  673.33   44.20
   3  -6   2  648.44   45.70
   3  -6   2  601.94   45.50
   3  -6   2  630.44   44.90
  -4   6  -2  116.69   10.10
  -4   6  -2  113.19   10.40
  -4   6  -2  137.59   10.70
  -4   6  -2  118.99   11.00
   4  -6   2  108.79   10.40
   4  -6   2  102.59   10.90
   4  -6   2  118.29   11.00
   4  -6   2  121.39    9.70
  -5   6  -2  600.14   38.80
  -5   6  -2  629.44   39.50
  -5   6  -2  624.04   40.60
  -5   6  -2  613.94   39.90
   5  -6   2  519.25   40.40
   5  -6   2  544.35   38.40
   5  -6   2  586.54   40.00
  -6   6  -2   -0.40    2.00
  -6   6  -2    0.90    3.30
  -6   6  -2    8.60    4.30
  -6   6  -2    3.90    1.10
   6  -6   2    4.90    3.90
   6  -6   2    4.20    3.30
  -7   6  -2  215.08   18.00
  -7   6  -2  204.28   16.40
  -7   6  -2  213.58   13.60
   7  -6   2  159.88   18.80
   7  -6   2  207.98   17.20
  -8   6  -2    1.90    1.40
  -8   6  -2   -6.20    2.60
  -8   6  -2   -1.30    3.70
  -8   6  -2   -2.00    3.20
   8  -6   2    4.70    4.00
   8   5  -2   41.90   14.40
   8   5  -2   33.70    5.90
  -8  -5   2   49.60    6.00
  -8  -5   2   45.20    7.30
  -8  -5   2   38.50    5.30
  -8  -5   2   48.90    5.60
  -8  -5   2   64.89    7.50
   7   5  -2  119.99    9.70
   7   5  -2  123.99    9.40
  -7  -5   2  137.19   10.60
  -7  -5   2  142.19   12.50
  -7  -5   2  127.49   10.30
  -7  -5   2  141.59   11.90
  -7  -5   2  137.49   10.30
   6   5  -2  214.98   17.60
   6   5  -2  232.68   27.00
   6   5  -2  219.08   16.00
   6   5  -2  250.57   15.70
  -6  -5   2  238.58   16.30
  -6  -5   2  242.18   18.60
  -6  -5   2  257.57   16.70
  -6  -5   2  221.88   16.40
  -6  -5   2  231.28   17.40
  -6  -5   2  248.98   17.90
   5   5  -2   85.99    7.00
   5   5  -2   96.29   15.20
   5   5  -2   99.39    6.80
   5   5  -2   77.59    8.20
  -5  -5   2   87.49    7.20
  -5  -5   2  101.89    8.30
  -5  -5   2   84.09    7.30
  -5  -5   2  100.79    7.50
  -5  -5   2   91.49    8.50
  -5  -5   2   85.39    9.10
  -5  -5   2  102.59    8.50
   4   5  -2 1034.20   71.69
   4   5  -2 1039.20   61.49
   4   5  -2  916.71   61.79
   4   5  -2  925.11   62.89
  -4  -5   2  994.60   62.89
  -4  -5   2 1020.50   62.69
  -4  -5   2  992.80   61.89
  -4  -5   2 1005.10   62.59
  -4  -5   2  954.70   61.99
  -4  -5   2 1077.99   62.09
  -4  -5   2  911.91   63.39
   3   5  -2  436.26   31.90
   3   5  -2  475.55   31.50
   3   5  -2  518.55   39.10
   3   5  -2  507.75   31.20
   3   5  -2  439.16   32.00
  -3  -5   2  506.35   31.40
  -3  -5   2  543.65   31.50
  -3  -5   2  458.45   31.60
  -3  -5   2  492.85   32.10
  -3  -5   2  492.45   31.80
  -3  -5   2  520.25   31.90
  -3  -5   2  523.15   33.90
   2   5  -2 1541.15  100.19
   2   5  -2 1545.85   99.29
   2   5  -2 1623.04  100.59
   2   5  -2 1614.64   99.39
   2   5  -2 1577.14  100.19
   2   5  -2 1721.33   99.79
  -2  -5   2 1547.45  100.09
  -2  -5   2 1661.23  101.09
  -2  -5   2 1676.23   99.89
  -2  -5   2 1681.53  100.09
  -2  -5   2 1768.42   99.99
  -2  -5   2 1382.56  106.09
   1   5  -2   73.59    5.50
   1   5  -2   87.39   10.40
   1   5  -2   66.59    5.60
   1   5  -2   71.49    5.80
   1   5  -2   72.49    5.90
   1   5  -2   69.39    6.20
   1   5  -2   74.49    6.00
  -1  -5   2   68.19    5.60
  -1  -5   2   74.99    5.60
  -1  -5   2   67.19    9.70
  -1  -5   2   81.19    5.50
  -1  -5   2   71.89    6.00
  -1  -5   2   81.09    5.90
   0   5  -2 1240.58   71.19
   0   5  -2 1048.80   70.69
   0   5  -2 1178.18   70.99
   0   5  -2 1103.59   71.29
   0   5  -2 1175.98   71.09
   0   5  -2 1127.59   70.39
   0  -5   2 1091.39   71.79
   0  -5   2 1068.19   70.19
   0  -5   2 1175.68   75.79
   0  -5   2 1159.38   71.29
  -1   5  -2    2.30    1.40
  -1   5  -2    2.50    1.80
  -1   5  -2    1.70    0.90
  -1   5  -2    2.40    1.60
  -1   5  -2    3.50    1.60
   1  -5   2    1.30    1.60
   1  -5   2    3.00    1.50
   1  -5   2   -0.10    1.50
   1  -5   2    3.60    2.80
   1  -5   2    0.00    1.40
  -2   5  -2 1516.25   87.69
  -2   5  -2 1433.36   88.39
  -2   5  -2 1474.45   87.79
   2  -5   2 1374.26   88.29
   2  -5   2 1302.37   88.09
   2  -5   2 1297.57   87.59
   2  -5   2 1383.46   87.09
  -3   5  -2   41.70    5.50
  -3   5  -2   41.10    5.40
  -3   5  -2   51.69    5.30
  -3   5  -2   43.80    4.90
   3  -5   2   36.80    5.30
   3  -5   2   37.30    5.00
   3  -5   2   39.90    5.10
   3  -5   2   36.40    4.40
  -4   5  -2  501.45   36.00
  -4   5  -2  555.14   34.60
  -4   5  -2  537.05   34.90
  -4   5  -2  513.05   31.50
  -4   5  -2  536.15   34.00
   4  -5   2  449.06   34.70
   4  -5   2  503.15   34.70
   4  -5   2  506.25   33.30
   4  -5   2  475.55   34.00
  -5   5  -2   36.20    3.00
  -5   5  -2   34.60    4.90
  -5   5  -2   37.10    6.30
  -5   5  -2   37.20    5.90
  -5   5  -2   38.30    6.40
  -5   5  -2   34.60    5.80
   5  -5   2   23.40    5.40
   5  -5   2   38.00    5.20
   5  -5   2   28.20    5.50
   5  -5   2   36.00    6.00
  -6   5  -2   97.39    8.90
  -6   5  -2  104.29    9.80
  -6   5  -2   84.79    6.80
  -6   5  -2  108.59   10.40
  -6   5  -2   85.89    9.10
   6  -5   2   78.89    9.80
   6  -5   2   90.29    9.60
  -7   5  -2   14.40    4.00
  -7   5  -2   15.60    5.50
  -7   5  -2    8.90    4.20
  -7   5  -2   13.00    2.40
   7  -5   2   13.10    4.50
   7  -5   2    9.00    4.00
  -8   5  -2   33.80    7.20
  -8   5  -2   34.80    7.00
  -8   5  -2   32.50    4.10
   8  -5   2   31.30    6.40
   8  -5   2   29.40    8.60
  -9   5  -2    2.50    3.40
  -9   5  -2   -1.90    3.60
  -9   5  -2   -1.00    3.50
  -9   5  -2   -1.00    3.20
   9  -5   2    0.20    3.80
   9   4  -2   46.90   16.00
  -9  -4   2   55.39    6.80
  -9  -4   2   42.80    7.50
  -9  -4   2   50.99    6.60
  -9  -4   2   45.50    6.20
   8   4  -2   58.89    5.80
   8   4  -2   77.99   16.60
  -8  -4   2   58.69    8.30
  -8  -4   2   62.59    6.40
  -8  -4   2   71.29    7.00
  -8  -4   2   62.69    6.50
   7   4  -2  173.68   33.90
   7   4  -2  136.39   10.80
   7   4  -2  158.98   10.90
  -7  -4   2  137.79   11.30
  -7  -4   2  167.78   11.80
  -7  -4   2  149.99   11.30
  -7  -4   2  145.19   12.80
  -7  -4   2  145.99   13.10
   6   4  -2    7.50    1.90
   6   4  -2    9.70    3.30
   6   4  -2    8.50    1.90
   6   4  -2   10.30    7.20
  -6  -4   2    8.00    2.30
  -6  -4   2    5.70    2.10
  -6  -4   2    7.60    2.90
  -6  -4   2   11.30    3.30
  -6  -4   2   11.20    3.20
   5   4  -2  320.17   21.30
   5   4  -2  277.17   20.90
   5   4  -2  341.47   31.20
   5   4  -2  318.27   22.80
  -5  -4   2  317.97   23.20
  -5  -4   2  347.57   22.80
  -5  -4   2  325.17   22.60
  -5  -4   2  348.47   21.70
  -5  -4   2  327.67   22.70
  -5  -4   2  349.57   21.60
  -5  -4   2  338.97   21.70
   4   4  -2   41.70    3.80
   4   4  -2   45.60    9.30
   4   4  -2   40.60    4.80
  -4  -4   2   43.70    4.90
  -4  -4   2   47.70    4.10
  -4  -4   2   34.80    4.80
  -4  -4   2   46.00    4.00
  -4  -4   2   45.60    4.80
  -4  -4   2   42.30    4.80
   3   4  -2 1245.28   75.69
   3   4  -2 1270.67   75.39
   3   4  -2 1041.90   76.29
   3   4  -2 1163.18   76.39
   3   4  -2 1264.87   83.29
  -3  -4   2 1245.48   76.29
  -3  -4   2 1229.18   75.79
  -3  -4   2 1207.58   76.29
  -3  -4   2 1254.67   75.69
  -3  -4   2 1318.97   75.69
  -3  -4   2 1167.18   76.59
  -3  -4   2 1222.08   76.49
   2   4  -2    2.10    0.90
   2   4  -2    1.20    1.30
   2   4  -2    0.90    1.10
   2   4  -2    1.50    3.00
   2   4  -2    1.90    1.20
  -2  -4   2   -0.10    1.10
  -2  -4   2    0.20    1.10
  -2  -4   2    0.00    0.90
  -2  -4   2    0.80    0.90
  -2  -4   2    0.40    1.30
  -2  -4   2    2.00    2.90
  -2  -4   2    1.30    1.00
  -2  -4   2    1.60    1.00
   1   4  -2  233.68   15.10
   1   4  -2  223.78   15.30
   1   4  -2  208.98   15.80
   1   4  -2  273.07   20.20
   1   4  -2  245.08   15.40
   1   4  -2  229.28   15.30
  -1  -4   2  216.18   15.30
  -1  -4   2  234.58   16.00
  -1  -4   2  248.18   15.30
  -1  -4   2  234.18   15.50
  -1  -4   2  243.78   15.40
  -1  -4   2  240.98   15.20
   0   4  -2   19.50    2.60
   0   4  -2   19.60    2.60
   0   4  -2   17.70    2.80
   0   4  -2   18.50    1.90
   0   4  -2   21.50    2.40
   0  -4   2   21.00    2.90
   0  -4   2   23.70    2.40
   0  -4   2   23.70    6.40
   0  -4   2   21.50    2.00
   0  -4   2   25.70    2.80
   0  -4   2   18.00    2.60
  -1   4  -2  254.47   17.40
  -1   4  -2  262.57   17.10
  -1   4  -2  276.57   17.20
  -1   4  -2  248.98   16.10
   1  -4   2  237.98   17.30
   1  -4   2  239.58   17.60
   1  -4   2  253.37   17.10
   1  -4   2  263.87   16.80
  -2   4  -2   14.30    2.70
  -2   4  -2   12.20    1.10
  -2   4  -2   11.70    2.60
  -2   4  -2   13.80    2.60
  -2   4  -2   10.50    2.70
   2  -4   2   10.70    2.70
   2  -4   2   16.60    3.00
   2  -4   2   13.70    3.00
   2  -4   2   15.20    2.50
  -3   4  -2   60.39    6.20
  -3   4  -2   56.09    5.70
  -3   4  -2   58.79    5.70
  -3   4  -2   64.09    6.00
   3  -4   2   52.59    5.80
   3  -4   2   56.59    5.30
   3  -4   2   63.19    6.20
   3  -4   2   51.89    6.10
  -4   4  -2    1.30    1.60
  -4   4  -2    8.50    2.80
  -4   4  -2    6.90    2.80
  -4   4  -2    2.70    2.20
  -4   4  -2    4.80    2.60
   4  -4   2    6.40    2.30
   4  -4   2    2.00    2.10
   4  -4   2    3.70    2.40
   4  -4   2    3.40    2.40
  -5   4  -2   33.40    4.80
  -5   4  -2   39.50    6.00
  -5   4  -2   35.10    5.50
  -5   4  -2   35.30    5.40
   5  -4   2   29.70    5.90
   5  -4   2   29.60    5.30
   5  -4   2   33.90    4.90
   5  -4   2   38.40    5.80
  -6   4  -2   46.90    7.20
  -6   4  -2   45.30    4.40
  -6   4  -2   46.60    6.50
  -6   4  -2   54.59    7.50
  -6   4  -2   50.19    6.00
   6  -4   2   51.19    5.70
   6  -4   2   45.60    6.90
   6  -4   2   33.70    6.80
   6  -4   2   50.49    6.40
  -7   4  -2    6.10    3.30
  -7   4  -2    9.00    4.20
  -7   4  -2    9.10    3.70
  -7   4  -2    6.90    2.30
  -7   4  -2    8.90    3.70
   7  -4   2   10.00    4.00
   7  -4   2    6.70    3.70
  -8   4  -2   29.10    6.60
  -8   4  -2   29.50    4.20
  -8   4  -2   28.10    5.80
  -8   4  -2   26.60    5.80
   8  -4   2   27.80    6.10
  -9   4  -2   -5.20    3.10
  -9   4  -2    1.60    4.50
  -9   4  -2    4.10    3.60
   9  -4   2   14.70    5.00
   9   3  -2   -0.10    6.50
   9   3  -2    2.40    2.20
  -9  -3   2   -2.10    2.40
  -9  -3   2   -1.30    3.50
  -9  -3   2    0.50    2.40
  -9  -3   2    0.70    2.20
   8   3  -2   74.29   16.40
   8   3  -2   90.39    7.30
  -8  -3   2   62.19    8.40
  -8  -3   2   96.29    7.80
  -8  -3   2   85.59    7.60
  -8  -3   2   83.29    8.00
   7   3  -2   -1.70    5.30
   7   3  -2    1.70    1.40
   7   3  -2    1.90    1.70
  -7  -3   2    1.10    1.70
  -7  -3   2    1.20    1.80
  -7  -3   2    9.10    2.90
  -7  -3   2    5.00    2.40
  -7  -3   2    0.80    2.80
   6   3  -2   62.19    5.20
   6   3  -2   63.99    5.20
   6   3  -2   53.99   13.30
  -6  -3   2   54.39    6.70
  -6  -3   2   56.09    5.70
  -6  -3   2   56.29    6.80
  -6  -3   2   57.89    5.50
  -6  -3   2   60.69    6.50
  -6  -3   2   66.59    5.60
   5   3  -2   97.99    8.70
   5   3  -2  111.89   15.30
   5   3  -2   96.19    7.40
  -5  -3   2  102.09    7.80
  -5  -3   2  100.29    8.70
  -5  -3   2  102.59    7.80
  -5  -3   2   90.19    8.80
  -5  -3   2  114.39    9.10
  -5  -3   2  113.79    7.80
  -5  -3   2  100.89    8.80
   4   3  -2   81.09    7.00
   4   3  -2   78.99   11.80
   4   3  -2   79.39    6.00
  -4  -3   2   80.29    7.10
  -4  -3   2   84.69    6.20
  -4  -3   2   75.19    7.00
  -4  -3   2   81.09    6.20
  -4  -3   2   75.99    7.00
  -4  -3   2   88.29    7.10
  -4  -3   2   85.69    6.10
   3   3  -2  674.73   42.50
   3   3  -2  676.53   49.70
  -3  -3   2  676.33   42.60
  -3  -3   2  695.23   43.40
  -3  -3   2  676.03   42.60
  -3  -3   2  701.13   42.60
  -3  -3   2  648.44   43.20
  -3  -3   2  682.23   43.40
  -3  -3   2  714.53   43.50
   2   3  -2    2.50    1.00
   2   3  -2    0.40    2.50
   2   3  -2    2.00    1.20
   2   3  -2    0.60    0.90
  -2  -3   2    1.80    0.80
  -2  -3   2    2.30    1.20
  -2  -3   2    0.90    0.90
  -2  -3   2    0.60    1.00
  -2  -3   2    2.10    2.60
  -2  -3   2    1.20    0.80
  -2  -3   2    1.90    1.00
  -2  -3   2    1.30    0.80
   1   3  -2  213.78   12.90
   1   3  -2  230.88   17.10
   1   3  -2  186.08   13.40
   1   3  -2  190.28   12.60
   1   3  -2  190.48   12.50
   1   3  -2  209.58   13.00
   1   3  -2  174.48   12.80
  -1  -3   2  197.38   16.90
  -1  -3   2  193.78   12.80
  -1  -3   2  196.58   13.20
  -1  -3   2  212.48   12.80
  -1  -3   2  185.18   13.00
  -1  -3   2  209.38   12.90
  -1  -3   2  200.98   12.80
   0   3  -2  291.37   18.50
   0   3  -2  315.57   19.10
   0   3  -2  282.67   19.10
   0   3  -2  303.67   19.00
   0   3  -2  276.27   19.10
   0  -3   2  296.37   18.70
   0  -3   2  300.67   18.90
   0  -3   2  296.07   19.10
   0  -3   2  281.47   19.00
   0  -3   2  341.67   22.60
   0  -3   2  291.07   19.40
   0  -3   2  281.27   18.50
  -1   3  -2 1396.16   84.19
  -1   3  -2 1389.66   84.49
  -1   3  -2 1373.06   84.19
  -1   3  -2 1384.06   83.39
  -1   3  -2 1394.46   84.29
   1  -3   2 1342.37   83.99
   1  -3   2 1265.67   84.39
   1  -3   2 1318.67   84.59
   1  -3   2 1335.87   84.29
  -2   3  -2  516.35   32.00
  -2   3  -2  504.65   31.90
  -2   3  -2  533.65   31.80
  -2   3  -2  504.95   32.10
   2  -3   2  476.55   31.40
   2  -3   2  453.25   32.80
   2  -3   2  487.75   31.80
   2  -3   2  460.75   32.20
  -3   3  -2  694.03   45.70
  -3   3  -2  767.02   45.50
  -3   3  -2  713.43   45.80
  -3   3  -2  750.92   45.50
  -3   3  -2  717.13   44.80
   3  -3   2  738.53   45.60
   3  -3   2  601.94   45.80
   3  -3   2  715.53   45.10
   3  -3   2  694.83   45.80
  -4   3  -2  511.95   33.80
  -4   3  -2  497.85   32.60
  -4   3  -2  505.95   33.60
  -4   3  -2  521.45   33.20
  -4   3  -2  511.15   33.10
   4  -3   2  443.06   33.80
   4  -3   2  517.55   33.60
   4  -3   2  506.95   33.50
   4  -3   2  506.55   32.70
  -5   3  -2  814.72   53.89
  -5   3  -2  890.81   53.29
  -5   3  -2  787.92   52.59
  -5   3  -2  842.52   53.09
  -5   3  -2  817.72   53.49
   5  -3   2  835.52   53.29
   5  -3   2  720.33   53.89
   5  -3   2  866.31   53.69
   5  -3   2  821.32   52.59
  -6   3  -2   30.10    5.50
  -6   3  -2   26.50    5.20
  -6   3  -2   20.70    4.10
  -6   3  -2   23.90    4.60
  -6   3  -2   32.90    5.40
   6  -3   2   22.80    4.90
   6  -3   2   22.10    5.40
   6  -3   2   24.00    4.30
  -7   3  -2  342.97   27.50
  -7   3  -2  370.46   26.90
  -7   3  -2  391.56   26.60
  -7   3  -2  377.16   26.30
   7  -3   2  375.66   26.70
   7  -3   2  357.16   26.50
  -8   3  -2   -2.20    2.40
  -8   3  -2   -1.80    2.40
  -8   3  -2   -1.60    3.20
  -8   3  -2    3.00    3.60
   8  -3   2    1.00    3.30
   8  -3   2    1.80    3.20
  -9   3  -2  114.19   11.60
  -9   3  -2  111.39   12.10
  -9   3  -2  106.89   11.20
   9  -3   2  114.09   11.90
   9  -3   2  109.79   13.00
   9   2  -2   -0.60    6.50
   9   2  -2    1.40    1.90
  -9  -2   2    1.50    2.50
  -9  -2   2   -0.90    2.30
  -9  -2   2   -0.80    3.00
  -9  -2   2    5.90    2.80
   8   2  -2   24.80   10.70
   8   2  -2   31.40    4.40
  -8  -2   2   31.10    5.20
  -8  -2   2   30.50    4.60
  -8  -2   2   25.00    5.20
  -8  -2   2   17.30    5.10
  -8  -2   2   28.90    4.40
   7   2  -2    9.20    2.50
   7   2  -2    8.50    2.40
   7   2  -2    6.10    6.80
  -7  -2   2    9.30    3.60
  -7  -2   2    5.50    2.20
  -7  -2   2    6.50    2.90
  -7  -2   2    5.50    2.20
  -7  -2   2    6.80    2.70
   6   2  -2  307.97   30.40
   6   2  -2  320.97   20.90
   6   2  -2  289.17   20.50
  -6  -2   2  311.07   21.30
  -6  -2   2  306.57   21.00
  -6  -2   2  329.57   25.80
  -6  -2   2  329.17   22.50
  -6  -2   2  322.77   20.90
  -6  -2   2  319.67   22.00
   5   2  -2    2.00    3.70
   5   2  -2    3.60    1.40
   5   2  -2    2.20    1.10
  -5  -2   2    2.60    2.00
  -5  -2   2    1.70    1.80
  -5  -2   2    3.10    1.60
  -5  -2   2    1.20    1.30
  -5  -2   2    1.90    2.00
  -5  -2   2    1.20    1.50
  -5  -2   2    2.70    1.90
   4   2  -2  185.68   13.80
   4   2  -2  191.08   19.30
  -4  -2   2  190.38   13.80
  -4  -2   2  206.48   12.80
  -4  -2   2  197.28   12.90
  -4  -2   2  186.38   13.90
  -4  -2   2  186.78   13.60
  -4  -2   2  188.88   13.60
  -4  -2   2  191.68   12.90
   3   2  -2   12.30    2.30
   3   2  -2   16.40    5.20
   3   2  -2   14.90    1.60
  -3  -2   2   16.30    2.10
  -3  -2   2   12.10    4.70
  -3  -2   2   12.50    2.30
  -3  -2   2   14.20    2.40
  -3  -2   2   17.70    1.80
  -3  -2   2   14.00    1.70
  -3  -2   2   17.20    1.80
   2   2  -2  780.72   52.39
   2   2  -2  912.11   51.39
   2   2  -2  855.31   56.49
   2   2  -2  823.32   52.19
  -2  -2   2  826.52   51.49
  -2  -2   2  741.33   56.29
  -2  -2   2  861.01   52.29
  -2  -2   2  885.91   51.69
  -2  -2   2  832.12   52.09
  -2  -2   2  825.32   52.09
  -2  -2   2  819.42   51.39
   1   2  -2   36.30    2.70
   1   2  -2   32.30    3.00
   1   2  -2   33.30    3.30
   1   2  -2   43.20    5.70
   1   2  -2   32.20    2.90
  -1  -2   2   38.30    2.80
  -1  -2   2   36.80    2.70
  -1  -2   2   37.40    2.60
  -1  -2   2   40.20    2.70
  -1  -2   2   39.70    3.20
  -1  -2   2   35.70    3.00
  -1  -2   2   36.00    5.50
  -1  -2   2   33.70    2.80
   0   2  -2 7316.67  444.76
   0  -2   2 5863.91  424.96
  -1   2  -2  165.38    9.90
  -1   2  -2  164.38   10.60
  -1   2  -2  152.98   10.60
  -1   2  -2  150.48   10.50
  -1   2  -2  160.68   10.70
   1  -2   2  151.58   10.60
   1  -2   2  161.18   10.80
   1  -2   2  147.49   10.40
   1  -2   2  147.59   10.80
  -2   2  -2 1986.50  121.59
  -2   2  -2 2046.90  121.29
  -2   2  -2 2092.79  121.49
  -2   2  -2 1923.81  121.59
   2  -2   2 1764.42  121.69
   2  -2   2 1920.31  121.39
   2  -2   2 1959.60  121.59
   2  -2   2 1979.20  121.09
  -3   2  -2  259.07   18.00
  -3   2  -2  256.37   18.20
  -3   2  -2  284.07   17.90
   3  -2   2  261.87   17.90
   3  -2   2  255.07   17.90
   3  -2   2  238.58   18.30
   3  -2   2  279.17   18.30
  -4   2  -2 1515.65   95.09
  -4   2  -2 1643.74   95.59
  -4   2  -2 1429.56   95.69
  -4   2  -2 1548.95   96.19
  -4   2  -2 1491.35   96.09
   4  -2   2 1507.45   95.09
   4  -2   2 1542.55   95.59
   4  -2   2 1508.05   95.69
  -5   2  -2  406.06   25.50
  -5   2  -2  368.16   25.50
  -5   2  -2  395.26   25.00
  -5   2  -2  347.97   25.80
  -5   2  -2  388.76   25.20
   5  -2   2  363.76   25.50
   5  -2   2  362.76   24.70
   5  -2   2  309.47   25.70
   5  -2   2  375.06   25.40
  -6   2  -2  539.35   36.30
  -6   2  -2  528.95   35.70
  -6   2  -2  590.84   36.20
  -6   2  -2  518.55   35.80
   6  -2   2  517.35   35.30
   6  -2   2  517.55   36.00
   6  -2   2  542.65   36.10
  -7   2  -2   25.00    5.10
  -7   2  -2   33.20    5.70
  -7   2  -2   26.00    5.50
  -7   2  -2   21.70    4.60
   7  -2   2   25.00    4.80
   7  -2   2   18.10    5.40
   7  -2   2   25.80    5.10
  -8   2  -2   74.59    9.80
  -8   2  -2   63.79    6.90
  -8   2  -2   76.19    8.50
  -8   2  -2   71.09    8.40
  -8   2  -2   77.89    8.50
   8  -2   2   67.39    9.60
   8  -2   2   75.79    8.90
   8  -2   2   87.89    9.80
  -9   2  -2   64.09    8.50
  -9   2  -2   48.10    7.70
  -9   2  -2   59.69    8.40
   9  -2   2   56.99    9.90
   9  -2   2   46.90    8.00
   9   1  -2   92.59    8.50
   9   1  -2   82.99   17.70
  -9  -1   2   94.59    9.50
  -9  -1   2   87.59    8.60
  -9  -1   2   83.99    8.60
  -9  -1   2  102.69   10.80
   8   1  -2  108.49    9.00
  -8  -1   2  102.09   10.60
  -8  -1   2  103.69    9.50
  -8  -1   2  100.39    8.90
  -8  -1   2   80.19    9.60
  -8  -1   2  107.09    9.00
   7   1  -2  444.76   40.70
   7   1  -2  440.96   30.00
   7   1  -2  500.75   30.60
  -7  -1   2  462.05   31.00
  -7  -1   2  499.35   30.60
  -7  -1   2  490.05   30.70
  -7  -1   2  459.05   32.10
  -7  -1   2  397.46   31.50
   6   1  -2  164.08   11.30
   6   1  -2  158.38   10.90
   6   1  -2  140.49   18.40
  -6  -1   2  166.78   14.00
  -6  -1   2  161.38   11.20
  -6  -1   2  131.99   11.90
  -6  -1   2  159.08   11.30
  -6  -1   2  127.49   13.30
  -6  -1   2  156.38   12.50
  -6  -1   2  151.78   11.50
   5   1  -2 1182.48   72.99
   5   1  -2 1085.79   81.29
   5   1  -2 1275.67   73.39
  -5  -1   2 1135.69   74.49
  -5  -1   2 1159.08   74.49
  -5  -1   2 1165.78   73.49
  -5  -1   2 1142.69   73.89
  -5  -1   2 1230.48   73.39
   4   1  -2  498.45   43.50
   4   1  -2  560.04   34.50
  -4  -1   2  558.24   35.70
  -4  -1   2  555.64   34.80
  -4  -1   2  519.95   35.70
  -4  -1   2  529.95   35.30
  -4  -1   2  562.04   34.70
  -4  -1   2  550.44   35.50
  -4  -1   2  589.74   34.60
   3   1  -2 2451.85  147.39
   3   1  -2 2233.28  152.88
  -3  -1   2 2505.15  147.49
  -3  -1   2 2313.57  148.39
  -3  -1   2 2295.77  147.79
  -3  -1   2 2391.86  148.39
  -3  -1   2 2411.76  147.49
  -3  -1   2 2395.16  148.19
  -3  -1   2 2571.94  147.49
   2   1  -2  339.37   23.70
   2   1  -2  348.57   23.50
   2   1  -2  373.26   22.80
   2   1  -2  369.36   27.10
   2   1  -2  400.16   22.80
  -2  -1   2  362.46   23.60
  -2  -1   2  387.66   22.80
  -2  -1   2  342.47   27.10
  -2  -1   2  395.36   22.90
  -2  -1   2  355.96   23.70
  -2  -1   2  358.46   23.50
   0   1  -2  150.08    9.10
   0   1  -2  149.59    9.10
   0   1  -2  148.89    8.90
   0   1  -2  130.79    8.90
   0  -1   2  144.89    9.00
   0  -1   2  125.19    8.80
   0  -1   2  142.09    9.10
   0  -1   2  147.49    9.00
   0  -1   2  137.69    9.10
   0  -1   2  131.79    9.00
  -1   1  -2 2616.44  198.78
   1  -1   2 2827.82  202.08
  -2   1  -2   22.90    2.20
  -2   1  -2   22.70    2.80
  -2   1  -2   22.50    2.70
  -2   1  -2   25.20    2.60
  -2   1  -2   24.30    2.70
   2  -1   2   19.00    2.80
   2  -1   2   22.40    2.70
   2  -1   2   25.90    2.30
   2  -1   2   25.60    3.10
   2  -1   2   23.00    2.60
  -3   1  -2  222.18   16.20
  -3   1  -2  247.58   15.80
  -3   1  -2  242.78   15.70
  -3   1  -2  242.18   15.40
  -3   1  -2  237.28   15.80
   3  -1   2  215.48   15.40
   3  -1   2  220.78   15.70
   3  -1   2  231.78   15.80
   3  -1   2  202.28   16.10
  -4   1  -2   11.80    2.60
  -4   1  -2   13.20    3.30
  -4   1  -2    8.90    2.60
  -4   1  -2    8.20    2.80
  -4   1  -2   12.30    2.60
   4  -1   2    9.40    2.80
   4  -1   2   14.70    3.00
   4  -1   2   11.10    2.50
   4  -1   2   12.90    2.80
  -5   1  -2    6.90    2.70
  -5   1  -2   10.50    3.00
  -5   1  -2    6.60    2.50
  -5   1  -2    8.30    3.00
  -5   1  -2    5.00    2.30
   5  -1   2    8.90    2.70
   5  -1   2    9.40    3.20
   5  -1   2    7.50    2.30
   5  -1   2    7.90    3.40
  -6   1  -2   11.30    3.30
  -6   1  -2    8.80    3.20
  -6   1  -2   12.80    4.00
  -6   1  -2   14.10    3.60
  -6   1  -2   11.10    3.20
   6  -1   2   11.90    2.90
   6  -1   2    9.50    3.10
   6  -1   2   10.90    4.50
   6  -1   2   10.30    3.30
  -7   1  -2   17.90    4.40
  -7   1  -2   14.70    4.00
  -7   1  -2   21.30    5.00
  -7   1  -2   21.40    5.30
  -7   1  -2   18.40    4.50
   7  -1   2   14.10    4.20
   7  -1   2   21.70    4.40
   7  -1   2   14.40    4.80
  -8   1  -2   -0.50    2.60
  -8   1  -2   -2.30    2.70
  -8   1  -2   -1.20    2.60
   8  -1   2    3.20    2.80
   8  -1   2   -6.00    2.10
   8  -1   2    0.20    3.20
  -9   1  -2    0.90    3.20
  -9   1  -2   -0.80    3.20
  -9   1  -2    1.20    3.30
  -9   1  -2   -1.10    2.70
   9  -1   2   -1.40    3.80
   9  -1   2    3.40    3.30
   9   0  -2   -3.00    1.80
   9   0  -2   -0.60    4.90
  -9   0   2    4.80    3.50
  -9   0   2    0.40    3.10
   8   0  -2   63.29   13.80
   8   0  -2   70.09    7.10
  -8   0   2   70.89    7.70
  -8   0   2   69.79    8.70
  -8   0   2   79.09    7.60
  -8   0   2   69.79    8.30
  -8   0   2   87.69    7.80
   7   0  -2   57.89    4.50
   7   0  -2   56.89   15.00
   7   0  -2   48.60    5.90
   7   0  -2   58.79    4.40
   7   0  -2   62.89    5.50
  -7   0   2   48.60    6.60
  -7   0   2   60.89    6.40
  -7   0   2   61.29    6.40
  -7   0   2   65.79    7.60
  -7   0   2   59.69    6.10
  -7   0   2   64.79    6.30
   6   0  -2  217.18   15.10
   6   0  -2  226.98   14.70
   6   0  -2  228.98   14.50
   6   0  -2  200.28   22.70
   6   0  -2  225.18   15.60
  -6   0   2  223.98   16.20
  -6   0   2  226.88   15.60
  -6   0   2  235.88   15.70
  -6   0   2  224.48   16.80
  -6   0   2  228.48   16.90
  -6   0   2  188.58   16.10
   5   0  -2  121.29    8.70
   5   0  -2  113.29    7.90
   5   0  -2  119.69    7.80
   5   0  -2  113.29    8.20
   5   0  -2   96.69   13.70
  -5   0   2  107.89    8.80
  -5   0   2  119.29    8.60
  -5   0   2  107.09    8.70
  -5   0   2  114.79    8.60
  -5   0   2  106.09    9.50
   4   0  -2  433.06   26.10
   4   0  -2  424.06   26.20
   4   0  -2  436.36   26.90
   4   0  -2  384.76   32.40
  -4   0   2  440.56   26.80
  -4   0   2  358.86   27.20
  -4   0   2  431.26   27.30
  -4   0   2  418.36   27.00
  -4   0   2  407.96   27.70
  -4   0   2  446.56   26.90
   3   0  -2  168.68   15.80
   3   0  -2  186.28   11.60
  -3   0   2  156.18   12.00
  -3   0   2  181.68   12.70
  -3   0   2  180.38   12.20
  -3   0   2  185.68   12.70
  -3   0   2  169.68   11.70
  -3   0   2  206.28   12.00
  -3   0   2  179.68   11.80
   2   0  -2   70.39    5.70
   2   0  -2   75.79    8.20
   2   0  -2   84.19    5.10
  -2   0   2   75.99    5.70
  -2   0   2   83.69    5.30
  -2   0   2   67.39    8.10
  -2   0   2   79.19    5.40
  -2   0   2   82.69    5.20
  -2   0   2   78.29    6.00
  -2   0   2   81.69    5.30
   1   0  -2  320.77   23.30
   1   0  -2  402.46   25.40
   1   0  -2  372.96   22.70
   1   0  -2  371.86   23.20
   1   0  -2  384.16   22.70
  -1   0   2  355.16   23.30
  -1   0   2  354.46   22.70
  -1   0   2  379.56   23.10
  -1   0   2  371.26   25.40
   0   0  -2  423.56   25.40
   0   0  -2  389.96   25.60
   0   0  -2  452.45   25.70
   0   0   2  415.26   25.50
   0   0   2  418.66   25.60
   0   0   2  428.46   25.60
   0   0   2  354.56   25.60
  -1   0  -2  115.79    7.60
  -1   0  -2  103.99    7.90
  -1   0  -2  119.49    7.80
  -1   0  -2  118.99    7.40
  -1   0  -2  111.99    7.60
   1   0   2  101.89    7.90
   1   0   2  113.19    7.40
   1   0   2  112.09    7.70
   1   0   2  115.29    7.70
   1   0   2  119.19    7.70
  -2   0  -2 1214.48   84.89
  -2   0  -2 1461.15   84.69
  -2   0  -2 1479.75   84.59
  -2   0  -2 1390.76   84.29
   2   0   2 1161.88   84.89
   2   0   2 1366.66   84.29
   2   0   2 1419.46   84.49
   2   0   2 1356.06   84.59
   2   0   2 1417.96   84.69
  -3   0  -2  756.82   45.90
  -3   0  -2  739.23   46.00
  -3   0  -2  766.22   46.10
  -3   0  -2  711.23   45.70
  -3   0  -2  661.83   46.50
   3   0   2  743.03   46.00
   3   0   2  715.63   45.90
   3   0   2  702.03   45.70
   3   0   2  723.73   45.80
   3   0   2  730.13   47.00
  -4   0  -2   58.89    5.40
  -4   0  -2   54.59    5.20
  -4   0  -2   53.09    5.30
  -4   0  -2   56.49    6.00
  -4   0  -2   59.29    5.30
   4   0   2   54.69    5.10
   4   0   2   55.09    5.30
   4   0   2   51.59    5.10
   4   0   2   57.69    6.40
  -5   0  -2  830.62   52.49
  -5   0  -2  757.42   53.49
  -5   0  -2  833.42   52.59
  -5   0  -2  829.22   52.69
  -5   0  -2  848.52   52.69
   5   0   2  795.82   52.49
   5   0   2  876.51   52.79
   5   0   2  795.92   52.49
   5   0   2  813.52   52.19
  -6   0  -2   22.30    4.30
  -6   0  -2   12.20    3.40
  -6   0  -2   22.80    4.40
  -6   0  -2   20.20    4.60
  -6   0  -2   15.30    3.80
   6   0   2   17.80    3.90
   6   0   2   16.60    4.50
   6   0   2   20.80    3.70
   6   0   2   17.20    3.90
  -7   0  -2  467.65   32.20
  -7   0  -2  477.95   32.60
  -7   0  -2  437.26   33.50
  -7   0  -2  517.25   32.90
  -7   0  -2  473.15   32.40
   7   0   2  479.75   34.20
   7   0   2  481.75   32.30
   7   0   2  476.15   32.40
   7   0   2  456.55   31.70
  -8   0  -2    7.70    3.50
  -8   0  -2    2.80    2.80
  -8   0  -2   10.50    3.50
  -8   0  -2   11.10    4.40
   8   0   2    6.00    3.20
   8   0   2    8.40    4.20
   8   0   2   12.50    4.40
  -9   0  -2  233.28   18.30
  -9   0  -2  219.68   17.80
  -9   0  -2  217.08   17.60
   9   0   2  210.48   19.30
   9   0   2  213.28   17.50
   9   0   2  228.78   17.30
 -10   0  -2   11.80    4.70
 -10   0  -2    5.30    3.70
  10   0   2   10.90    4.20
  10   0   2   16.50    5.70
   9  -1  -2    2.30    1.20
   9  -1  -2   -0.60    2.20
   9  -1  -2   -1.30    4.70
  -9   1   2   -3.30    2.60
  -9   1   2    1.80    2.90
  -9   1   2   -0.60    2.40
  -9   1   2    1.20    3.40
   8  -1  -2    5.10    2.80
   8  -1  -2    3.90    2.30
   8  -1  -2    9.70    2.40
   8  -1  -2    3.40    6.20
  -8   1   2    3.50    3.00
  -8   1   2    6.50    3.70
  -8   1   2    9.30    3.10
  -8   1   2    6.00    3.40
   7  -1  -2   -0.40    1.30
   7  -1  -2   -1.70    1.50
   7  -1  -2    2.80    5.00
   7  -1  -2   -1.00    1.70
   7  -1  -2   -1.00    1.40
  -7   1   2    3.40    2.00
  -7   1   2   -1.10    2.30
  -7   1   2   -1.20    1.80
  -7   1   2   -0.30    2.30
  -7   1   2   -1.40    2.10
   6  -1  -2    9.20    2.80
   6  -1  -2   12.20    2.60
   6  -1  -2    5.60    2.50
   6  -1  -2    8.10    2.20
   6  -1  -2    9.10    5.70
  -6   1   2   11.60    2.90
  -6   1   2    9.40    3.10
  -6   1   2   11.30    2.70
  -6   1   2    9.00    3.00
  -6   1   2    9.50    2.60
  -6   1   2    8.90    3.30
   5  -1  -2   11.00    5.80
   5  -1  -2    6.50    2.00
   5  -1  -2    7.50    1.80
   5  -1  -2    8.70    2.10
   5  -1  -2    9.70    2.50
  -5   1   2    6.10    2.40
  -5   1   2    6.80    2.10
  -5   1   2    6.80    2.20
  -5   1   2    7.70    2.20
  -5   1   2    8.20    2.50
  -5   1   2    7.60    2.20
   4  -1  -2   94.59    7.30
   4  -1  -2   89.09   11.10
   4  -1  -2  103.29    7.20
   4  -1  -2   99.19    7.60
   4  -1  -2   90.29    6.90
  -4   1   2   89.99    7.90
  -4   1   2   97.99    7.20
  -4   1   2   91.69    7.70
  -4   1   2   98.99    7.30
  -4   1   2  105.69    7.70
  -4   1   2   89.29    7.20
   3  -1  -2  150.58    9.90
   3  -1  -2  141.09    9.90
   3  -1  -2  124.29   13.00
   3  -1  -2  137.89    9.60
   3  -1  -2  150.88   10.20
  -3   1   2  147.89    9.80
  -3   1   2  137.79    9.90
  -3   1   2  173.58   10.40
  -3   1   2  143.59   10.20
  -3   1   2  142.49    9.80
   2  -1  -2 1337.47   91.59
   2  -1  -2 1548.95   89.09
   2  -1  -2 1265.17   88.99
   2  -1  -2 1439.16   89.09
  -2   1   2 1370.16   89.59
  -2   1   2 1377.86   89.19
  -2   1   2 1567.94   88.99
  -2   1   2 1594.84   89.39
  -2   1   2 1491.15   89.09
   1  -1  -2   27.20    2.30
   1  -1  -2   27.60    2.20
   1  -1  -2   30.30    3.40
   1  -1  -2   23.50    2.00
   1  -1  -2   28.30    2.00
   1  -1  -2   25.60    2.10
   1  -1  -2   22.60    2.40
  -1   1   2   23.20    2.30
  -1   1   2   25.70    3.30
  -1   1   2   26.10    2.40
  -1   1   2   30.30    2.10
  -1   1   2   29.40    2.20
  -1   1   2   29.70    2.20
   0  -1  -2   55.69    4.50
   0  -1  -2   59.49    4.10
   0  -1  -2   61.09    4.20
   0  -1  -2   59.79    4.20
   0  -1  -2   55.59    4.10
   0   1   2   59.79    4.60
   0   1   2   68.29    4.20
   0   1   2   57.79    4.10
   0   1   2   64.29    4.20
   0   1   2   62.79    4.20
   0   1   2   55.89    4.20
  -1  -1  -2  348.97   21.30
  -1  -1  -2  346.47   21.30
  -1  -1  -2  344.37   21.40
  -1  -1  -2  341.77   22.00
  -1  -1  -2  324.37   21.10
   1   1   2  330.47   21.10
   1   1   2  343.67   21.40
   1   1   2  326.57   21.30
   1   1   2  334.67   22.00
   1   1   2  323.67   21.30
  -2  -1  -2  849.61   50.29
  -2  -1  -2  804.62   50.39
  -2  -1  -2  783.02   50.09
  -2  -1  -2  768.82   50.29
  -2  -1  -2  832.32   51.29
   2   1   2  818.22   51.29
   2   1   2  776.92   50.19
   2   1   2  807.72   50.29
   2   1   2  753.52   50.29
   2   1   2  859.41   50.49
  -3  -1  -2  788.62   50.39
  -3  -1  -2  792.22   50.19
  -3  -1  -2  761.12   50.29
  -3  -1  -2  825.22   50.29
   3   1   2  827.92   50.29
   3   1   2  769.02   50.29
   3   1   2  864.51   50.49
   3   1   2  754.42   50.29
   3   1   2  810.72   51.49
  -4  -1  -2 2157.98  125.69
  -4  -1  -2 2038.00  125.39
  -4  -1  -2 1746.83  126.09
  -4  -1  -2 2054.89  125.29
  -4  -1  -2 1986.00  125.39
   4   1   2 2168.18  125.59
   4   1   2 2025.90  125.29
   4   1   2 1942.31  125.39
   4   1   2 2084.89  126.89
   4   1   2 1983.40  126.19
  -5  -1  -2  119.69    9.50
  -5  -1  -2  108.19   10.10
  -5  -1  -2  110.69    9.30
  -5  -1  -2  127.29    9.50
   5   1   2  110.39    9.30
   5   1   2  107.39   10.40
   5   1   2  121.99    9.50
   5   1   2  118.99    9.10
   5   1   2  113.79    9.20
  -6  -1  -2  654.93   44.10
  -6  -1  -2  688.33   44.20
  -6  -1  -2  688.73   44.20
  -6  -1  -2  735.73   44.10
  -6  -1  -2  597.94   44.90
   6   1   2  716.63   44.20
   6   1   2  695.93   45.70
   6   1   2  633.64   44.10
   6   1   2  694.33   43.90
   6   1   2  634.14   43.50
  -7  -1  -2  265.57   22.20
  -7  -1  -2  278.87   21.20
  -7  -1  -2  292.87   21.30
  -7  -1  -2  295.77   21.30
  -7  -1  -2  293.87   21.00
   7   1   2  302.17   22.90
   7   1   2  303.77   20.80
   7   1   2  302.57   21.00
   7   1   2  275.17   21.20
   7   1   2  312.57   21.30
  -8  -1  -2  217.38   17.20
  -8  -1  -2  214.38   17.20
  -8  -1  -2  204.78   16.60
  -8  -1  -2  204.18   16.80
   8   1   2  222.08   16.50
   8   1   2  228.38   18.60
   8   1   2  216.78   16.90
  -9  -1  -2   89.29    9.40
  -9  -1  -2   89.39    9.50
  -9  -1  -2   82.09    9.40
  -9  -1  -2   80.19   10.40
   9   1   2   93.39    8.80
   9   1   2   80.89   10.40
   9   1   2   85.69    9.30
 -10  -1  -2   29.30    6.30
 -10  -1  -2   30.10    5.70
 -10  -1  -2   28.20    6.60
 -10  -1  -2   31.30    6.40
  10   1   2   32.10    6.70
  10   1   2   33.90    5.90
   9  -2  -2  102.09   10.30
   9  -2  -2  102.39    9.40
   9  -2  -2   90.19   18.70
  -9   2   2   99.79   10.20
  -9   2   2  104.19   11.40
  -9   2   2  119.69   11.40
  -9   2   2  104.09   10.10
   8  -2  -2   10.50    6.80
   8  -2  -2   12.10    3.30
   8  -2  -2   12.10    3.30
   8  -2  -2   14.40    3.70
  -8   2   2   11.30    3.80
  -8   2   2   17.10    4.00
  -8   2   2   18.10    4.80
  -8   2   2   14.60    4.30
   7  -2  -2  384.36   26.60
   7  -2  -2  423.46   27.30
   7  -2  -2  413.96   28.20
   7  -2  -2  337.07   34.20
   7  -2  -2  387.76   27.50
  -7   2   2  401.16   27.60
  -7   2   2  427.46   27.30
  -7   2   2  408.46   28.30
  -7   2   2  423.06   28.50
  -7   2   2  423.76   28.90
   6  -2  -2    1.80    1.70
   6  -2  -2   -0.80    3.20
   6  -2  -2    3.10    2.00
   6  -2  -2    1.50    2.20
  -6   2   2    0.10    1.80
  -6   2   2    0.50    1.90
  -6   2   2   -1.00    1.80
  -6   2   2   -0.80    2.00
  -6   2   2    0.00    1.60
  -6   2   2    2.00    2.10
   5  -2  -2 1581.74  100.69
   5  -2  -2 1623.94  101.29
   5  -2  -2 1598.34  101.29
  -5   2   2 1583.74  102.09
  -5   2   2 1704.53  101.19
  -5   2   2 1472.15  101.69
  -5   2   2 1696.73  101.89
  -5   2   2 1677.93  101.29
  -5   2   2 1650.93  100.89
   4  -2  -2   21.00    5.60
   4  -2  -2   24.30    3.50
   4  -2  -2   31.70    3.00
   4  -2  -2   25.20    3.40
   4  -2  -2   24.30    3.30
  -4   2   2   27.70    3.30
  -4   2   2   30.30    3.80
  -4   2   2   28.30    3.20
  -4   2   2   28.10    3.00
   3  -2  -2 3320.77  248.88
  -3   2   2 3362.66  241.48
   2  -2  -2   82.09    6.60
   2  -2  -2   95.29    6.20
   2  -2  -2   86.79    6.80
   2  -2  -2   88.89    6.20
   2  -2  -2   87.49    6.40
   2  -2  -2   80.29    7.80
  -2   2   2   92.29    6.70
  -2   2   2   95.39    6.20
  -2   2   2   98.19    7.00
  -2   2   2   89.29    6.30
  -2   2   2   93.89    6.40
   0  -2  -2  944.91   59.79
   0  -2  -2  978.60   59.19
   0  -2  -2  905.01   58.79
   0   2   2  977.30   59.89
   0   2   2  964.40   59.19
   0   2   2  964.90   59.19
  -1  -2  -2 6274.77  434.96
   1   2   2 6375.66  433.86
  -2  -2  -2 1598.44  102.69
  -2  -2  -2 1680.63  101.69
  -2  -2  -2 1703.13  101.79
  -2  -2  -2 1670.53  101.59
   2   2   2 1558.74  101.59
   2   2   2 1723.53  101.69
   2   2   2 1516.65  101.59
   2   2   2 1617.44  102.69
   2   2   2 1719.33  101.69
  -3  -2  -2 1615.34   95.89
  -3  -2  -2 1487.55   95.89
  -3  -2  -2 1575.54   96.09
  -3  -2  -2 1505.85   97.19
  -3  -2  -2 1504.15   95.89
   3   2   2 1580.14   95.89
   3   2   2 1456.95   95.89
   3   2   2 1655.13   96.09
   3   2   2 1575.34   97.19
   3   2   2 1486.25   95.99
  -4  -2  -2  176.88   14.20
  -4  -2  -2  177.48   12.90
  -4  -2  -2  164.58   12.70
  -4  -2  -2  195.58   12.90
  -4  -2  -2  178.08   13.00
   4   2   2  201.38   13.10
   4   2   2  180.88   12.80
   4   2   2  183.88   14.10
   4   2   2  170.38   12.90
  -5  -2  -2  715.93   45.10
  -5  -2  -2  708.43   45.20
  -5  -2  -2  684.93   46.80
  -5  -2  -2  713.93   45.00
  -5  -2  -2  704.93   45.20
   5   2   2  703.93   45.00
   5   2   2  737.33   45.20
   5   2   2  706.83   46.60
   5   2   2  638.94   45.10
   5   2   2  674.43   44.80
  -6  -2  -2  169.38   12.50
  -6  -2  -2  163.28   12.50
  -6  -2  -2  148.29   12.50
  -6  -2  -2  177.88   12.90
  -6  -2  -2  139.59   13.20
   6   2   2  154.88   12.10
   6   2   2  172.98   14.00
   6   2   2  167.28   12.50
   6   2   2  154.28   12.10
   6   2   2  151.98   12.80
  -7  -2  -2   91.99    9.20
  -7  -2  -2   85.49    9.70
  -7  -2  -2   97.89    9.20
  -7  -2  -2   84.39    8.60
  -7  -2  -2   91.19    8.80
   7   2   2  106.49    9.20
   7   2   2   87.49    8.20
   7   2   2  109.99   10.60
   7   2   2   94.79    8.60
  -8  -2  -2   50.99    6.70
  -8  -2  -2   43.90    6.50
  -8  -2  -2   66.09   12.30
  -8  -2  -2   53.89    7.20
   8   2   2   51.69    7.10
   8   2   2   47.40    5.90
   8   2   2   53.19    8.50
  -9  -2  -2   16.20    4.90
  -9  -2  -2   27.30    5.70
  -9  -2  -2   24.80    5.90
  -9  -2  -2   22.30    4.80
   9   2   2   20.70    5.40
   9   2   2   19.10    4.10
   9   2   2   19.20    4.70
   9  -3  -2    3.90    3.20
   9  -3  -2    6.80    7.00
   9  -3  -2   10.40    2.90
   9  -3  -2    8.00    3.70
  -9   3   2    2.60    3.10
  -9   3   2    7.10    4.50
  -9   3   2    6.40    3.70
   8  -3  -2  264.47   19.30
   8  -3  -2  225.38   26.40
   8  -3  -2  251.77   19.70
   8  -3  -2  257.27   20.30
  -8   3   2  253.67   20.80
  -8   3   2  286.17   21.00
  -8   3   2  272.47   19.50
  -8   3   2  280.07   20.10
  -8   3   2  282.77   19.10
   7  -3  -2   35.10    5.70
   7  -3  -2   27.90    8.80
   7  -3  -2   54.29    6.80
   7  -3  -2   45.50    5.40
  -7   3   2   44.70    5.00
  -7   3   2   45.90    6.00
  -7   3   2   38.40    6.60
  -7   3   2   34.90    5.60
  -7   3   2   46.10    6.80
  -7   3   2   40.30    6.40
   6  -3  -2  655.53   44.60
   6  -3  -2  681.83   44.70
   6  -3  -2  657.83   43.70
  -6   3   2  704.73   45.40
  -6   3   2  651.43   45.10
  -6   3   2  702.93   43.80
  -6   3   2  755.42   44.60
  -6   3   2  667.03   45.40
  -6   3   2  679.93   44.60
   5  -3  -2   22.90    3.20
   5  -3  -2   26.80    4.40
   5  -3  -2   24.30    3.90
   5  -3  -2   22.50    3.90
  -5   3   2   17.90    3.30
  -5   3   2   24.70    4.50
  -5   3   2   19.80    3.50
  -5   3   2   18.80    3.80
  -5   3   2   17.90    2.90
   4  -3  -2  160.08   12.90
   4  -3  -2  171.48   12.10
   4  -3  -2  166.48   12.60
  -4   3   2  185.18   13.10
  -4   3   2  181.68   12.50
  -4   3   2  178.08   12.60
  -4   3   2  186.88   12.00
  -4   3   2  174.38   13.20
   3  -3  -2  187.28   14.40
   3  -3  -2  199.68   13.70
   3  -3  -2  183.78   13.50
   3  -3  -2  213.08   14.20
   3  -3  -2  210.18   14.80
  -3   3   2  228.98   15.00
  -3   3   2  226.78   15.30
  -3   3   2  197.38   14.00
  -3   3   2  201.58   14.00
  -3   3   2  222.88   13.50
   2  -3  -2  206.98   15.30
   2  -3  -2  184.38   14.90
   2  -3  -2  240.98   14.60
   2  -3  -2  234.88   14.90
   2  -3  -2  218.78   14.30
  -2   3   2  246.48   14.90
  -2   3   2  230.78   14.30
  -2   3   2  240.68   14.80
  -2   3   2  216.58   15.50
  -2   3   2  212.28   14.90
   1  -3  -2   52.39    4.90
   1  -3  -2   53.99    4.30
   1  -3  -2   53.69    4.10
   1  -3  -2   56.09    4.50
  -1   3   2   50.39    4.90
  -1   3   2   56.69    4.30
  -1   3   2   53.79    4.30
  -1   3   2   54.59    4.20
   0  -3  -2   49.40    3.90
   0  -3  -2   50.69    4.00
   0  -3  -2   45.10    4.60
   0  -3  -2   51.49    4.10
   0   3   2   53.39    3.90
   0   3   2   47.20    4.70
   0   3   2   49.30    3.40
   0   3   2   55.19    4.10
   0   3   2   47.90    4.00
   0   3   2   48.20    4.00
  -1  -3  -2  207.78   14.20
  -1  -3  -2  211.18   14.10
  -1  -3  -2  208.18   13.90
  -1  -3  -2  213.98   14.00
  -1  -3  -2  201.48   15.00
   1   3   2  218.48   14.00
   1   3   2  224.58   14.20
   1   3   2  216.08   14.20
   1   3   2  226.08   14.10
   1   3   2  206.68   15.00
  -2  -3  -2  652.93   39.50
  -2  -3  -2  563.84   40.30
  -2  -3  -2  614.14   39.20
  -2  -3  -2  641.74   39.40
  -2  -3  -2  662.33   39.30
   2   3   2  659.83   39.50
   2   3   2  614.54   40.40
   2   3   2  666.03   39.30
   2   3   2  564.74   39.20
   2   3   2  587.64   39.20
  -3  -3  -2  423.26   27.40
  -3  -3  -2  466.35   27.60
  -3  -3  -2  445.46   27.50
  -3  -3  -2  408.66   27.50
  -3  -3  -2  372.46   28.70
   3   3   2  469.35   27.60
   3   3   2  436.96   27.60
   3   3   2  392.96   27.50
   3   3   2  390.66   27.30
   3   3   2  440.06   28.70
  -4  -3  -2  120.99    9.30
  -4  -3  -2  130.19    9.70
  -4  -3  -2  136.39   10.10
  -4  -3  -2  104.49   10.40
  -4  -3  -2  124.59    9.50
   4   3   2  138.69    9.60
   4   3   2  125.79   10.60
   4   3   2  109.09    9.60
   4   3   2  128.69    9.40
   4   3   2  118.99    9.60
  -5  -3  -2  101.69    8.40
  -5  -3  -2   99.09    8.20
  -5  -3  -2   94.59    8.20
  -5  -3  -2  101.69    9.80
  -5  -3  -2   94.59    8.30
   5   3   2   99.79    9.50
   5   3   2   98.49    8.10
   5   3   2   90.39    8.30
   5   3   2   95.69    8.00
   5   3   2   99.59    8.30
  -6  -3  -2  158.78   12.70
  -6  -3  -2  147.69   12.50
  -6  -3  -2  159.98   12.30
  -6  -3  -2  173.98   12.60
  -6  -3  -2  165.08   14.40
   6   3   2  160.48   12.50
   6   3   2  181.88   14.20
   6   3   2  140.19   12.60
   6   3   2  151.98   12.10
  -7  -3  -2   25.90    4.80
  -7  -3  -2   24.30    4.50
  -7  -3  -2   25.60    4.80
  -7  -3  -2   26.00    4.80
  -7  -3  -2   16.70    4.90
   7   3   2   26.90    5.70
   7   3   2   28.80    4.80
   7   3   2   24.50    4.20
  -8  -3  -2   24.50    4.70
  -8  -3  -2   15.10    4.40
  -8  -3  -2   18.50    4.80
   8   3   2   13.90    3.90
   8   3   2   22.20    5.10
   8   3   2   18.10    3.90
  -9  -3  -2   49.99    7.40
  -9  -3  -2   48.80    8.40
  -9  -3  -2   42.40    7.30
  -9  -3  -2   64.39    7.20
   9   3   2   41.60    7.30
   9   3   2   59.29    7.70
   9   3   2   56.19    6.30
   9   3   2   36.80   13.50
   9  -4  -2   39.40    6.50
   9  -4  -2   39.00    6.90
  -9   4   2   33.30    7.50
  -9   4   2   38.10    7.80
  -9   4   2   43.90    7.20
   8  -4  -2   10.10    4.30
   8  -4  -2    8.90    6.20
   8  -4  -2   10.40    3.20
   8  -4  -2   11.10    4.10
  -8   4   2   21.10    4.50
  -8   4   2   11.20    3.10
  -8   4   2   12.20    4.60
   7  -4  -2   61.89    7.80
   7  -4  -2   39.50    9.90
   7  -4  -2   57.79    6.70
  -7   4   2   58.89    5.50
  -7   4   2   48.70    7.00
  -7   4   2   49.80    7.90
  -7   4   2   42.10    7.00
  -7   4   2   55.89    6.50
   6  -4  -2   42.30    6.00
   6  -4  -2   47.40    6.60
   6  -4  -2   49.00    6.20
   6  -4  -2   43.10    5.30
  -6   4   2   48.80    7.30
  -6   4   2   47.20    6.80
  -6   4   2   49.10    6.30
  -6   4   2   50.69    6.60
  -6   4   2   50.19    5.90
  -6   4   2   48.80    4.70
   5  -4  -2    1.10    1.50
   5  -4  -2   -0.40    2.10
   5  -4  -2    4.10    2.40
   5  -4  -2    0.40    1.70
  -5   4   2    1.80    1.30
  -5   4   2   -2.00    1.80
  -5   4   2   -0.90    1.80
  -5   4   2    0.60    2.60
  -5   4   2    1.40    1.80
   4  -4  -2    5.80    2.30
   4  -4  -2    8.70    2.60
   4  -4  -2    8.80    2.00
   4  -4  -2   13.30    3.40
  -4   4   2    9.10    1.70
  -4   4   2    9.40    2.70
  -4   4   2    9.90    2.70
  -4   4   2   10.60    3.10
   3  -4  -2    2.80    1.30
   3  -4  -2    2.70    1.80
   3  -4  -2    2.70    1.00
   3  -4  -2    1.30    1.40
   3  -4  -2    2.40    1.90
  -3   4   2    1.40    1.40
  -3   4   2    2.20    1.60
  -3   4   2    1.40    1.50
  -3   4   2    3.20    1.00
  -3   4   2    1.20    2.00
   2  -4  -2  149.39   11.10
   2  -4  -2  137.39   10.60
   2  -4  -2  147.79    9.80
   2  -4  -2  140.09   11.40
  -2   4   2  166.58   11.70
  -2   4   2  146.69   10.60
  -2   4   2  151.38   10.70
  -2   4   2  169.08   10.90
   1  -4  -2 1181.48   72.89
   1  -4  -2 1194.18   73.59
   1  -4  -2 1112.19   74.09
   1  -4  -2 1106.99   73.09
  -1   4   2 1190.08   74.19
  -1   4   2 1214.28   73.09
  -1   4   2 1160.18   73.19
  -1   4   2 1237.38   73.19
   0  -4  -2  288.97   18.50
   0  -4  -2  305.37   18.90
   0  -4  -2  262.27   19.60
   0  -4  -2  269.17   18.70
   0   4   2  290.87   18.90
   0   4   2  303.17   18.80
   0   4   2  298.97   18.60
   0   4   2  297.77   18.80
   0   4   2  282.57   19.70
   0   4   2  269.97   19.00
  -1  -4  -2  274.07   20.70
  -1  -4  -2  290.17   19.90
  -1  -4  -2  297.27   19.70
  -1  -4  -2  322.57   19.80
  -1  -4  -2  301.67   19.60
   1   4   2  315.47   20.90
   1   4   2  306.77   19.60
   1   4   2  303.17   20.00
   1   4   2  308.47   19.80
   1   4   2  308.27   19.90
  -2  -4  -2 1695.13  114.09
  -2  -4  -2 1636.14  111.89
  -2  -4  -2 1826.82  112.89
  -2  -4  -2 1878.81  112.69
  -2  -4  -2 1905.81  112.99
   2   4   2 1889.21  114.09
   2   4   2 1769.22  112.79
   2   4   2 1938.11  112.69
   2   4   2 1851.71  113.09
  -3  -4  -2    6.40    1.80
  -3  -4  -2    7.40    2.70
  -3  -4  -2    3.60    1.80
  -3  -4  -2    5.40    1.90
  -3  -4  -2    3.00    1.70
   3   4   2    6.80    1.80
   3   4   2    6.20    2.00
   3   4   2    6.00    1.80
   3   4   2    8.10    2.70
   3   4   2    7.40    2.00
  -4  -4  -2  704.03   43.90
  -4  -4  -2  698.73   44.50
  -4  -4  -2  696.93   44.10
  -4  -4  -2  641.44   45.50
  -4  -4  -2  707.23   44.00
   4   4   2  727.43   43.80
   4   4   2  706.83   45.20
   4   4   2  646.04   43.60
   4   4   2  668.53   43.80
   4   4   2  652.03   44.10
  -5  -4  -2   26.40    4.10
  -5  -4  -2   24.00    5.20
  -5  -4  -2   29.90    4.50
  -5  -4  -2   30.80    4.40
  -5  -4  -2   29.90    4.60
   5   4   2   29.10    5.20
   5   4   2   33.70    4.50
   5   4   2   28.30    4.50
   5   4   2   28.50    4.30
   5   4   2   28.60    3.80
  -6  -4  -2  569.04   38.80
  -6  -4  -2  582.84   38.50
  -6  -4  -2  617.44   39.10
  -6  -4  -2  610.84   38.70
  -6  -4  -2  596.44   41.20
   6   4   2  501.25   38.80
   6   4   2  572.64   38.30
   6   4   2  554.54   38.40
   6   4   2  639.44   40.20
   6   4   2  632.64   38.70
  -7  -4  -2   33.40    5.70
  -7  -4  -2   29.50    5.30
  -7  -4  -2   43.60    5.90
  -7  -4  -2   49.50    6.00
  -7  -4  -2   32.60    7.00
   7   4   2   37.20    5.50
   7   4   2   38.70    4.80
   7   4   2   33.10    6.10
  -8  -4  -2  243.98   18.50
  -8  -4  -2  250.07   18.40
  -8  -4  -2  239.68   18.60
   8   4   2  252.17   19.20
   8   4   2  240.78   17.60
   8   4   2  231.48   18.00
  -9  -4  -2   43.00    6.50
  -9  -4  -2   41.20    7.10
  -9  -4  -2   38.10    6.50
   9   4   2   58.59    7.20
   9   4   2   51.49    5.70
   9   4   2   43.70    6.70
   9   4   2   40.30   14.60
   9  -5  -2    1.60    3.70
   9  -5  -2    7.60    3.80
   9  -5  -2   -0.90    3.70
  -9   5   2    2.90    3.30
  -9   5   2    1.20    3.30
  -9   5   2    2.40    3.90
  -9   5   2    8.30    4.50
   8  -5  -2   18.80    7.70
   8  -5  -2   12.40    4.40
  -8   5   2   20.50    3.40
  -8   5   2   25.90    6.20
  -8   5   2   21.80    5.30
  -8   5   2   23.10    6.00
  -8   5   2   30.80    7.80
   7  -5  -2   21.60    4.70
   7  -5  -2    7.70    3.60
   7  -5  -2   11.20    5.70
   7  -5  -2   16.70    4.60
  -7   5   2   11.60    2.60
  -7   5   2   11.30    4.50
  -7   5   2    3.70    3.60
  -7   5   2   12.90    3.80
  -7   5   2   20.30    5.10
   6  -5  -2   61.19    7.70
   6  -5  -2   59.59    7.40
   6  -5  -2   76.99    8.10
  -6   5   2   77.39    6.00
  -6   5   2   76.69    7.30
  -6   5   2   67.99    7.70
  -6   5   2   65.19    7.50
  -6   5   2   79.99    8.80
   5  -5  -2   41.10    6.10
   5  -5  -2   33.20    5.40
   5  -5  -2   36.10    4.30
   5  -5  -2   28.20    5.40
  -5   5   2   41.30    5.80
  -5   5   2   45.60    5.50
  -5   5   2   36.70    6.30
  -5   5   2   40.10    5.20
   4  -5  -2  189.28   14.30
   4  -5  -2  174.38   15.70
   4  -5  -2  188.48   14.90
   4  -5  -2  176.68   13.30
  -4   5   2  205.78   15.40
  -4   5   2  213.58   12.70
  -4   5   2  197.78   14.40
  -4   5   2  178.98   14.10
  -4   5   2  191.48   13.90
   3  -5  -2  718.03   47.80
   3  -5  -2  748.93   46.40
   3  -5  -2  644.44   45.50
   3  -5  -2  711.53   47.00
   3  -5  -2  665.93   47.40
  -3   5   2  761.22   46.80
  -3   5   2  773.52   48.20
  -3   5   2  798.12   47.20
  -3   5   2  788.52   47.00
   2  -5  -2  187.08   11.90
   2  -5  -2  172.48   13.10
   2  -5  -2  179.28   13.60
   2  -5  -2  182.58   14.10
   2  -5  -2  177.98   12.50
  -2   5   2  185.48   13.10
  -2   5   2  188.48   13.10
  -2   5   2  185.68   14.20
  -2   5   2  206.68   13.20
   1  -5  -2 1535.85   97.09
   1  -5  -2 1526.85   97.39
   1  -5  -2 1440.56   98.09
   1  -5  -2 1544.75   96.69
  -1   5   2 1622.74   97.19
  -1   5   2 1473.85   96.79
  -1   5   2 1668.73   96.99
  -1   5   2 1563.04   98.19
  -1   5   2 1659.73   96.99
   0  -5  -2   23.50    2.90
   0  -5  -2   18.80    2.90
   0  -5  -2   17.50    3.50
   0  -5  -2   23.30    2.80
   0   5   2   12.80    2.60
   0   5   2   20.50    2.70
   0   5   2   25.10    3.40
   0   5   2   19.40    2.90
   0   5   2   15.60    3.50
  -1  -5  -2 2114.99  129.59
  -1  -5  -2 2179.78  129.29
  -1  -5  -2 2078.59  129.39
  -1  -5  -2 1907.41  130.69
   1   5   2 2130.59  129.79
   1   5   2 1973.60  129.59
   1   5   2 2222.48  130.89
   1   5   2 2141.39  129.49
   1   5   2 1948.31  131.89
   1   5   2 2223.68  129.29
  -2  -5  -2 1213.28   77.79
  -2  -5  -2 1327.77   77.69
  -2  -5  -2 1308.67   77.59
  -2  -5  -2 1265.27   77.89
  -2  -5  -2 1340.97   76.49
  -2  -5  -2 1111.49   78.99
   2   5   2 1251.37   77.99
   2   5   2 1117.59   77.59
   2   5   2 1268.87   78.49
   2   5   2 1079.79   81.49
   2   5   2 1261.87   79.09
   2   5   2 1369.26   77.59
  -3  -5  -2  700.33   42.80
  -3  -5  -2  694.13   43.10
  -3  -5  -2  611.44   44.30
  -3  -5  -2  657.73   41.90
  -3  -5  -2  730.73   42.80
  -3  -5  -2  720.33   43.00
   3   5   2  565.34   47.80
   3   5   2  707.93   44.20
   3   5   2  621.74   42.80
   3   5   2  675.53   43.00
   3   5   2  634.74   42.60
   3   5   2  716.93   42.70
  -4  -5  -2  558.84   36.60
  -4  -5  -2  505.95   38.10
  -4  -5  -2  522.55   35.70
  -4  -5  -2  628.84   36.40
  -4  -5  -2  609.84   36.60
  -4  -5  -2  595.24   36.50
   4   5   2  519.95   36.10
   4   5   2  517.75   36.60
   4   5   2  594.24   36.20
   4   5   2  568.74   36.50
   4   5   2  466.95   42.50
   4   5   2  641.84   38.00
  -5  -5  -2  420.16   27.50
  -5  -5  -2  437.66   27.50
  -5  -5  -2  366.06   29.30
  -5  -5  -2  411.26   27.90
  -5  -5  -2  387.76   27.00
  -5  -5  -2  461.15   27.90
   5   5   2  436.66   27.40
   5   5   2  409.26   27.50
   5   5   2  398.56   27.10
   5   5   2  376.96   27.90
   5   5   2  335.77   34.60
   5   5   2  487.55   30.70
  -6  -5  -2  351.26   23.60
  -6  -5  -2  326.47   23.80
  -6  -5  -2  362.86   23.70
  -6  -5  -2  319.97   23.30
  -6  -5  -2  355.06   24.00
   6   5   2  385.26   25.00
   6   5   2  345.07   23.50
   6   5   2  317.57   23.10
   6   5   2  377.86   23.60
   6   5   2  306.47   24.00
   6   5   2  306.97   32.80
  -7  -5  -2   79.99    7.80
  -7  -5  -2   83.99    8.40
  -7  -5  -2   84.59    8.00
  -7  -5  -2   60.99   10.90
  -7  -5  -2   64.19    7.70
  -7  -5  -2   76.89    7.90
   7   5   2   59.99   15.60
   7   5   2   84.69    8.50
   7   5   2   75.49    7.50
   7   5   2   67.39    7.00
  -8  -5  -2  109.09   11.00
  -8  -5  -2  121.19   10.70
  -8  -5  -2  104.59   10.60
   8   5   2  115.89    9.80
   8   5   2  125.09   11.00
   8   5   2   95.59   18.80
   8   5   2  127.19   10.60
  -9  -5  -2   11.90    4.50
  -9  -5  -2   19.20    4.30
  -9  -5  -2    9.90    3.70
  -9  -5  -2    7.20    4.20
   9   5   2   11.00    9.00
   9   5   2    9.30    3.20
   9   5   2   16.70    3.30
   9   5   2    9.30    3.80
   8  -6  -2  108.69   15.70
   8  -6  -2  128.19   12.20
  -8   6   2  141.59   13.80
  -8   6   2  127.49   12.70
  -8   6   2  136.09    9.90
  -8   6   2  137.99   13.40
  -8   6   2  122.59   12.40
   7  -6  -2    3.10    2.90
   7  -6  -2   -0.30    2.50
   7  -6  -2    0.90    3.60
  -7   6   2    3.20    1.90
  -7   6   2    1.10    2.80
  -7   6   2    1.70    3.20
  -7   6   2    1.80    3.80
   6  -6  -2  395.66   32.60
   6  -6  -2  458.45   32.80
   6  -6  -2  446.06   32.20
  -6   6   2  493.45   29.90
  -6   6   2  504.05   33.80
  -6   6   2  500.25   32.00
   5  -6  -2   48.00    7.20
   5  -6  -2   40.60    6.70
   5  -6  -2   36.70    6.10
   5  -6  -2   45.90    4.90
  -5   6   2   47.80    6.50
  -5   6   2   45.50    6.10
  -5   6   2   42.20    7.20
  -5   6   2   45.20    6.00
   4  -6  -2 1122.89   78.79
   4  -6  -2 1156.78   77.19
   4  -6  -2 1179.68   78.19
   4  -6  -2 1215.18   79.19
  -4   6   2 1238.28   78.19
  -4   6   2 1285.37   77.99
  -4   6   2 1320.27   79.69
  -4   6   2 1341.57   78.49
   3  -6  -2   30.50    5.20
   3  -6  -2   31.80    5.40
   3  -6  -2   31.40    4.70
  -3   6   2   30.20    4.50
  -3   6   2   30.70    5.50
  -3   6   2   41.00    4.60
  -3   6   2   36.30    4.90
   2  -6  -2 1724.43  112.99
   2  -6  -2 1774.42  111.79
   2  -6  -2 1715.83  112.39
   2  -6  -2 1698.13  110.19
   2  -6  -2 1662.53  110.99
  -2   6   2 1963.80  111.79
  -2   6   2 1862.71  113.19
  -2   6   2 1895.61  111.79
  -2   6   2 1836.62  111.69
   1  -6  -2  319.37   21.50
   1  -6  -2  283.77   22.00
   1  -6  -2  306.57   20.50
  -1   6   2  317.87   20.90
  -1   6   2  318.27   20.90
  -1   6   2  318.87   21.30
  -1   6   2  318.97   22.30
  -1   6   2  311.37   21.00
   0  -6  -2 1974.10  121.99
   0  -6  -2 1859.61  122.39
   0  -6  -2 1944.31  121.39
   0  -6  -2 1790.42  122.99
   0   6   2 2038.40  121.79
   0   6   2 2104.09  121.59
   0   6   2 1948.11  121.89
   0   6   2 2008.70  122.29
  -1  -6  -2  475.85   29.60
  -1  -6  -2  400.36   30.60
  -1  -6  -2  435.66   29.10
  -1  -6  -2  463.25   29.10
  -1  -6  -2  434.26   29.30
   1   6   2  472.75   29.10
   1   6   2  470.95   29.30
   1   6   2  402.76   29.30
   1   6   2  457.15   29.60
   1   6   2  455.45   31.90
   1   6   2  486.25   30.90
  -2  -6  -2  463.25   28.50
  -2  -6  -2  374.36   30.00
  -2  -6  -2  450.85   28.70
  -2  -6  -2  435.06   28.80
   2   6   2  422.26   28.70
   2   6   2  462.55   29.00
   2   6   2  410.96   32.80
   2   6   2  439.26   29.10
   2   6   2  489.25   28.60
  -3  -6  -2    1.50    1.60
  -3  -6  -2    1.40    1.70
  -3  -6  -2    1.30    2.20
  -3  -6  -2    1.40    0.90
  -3  -6  -2    1.80    1.60
   3   6   2    2.60    1.60
   3   6   2    2.50    1.60
   3   6   2   -0.90    1.30
   3   6   2    2.00    3.40
   3   6   2   -1.80    1.20
   3   6   2    1.50    2.20
  -4  -6  -2   11.50    2.90
  -4  -6  -2    8.80    2.80
  -4  -6  -2    7.20    1.80
  -4  -6  -2   11.30    2.90
  -4  -6  -2   10.70    2.60
  -4  -6  -2    6.10    3.10
   4   6   2   11.70    3.00
   4   6   2   11.80    2.60
   4   6   2    7.80    5.40
   4   6   2   11.60    2.60
   4   6   2   12.70    2.90
  -5  -6  -2   89.79   10.00
  -5  -6  -2   89.89    7.40
  -5  -6  -2  100.19    8.40
  -5  -6  -2   85.29    8.30
  -5  -6  -2   93.19    8.30
  -5  -6  -2   96.49    8.00
   5   6   2   73.79   13.80
   5   6   2   76.99    7.80
   5   6   2   95.99    9.00
   5   6   2  102.29    8.00
   5   6   2   82.99    8.30
   5   6   2   94.59    7.80
  -6  -6  -2    3.90    2.80
  -6  -6  -2    3.30    2.60
  -6  -6  -2    6.60    3.40
  -6  -6  -2    2.70    2.40
  -6  -6  -2    3.00    2.30
  -6  -6  -2    2.60    2.20
   6   6   2    3.20    2.40
   6   6   2    4.80    6.20
   6   6   2    4.50    3.10
   6   6   2    2.80    2.00
  -7  -6  -2   25.40    4.80
  -7  -6  -2   13.30    3.70
  -7  -6  -2   17.10    4.00
  -7  -6  -2   18.00    5.10
  -7  -6  -2   18.10    3.90
   7   6   2   19.10    4.20
   7   6   2   19.40    4.00
   7   6   2   10.90   12.30
   7   6   2   16.80    3.50
  -8  -6  -2    1.90    3.10
  -8  -6  -2   -3.70    2.40
  -8  -6  -2   -0.40    3.30
  -8  -6  -2    4.30    2.80
   8   6   2    2.70    3.00
   8   6   2   -2.40    2.10
   8   6   2   -2.70    2.40
   8   6   2   -1.60    6.00
   8  -7  -2    9.20    4.20
   8  -7  -2    3.20    3.40
   8  -7  -2    5.30    4.40
  -8   7   2    9.70    5.20
  -8   7   2    6.90    4.30
  -8   7   2    6.90    2.20
  -8   7   2   11.20    4.60
   7  -7  -2   14.00    5.60
   7  -7  -2   23.40    5.50
   7  -7  -2   17.30    5.40
  -7   7   2   28.50    6.10
  -7   7   2   22.90    6.10
   6  -7  -2   34.60    6.30
   6  -7  -2   30.40    6.30
  -6   7   2   38.60    5.90
  -6   7   2   39.90    7.20
   5  -7  -2    3.60    2.80
   5  -7  -2    1.70    2.80
   5  -7  -2    2.60    3.10
  -5   7   2    2.80    3.00
  -5   7   2    0.20    3.40
   4  -7  -2   77.79    7.90
   4  -7  -2   64.99    8.00
   4  -7  -2   77.19    8.40
  -4   7   2   70.39    7.20
  -4   7   2   84.09    7.70
  -4   7   2   64.49    7.50
  -4   7   2   76.79    8.80
   3  -7  -2    7.90    2.20
   3  -7  -2    5.10    2.60
   3  -7  -2    6.20    1.70
   3  -7  -2    3.20    2.90
   3  -7  -2    4.30    2.70
  -3   7   2    3.80    3.20
  -3   7   2    5.80    2.40
  -3   7   2    2.50    2.50
   2  -7  -2  126.39   11.90
   2  -7  -2  139.59   11.10
   2  -7  -2  130.79   10.20
   2  -7  -2  128.39    8.90
   2  -7  -2  139.89   11.70
  -2   7   2  156.18   12.50
  -2   7   2  144.29   11.00
  -2   7   2  162.78   11.00
  -2   7   2  142.49   10.40
  -2   7   2  134.49   10.90
   1  -7  -2   43.10    4.50
   1  -7  -2   46.20    5.20
   1  -7  -2   53.99    5.80
   1  -7  -2   39.70    5.80
  -1   7   2   45.90    6.20
  -1   7   2   48.40    4.70
  -1   7   2   50.29    7.40
  -1   7   2   52.49    5.30
  -1   7   2   46.80    4.90
   0  -7  -2   17.00    3.20
   0  -7  -2   12.40    3.90
   0  -7  -2   13.60    2.80
   0  -7  -2   17.90    3.50
   0   7   2   15.40    3.00
   0   7   2   21.90    3.50
   0   7   2   16.40    4.00
   0   7   2   17.40    2.80
  -1  -7  -2  135.79   10.50
  -1  -7  -2  141.29   12.10
  -1  -7  -2  153.38   10.80
  -1  -7  -2  146.19   10.30
  -1  -7  -2  123.69   10.20
   1   7   2  123.19   10.60
   1   7   2  122.79   10.20
   1   7   2  141.99   10.70
   1   7   2  148.89   13.10
   1   7   2  141.09   11.90
  -2  -7  -2   14.30    3.30
  -2  -7  -2   12.90    4.00
  -2  -7  -2   14.90    2.70
  -2  -7  -2   16.90    3.30
  -2  -7  -2   11.40    2.80
   2   7   2   10.50    2.60
   2   7   2   14.60    3.90
   2   7   2   15.60    3.30
   2   7   2   11.10    2.60
   2   7   2   15.50    3.30
   2   7   2   12.30    4.70
  -3  -7  -2  127.19    9.20
  -3  -7  -2  102.79   10.50
  -3  -7  -2  112.89    8.90
  -3  -7  -2   99.99    9.30
  -3  -7  -2   94.89    8.90
   3   7   2  103.39    9.30
   3   7   2  100.59   13.80
   3   7   2  115.99    9.00
   3   7   2  125.99   10.60
   3   7   2  118.19    8.70
   3   7   2  100.39    9.00
  -4  -7  -2   55.59    6.00
  -4  -7  -2   53.19    6.90
  -4  -7  -2   52.69    4.40
  -4  -7  -2   43.20    7.50
  -4  -7  -2   56.89    5.80
  -4  -7  -2   55.09    5.60
   4   7   2   61.59    5.60
   4   7   2   50.19    5.80
   4   7   2   40.00    6.80
   4   7   2   57.19    6.80
   4   7   2   53.49    5.50
   4   7   2   43.70   11.00
  -5  -7  -2   99.59    8.60
  -5  -7  -2   81.59    8.70
  -5  -7  -2   93.39    7.30
  -5  -7  -2   82.69    8.30
  -5  -7  -2   79.19    9.80
  -5  -7  -2  104.69    8.60
   5   7   2  108.99    9.70
   5   7   2   83.09    9.10
   5   7   2  100.69    8.20
   5   7   2   86.39   15.00
   5   7   2   77.59    8.40
   5   7   2   90.99    7.80
  -6  -7  -2   46.50    6.70
  -6  -7  -2   46.60    6.20
  -6  -7  -2   34.60    5.40
  -6  -7  -2   35.30    5.90
  -6  -7  -2   42.90    4.80
   6   7   2   27.90   10.80
   6   7   2   47.60    5.80
   6   7   2   40.90    6.20
   6   7   2   43.60    5.10
  -7  -7  -2   51.79    5.90
  -7  -7  -2   51.69    9.80
  -7  -7  -2   52.09    8.40
  -7  -7  -2   55.89    6.90
  -7  -7  -2   66.49    7.10
   7   7   2   51.19    5.90
   7   7   2   56.49    6.90
   7   7   2   34.40   14.90
   7   7   2   58.09    8.20
  -8  -7  -2   68.79    9.00
  -8  -7  -2   57.59    8.00
  -8  -7  -2   72.89    7.00
  -8  -7  -2   73.29    7.60
  -8  -7  -2   56.59    9.30
   8   7   2   65.99    6.20
   8   7   2   43.30   15.50
   8   7   2   56.99    7.50
   7  -8  -2   -1.20    3.50
   7  -8  -2    0.80    3.00
  -7   8   2    0.00    3.40
  -7   8   2   -0.70    3.40
   6  -8  -2    3.70    3.60
   6  -8  -2    2.20    2.70
  -6   8   2    7.10    4.50
  -6   8   2    8.00    4.90
   5  -8  -2   -0.80    2.90
   5  -8  -2   -1.90    2.30
  -5   8   2   -2.20    3.20
  -5   8   2    2.80    3.30
  -5   8   2   -4.00    2.70
   4  -8  -2    7.10    3.30
   4  -8  -2    8.10    3.90
  -4   8   2    6.70    4.30
  -4   8   2    4.90    3.20
  -4   8   2    6.00    3.20
   3  -8  -2   32.10    4.30
   3  -8  -2   23.10    5.50
   3  -8  -2   18.30    4.50
   3  -8  -2   25.40    5.50
  -3   8   2   20.20    4.50
  -3   8   2   24.10    5.70
  -3   8   2   28.40    4.70
  -3   8   2   28.70    4.70
   2  -8  -2   95.49    9.80
   2  -8  -2   90.59    6.30
   2  -8  -2   93.29    8.80
   2  -8  -2   97.09    8.00
   2  -8  -2  116.99   10.10
  -2   8   2  106.49    8.70
  -2   8   2   94.09    8.80
  -2   8   2  113.69   10.60
  -2   8   2  105.99    8.10
   1  -8  -2   40.80    4.60
   1  -8  -2   39.50    5.60
   1  -8  -2   52.79    8.90
   1  -8  -2   40.20    5.70
  -1   8   2   45.40    4.80
  -1   8   2   42.50    6.90
  -1   8   2   44.20    5.70
  -1   8   2   49.20    5.10
  -1   8   2   49.20    5.90
   0  -8  -2  179.68   16.30
   0  -8  -2  211.28   15.30
   0  -8  -2  195.58   14.80
   0  -8  -2  181.18   14.10
   0   8   2  216.48   14.80
   0   8   2  200.68   14.90
   0   8   2  199.08   14.40
   0   8   2  209.68   16.30
   0   8   2  187.18   14.50
   0   8   2  215.18   13.10
  -1  -8  -2  187.08   14.40
  -1  -8  -2  193.18   14.70
  -1  -8  -2  177.98   16.20
  -1  -8  -2  219.28   15.00
  -1  -8  -2  198.18   14.30
   1   8   2  183.58   14.30
   1   8   2  204.88   16.20
   1   8   2  191.88   14.70
   1   8   2  229.78   17.70
   1   8   2  213.38   14.60
  -2  -8  -2  126.49   13.00
  -2  -8  -2  113.79    9.90
  -2  -8  -2  137.79   10.20
  -2  -8  -2  112.49   10.00
  -2  -8  -2  119.59    9.60
   2   8   2  113.49    9.80
   2   8   2  128.19   13.90
   2   8   2  111.89   10.00
   2   8   2  146.99   11.90
   2   8   2  119.29   10.30
   2   8   2  133.09    9.80
  -3  -8  -2  259.47   16.80
  -3  -8  -2  196.58   18.50
  -3  -8  -2  237.98   17.00
  -3  -8  -2  235.78   16.80
  -3  -8  -2  229.58   17.40
   3   8   2  240.28   23.00
   3   8   2  219.68   17.40
   3   8   2  235.68   19.20
   3   8   2  261.67   18.50
   3   8   2  228.18   16.90
  -4  -8  -2  135.19   13.70
  -4  -8  -2  133.49   12.40
  -4  -8  -2  149.99   11.90
  -4  -8  -2  161.38   11.90
  -4  -8  -2  169.18   12.00
   4   8   2  150.18   11.60
   4   8   2  163.48   19.20
   4   8   2  157.58   13.10
   4   8   2  151.18   12.20
   4   8   2  121.89   11.70
  -5  -8  -2  178.88   12.80
  -5  -8  -2  146.89   12.60
  -5  -8  -2  177.78   13.00
  -5  -8  -2  147.79   11.40
  -5  -8  -2  146.39   13.30
   5   8   2  143.19   20.40
   5   8   2  166.48   13.60
  -6  -8  -2  207.08   15.60
  -6  -8  -2  196.28   14.10
  -6  -8  -2  216.38   15.40
  -6  -8  -2  196.08   16.00
  -6  -8  -2  197.18   15.60
   6   8   2  186.08   14.50
   6   8   2  203.48   14.90
   6   8   2  180.38   25.00
   6   8   2  210.18   15.80
  -7  -8  -2   57.39    7.50
  -7  -8  -2   47.60    5.30
  -7  -8  -2   45.00    6.40
  -7  -8  -2   57.59    7.40
   7   8   2   49.60   14.90
   7   8   2   56.99    5.70
   7   8   2   37.30    5.80
   7   8   2   53.19    6.40
   7  -9  -2   22.90    6.50
   7  -9  -2   20.20    5.80
   7  -9  -2   33.70    7.90
  -7   9   2   25.00    6.90
  -7   9   2   23.40    6.20
   6  -9  -2  105.19   11.30
   6  -9  -2   89.09   10.00
   6  -9  -2  107.99   12.20
  -6   9   2  115.19   12.50
  -6   9   2  100.59   11.20
   5  -9  -2   77.99    8.90
   5  -9  -2   60.49    6.60
   5  -9  -2   66.39   10.20
  -5   9   2   80.29   10.20
  -5   9   2   66.59    9.20
   4  -9  -2  238.48   20.60
   4  -9  -2  232.28   19.20
  -4   9   2  296.97   23.40
   3  -9  -2  251.47   20.70
   3  -9  -2  241.18   19.40
  -3   9   2  258.37   19.50
  -3   9   2  276.87   18.50
  -3   9   2  271.87   21.30
   2  -9  -2  370.16   26.90
   2  -9  -2  418.86   29.30
   2  -9  -2  379.76   28.00
  -2   9   2  430.26   27.90
  -2   9   2  413.76   28.20
  -2   9   2  388.76   27.90
  -2   9   2  442.76   30.00
   1  -9  -2  298.57   22.10
   1  -9  -2  265.67   22.90
   1  -9  -2  297.17   21.40
  -1   9   2  308.37   21.30
  -1   9   2  314.17   23.10
  -1   9   2  307.37   20.60
  -1   9   2  289.67   21.30
  -1   9   2  308.07   21.00
   0  -9  -2  308.47   26.10
   0  -9  -2  348.97   24.60
   0  -9  -2  362.96   25.20
   0  -9  -2  338.67   24.00
   0   9   2  356.66   24.90
   0   9   2  333.47   24.00
   0   9   2  398.76   26.70
   0   9   2  381.26   24.60
   0   9   2  369.66   22.60
   0   9   2  356.86   24.50
  -1  -9  -2  414.66   25.40
  -1  -9  -2  345.77   24.70
  -1  -9  -2  334.67   24.40
  -1  -9  -2  330.67   26.70
   1   9   2  383.16   24.70
   1   9   2  387.76   26.30
   1   9   2  325.17   24.30
   1   9   2  370.86   26.40
   1   9   2  345.17   25.10
  -2  -9  -2  142.19   11.80
  -2  -9  -2  145.89   11.40
  -2  -9  -2  147.09   11.90
  -2  -9  -2  166.88   12.20
  -2  -9  -2  136.79   13.50
   2   9   2  150.78   13.20
   2   9   2  132.89   11.80
   2   9   2  137.99   11.70
   2   9   2  168.38   18.80
  -3  -9  -2  483.75   30.80
  -3  -9  -2  415.26   30.50
  -3  -9  -2  425.66   31.00
  -3  -9  -2  464.05   30.30
   3   9   2  402.86   30.60
   3   9   2  466.05   37.30
   3   9   2  479.05   30.30
   3   9   2  495.75   32.30
  -4  -9  -2   52.79    6.30
  -4  -9  -2   53.19    7.40
  -4  -9  -2   46.30    6.40
  -4  -9  -2   58.29    6.40
   4   9   2   57.29   11.90
   4   9   2   52.59    5.80
   4   9   2   50.79    6.10
   4   9   2   54.79    7.60
  -5  -9  -2  215.08   15.70
  -5  -9  -2  192.38   16.40
  -5  -9  -2  235.58   16.20
  -5  -9  -2  181.48   15.60
   5   9   2  221.38   16.70
   5   9   2  196.48   15.00
   5   9   2  193.08   15.10
   5   9   2  215.58   25.00
  -6  -9  -2    5.90    3.20
  -6  -9  -2    1.90    1.60
  -6  -9  -2    3.10    3.00
  -6  -9  -2    6.40    3.10
   6   9   2    3.40    6.90
   6   9   2    2.90    2.80
   6   9   2    5.50    2.10
   6   9   2    1.30    2.50
  -7  -9  -2   61.59    5.80
  -7  -9  -2   52.59    7.50
  -7  -9  -2   62.59    7.70
  -7  -9  -2   43.30    7.10
  -7  -9  -2   93.79    8.30
   7   9   2   61.79    6.10
   7   9   2   49.80   15.80
   7   9   2   57.09    6.80
   6 -10  -2    9.30    2.40
   6 -10  -2    9.30    2.40
   6 -10  -2   12.60    5.00
   6 -10  -2    9.30    5.60
  -6  10   2   25.30    7.40
  -6  10   2   15.70    6.00
   5 -10  -2   36.20    7.90
   5 -10  -2   33.60   11.20
  -5  10   2   40.20    8.20
  -5  10   2   37.90    7.30
   4 -10  -2   37.70    7.90
   4 -10  -2   43.90    7.20
  -4  10   2   41.60    8.30
  -4  10   2   46.10    7.30
   3 -10  -2   42.00    6.90
   3 -10  -2   36.40    7.20
  -3  10   2   53.69    8.70
  -3  10   2   48.60    7.10
   2 -10  -2   13.10    4.40
   2 -10  -2   16.10    5.50
  -2  10   2   20.20    5.00
  -2  10   2   20.30    6.00
  -2  10   2   24.80    4.00
   1 -10  -2    1.20    2.80
   1 -10  -2    8.50    2.80
   1 -10  -2    4.70    3.30
  -1  10   2    2.30    2.90
  -1  10   2    3.30    4.00
  -1  10   2    5.60    2.50
   0 -10  -2   30.90    4.80
   0 -10  -2   30.00    5.30
   0 -10  -2   24.40    5.30
   0  10   2   32.90    5.20
   0  10   2   35.60    6.70
   0  10   2   29.40    2.80
   0  10   2   32.90    4.90
   0  10   2   42.30    6.30
  -1 -10  -2    3.80    3.10
  -1 -10  -2   -3.00    2.10
  -1 -10  -2    2.10    2.60
   1  10   2    4.50    2.60
   1  10   2    1.20    2.40
   1  10   2   -0.30    3.30
   1  10   2    2.60    2.90
  -2 -10  -2   14.30    3.50
  -2 -10  -2   18.40    4.40
  -2 -10  -2   29.60    5.10
  -2 -10  -2   26.00    4.90
   2  10   2   25.50    7.20
   2  10   2   16.20    4.00
   2  10   2   20.40    4.30
   2  10   2   20.00    3.90
   2  10   2   21.20    5.30
  -3 -10  -2   18.70    4.40
  -3 -10  -2   15.70    3.70
  -3 -10  -2   15.20    3.70
  -3 -10  -2   16.30    4.20
   3  10   2   15.10    4.90
   3  10   2   15.30    7.00
   3  10   2   15.20    3.80
  -4 -10  -2    0.60    3.20
  -4 -10  -2   10.20    3.30
  -4 -10  -2    9.70    3.60
   4  10   2   12.00    4.00
   4  10   2    7.00    6.30
   4  10   2   10.60    3.20
   4  10   2    5.90    2.80
  -5 -10  -2   25.20    5.00
  -5 -10  -2   23.80    5.10
   5  10   2   16.30    9.20
   5  10   2   37.70    4.40
   5  10   2   19.50    4.20
   5  10   2   22.50    5.10
  -6 -10  -2   20.20    4.80
  -6 -10  -2   23.80    5.00
  -6 -10  -2   22.70    5.00
  -6 -10  -2   27.00    5.00
   6  10   2   20.50   10.30
   6  10   2   22.80    4.50
   6  10   2   24.70    4.70
   5 -11  -2   -1.50    4.10
   5 -11  -2    1.80    3.70
  -5  11   2    1.00    4.00
  -5  11   2    4.50    4.90
   4 -11  -2   -1.80    3.70
   4 -11  -2   11.10    4.50
  -4  11   2    5.30    5.00
  -4  11   2    3.30    4.50
   3 -11  -2   -5.10    3.10
   3 -11  -2    6.80    3.50
  -3  11   2   -0.40    3.50
  -3  11   2   -0.10    4.00
   2 -11  -2    7.80    4.00
   2 -11  -2    3.10    3.50
  -2  11   2    7.50    5.00
  -2  11   2    2.90    3.50
   1 -11  -2    6.00    3.90
  -1  11   2   11.20    2.10
  -1  11   2   10.30    4.30
   0 -11  -2   18.20    5.70
   0 -11  -2   16.30    2.50
   0  11   2   18.60    5.70
   0  11   2   19.30    2.00
   0  11   2   22.50    5.10
  -1 -11  -2   18.70    4.30
  -1 -11  -2   22.30    5.40
  -1 -11  -2   18.10    4.80
   1  11   2   24.20    6.00
   1  11   2   20.80    4.70
  -2 -11  -2   74.59    8.00
  -2 -11  -2   53.19    7.70
   2  11   2   54.99    7.70
   2  11   2   75.99    9.40
   2  11   2   81.99   12.00
  -3 -11  -2   39.90    6.20
  -3 -11  -2   41.20    6.50
  -3 -11  -2   41.10    6.30
  -3 -11  -2   33.70    5.50
   3  11   2   38.60    7.10
   3  11   2   39.60    9.80
   3  11   2   42.00    6.10
  -4 -11  -2   66.79    7.90
  -4 -11  -2   77.89    8.40
  -4 -11  -2   71.79    8.20
   4  11   2   69.49   14.10
   4  11   2   87.09    9.50
   4  11   2   74.09    7.90
   4  11   2   62.79    7.00
  -5 -11  -2   40.60    6.20
  -5 -11  -2   48.70    7.10
  -5 -11  -2   49.40    7.00
   5  11   2   31.90   11.70
   5  11   2   42.90    6.50
   3 -12  -2   18.20    6.10
   3 -12  -2   14.20    5.30
  -3  12   2   28.00    6.40
  -3  12   2   24.80    6.80
   2 -12  -2   15.90    5.20
   2 -12  -2    9.30    5.00
  -2  12   2   19.00    6.10
  -2  12   2   21.00    6.40
   1 -12  -2   73.49    9.50
   1 -12  -2   53.69    8.60
  -1  12   2   85.09   11.10
  -1  12   2   71.69    5.60
  -1  12   2   73.49   11.20
   0 -12  -2   31.50    6.90
   0 -12  -2   31.30    6.10
   0 -12  -2   31.20    3.20
   0  12   2   34.60    6.10
   0  12   2   38.80    8.80
  -1 -12  -2   78.19    9.70
  -1 -12  -2  117.19   11.50
  -1 -12  -2   89.59    7.90
   1  12   2  136.49   13.10
   1  12   2  109.69   10.70
  -2 -12  -2   50.29    7.60
  -2 -12  -2   40.50    5.80
  -2 -12  -2   48.40    7.30
   2  12   2   57.49    9.00
   2  12   2   55.29    7.60
  -3 -12  -2   99.69    9.90
  -3 -12  -2  117.29   11.30
  -3 -12  -2   86.09   10.30
   3  12   2  106.39   10.70
   3  12   2  118.69   16.20
   3  12   2  111.09   12.00
   2  11  -3   26.10    4.60
   2  11  -3   30.10    8.70
   2  11  -3   23.40    4.00
  -2 -11   3   22.00    4.70
  -2 -11   3   24.50    4.50
  -2 -11   3   26.80    5.50
  -2 -11   3   21.20    4.60
   1  11  -3   17.30    3.70
   1  11  -3   13.30    4.10
   1  11  -3   17.20    3.00
   1  11  -3   17.40    3.50
   1  11  -3    8.70    2.80
  -1 -11   3   14.80    3.40
  -1 -11   3   20.30    5.50
  -1 -11   3   12.40    2.40
  -1 -11   3   14.00    4.50
   0  11  -3   23.30    4.10
   0  11  -3   37.20    6.30
   0  11  -3   44.70    5.80
   0  11  -3   34.70    5.40
   0 -11   3   26.70    5.30
   0 -11   3   22.20    5.30
   0 -11   3   35.70    6.70
  -1  11  -3   22.60    5.60
  -1  11  -3   17.90    3.40
  -1  11  -3   26.90    4.80
  -1  11  -3   22.50    5.30
   1 -11   3   18.70    7.50
   1 -11   3   19.30    3.90
   1 -11   3   22.40    5.30
   1 -11   3   16.20    5.40
  -2  11  -3   22.80    5.90
  -2  11  -3    7.60    5.20
  -2  11  -3   14.30    3.90
  -2  11  -3    8.70    2.60
   2 -11   3    2.60    5.30
   2 -11   3   11.00    5.00
   2 -11   3    5.30    4.00
   4  10  -3   16.50    3.70
   4  10  -3   25.20   10.90
   4  10  -3   20.30    5.00
  -4 -10   3   23.60    5.50
  -4 -10   3   22.80    3.80
  -4 -10   3   20.10    4.40
  -4 -10   3   19.30    3.80
   3  10  -3   28.30    4.70
   3  10  -3   26.30    4.60
  -3 -10   3   39.00    4.40
  -3 -10   3   28.30    5.10
  -3 -10   3   22.70    4.80
  -3 -10   3   25.20    7.30
   2  10  -3   97.39    9.20
   2  10  -3  100.09    7.10
   2  10  -3   96.09    8.70
   2  10  -3  102.99    7.00
   2  10  -3  105.19    9.30
  -2 -10   3  106.69    9.60
  -2 -10   3  108.19   10.00
  -2 -10   3   96.19    8.00
  -2 -10   3   92.79    8.90
   1  10  -3   69.79    7.10
   1  10  -3   52.89    6.10
   1  10  -3   72.59    6.10
  -1 -10   3   66.69    6.70
  -1 -10   3   60.29    5.40
  -1 -10   3   65.29    7.50
  -1 -10   3   75.09    8.10
   0  10  -3  151.78   11.50
   0  10  -3  142.89   11.60
   0  10  -3  137.69   10.60
   0  10  -3  136.49   10.20
   0  10  -3  146.29   12.10
   0 -10   3  134.29   12.70
   0 -10   3  134.29   10.70
   0 -10   3  125.49   12.00
   0 -10   3  103.79   15.70
  -1  10  -3   28.50    5.50
  -1  10  -3   30.60    4.60
  -1  10  -3   22.40    3.30
  -1  10  -3   28.90    5.30
  -1  10  -3   30.50    4.80
   1 -10   3   15.60    6.70
   1 -10   3   20.50    4.80
  -2  10  -3   71.59    8.20
  -2  10  -3   46.90    7.70
  -2  10  -3   63.79    5.60
   2 -10   3   55.39    6.30
   2 -10   3   53.49   10.80
   2 -10   3   57.49    8.30
   2 -10   3   52.49    8.70
  -3  10  -3   11.00    4.20
  -3  10  -3    8.40    4.20
  -3  10  -3    2.90    2.10
   3 -10   3    4.50    3.90
   3 -10   3   13.50    4.50
   3 -10   3    8.00    5.50
  -4  10  -3   38.50    7.20
  -4  10  -3   31.70    4.30
  -4  10  -3   31.40    6.90
   4 -10   3   44.80    8.80
   4 -10   3   25.40    8.20
   4 -10   3   34.20    7.20
   5   9  -3   42.50    5.20
   5   9  -3   78.89   17.00
  -5  -9   3   61.39    6.50
  -5  -9   3   42.80    6.00
  -5  -9   3   54.19    5.60
  -5  -9   3   48.90    5.80
   4   9  -3   17.30    3.30
   4   9  -3   17.40    3.70
   4   9  -3   21.20   10.80
  -4  -9   3   16.20    3.40
  -4  -9   3   17.40    4.00
  -4  -9   3   16.20    3.40
   3   9  -3   57.99    6.60
   3   9  -3   74.59    6.60
   3   9  -3   51.49    6.30
  -3  -9   3   63.89    6.10
  -3  -9   3   64.19    6.20
  -3  -9   3   70.59    6.80
  -3  -9   3   54.39    6.50
  -3  -9   3   51.99    6.90
  -3  -9   3   77.99    9.30
   2   9  -3   65.59    6.60
   2   9  -3   60.99    6.40
   2   9  -3   60.09    4.80
   2   9  -3   65.59    7.00
   2   9  -3   67.19    5.00
  -2  -9   3   60.19    6.70
  -2  -9   3   62.79    5.80
  -2  -9   3   63.89    5.90
  -2  -9   3   68.39    7.20
  -2  -9   3   70.29    7.10
  -2  -9   3   77.09    9.50
   1   9  -3   61.59    5.90
   1   9  -3   71.99    6.80
   1   9  -3   61.39    5.80
   1   9  -3   61.49    5.50
   1   9  -3   62.59    6.70
  -1  -9   3   57.89    5.10
  -1  -9   3   44.80    6.60
  -1  -9   3   50.29   10.60
  -1  -9   3   74.29    7.50
  -1  -9   3   58.19    5.90
   0   9  -3   46.30    6.20
   0   9  -3   38.00    4.20
   0   9  -3   36.50    5.30
   0   9  -3   44.30    5.70
   0   9  -3   38.50    4.80
   0  -9   3   28.70   10.30
   0  -9   3   46.10    6.70
   0  -9   3   41.30    6.00
   0  -9   3   35.30    4.70
  -1   9  -3   25.60    3.70
  -1   9  -3   25.70    5.10
  -1   9  -3   22.70    4.10
  -1   9  -3   23.60    4.10
  -1   9  -3   17.50    4.50
   1  -9   3   19.70    7.20
   1  -9   3   22.50    3.70
   1  -9   3   20.80    5.20
  -2   9  -3    8.90    3.00
  -2   9  -3    5.30    1.90
  -2   9  -3   11.60    4.10
  -2   9  -3    6.50    3.60
   2  -9   3    7.70    4.90
   2  -9   3    7.80    3.50
   2  -9   3    8.40    5.30
  -3   9  -3   45.90    7.80
  -3   9  -3   59.09    8.30
  -3   9  -3   57.19    5.10
   3  -9   3   45.60    8.00
   3  -9   3   55.09    9.80
   3  -9   3   49.70    6.50
   3  -9   3   55.49   10.20
  -4   9  -3    1.90    3.50
  -4   9  -3    0.30    3.70
  -4   9  -3   -0.60    1.70
   4  -9   3   -1.60    3.20
   4  -9   3    2.00    5.20
   4  -9   3    0.00    3.40
  -5   9  -3   19.80    3.90
  -5   9  -3   15.20    5.50
  -5   9  -3   22.60    6.00
  -5   9  -3   18.20    3.40
   5  -9   3   24.90    6.10
   5  -9   3   23.20    6.50
  -6   9  -3    3.80    2.90
  -6   9  -3    5.10    5.20
  -6   9  -3   -1.60    3.90
   6  -9   3    1.90    4.40
   6  -9   3    0.80    4.10
   6   8  -3   18.10   10.80
   6   8  -3   15.00    2.70
  -6  -8   3   22.10    6.10
  -6  -8   3   19.20    3.40
  -6  -8   3   19.00    3.90
  -6  -8   3   20.20    3.30
   5   8  -3   42.20    7.60
   5   8  -3   41.40   12.70
  -5  -8   3   31.80    4.50
  -5  -8   3   41.80    5.50
  -5  -8   3   42.80    6.80
  -5  -8   3   42.90    4.60
  -5  -8   3   39.70    5.00
   4   8  -3   39.60    5.30
   4   8  -3   38.30    4.30
   4   8  -3   28.40    4.90
   4   8  -3   40.10   11.90
  -4  -8   3   42.30    4.80
  -4  -8   3   41.60    4.80
  -4  -8   3   38.10    4.90
  -4  -8   3   37.30    4.90
   3   8  -3   13.90    7.60
   3   8  -3    6.40    2.40
   3   8  -3    9.90    3.10
   3   8  -3    4.70    2.20
   3   8  -3    8.10    2.30
  -3  -8   3    6.50    3.00
  -3  -8   3    9.00    2.70
  -3  -8   3    9.80    2.40
  -3  -8   3    3.30    2.20
  -3  -8   3    9.70    2.60
  -3  -8   3    8.50    2.50
   2   8  -3   95.29    8.50
   2   8  -3   97.69    7.90
   2   8  -3   87.39    6.20
   2   8  -3   91.69    8.10
   2   8  -3   86.99    6.30
   2   8  -3   83.39    7.50
  -2  -8   3   80.99   13.70
  -2  -8   3   94.89    9.30
  -2  -8   3   90.89    7.80
  -2  -8   3   86.39    7.30
  -2  -8   3   93.99    8.00
  -2  -8   3  103.49    8.30
   1   8  -3   22.50    3.50
   1   8  -3   32.10    4.80
   1   8  -3   24.50    3.50
   1   8  -3   24.40    3.90
   1   8  -3   22.20    4.00
  -1  -8   3   20.70    2.90
  -1  -8   3   25.20    4.40
  -1  -8   3   27.10    3.70
  -1  -8   3   21.40    4.10
  -1  -8   3   17.10    7.80
   0   8  -3   33.80    3.60
   0   8  -3   30.90    4.80
   0   8  -3   38.60    5.20
   0   8  -3   32.20    4.20
   0   8  -3   34.30    4.80
   0  -8   3   25.90    5.30
   0  -8   3   30.20    4.90
   0  -8   3   36.80    3.20
   0  -8   3   32.30    8.80
   0  -8   3   30.30    5.10
   0  -8   3   34.10    4.30
  -1   8  -3    6.30    3.00
  -1   8  -3    7.90    2.50
  -1   8  -3    9.60    3.30
  -1   8  -3    8.60    1.80
   1  -8   3    6.60    4.60
   1  -8   3    6.50    3.30
   1  -8   3    6.30    3.10
   1  -8   3    2.50    2.60
   1  -8   3    5.60    2.20
  -2   8  -3   50.49    7.10
  -2   8  -3   51.19    6.40
  -2   8  -3   55.89    4.60
  -2   8  -3   54.69    6.70
   2  -8   3   53.79    9.50
   2  -8   3   53.79    5.70
   2  -8   3   43.60    7.20
   2  -8   3   47.90    7.00
  -3   8  -3   41.10    7.00
  -3   8  -3   50.79    7.30
  -3   8  -3   52.59    5.90
  -3   8  -3   43.30    4.20
   3  -8   3   37.70    7.20
   3  -8   3   44.50    9.00
   3  -8   3   46.40    5.80
   3  -8   3   27.70    5.90
  -4   8  -3   47.60    7.50
  -4   8  -3   38.10    7.10
  -4   8  -3   45.30    4.60
   4  -8   3   38.50    7.50
   4  -8   3   33.00    6.50
  -5   8  -3   52.59    9.50
  -5   8  -3   66.69    6.50
  -5   8  -3   69.19    9.30
   5  -8   3   47.40    8.90
   5  -8   3   53.59    8.60
  -6   8  -3    0.30    2.40
  -6   8  -3    1.90    3.60
  -6   8  -3   -2.20    3.10
   6  -8   3   -2.40    3.30
   6  -8   3    7.10    4.30
  -7   8  -3   56.59    9.30
  -7   8  -3   51.89    7.10
  -7   8  -3   46.50    8.80
   7  -8   3   53.99    8.90
   7  -8   3   39.30    8.70
   7   7  -3   28.70    3.50
   7   7  -3   28.50   12.80
  -7  -7   3   38.80    5.00
  -7  -7   3   28.60    5.60
  -7  -7   3   31.90    4.20
   6   7  -3    3.00    1.50
   6   7  -3    7.60    7.80
   6   7  -3    4.60    1.60
  -6  -7   3    8.70    2.40
  -6  -7   3    2.40    2.20
  -6  -7   3    2.90    1.70
  -6  -7   3    4.10    2.80
   5   7  -3   30.80    3.60
   5   7  -3   54.29   21.30
   5   7  -3   28.00    5.10
  -5  -7   3   39.60    4.30
  -5  -7   3   33.70    5.00
  -5  -7   3   38.60    4.50
  -5  -7   3   50.69    6.80
  -5  -7   3   35.20    5.00
  -5  -7   3   44.50    4.50
   4   7  -3  263.97   26.40
   4   7  -3  207.58   17.00
   4   7  -3  229.98   15.90
   4   7  -3  225.08   16.70
  -4  -7   3  233.08   18.40
  -4  -7   3  234.58   16.50
  -4  -7   3  254.97   16.60
  -4  -7   3  235.58   17.20
  -4  -7   3  244.18   16.40
  -4  -7   3  246.98   16.80
   3   7  -3   78.79    7.90
   3   7  -3   85.09    6.80
   3   7  -3  108.99   15.20
   3   7  -3   73.89    7.20
   3   7  -3   75.29    7.20
  -3  -7   3   67.69   12.80
  -3  -7   3   99.79    7.40
  -3  -7   3   64.39    7.00
  -3  -7   3   91.69    7.10
  -3  -7   3   80.59    7.30
  -3  -7   3   86.09    8.40
  -3  -7   3   91.69    7.20
   2   7  -3  512.75   33.10
   2   7  -3  472.25   33.10
   2   7  -3  501.15   33.70
   2   7  -3  525.85   34.20
   2   7  -3  501.05   31.80
   2   7  -3  485.85   31.80
  -2  -7   3  507.25   33.10
  -2  -7   3  515.35   34.90
  -2  -7   3  435.76   41.00
  -2  -7   3  563.74   32.90
  -2  -7   3  591.44   33.70
  -2  -7   3  529.55   33.40
  -2  -7   3  526.75   33.30
   1   7  -3   44.70    5.40
   1   7  -3   38.80    4.10
   1   7  -3   36.40    5.40
   1   7  -3   49.60    4.10
   1   7  -3   44.40    4.40
   1   7  -3   48.70    5.00
  -1  -7   3   41.80    3.90
  -1  -7   3   49.80    6.00
  -1  -7   3   39.70    4.80
  -1  -7   3   41.90    4.00
  -1  -7   3   40.20    8.70
  -1  -7   3   39.10    4.30
  -1  -7   3   46.20    5.10
   0   7  -3  625.74   39.10
   0   7  -3  574.84   37.80
   0   7  -3  651.73   39.20
   0   7  -3  622.64   39.00
   0   7  -3  606.44   38.30
   0   7  -3  613.74   39.00
   0  -7   3  556.64   44.50
   0  -7   3  571.64   38.30
   0  -7   3  583.14   37.50
   0  -7   3  603.44   40.20
   0  -7   3  606.94   39.40
   0  -7   3  581.74   39.10
  -1   7  -3    1.20    2.10
  -1   7  -3   -0.40    2.00
  -1   7  -3   -0.30    1.50
  -1   7  -3    2.60    2.00
  -1   7  -3    0.50    1.00
   1  -7   3   -0.10    2.70
   1  -7   3    1.20    2.00
   1  -7   3    0.00    2.20
   1  -7   3    1.80    2.20
  -2   7  -3  822.92   51.19
  -2   7  -3  807.82   51.59
  -2   7  -3  794.12   49.10
  -2   7  -3  799.02   50.79
   2  -7   3  735.73   51.69
   2  -7   3  741.83   50.09
   2  -7   3  887.31   56.09
   2  -7   3  723.23   50.99
   2  -7   3  755.32   51.99
  -3   7  -3    3.70    3.10
  -3   7  -3   18.50    3.70
  -3   7  -3   16.70    4.40
   3  -7   3   18.10    4.60
   3  -7   3   12.90    3.00
   3  -7   3    9.90    3.50
   3  -7   3   11.40    4.00
  -4   7  -3  352.06   24.60
  -4   7  -3  337.37   22.30
  -4   7  -3  345.27   24.00
   4  -7   3  294.27   24.50
   4  -7   3  331.77   24.00
   4  -7   3  303.47   22.50
  -5   7  -3    3.60    3.40
  -5   7  -3    2.20    3.50
  -5   7  -3    1.40    2.10
   5  -7   3    5.40    3.50
   5  -7   3    8.70    4.90
  -6   7  -3  166.48   13.00
  -6   7  -3  166.78   14.70
  -6   7  -3  174.88   15.60
   6  -7   3  140.39   15.10
   6  -7   3  141.19   15.10
  -7   7  -3   -1.20    3.50
  -7   7  -3   -2.10    3.50
  -7   7  -3   -4.70    2.10
   7  -7   3   -1.10    3.40
   7  -7   3   -3.90    3.20
   7   6  -3  104.29    8.20
   7   6  -3  124.49   21.00
  -7  -6   3  118.59    9.50
  -7  -6   3  116.29    8.80
  -7  -6   3  110.79   10.70
   6   6  -3   21.40    2.70
   6   6  -3   24.20   10.50
  -6  -6   3   20.50    3.20
  -6  -6   3   20.40    4.70
  -6  -6   3   21.00    4.50
  -6  -6   3   24.20    3.70
  -6  -6   3   20.90    3.20
   5   6  -3  165.88   14.30
   5   6  -3  168.98   12.80
   5   6  -3  207.98   23.80
  -5  -6   3  199.08   14.30
  -5  -6   3  186.38   14.20
  -5  -6   3  196.18   13.10
  -5  -6   3  214.28   13.50
  -5  -6   3  176.68   13.10
  -5  -6   3  182.48   15.60
   4   6  -3   35.80    3.70
   4   6  -3   28.40    4.60
   4   6  -3   42.60   11.50
  -4  -6   3   42.60    4.80
  -4  -6   3   39.60    4.20
  -4  -6   3   39.00    5.30
  -4  -6   3   40.10    4.00
  -4  -6   3   35.40    3.90
  -4  -6   3   41.70    4.60
  -4  -6   3   31.20    5.40
   3   6  -3  206.58   14.80
   3   6  -3  202.88   15.20
   3   6  -3  221.18   14.50
   3   6  -3  266.57   23.70
   3   6  -3  199.18   15.70
  -3  -6   3  223.18   14.80
  -3  -6   3  218.38   15.30
  -3  -6   3  226.58   14.70
  -3  -6   3  190.98   14.80
  -3  -6   3  208.78   16.10
   2   6  -3   35.20    4.40
   2   6  -3   60.39   10.30
   2   6  -3   39.70    5.00
   2   6  -3   41.30    4.20
  -2  -6   3   40.20    4.30
  -2  -6   3   33.30    9.20
  -2  -6   3   49.50    4.10
  -2  -6   3   40.80    4.30
  -2  -6   3   48.90    4.40
  -2  -6   3   39.80    5.10
  -2  -6   3   37.20    4.10
   1   6  -3  329.77   21.90
   1   6  -3  344.67   21.20
   1   6  -3  317.57   21.40
   1   6  -3  317.37   21.40
   1   6  -3  332.77   21.80
  -1  -6   3  334.37   21.50
  -1  -6   3  323.67   21.40
  -1  -6   3  305.07   27.80
  -1  -6   3  342.07   22.80
  -1  -6   3  352.26   21.20
  -1  -6   3  313.07   21.90
  -1  -6   3  331.77   22.90
   0   6  -3   37.40    4.10
   0   6  -3   30.40    4.00
   0   6  -3   32.50    5.00
   0   6  -3   35.70    4.10
   0   6  -3   33.40    3.10
   0  -6   3   35.90    4.20
   0  -6   3   32.40    3.00
   0  -6   3   35.00    4.50
   0  -6   3   35.20    4.60
   0  -6   3   25.00    6.70
  -1   6  -3  664.13   41.60
  -1   6  -3  709.33   42.60
  -1   6  -3  680.43   44.30
  -1   6  -3  659.33   43.10
  -1   6  -3  664.63   42.90
   1  -6   3  653.23   43.90
   1  -6   3  628.14   43.50
   1  -6   3  648.94   43.10
   1  -6   3  726.73   48.00
   1  -6   3  630.74   43.10
  -2   6  -3   49.10    5.80
  -2   6  -3   51.09    5.40
  -2   6  -3   41.80    5.90
  -2   6  -3   55.69    5.30
  -2   6  -3   53.59    4.10
   2  -6   3   41.40    5.90
   2  -6   3   47.10    6.00
   2  -6   3   58.09    8.70
   2  -6   3   52.39    6.20
   2  -6   3   54.49    5.20
  -3   6  -3  167.38   13.50
  -3   6  -3  183.68   12.80
  -3   6  -3  150.78   12.70
  -3   6  -3  165.28   12.60
   3  -6   3  158.98   13.40
   3  -6   3  141.99   13.20
   3  -6   3  161.28   12.00
   3  -6   3  149.88   12.80
  -4   6  -3   15.70    4.00
  -4   6  -3   16.60    4.20
  -4   6  -3   21.00    4.20
  -4   6  -3   17.40    4.60
  -4   6  -3   16.00    3.10
   4  -6   3   24.80    5.00
   4  -6   3   19.10    4.60
   4  -6   3   17.20    4.80
   4  -6   3   23.30    4.20
  -5   6  -3   25.10    4.10
  -5   6  -3   33.70    6.10
  -5   6  -3   38.00    6.60
   5  -6   3   29.90    4.80
   5  -6   3   18.00    5.50
   5  -6   3   31.60    6.00
  -6   6  -3    4.70    4.90
  -6   6  -3    7.70    1.30
  -6   6  -3    7.10    2.80
  -6   6  -3    8.80    4.30
   6  -6   3    6.80    3.80
   6  -6   3    3.90    3.80
  -7   6  -3   23.10    4.70
  -7   6  -3   24.20    2.80
  -7   6  -3   22.40    5.80
  -7   6  -3   34.20    6.60
   7  -6   3   19.30    6.30
   7  -6   3   20.10    5.50
  -8   6  -3    5.80    4.10
  -8   6  -3    4.10    4.20
  -8   6  -3    3.50    1.70
   8  -6   3    3.30    3.80
   8  -6   3   -1.40    3.40
   8   5  -3  106.99   20.50
   8   5  -3  102.79    7.60
  -8  -5   3  106.99   11.10
  -8  -5   3   89.19    9.70
  -8  -5   3  114.69    9.50
  -8  -5   3  128.09   11.30
  -8  -5   3  109.79    8.60
   7   5  -3   29.40   11.60
   7   5  -3   26.10    2.80
   7   5  -3   22.50    3.10
  -7  -5   3   27.80    3.60
  -7  -5   3   32.20    4.20
  -7  -5   3   23.10    4.70
   6   5  -3  128.59   19.80
   6   5  -3  113.29    8.70
   6   5  -3  134.49    8.50
  -6  -5   3  124.39    9.10
  -6  -5   3  126.29    9.50
  -6  -5   3  106.19   11.00
  -6  -5   3  127.19   11.00
  -6  -5   3  122.49   10.70
   5   5  -3   22.00    2.60
   5   5  -3   21.60    8.80
   5   5  -3   16.00    4.00
  -5  -5   3   19.70    3.00
  -5  -5   3   21.90    4.60
  -5  -5   3   21.50    4.00
  -5  -5   3   20.80    3.80
  -5  -5   3   25.20    3.10
  -5  -5   3   27.30    3.30
  -5  -5   3   21.20    4.30
   4   5  -3  388.06   27.00
   4   5  -3  473.75   37.30
   4   5  -3  378.16   28.20
  -4  -5   3  426.06   28.60
  -4  -5   3  409.66   28.10
  -4  -5   3  393.26   27.20
  -4  -5   3  449.76   27.20
  -4  -5   3  448.36   30.00
  -4  -5   3  466.95   27.40
  -4  -5   3  426.16   28.30
   3   5  -3   94.09   13.10
   3   5  -3   91.99    6.70
   3   5  -3   91.89    7.40
   3   5  -3   80.49    7.80
  -3  -5   3   78.39   12.50
  -3  -5   3   92.29    7.50
  -3  -5   3   92.59    7.50
  -3  -5   3   86.69    6.80
  -3  -5   3   94.49    6.70
  -3  -5   3   85.59    6.60
  -3  -5   3   78.99    7.60
  -3  -5   3   97.59    7.20
   2   5  -3  254.87   16.40
   2   5  -3  239.18   16.70
   2   5  -3  243.98   17.60
   2   5  -3  223.28   16.70
  -2  -5   3  286.27   16.70
  -2  -5   3  237.88   16.80
  -2  -5   3  255.07   17.50
  -2  -5   3  211.48   22.70
  -2  -5   3  273.17   16.60
  -2  -5   3  254.07   16.60
  -2  -5   3  257.97   16.60
   1   5  -3  188.48   13.00
   1   5  -3  174.18   12.50
   1   5  -3  175.38   13.60
   1   5  -3  191.48   12.30
   1   5  -3  180.68   12.80
   1   5  -3  189.68   12.50
  -1  -5   3  195.58   13.80
  -1  -5   3  198.08   12.60
  -1  -5   3  210.18   12.50
  -1  -5   3  214.08   13.20
  -1  -5   3  171.08   18.00
  -1  -5   3  167.88   12.90
   0   5  -3  374.96   23.70
   0   5  -3  392.16   24.10
   0   5  -3  340.87   23.20
   0   5  -3  351.66   23.70
   0   5  -3  352.86   22.80
   0   5  -3  380.36   23.70
   0  -5   3  358.56   23.90
   0  -5   3  349.47   24.30
   0  -5   3  343.87   23.70
   0  -5   3  364.96   22.90
   0  -5   3  363.26   23.30
   0  -5   3  363.56   28.50
  -1   5  -3   58.99    5.60
  -1   5  -3   60.79    5.10
  -1   5  -3   59.59    5.40
  -1   5  -3   58.49    5.70
  -1   5  -3   54.99    4.10
   1  -5   3   56.19    5.60
   1  -5   3   56.79    5.00
   1  -5   3   55.99    8.20
   1  -5   3   57.89    5.90
  -2   5  -3  604.24   39.40
  -2   5  -3  622.34   39.10
  -2   5  -3  667.53   39.00
  -2   5  -3  648.14   39.10
  -2   5  -3  583.64   37.50
  -2   5  -3  573.84   37.20
   2  -5   3  545.55   39.50
   2  -5   3  617.34   38.60
   2  -5   3  559.14   39.00
   2  -5   3  600.54   39.70
  -3   5  -3    8.30    0.90
  -3   5  -3    7.90    3.20
  -3   5  -3    9.90    3.10
  -3   5  -3    8.60    2.90
  -3   5  -3    8.30    2.60
   3  -5   3    6.70    3.00
   3  -5   3    6.40    2.50
   3  -5   3    8.80    2.40
   3  -5   3    5.50    2.80
  -4   5  -3  194.18   15.40
  -4   5  -3  199.98   14.20
  -4   5  -3  205.28   15.90
  -4   5  -3  224.48   15.70
   4  -5   3  193.98   15.70
   4  -5   3  170.68   15.80
   4  -5   3  206.58   15.50
   4  -5   3  204.48   14.70
  -5   5  -3   72.29    8.40
  -5   5  -3   78.89    8.20
  -5   5  -3   87.29    8.50
  -5   5  -3   87.29    8.30
  -5   5  -3   72.39    7.00
   5  -5   3   73.59    8.40
   5  -5   3   64.89    8.60
   5  -5   3   77.29    8.30
   5  -5   3   73.09    7.30
  -6   5  -3   26.50    5.80
  -6   5  -3   17.40    5.10
  -6   5  -3   21.70    2.80
  -6   5  -3   21.10    4.10
   6  -5   3   28.30    6.50
   6  -5   3   23.20    5.30
  -7   5  -3   78.49   10.70
  -7   5  -3   76.79    6.10
  -7   5  -3   76.59    8.10
  -7   5  -3   73.79   10.30
   7  -5   3   51.89    9.40
   7  -5   3   61.29    8.90
  -8   5  -3    2.70    3.90
  -8   5  -3    1.00    4.00
  -8   5  -3    5.40    1.70
  -8   5  -3    6.50    3.60
   8  -5   3    0.00    3.70
   8  -5   3    8.30    5.20
   8   4  -3    3.40    7.90
   8   4  -3   10.00    2.00
   8   4  -3    4.40    1.70
  -8  -4   3   10.80    3.10
  -8  -4   3   12.90    3.00
  -8  -4   3    8.30    3.90
  -8  -4   3    7.50    2.60
   7   4  -3   24.70    3.00
   7   4  -3   27.10    2.80
   7   4  -3   19.80   10.00
  -7  -4   3   30.70    5.20
  -7  -4   3   23.50    4.80
  -7  -4   3   25.90    4.00
  -7  -4   3   21.80    3.60
  -7  -4   3   27.70    3.70
   6   4  -3    1.00    1.10
   6   4  -3    3.30    5.40
   6   4  -3    0.90    1.00
  -6  -4   3    1.90    2.30
  -6  -4   3    2.00    2.60
  -6  -4   3    1.20    1.60
  -6  -4   3    2.70    1.50
  -6  -4   3    3.00    2.60
   5   4  -3   61.89    4.70
   5   4  -3   50.09   12.30
   5   4  -3   58.39    4.30
  -5  -4   3   56.89    6.30
  -5  -4   3   64.79    6.50
  -5  -4   3   59.39    5.20
  -5  -4   3   60.99    4.90
  -5  -4   3   51.79    6.00
   4   4  -3    7.00    1.30
   4   4  -3    6.80    5.30
   4   4  -3    9.30    2.50
  -4  -4   3    9.20    2.50
  -4  -4   3   10.90    1.90
  -4  -4   3    8.10    2.50
  -4  -4   3   12.10    2.90
  -4  -4   3   10.70    1.70
  -4  -4   3    6.70    2.40
   3   4  -3   18.30    3.20
   3   4  -3   22.80    7.20
   3   4  -3   24.10    2.30
   3   4  -3   28.90    2.50
  -3  -4   3   23.10    7.30
  -3  -4   3   24.60    3.70
  -3  -4   3   23.20    2.50
  -3  -4   3   23.80    2.40
  -3  -4   3   23.70    2.50
  -3  -4   3   17.80    2.90
  -3  -4   3   21.50    3.10
  -3  -4   3   22.80    3.40
   2   4  -3  176.08   12.50
   2   4  -3  177.98   13.50
   2   4  -3  180.88   12.80
  -2  -4   3  184.98   12.40
  -2  -4   3  193.78   12.40
  -2  -4   3  200.78   13.10
  -2  -4   3  187.68   12.60
  -2  -4   3  189.68   12.40
  -2  -4   3  168.48   18.20
  -2  -4   3  182.58   12.80
  -2  -4   3  212.08   13.30
   1   4  -3    7.80    1.60
   1   4  -3    9.00    4.40
   1   4  -3   10.10    1.70
   1   4  -3    5.90    1.00
   1   4  -3    6.60    0.90
   1   4  -3    6.10    1.30
  -1  -4   3    6.40    1.50
  -1  -4   3    7.20    1.90
  -1  -4   3    9.20    1.30
  -1  -4   3    3.30    3.30
  -1  -4   3    7.50    1.60
  -1  -4   3    7.90    1.60
  -1  -4   3    8.20    1.30
   0   4  -3 1367.36   87.59
   0   4  -3 1346.07   86.89
   0   4  -3 1479.25   87.59
   0   4  -3 1320.37   87.29
   0   4  -3 1550.24   88.19
   0   4  -3 1446.46   87.69
   0   4  -3 1315.77   87.29
   0  -4   3 1453.25   87.39
   0  -4   3 1354.06   88.09
   0  -4   3 1459.55   87.09
   0  -4   3 1352.76   87.69
   0  -4   3 1402.66   87.79
   0  -4   3 1505.65   92.59
  -1   4  -3   20.10    2.70
  -1   4  -3   22.60    3.20
  -1   4  -3   20.80    2.10
  -1   4  -3   19.80    3.10
  -1   4  -3   28.40    3.50
  -1   4  -3   24.10    1.80
   1  -4   3   23.30    3.40
   1  -4   3   23.20    3.00
   1  -4   3   20.20    3.40
   1  -4   3   21.30    3.40
  -2   4  -3  641.04   39.30
  -2   4  -3  633.44   39.30
  -2   4  -3  602.84   39.20
  -2   4  -3  583.14   39.50
  -2   4  -3  650.83   37.80
   2  -4   3  587.94   39.70
   2  -4   3  562.94   39.20
   2  -4   3  598.94   38.80
  -3   4  -3   33.40    4.60
  -3   4  -3   35.30    4.80
  -3   4  -3   35.80    3.40
  -3   4  -3   35.00    4.50
  -3   4  -3   33.20    4.60
   3  -4   3   27.20    4.90
   3  -4   3   34.60    4.40
   3  -4   3   32.20    4.50
   3  -4   3   37.70    5.10
  -4   4  -3  871.01   55.29
  -4   4  -3  878.01   55.29
  -4   4  -3  862.11   54.79
  -4   4  -3  855.11   53.79
  -4   4  -3  905.51   54.89
   4  -4   3  833.92   55.29
   4  -4   3  747.63   55.49
   4  -4   3  861.41   54.19
   4  -4   3  826.92   54.89
  -5   4  -3   77.29    8.00
  -5   4  -3   83.69    7.90
  -5   4  -3   73.39    6.90
  -5   4  -3   71.39    7.70
  -5   4  -3   79.29    8.30
   5  -4   3   72.39    7.80
   5  -4   3   83.49    7.40
   5  -4   3   66.09    8.40
   5  -4   3   66.69    7.60
  -6   4  -3  417.76   28.70
  -6   4  -3  449.36   29.70
  -6   4  -3  447.36   29.60
  -6   4  -3  417.56   30.00
   6  -4   3  421.56   29.70
   6  -4   3  380.46   30.50
   6  -4   3  419.76   28.80
  -7   4  -3    8.10    7.20
  -7   4  -3    5.70    2.90
  -7   4  -3   10.20    4.30
   7  -4   3   11.90    4.40
   7  -4   3    9.60    7.50
  -8   4  -3  103.59   11.00
  -8   4  -3   91.39   10.00
  -8   4  -3   89.69    9.70
  -8   4  -3   91.19    7.90
   8  -4   3   84.99   10.00
  -9   4  -3   28.80    7.30
  -9   4  -3   32.20    7.20
  -9   4  -3   35.90    6.60
  -9   4  -3   41.60    4.80
   9  -4   3   40.40    8.80
   9   3  -3   24.00   12.10
  -9  -3   3   27.40    5.10
  -9  -3   3   23.20    4.00
  -9  -3   3   31.60    4.40
  -9  -3   3   22.30    5.90
   8   3  -3   82.79    6.90
   8   3  -3   95.69   17.80
   8   3  -3   71.49    6.20
  -8  -3   3   75.59    6.90
  -8  -3   3   87.29    7.20
  -8  -3   3   77.79    9.20
  -8  -3   3   74.89    7.60
  -8  -3   3   70.49   12.60
   7   3  -3  205.88   13.70
   7   3  -3  192.98   13.60
  -7  -3   3  191.58   16.00
  -7  -3   3  211.58   14.80
  -7  -3   3  197.88   14.10
  -7  -3   3  209.78   14.10
   6   3  -3   64.99   13.20
   6   3  -3   55.39    4.60
   6   3  -3   60.39    4.60
  -6  -3   3   57.39    5.10
  -6  -3   3   57.09    5.50
  -6  -3   3   64.89    7.00
  -6  -3   3   53.89    6.50
  -6  -3   3   52.89    6.70
  -6  -3   3   64.49    5.10
   5   3  -3  810.22   46.90
   5   3  -3  698.03   47.00
   5   3  -3  761.02   57.59
  -5  -3   3  771.32   47.90
  -5  -3   3  741.23   47.50
  -5  -3   3  752.02   48.50
  -5  -3   3  766.62   49.00
  -5  -3   3  707.63   48.50
  -5  -3   3  743.23   48.70
  -5  -3   3  800.22   49.10
   4   3  -3  350.56   21.00
   4   3  -3  342.17   29.50
  -4  -3   3  340.27   22.80
  -4  -3   3  339.67   21.50
  -4  -3   3  335.87   22.60
  -4  -3   3  328.47   21.30
  -4  -3   3  347.97   21.50
  -4  -3   3  308.47   22.20
  -4  -3   3  320.67   22.60
   3   3  -3 2283.47  141.69
   3   3  -3 2451.25  143.89
   3   3  -3 2496.25  141.59
   3   3  -3 2418.66  149.79
   3   3  -3 2047.70  143.19
  -3  -3   3 2472.95  141.79
  -3  -3   3 2306.37  141.89
  -3  -3   3 2234.98  142.79
  -3  -3   3 1983.90  149.29
  -3  -3   3 2377.06  143.09
  -3  -3   3 2360.76  141.89
  -3  -3   3 2256.17  142.79
  -3  -3   3 2278.67  142.29
   2   3  -3  228.48   19.10
   2   3  -3  205.28   13.10
   2   3  -3  193.28   14.40
   2   3  -3  196.58   13.80
   2   3  -3  205.38   13.20
  -2  -3   3  211.88   13.50
  -2  -3   3  200.58   13.10
  -2  -3   3  189.08   13.60
  -2  -3   3  194.08   13.60
  -2  -3   3  193.78   13.80
  -2  -3   3  192.38   18.90
  -2  -3   3  212.88   14.10
  -2  -3   3  234.08   13.20
   1   3  -3 2896.41  186.78
   1   3  -3 3205.18  186.88
  -1  -3   3 3016.80  186.88
   0   3  -3  188.38   12.00
   0   3  -3  167.58   11.30
   0   3  -3  163.18   10.80
   0   3  -3  177.48   11.50
   0   3  -3  173.88   11.20
   0   3  -3  167.08   11.50
   0   3  -3  161.88   11.30
   0  -3   3  162.98   11.50
   0  -3   3  175.08   11.20
   0  -3   3  173.88   11.30
   0  -3   3  165.78   11.80
   0  -3   3  188.58   15.50
   0  -3   3  165.78   11.60
  -1   3  -3 1752.72  107.99
  -1   3  -3 1878.61  107.29
  -1   3  -3 1841.22  108.09
  -1   3  -3 1782.92  106.79
  -1   3  -3 1762.92  107.79
  -1   3  -3 1652.33  107.99
   1  -3   3 1595.74  108.29
   1  -3   3 1630.04  108.29
   1  -3   3 1722.23  108.09
   1  -3   3 1795.52  107.79
  -2   3  -3   52.89    5.20
  -2   3  -3   57.99    4.40
  -2   3  -3   67.39    5.70
  -2   3  -3   59.09    5.30
  -2   3  -3   72.79    6.30
   2  -3   3   60.29    5.60
   2  -3   3   48.60    4.90
   2  -3   3   53.79    5.30
   2  -3   3   57.09    5.70
  -3   3  -3 1398.76   87.99
  -3   3  -3 1362.06   86.69
  -3   3  -3 1432.76   88.89
  -3   3  -3 1449.26   87.69
  -3   3  -3 1466.65   87.59
   3  -3   3 1386.06   87.19
   3  -3   3 1442.06   88.49
   3  -3   3 1228.88   88.39
   3  -3   3 1404.36   87.99
  -4   3  -3   20.90    3.90
  -4   3  -3   28.40    4.50
  -4   3  -3   26.50    4.50
  -4   3  -3   31.90    3.50
  -4   3  -3   25.90    4.50
   4  -3   3   16.70    4.20
   4  -3   3   24.20    4.30
   4  -3   3   29.10    4.10
   4  -3   3   21.20    4.10
  -5   3  -3  583.34   39.10
  -5   3  -3  595.14   39.60
  -5   3  -3  616.94   39.30
  -5   3  -3  596.94   40.00
  -5   3  -3  593.64   38.50
   5  -3   3  605.14   38.70
   5  -3   3  520.65   40.00
   5  -3   3  619.74   40.80
   5  -3   3  593.74   39.60
  -6   3  -3   13.90    4.40
  -6   3  -3    7.00    3.10
  -6   3  -3   10.80    3.10
  -6   3  -3   14.00    4.10
  -6   3  -3    8.60    3.50
   6  -3   3   17.50    3.70
   6  -3   3   11.70    4.40
   6  -3   3   11.60    3.90
  -7   3  -3  262.97   19.00
  -7   3  -3  226.98   18.00
  -7   3  -3  250.37   18.80
  -7   3  -3  238.98   19.20
   7  -3   3  234.98   18.90
  -8   3  -3   -1.30    2.30
  -8   3  -3   -0.40    4.20
  -8   3  -3    0.40    4.10
   8  -3   3   -0.50    3.00
   8  -3   3   -3.80    3.30
  -9   3  -3   92.89   11.50
  -9   3  -3   77.19    9.90
  -9   3  -3   76.19    9.50
   9  -3   3   89.79   11.70
   9  -3   3   83.09   14.80
   9   2  -3    8.20    8.40
  -9  -2   3    8.50    4.30
  -9  -2   3   13.70    3.30
  -9  -2   3    8.90    2.70
  -9  -2   3    7.80    3.60
   8   2  -3  148.19   21.90
   8   2  -3  126.39    9.40
  -8  -2   3  133.79   10.20
  -8  -2   3  109.79   11.40
  -8  -2   3  137.79   11.00
  -8  -2   3  128.59   10.10
   7   2  -3   11.80    2.10
   7   2  -3   15.10    8.70
  -7  -2   3   13.80    3.10
  -7  -2   3   11.30    2.60
  -7  -2   3   15.00    4.40
  -7  -2   3   15.20    2.80
  -7  -2   3    5.00    2.80
   6   2  -3  344.67   32.40
   6   2  -3  326.77   22.00
  -6  -2   3  334.07   22.80
  -6  -2   3  330.97   22.40
  -6  -2   3  338.07   23.60
  -6  -2   3  352.96   24.30
  -6  -2   3  367.16   24.60
  -6  -2   3  349.17   22.30
   5   2  -3   21.40    7.60
   5   2  -3   24.40    2.40
   5   2  -3   21.40    2.40
  -5  -2   3   22.90    4.00
  -5  -2   3   21.20    3.90
  -5  -2   3   23.00    2.60
  -5  -2   3   21.70    4.20
  -5  -2   3   23.20    3.90
  -5  -2   3   20.30    2.90
  -5  -2   3   24.70    3.80
   4   2  -3 1064.19   66.49
   4   2  -3 1050.39   74.79
   4   2  -3 1144.69   66.39
  -4  -2   3 1057.99   68.19
  -4  -2   3 1138.69   66.69
  -4  -2   3 1100.19   66.79
  -4  -2   3 1081.09   67.89
  -4  -2   3  994.70   67.39
  -4  -2   3 1055.49   66.79
   3   2  -3   26.40    2.00
   3   2  -3   28.60    7.20
   3   2  -3   22.60    3.60
  -3  -2   3   26.70    2.20
  -3  -2   3   28.60    3.30
  -3  -2   3   30.10    7.60
  -3  -2   3   27.40    3.20
  -3  -2   3   25.40    2.30
  -3  -2   3   25.70    2.10
  -3  -2   3   25.20    2.10
  -3  -2   3   28.40    3.50
   2   2  -3  812.22   47.90
   2   2  -3  890.11   54.29
   2   2  -3  717.73   49.30
   2   2  -3  765.32   47.90
   2   2  -3  746.93   49.00
  -2  -2   3  782.22   49.10
  -2  -2   3  746.83   54.19
  -2  -2   3  767.02   47.90
  -2  -2   3  752.42   48.80
  -2  -2   3  796.32   48.00
  -2  -2   3  799.32   48.00
  -2  -2   3  766.62   47.90
   1   2  -3   59.19    7.30
   1   2  -3   45.80    4.00
   1   2  -3   35.30    4.20
  -1  -2   3   45.80    3.50
  -1  -2   3   59.99    4.40
  -1  -2   3   44.40    3.80
  -1  -2   3   51.99    3.30
  -1  -2   3   48.10    3.30
  -1  -2   3   49.70    7.10
  -1  -2   3   45.40    3.40
  -1  -2   3   44.50    3.50
   0   2  -3 3678.23  253.37
   0  -2   3 3643.04  257.87
  -1   2  -3   39.20    3.70
  -1   2  -3   43.30    3.80
  -1   2  -3   45.60    3.30
  -1   2  -3   43.50    3.80
   1  -2   3   45.00    3.70
   1  -2   3   41.00    4.00
   1  -2   3   40.70    3.90
   1  -2   3   47.60    4.00
  -2   2  -3  191.08   12.60
  -2   2  -3  196.38   13.60
  -2   2  -3  199.28   13.80
  -2   2  -3  201.08   13.50
   2  -2   3  201.38   13.60
   2  -2   3  189.58   13.60
   2  -2   3  205.28   13.40
   2  -2   3  173.58   13.80
  -3   2  -3  133.39   10.60
  -3   2  -3  133.29   10.30
  -3   2  -3  139.29    9.50
  -3   2  -3  138.49   10.40
  -3   2  -3  144.59   10.30
   3  -2   3  135.39   10.10
   3  -2   3  127.99   10.20
   3  -2   3  122.09   10.80
   3  -2   3  143.69   10.40
  -4   2  -3    2.20    2.10
  -4   2  -3    3.50    2.20
  -4   2  -3    3.20    1.60
  -4   2  -3    5.10    2.40
  -4   2  -3    2.90    1.80
   4  -2   3    3.70    2.40
   4  -2   3    2.00    2.00
   4  -2   3    1.90    1.80
   4  -2   3    2.50    2.00
  -5   2  -3    5.10    2.80
  -5   2  -3    6.90    2.90
  -5   2  -3    6.20    2.30
  -5   2  -3    3.90    2.50
  -5   2  -3    6.70    2.40
   5  -2   3    7.00    2.70
   5  -2   3    5.70    3.00
   5  -2   3    6.60    2.40
   5  -2   3    3.70    2.50
  -6   2  -3  110.59   10.00
  -6   2  -3  116.99   10.10
  -6   2  -3   99.69   10.00
  -6   2  -3  111.89   10.90
  -6   2  -3  110.19    9.50
   6  -2   3  116.69   10.40
   6  -2   3  110.49    9.50
  -7   2  -3   75.79    8.20
  -7   2  -3   82.59    8.60
  -7   2  -3   69.89    8.20
  -7   2  -3   75.39    7.80
   7  -2   3   69.69    8.10
   7  -2   3   61.19    7.50
   7  -2   3   60.39   10.00
  -8   2  -3   -0.80    2.90
  -8   2  -3    0.80    3.20
  -8   2  -3   -0.30    3.10
  -8   2  -3    7.40    3.60
   8  -2   3    0.40    3.30
   8  -2   3    4.70    3.70
  -9   2  -3   95.39   10.90
  -9   2  -3   99.69   10.60
  -9   2  -3  115.09   11.40
   9  -2   3  100.59   12.70
   9  -2   3   89.89   10.80
   9   1  -3   55.99   15.60
   9   1  -3   53.89    5.90
  -9  -1   3   50.19    6.90
  -9  -1   3   59.19    6.30
  -9  -1   3   51.99    6.20
  -9  -1   3   52.59    8.50
   8   1  -3   64.09    6.70
   8   1  -3   72.99   23.20
   8   1  -3   75.99    6.80
  -8  -1   3   78.49    7.10
  -8  -1   3   80.99    7.80
  -8  -1   3   76.29    9.20
  -8  -1   3   72.79    7.00
   7   1  -3  157.58   11.40
   7   1  -3  149.29   10.80
   7   1  -3  158.88   20.80
  -7  -1   3  161.08   11.50
  -7  -1   3  152.68   11.90
  -7  -1   3  159.48   13.40
  -7  -1   3  126.29   12.20
  -7  -1   3  170.98   11.60
   6   1  -3  263.47   17.30
   6   1  -3  247.78   26.20
  -6  -1   3  268.37   18.80
  -6  -1   3  280.07   17.80
  -6  -1   3  227.88   18.50
  -6  -1   3  271.17   17.70
  -6  -1   3  269.17   19.50
  -6  -1   3  280.27   19.70
  -6  -1   3  264.27   18.20
   5   1  -3  259.97   25.50
   5   1  -3  265.47   17.60
  -5  -1   3  270.97   18.20
  -5  -1   3  262.07   19.40
  -5  -1   3  258.87   19.40
  -5  -1   3  276.67   18.90
  -5  -1   3  293.77   17.90
  -5  -1   3  288.27   18.00
   4   1  -3  127.69    8.20
   4   1  -3  129.89    8.30
   4   1  -3  114.59   14.10
  -4  -1   3  122.89    8.60
  -4  -1   3  121.39    9.30
  -4  -1   3  111.79   10.30
  -4  -1   3  113.29    9.70
  -4  -1   3  135.49    8.40
  -4  -1   3  128.99    9.40
  -4  -1   3  119.09    9.00
   3   1  -3    4.40    1.60
   3   1  -3    9.10    0.80
   3   1  -3    7.40    3.90
   3   1  -3    7.20    0.80
  -3  -1   3    7.20    1.90
  -3  -1   3    7.60    1.00
  -3  -1   3    5.90    1.10
  -3  -1   3    9.70    1.10
  -3  -1   3    7.70    1.00
  -3  -1   3    7.30    1.90
  -3  -1   3    6.00    3.80
  -3  -1   3    6.20    1.90
   2   1  -3  364.46   25.40
   2   1  -3  370.76   25.00
   2   1  -3  434.76   29.50
  -2  -1   3  386.76   25.00
  -2  -1   3  395.96   25.00
  -2  -1   3  403.76   25.30
  -2  -1   3  373.06   29.40
   1   1  -3   19.30    2.70
   1   1  -3   26.70    1.70
   1   1  -3   23.40    2.40
   1   1  -3   26.40    1.70
   1   1  -3   24.00    4.60
  -1  -1   3   23.80    2.20
  -1  -1   3   20.60    4.50
  -1  -1   3   19.80    2.20
  -1  -1   3   21.10    2.50
  -1  -1   3   28.00    1.80
  -1  -1   3   24.30    1.80
   0   1  -3   10.80    1.00
   0   1  -3   11.50    1.40
   0   1  -3    8.80    0.90
   0   1  -3    8.30    1.30
   0   1  -3   11.20    1.80
   0   1  -3    6.10    1.10
   0  -1   3    9.00    1.30
   0  -1   3    8.40    1.20
   0  -1   3    8.80    1.20
   0  -1   3    8.60    1.30
  -1   1  -3   78.69    4.80
  -1   1  -3   72.59    5.60
  -1   1  -3   74.59    5.60
  -1   1  -3   74.39    5.50
  -1   1  -3   67.29    5.30
   1  -1   3   70.59    5.60
   1  -1   3   70.89    5.80
   1  -1   3   83.09    5.50
   1  -1   3   69.09    5.50
   1  -1   3   71.69    4.80
  -2   1  -3  118.19    8.00
  -2   1  -3  115.49    7.80
  -2   1  -3  104.29    8.10
  -2   1  -3  100.29    7.80
  -2   1  -3   98.79    7.30
   2  -1   3  102.59    7.90
   2  -1   3  113.69    7.80
   2  -1   3  110.69    8.00
   2  -1   3  104.09    7.20
   2  -1   3   85.29    8.10
  -3   1  -3  806.52   49.50
  -3   1  -3  783.42   48.50
  -3   1  -3  699.23   49.40
  -3   1  -3  826.22   48.50
  -3   1  -3  716.93   48.90
   3  -1   3  663.03   48.90
   3  -1   3  805.92   48.30
   3  -1   3  747.83   48.50
   3  -1   3  829.82   48.70
   3  -1   3  737.83   47.80
  -4   1  -3  679.63   47.30
  -4   1  -3  695.73   46.80
  -4   1  -3  754.62   46.60
  -4   1  -3  730.43   46.10
  -4   1  -3  752.22   46.80
   4  -1   3  722.83   46.10
   4  -1   3  713.03   46.30
   4  -1   3  713.13   46.70
   4  -1   3  764.42   46.80
  -5   1  -3   61.89    6.50
  -5   1  -3   67.19    6.50
  -5   1  -3   58.79    6.90
  -5   1  -3   62.79    6.30
  -5   1  -3   53.99    5.80
   5  -1   3   53.89    6.10
   5  -1   3   62.19    6.50
   5  -1   3   58.19    5.90
  -6   1  -3  168.58   13.60
  -6   1  -3  172.18   13.40
  -6   1  -3  182.88   13.80
  -6   1  -3  168.48   13.10
  -6   1  -3  144.49   15.40
   6  -1   3  151.98   13.80
   6  -1   3  173.08   13.60
   6  -1   3  175.08   13.50
   6  -1   3  167.48   15.10
  -7   1  -3   73.69    7.70
  -7   1  -3   59.29    7.00
  -7   1  -3   56.99    7.30
  -7   1  -3   53.99    7.30
   7  -1   3   67.59    8.40
   7  -1   3   66.59    7.30
   7  -1   3   63.49    9.80
  -8   1  -3   92.09   11.00
  -8   1  -3   94.89    9.80
  -8   1  -3   97.59    9.80
  -8   1  -3  100.49   10.10
   8  -1   3   96.99   10.10
   8  -1   3   84.39   11.10
  -9   1  -3   13.30    4.80
  -9   1  -3   11.30    4.40
  -9   1  -3    2.80    3.30
   9  -1   3   11.40    5.50
   9  -1   3   10.60    4.20
   9   0  -3   -2.70    5.60
   9   0  -3    3.90    2.40
  -9   0   3    1.90    3.10
  -9   0   3    1.50    3.40
  -9   0   3    0.30    2.60
  -9   0   3   -0.70    2.20
   8   0  -3   18.90   13.20
   8   0  -3   19.70    3.70
  -8   0   3   23.80    4.20
  -8   0   3   18.60    5.10
  -8   0   3   26.20    4.20
  -8   0   3   21.70    4.90
  -8   0   3   27.30    5.00
   7   0  -3  129.79   18.60
   7   0  -3  141.89   11.00
   7   0  -3  149.19   11.00
  -7   0   3  153.18   11.10
  -7   0   3  153.58   11.70
  -7   0   3  152.98   11.20
  -7   0   3  137.29   12.60
  -7   0   3  128.59   11.80
   6   0  -3    6.30    5.50
   6   0  -3   10.90    2.50
   6   0  -3   10.50    2.10
  -6   0   3   13.60    3.80
  -6   0   3    9.20    3.40
  -6   0   3   10.50    3.00
  -6   0   3   13.90    3.30
  -6   0   3   11.80    3.00
  -6   0   3   14.00    2.70
  -6   0   3   17.00    2.80
   5   0  -3  317.97   29.00
   5   0  -3  339.07   21.90
   5   0  -3  338.57   21.50
  -5   0   3  361.46   22.70
  -5   0   3  321.07   23.20
  -5   0   3  339.67   22.30
  -5   0   3  341.47   23.50
  -5   0   3  306.67   22.50
  -5   0   3  346.67   21.90
   4   0  -3   41.40    7.60
   4   0  -3   38.00    3.20
  -4   0   3   39.90    4.20
  -4   0   3   38.60    3.90
  -4   0   3   48.00    3.60
  -4   0   3   39.70    3.60
  -4   0   3   38.50    4.70
  -4   0   3   46.40    3.90
   3   0  -3  961.60   66.29
   3   0  -3  906.71   61.69
   3   0  -3 1011.50   60.99
   3   0  -3 1058.79   60.69
  -3   0   3 1083.99   61.19
  -3   0   3  988.40   61.59
  -3   0   3  969.40   62.09
  -3   0   3 1025.30   60.89
  -3   0   3  836.82   60.99
  -3   0   3 1004.20   62.09
   2   0  -3  304.07   18.40
   2   0  -3  305.77   22.60
   2   0  -3  306.27   18.50
   2   0  -3  257.87   19.50
   2   0  -3  292.37   19.30
  -2   0   3  266.27   22.60
  -2   0   3  302.57   19.20
  -2   0   3  313.77   18.50
  -2   0   3  286.77   19.50
  -2   0   3  321.67   18.50
   1   0  -3 4640.44  283.47
  -1   0   3 4195.38  283.37
   0   0  -3  341.77   19.80
   0   0  -3  333.67   19.50
   0   0  -3  276.47   19.20
   0   0  -3  311.37   19.10
   0   0  -3  310.87   19.40
   0   0   3  320.17   19.40
   0   0   3  301.97   19.20
   0   0   3  256.17   19.40
   0   0   3  315.77   19.40
  -1   0  -3 3278.07  265.87
   1   0   3 3381.46  244.88
  -2   0  -3  878.11   58.59
  -2   0  -3  988.00   58.29
  -2   0  -3  992.20   58.09
  -2   0  -3  911.61   57.99
  -2   0  -3  976.90   57.59
   2   0   3  888.41   57.59
   2   0   3 1005.20   58.29
   2   0   3  873.91   58.09
   2   0   3  984.70   58.09
   2   0   3  782.72   58.39
  -3   0  -3 4355.66  340.77
   3   0   3 4523.55  343.57
  -4   0  -3 1861.01  108.89
  -4   0  -3 1846.82  109.19
  -4   0  -3 1695.53  108.89
  -4   0  -3 1815.52  108.59
  -4   0  -3 1598.14  109.69
   4   0   3 1650.53  108.89
   4   0   3 1776.42  108.69
   4   0   3 1649.23  108.49
   4   0   3 1774.32  110.49
   4   0   3 1780.42  108.99
  -5   0  -3 1220.88   84.49
  -5   0  -3 1333.87   83.39
  -5   0  -3 1378.86   83.79
  -5   0  -3 1400.16   83.39
  -5   0  -3 1321.57   83.69
   5   0   3 1270.57   83.49
   5   0   3 1348.17   85.39
   5   0   3 1318.87   83.29
   5   0   3 1235.18   83.19
   5   0   3 1407.26   83.79
  -6   0  -3  311.77   21.80
  -6   0  -3  312.97   21.50
  -6   0  -3  287.57   22.60
  -6   0  -3  316.87   21.50
  -6   0  -3  289.27   21.60
   6   0   3  279.97   21.10
   6   0   3  318.67   23.50
   6   0   3  317.27   21.70
   6   0   3  308.37   21.60
   6   0   3  286.17   21.90
  -7   0  -3  404.86   31.30
  -7   0  -3  445.16   30.40
  -7   0  -3  439.36   30.30
  -7   0  -3  423.46   29.90
   7   0   3  453.65   30.40
   7   0   3  443.16   32.20
  -8   0  -3   72.29    8.60
  -8   0  -3   78.39    8.30
   8   0   3   70.89    8.40
   8   0   3   68.39    9.50
   8   0   3   79.09    8.40
  -9   0  -3  136.89   12.60
  -9   0  -3  124.59   12.40
  -9   0  -3  126.89   12.50
  -9   0  -3  146.09   12.50
   9   0   3  137.29   14.20
   9   0   3  121.79   12.30
   9  -1  -3    5.60    2.80
   9  -1  -3   -0.30    5.60
  -9   1   3    4.30    2.80
  -9   1   3    0.90    2.70
  -9   1   3   -0.50    3.00
  -9   1   3    1.10    3.70
   8  -1  -3  163.48   13.50
   8  -1  -3  170.48   22.10
  -8   1   3  186.18   15.70
  -8   1   3  156.88   14.50
  -8   1   3  189.98   13.80
  -8   1   3  182.78   13.50
  -8   1   3  183.28   14.60
   7  -1  -3    4.50    1.80
   7  -1  -3   -1.00    1.70
   7  -1  -3    1.40    5.00
  -7   1   3    0.60    2.40
  -7   1   3    1.60    2.20
  -7   1   3   -3.00    2.40
  -7   1   3   -0.50    1.80
  -7   1   3    3.70    2.40
  -7   1   3    4.50    2.30
   6  -1  -3  464.25   29.80
   6  -1  -3  463.25   30.50
   6  -1  -3  430.36   38.00
  -6   1   3  481.05   30.50
  -6   1   3  489.25   30.40
  -6   1   3  453.05   31.80
  -6   1   3  506.45   30.90
  -6   1   3  444.16   31.20
  -6   1   3  438.66   31.80
   5  -1  -3   29.30    3.00
   5  -1  -3   26.50    7.60
   5  -1  -3   29.20    3.70
  -5   1   3   33.30    3.40
  -5   1   3   29.20    3.80
  -5   1   3   32.00    5.90
  -5   1   3   25.90    3.60
  -5   1   3   25.20    4.30
  -5   1   3   28.10    4.80
  -5   1   3   30.50    3.90
   4  -1  -3 1051.29   65.09
   4  -1  -3  970.10   70.49
   4  -1  -3 1069.49   64.59
  -4   1   3 1107.49   65.49
  -4   1   3 1066.99   64.89
  -4   1   3 1027.80   66.19
  -4   1   3 1099.79   64.99
  -4   1   3 1039.60   65.29
  -4   1   3  972.30   65.39
  -4   1   3 1005.20   66.19
   3  -1  -3  349.87   24.70
   3  -1  -3  394.66   25.20
   3  -1  -3  390.96   29.10
  -3   1   3  407.46   24.70
  -3   1   3  366.66   25.60
  -3   1   3  372.86   24.90
  -3   1   3  407.06   24.60
  -3   1   3  422.36   25.20
   2  -1  -3 1641.94  100.99
   2  -1  -3 1699.73  103.99
  -2   1   3 1820.52  100.49
  -2   1   3 1409.76  103.79
  -2   1   3 1603.44  100.89
  -2   1   3 1531.35  101.19
  -2   1   3 1672.13  100.79
  -2   1   3 1552.74  100.59
  -2   1   3 1755.32  100.49
   1  -1  -3    0.00    0.80
   1  -1  -3    1.00    1.30
   1  -1  -3    0.10    0.30
   1  -1  -3    1.30    0.70
   1  -1  -3    0.30    0.50
  -1   1   3    1.30    0.50
  -1   1   3    0.90    0.80
  -1   1   3    0.60    0.70
  -1   1   3    0.50    0.40
  -1   1   3    0.00    1.30
  -1   1   3    0.70    0.40
  -1   1   3    0.50    0.70
  -1  -1  -3   60.09    5.20
  -1  -1  -3   61.29    4.60
  -1  -1  -3   56.29    4.40
  -1  -1  -3   56.19    4.10
  -1  -1  -3   57.09    4.30
   1   1   3   59.19    5.20
   1   1   3   56.99    4.50
   1   1   3   59.89    4.20
   1   1   3   53.59    4.40
   1   1   3   60.39    4.50
  -2  -1  -3 1479.45   90.39
  -2  -1  -3 1542.25   90.59
  -2  -1  -3 1383.16   90.19
   2   1   3 1438.76   91.49
   2   1   3 1490.95   90.39
   2   1   3 1371.76   90.29
   2   1   3 1383.36   90.09
   2   1   3 1565.54   90.59
  -3  -1  -3   67.39    5.30
  -3  -1  -3   59.69    5.40
  -3  -1  -3   47.40    5.60
  -3  -1  -3   50.79    5.00
  -3  -1  -3   63.39    5.00
   3   1   3   72.29    5.40
   3   1   3   56.29    5.20
   3   1   3   56.79    6.20
   3   1   3   60.99    5.40
   3   1   3   61.39    5.10
  -4  -1  -3  405.86   30.50
  -4  -1  -3  459.65   29.70
  -4  -1  -3  469.75   31.00
  -4  -1  -3  461.65   29.50
  -4  -1  -3  444.26   29.70
   4   1   3  465.45   29.90
   4   1   3  493.15   31.50
   4   1   3  433.66   29.50
   4   1   3  462.75   29.70
   4   1   3  438.16   29.70
  -5  -1  -3   22.30    3.80
  -5  -1  -3   25.70    4.10
  -5  -1  -3   28.80    4.40
  -5  -1  -3   29.00    5.20
  -5  -1  -3   30.30    4.60
   5   1   3   24.10    5.20
   5   1   3   26.70    4.20
   5   1   3   28.50    4.10
   5   1   3   26.60    4.30
   5   1   3   28.80    4.40
  -6  -1  -3   68.09    7.00
  -6  -1  -3   64.69    6.80
  -6  -1  -3   55.09    7.40
  -6  -1  -3   75.69    7.30
  -6  -1  -3   61.69    6.70
   6   1   3   68.69    7.00
   6   1   3   62.19    6.70
   6   1   3   72.69    7.40
   6   1   3   66.19    7.10
   6   1   3   68.69    8.70
  -7  -1  -3    3.30    3.00
  -7  -1  -3    8.80    3.50
  -7  -1  -3    3.50    3.50
  -7  -1  -3    3.40    3.00
  -7  -1  -3    9.70    3.60
   7   1   3    5.20    3.80
   7   1   3   11.00    3.40
   7   1   3    4.30    2.50
   7   1   3    6.40    3.30
  -8  -1  -3   27.10    8.90
  -8  -1  -3   37.20    6.20
  -8  -1  -3   24.20    5.40
  -8  -1  -3   24.30    5.30
   8   1   3   27.90    5.10
   8   1   3   30.40    7.00
   8   1   3   32.40    6.00
  -9  -1  -3   10.10    3.90
  -9  -1  -3    6.80    3.70
  -9  -1  -3    4.30    3.70
  -9  -1  -3   11.70    3.60
   9   1   3   10.40    4.90
   9   1   3    2.40    3.20
   9  -2  -3   79.59    7.90
  -9   2   3   75.59   10.40
  -9   2   3   62.49    7.70
  -9   2   3   70.19    8.10
   8  -2  -3    1.10    1.60
   8  -2  -3    1.40    2.20
   8  -2  -3    4.20    1.50
   8  -2  -3    1.10    5.20
  -8   2   3    0.40    3.50
  -8   2   3    2.70    3.50
  -8   2   3    7.40    3.00
  -8   2   3    3.90    3.20
   7  -2  -3   94.79    8.50
   7  -2  -3   97.19    7.70
   7  -2  -3   82.79   14.10
   7  -2  -3   99.39    8.10
   7  -2  -3   92.39    7.70
  -7   2   3   94.19    9.10
  -7   2   3   98.39    9.90
  -7   2   3   84.69    8.40
  -7   2   3   97.69    8.50
  -7   2   3   96.49    9.30
  -7   2   3  108.59    8.60
   6  -2  -3    0.80    3.80
   6  -2  -3    1.70    1.50
   6  -2  -3    1.20    1.60
   6  -2  -3   -0.80    1.70
   6  -2  -3    1.70    1.80
  -6   2   3    2.80    2.20
  -6   2   3   -1.50    1.50
  -6   2   3   -0.60    1.50
  -6   2   3    1.70    1.80
  -6   2   3    0.80    2.00
  -6   2   3   -1.70    1.80
   5  -2  -3  474.05   30.80
   5  -2  -3  468.85   30.50
   5  -2  -3  476.85   30.10
   5  -2  -3  402.96   35.70
   5  -2  -3  487.45   31.00
  -5   2   3  520.75   31.60
  -5   2   3  438.26   31.10
  -5   2   3  462.95   31.80
  -5   2   3  473.45   30.70
  -5   2   3  462.95   30.50
  -5   2   3  508.05   30.60
   4  -2  -3    1.10    2.50
   4  -2  -3    1.40    1.40
   4  -2  -3    0.50    1.10
   4  -2  -3    0.10    1.00
  -4   2   3    2.30    1.30
  -4   2   3    0.50    1.20
  -4   2   3    2.20    1.40
  -4   2   3   -0.20    0.90
  -4   2   3    0.20    1.50
   3  -2  -3 1578.74  114.19
   3  -2  -3 1908.41  114.29
   3  -2  -3 1859.21  114.39
   3  -2  -3 1717.73  117.59
   3  -2  -3 1992.00  113.89
   3  -2  -3 1742.93  114.29
  -3   2   3 1950.50  114.09
  -3   2   3 1967.70  114.19
  -3   2   3 1774.12  114.99
  -3   2   3 1740.63  114.39
  -3   2   3 1992.30  114.89
  -3   2   3 1945.21  114.19
   2  -2  -3    4.40    1.20
   2  -2  -3    2.60    1.80
   2  -2  -3    3.20    0.80
   2  -2  -3    3.60    1.30
   2  -2  -3    1.80    0.90
  -2   2   3    2.80    1.00
  -2   2   3    3.00    1.90
  -2   2   3    3.30    1.10
  -2   2   3    2.50    1.00
  -2   2   3    3.30    1.00
  -2   2   3    3.90    1.50
  -2   2   3    4.20    1.40
  -1   2   3 2205.18  136.49
   0  -2  -3  470.65   29.70
   0  -2  -3  440.76   30.40
   0  -2  -3  478.95   29.80
   0  -2  -3  469.35   29.60
   0  -2  -3  476.95   29.70
   0   2   3  458.15   30.60
   0   2   3  464.75   29.80
   0   2   3  490.65   29.70
   0   2   3  498.85   29.60
   0   2   3  471.65   29.70
   0   2   3  476.15   29.80
  -1  -2  -3  321.27   20.50
  -1  -2  -3  312.07   20.30
  -1  -2  -3  306.47   21.30
  -1  -2  -3  330.87   20.20
  -1  -2  -3  328.77   20.50
   1   2   3  335.47   20.50
   1   2   3  308.37   21.40
   1   2   3  322.47   20.30
   1   2   3  298.97   20.40
   1   2   3  310.37   20.50
  -2  -2  -3   95.59    7.60
  -2  -2  -3   96.99    7.40
  -2  -2  -3  109.69    7.40
  -2  -2  -3   95.29    8.50
  -2  -2  -3  110.29    7.60
   2   2   3  111.19    7.70
   2   2   3   99.89    7.40
   2   2   3   94.49    7.50
   2   2   3  109.79    7.70
   2   2   3  110.09    8.80
  -3  -2  -3   49.60    4.50
  -3  -2  -3   47.30    7.40
  -3  -2  -3   47.30    4.40
  -3  -2  -3   52.49    4.60
  -3  -2  -3   50.09    4.80
   3   2   3   45.40    4.80
   3   2   3   56.59    4.90
   3   2   3   47.70    4.60
   3   2   3   46.60    5.60
  -4  -2  -3  131.29   11.80
  -4  -2  -3  139.09   10.40
  -4  -2  -3  151.88   11.70
  -4  -2  -3  148.69   10.60
  -4  -2  -3  156.78   11.40
   4   2   3  148.49   10.70
   4   2   3  141.19   10.50
   4   2   3  123.69   10.30
   4   2   3  132.29   11.80
   4   2   3  129.69   10.40
  -5  -2  -3   69.49    6.90
  -5  -2  -3   80.19    6.90
  -5  -2  -3   70.39    6.70
  -5  -2  -3   73.69    6.80
   5   2   3   70.79    6.70
   5   2   3   76.29    6.80
   5   2   3   67.49    6.90
   5   2   3   75.59    6.90
  -6  -2  -3  587.84   39.20
  -6  -2  -3  617.44   39.00
  -6  -2  -3  616.84   39.20
  -6  -2  -3  621.14   39.20
  -6  -2  -3  503.15   40.00
   6   2   3  587.64   39.00
   6   2   3  570.94   39.30
   6   2   3  620.74   41.20
  -7  -2  -3   26.20    4.90
  -7  -2  -3   16.00    4.60
  -7  -2  -3   24.20    4.80
  -7  -2  -3   28.20    5.00
  -7  -2  -3   32.50    5.40
   7   2   3   19.50    4.50
   7   2   3   21.90    5.80
   7   2   3   25.40    4.60
  -8  -2  -3  309.87   25.60
  -8  -2  -3  254.37   19.40
  -8  -2  -3  251.87   19.30
   8   2   3  230.48   20.80
   8   2   3  238.58   19.00
   8   2   3  257.37   18.90
  -9  -2  -3    6.90    3.80
  -9  -2  -3    8.00    3.90
  -9  -2  -3    6.60    3.30
   9   2   3    7.60    3.60
   9   2   3   20.60    3.80
   9   2   3    7.70    4.80
   9  -3  -3    4.60    2.30
   9  -3  -3    9.00    7.50
  -9   3   3    4.80    3.70
  -9   3   3    3.00    3.40
  -9   3   3    0.20    3.40
  -9   3   3    8.40    3.80
   8  -3  -3   20.60    4.40
   8  -3  -3   22.90    9.10
   8  -3  -3   14.80    3.60
   8  -3  -3   18.30    4.70
  -8   3   3   16.50    4.20
  -8   3   3   17.20    4.80
  -8   3   3   10.00    3.70
  -8   3   3   23.20    6.10
   7  -3  -3    2.30    2.50
   7  -3  -3    1.30    4.00
   7  -3  -3    0.60    2.20
   7  -3  -3    3.30    2.30
  -7   3   3    0.50    2.20
  -7   3   3   -1.20    2.20
  -7   3   3    0.50    2.70
  -7   3   3    1.60    2.10
  -7   3   3    5.20    3.20
  -7   3   3    2.00    2.30
   6  -3  -3   17.50    3.80
   6  -3  -3   17.90    3.40
   6  -3  -3   14.40    3.30
   6  -3  -3   15.10    2.80
   6  -3  -3   13.00    6.00
  -6   3   3   12.20    3.60
  -6   3   3   18.60    3.20
  -6   3   3   18.80    3.60
  -6   3   3   12.90    3.60
  -6   3   3   10.70    3.10
  -6   3   3   11.00    3.70
   5  -3  -3    0.40    1.60
   5  -3  -3    0.20    2.70
   5  -3  -3    0.70    2.00
   5  -3  -3    3.00    2.10
   5  -3  -3    1.10    1.40
  -5   3   3    1.10    2.30
  -5   3   3   -1.00    1.40
  -5   3   3   -1.20    1.50
  -5   3   3    1.80    1.50
  -5   3   3    0.50    1.50
   4  -3  -3   13.20    2.80
   4  -3  -3   14.80    4.70
   4  -3  -3   15.30    3.00
   4  -3  -3   13.80    2.20
   4  -3  -3   12.20    2.50
   4  -3  -3   10.10    2.20
  -4   3   3   17.70    3.00
  -4   3   3   18.70    2.50
  -4   3   3   14.40    2.60
  -4   3   3   23.70    4.10
  -4   3   3   17.20    2.60
   3  -3  -3  185.88   13.00
   3  -3  -3  168.98   12.20
   3  -3  -3  183.88   12.60
   3  -3  -3  156.98   14.40
   3  -3  -3  158.58   12.60
   3  -3  -3  181.38   12.10
  -3   3   3  206.68   12.20
  -3   3   3  181.98   12.30
  -3   3   3  192.08   13.30
  -3   3   3  177.48   12.40
  -3   3   3  200.68   12.90
   2  -3  -3    5.90    2.20
   2  -3  -3    6.80    1.60
   2  -3  -3    5.90    1.30
   2  -3  -3    5.70    2.00
   2  -3  -3    5.40    1.20
   2  -3  -3    4.90    1.50
  -2   3   3    5.50    1.40
  -2   3   3    6.90    1.50
  -2   3   3    6.30    1.90
  -2   3   3    6.60    1.50
   1  -3  -3  225.88   14.50
   1  -3  -3  225.08   14.80
   1  -3  -3  208.28   15.50
   1  -3  -3  233.88   15.00
   1  -3  -3  231.88   14.60
  -1   3   3  211.28   14.60
  -1   3   3  219.48   15.70
  -1   3   3  224.68   14.80
  -1   3   3  209.38   15.20
  -1   3   3  255.57   14.90
  -1   3   3  233.08   14.60
   0  -3  -3  221.78   14.80
   0  -3  -3  214.68   15.00
   0  -3  -3  219.48   15.80
   0  -3  -3  235.98   15.00
   0  -3  -3  200.08   14.40
   0   3   3  218.58   15.00
   0   3   3  229.78   16.00
   0   3   3  245.78   15.00
   0   3   3  234.48   14.40
   0   3   3  234.48   15.00
   0   3   3  245.78   14.90
  -1  -3  -3 1321.87   78.49
  -1  -3  -3 1292.27   78.29
  -1  -3  -3 1144.49   79.59
  -1  -3  -3 1273.57   78.69
  -1  -3  -3 1257.97   78.59
   1   3   3 1299.87   78.49
   1   3   3 1246.18   78.59
   1   3   3 1235.78   79.69
   1   3   3 1312.67   78.59
   1   3   3 1253.27   78.69
  -2  -3  -3 1867.91  115.79
  -2  -3  -3 1795.02  117.09
  -2  -3  -3 1897.21  115.89
   2   3   3 1951.50  115.79
   2   3   3 1868.41  117.09
   2   3   3 1937.01  115.89
   2   3   3 1808.32  115.69
   2   3   3 1822.52  115.69
  -3  -3  -3 1309.47   87.79
  -3  -3  -3 1372.66   86.49
  -3  -3  -3 1445.26   86.39
  -3  -3  -3 1404.86   86.19
  -3  -3  -3 1429.16   86.19
   3   3   3 1390.96   86.39
   3   3   3 1277.87   86.29
   3   3   3 1442.36   87.99
   3   3   3 1261.37   86.19
   3   3   3 1498.15   86.39
  -4  -3  -3  999.20   62.19
  -4  -3  -3  992.90   64.19
  -4  -3  -3  990.00   62.19
   4   3   3  955.90   62.19
   4   3   3  978.30   63.89
   4   3   3  921.61   62.29
   4   3   3 1053.69   62.39
  -5  -3  -3  245.98   17.30
  -5  -3  -3  247.18   17.30
  -5  -3  -3  229.88   19.00
  -5  -3  -3  252.37   17.30
  -5  -3  -3  244.58   17.60
   5   3   3  223.68   17.30
   5   3   3  237.98   17.20
   5   3   3  269.27   17.60
   5   3   3  258.57   19.30
   5   3   3  232.38   17.10
  -6  -3  -3  699.23   49.60
  -6  -3  -3  718.93   47.30
  -6  -3  -3  748.23   47.50
  -6  -3  -3  738.43   47.70
  -6  -3  -3  744.73   47.30
   6   3   3  715.43   47.20
   6   3   3  787.12   47.70
   6   3   3  772.62   49.50
   6   3   3  698.53   47.20
   6   3   3  652.03   47.40
  -7  -3  -3   81.19    7.90
  -7  -3  -3   73.29    7.80
  -7  -3  -3   66.49    8.50
  -7  -3  -3   77.19    7.80
  -7  -3  -3   70.79    7.80
   7   3   3   74.69    7.40
   7   3   3   71.49    9.10
   7   3   3   70.19    7.60
  -8  -3  -3  191.88   15.70
  -8  -3  -3  202.78   16.20
  -8  -3  -3  200.98   16.10
  -8  -3  -3  183.48   15.80
   8   3   3  217.78   16.10
   8   3   3  204.78   17.80
  -9  -3  -3   49.00    7.00
  -9  -3  -3   32.80    6.30
  -9  -3  -3   44.80    7.20
  -9  -3  -3   49.90    7.50
   9   3   3   67.29    6.80
   9   3   3   42.50    7.80
   9   3   3   28.00    5.80
   9  -4  -3    0.00    3.00
   9  -4  -3   -2.80    4.40
   9  -4  -3    0.70    2.80
  -9   4   3    7.80    4.80
  -9   4   3    3.40    3.00
  -9   4   3   -1.00    2.40
  -9   4   3    0.30    3.20
   8  -4  -3  105.49    9.60
   8  -4  -3   91.89   10.10
   8  -4  -3   92.19   15.30
   8  -4  -3  101.89    9.90
  -8   4   3  107.09    9.60
  -8   4   3  117.09   11.30
  -8   4   3  100.99   11.10
   7  -4  -3   23.20    7.80
   7  -4  -3   19.90    4.60
   7  -4  -3   22.30    4.50
  -7   4   3   26.10    4.30
  -7   4   3   21.60    5.00
  -7   4   3   17.20    4.80
  -7   4   3   26.20    4.70
  -7   4   3   28.70    5.60
  -7   4   3   19.00    4.50
   6  -4  -3  553.34   36.00
   6  -4  -3  458.55   35.60
   6  -4  -3  456.05   40.10
   6  -4  -3  507.95   35.60
   6  -4  -3  550.04   37.20
  -6   4   3  580.54   37.80
  -6   4   3  583.04   34.70
  -6   4   3  553.44   36.80
  -6   4   3  555.74   35.70
  -6   4   3  572.54   35.40
   5  -4  -3  146.39   11.30
   5  -4  -3  126.49   14.00
   5  -4  -3  138.99   10.80
   5  -4  -3  127.09    9.80
   5  -4  -3  117.49   10.90
  -5   4   3  142.69    9.80
  -5   4   3  144.19   11.10
  -5   4   3  137.39   10.80
  -5   4   3  139.69   11.60
   4  -4  -3 1620.54  103.29
   4  -4  -3 1445.36  105.29
   4  -4  -3 1533.15  101.89
   4  -4  -3 1450.45  102.89
   4  -4  -3 1659.53  101.99
   4  -4  -3 1611.14  102.69
  -4   4   3 1790.72  101.89
  -4   4   3 1771.12  103.89
  -4   4   3 1748.33  102.49
  -4   4   3 1715.53  102.69
  -4   4   3 1748.82  103.09
   3  -4  -3  237.48   19.10
   3  -4  -3  251.07   17.20
   3  -4  -3  261.97   17.90
   3  -4  -3  240.18   18.50
   3  -4  -3  247.18   18.20
  -3   4   3  275.27   18.90
  -3   4   3  289.37   18.20
  -3   4   3  285.77   17.80
  -3   4   3  290.57   17.20
   2  -4  -3 2775.02  177.38
   2  -4  -3 2724.53  178.28
  -2   4   3 3032.30  177.48
  -2   4   3 2967.40  178.58
   1  -4  -3  840.62   51.89
   1  -4  -3  756.42   52.69
   1  -4  -3  843.52   52.19
   1  -4  -3  847.22   51.59
  -1   4   3  905.51   51.79
  -1   4   3  847.12   52.99
  -1   4   3  851.01   51.89
  -1   4   3  712.73   51.29
   0  -4  -3 3464.55  279.27
   0   4   3 3591.44  283.47
  -1  -4  -3  880.01   61.99
  -1  -4  -3  960.30   60.89
  -1  -4  -3  932.51   60.99
  -1  -4  -3  996.90   60.79
  -1  -4  -3  967.90   60.69
   1   4   3 1003.40   60.79
   1   4   3  966.30   60.99
   1   4   3  992.50   62.39
   1   4   3  972.20   61.09
   1   4   3 1056.29   61.09
  -2  -4  -3 2063.79  129.79
  -2  -4  -3 1921.81  130.99
  -2  -4  -3 2153.38  129.79
  -2  -4  -3 2111.99  129.49
   2   4   3 2220.08  130.59
   2   4   3 2157.38  129.59
   2   4   3 2132.09  131.19
   2   4   3 1952.00  129.59
   2   4   3 2124.89  129.89
  -3  -4  -3   96.69    7.50
  -3  -4  -3  100.19    7.50
  -3  -4  -3   90.89    8.90
  -3  -4  -3  105.89    7.80
  -3  -4  -3   85.09    7.60
   3   4   3  105.19    7.80
   3   4   3   99.19    7.60
   3   4   3   88.99    7.50
   3   4   3   88.09    7.50
   3   4   3   90.69    8.80
  -4  -4  -3 1313.37   86.99
  -4  -4  -3 1462.75   86.89
  -4  -4  -3 1442.96   86.79
  -4  -4  -3 1302.07   88.69
  -4  -4  -3 1403.56   86.79
   4   4   3 1324.67   86.69
   4   4   3 1314.27   86.89
   4   4   3 1477.35   86.89
   4   4   3 1412.46   86.99
  -5  -4  -3  153.98   11.30
  -5  -4  -3  129.59   11.30
  -5  -4  -3  125.19   12.70
  -5  -4  -3  141.89   11.20
  -5  -4  -3  146.59   11.30
   5   4   3  153.98   13.00
   5   4   3  158.08   11.40
   5   4   3  145.99   11.30
   5   4   3  138.09   11.10
   5   4   3  149.09   11.50
  -6  -4  -3  426.56   29.00
  -6  -4  -3  436.26   29.20
  -6  -4  -3  473.05   29.30
  -6  -4  -3  420.96   29.40
   6   4   3  473.85   29.50
   6   4   3  413.56   30.80
   6   4   3  400.96   29.30
   6   4   3  404.06   28.80
   6   4   3  413.36   28.90
  -7  -4  -3   32.40    5.60
  -7  -4  -3   39.70    5.80
  -7  -4  -3   25.20    5.00
  -7  -4  -3   33.50    5.40
   7   4   3   39.00    5.80
   7   4   3   27.00    4.70
   7   4   3   41.30    7.30
  -8  -4  -3  109.89   10.60
  -8  -4  -3  110.79   10.60
  -8  -4  -3  106.89   10.60
   8   4   3  106.59   10.00
   8   4   3  138.79   12.60
   8   4   3  117.69   10.70
  -9  -4  -3   13.90    4.60
  -9  -4  -3   18.20    5.10
  -9  -4  -3   24.80    5.70
   9   4   3   29.70    6.30
   9   4   3   28.10    5.30
   9  -5  -3   28.80   10.00
   9  -5  -3   24.10    5.50
   9  -5  -3   29.30    6.00
  -9   5   3   37.60    6.10
  -9   5   3   22.20    5.50
  -9   5   3   35.90    7.10
  -9   5   3   26.50    6.60
   8  -5  -3   21.80    7.90
   8  -5  -3   24.10    4.70
   8  -5  -3   18.50    4.60
   8  -5  -3   21.30    5.10
  -8   5   3   27.30    4.00
  -8   5   3   30.40    5.40
  -8   5   3   25.50    6.10
  -8   5   3   18.30    4.60
  -8   5   3   22.20    5.90
   7  -5  -3  219.78   17.10
   7  -5  -3  186.18   21.10
   7  -5  -3  202.78   16.80
   7  -5  -3  172.28   16.60
  -7   5   3  227.98   18.30
  -7   5   3  250.57   15.60
  -7   5   3  235.98   18.40
  -7   5   3  231.28   19.70
  -7   5   3  256.37   16.90
   6  -5  -3   20.40    4.40
   6  -5  -3   18.80    4.50
   6  -5  -3   20.70    4.50
   6  -5  -3   16.10    6.00
  -6   5   3   21.70    4.60
  -6   5   3   17.30    4.80
  -6   5   3   24.20    3.30
  -6   5   3   20.40    4.80
  -6   5   3   22.40    4.20
   5  -5  -3  337.87   22.20
   5  -5  -3  323.27   23.70
   5  -5  -3  295.67   25.70
   5  -5  -3  311.97   23.00
   5  -5  -3  286.57   23.30
  -5   5   3  338.87   23.10
  -5   5   3  363.76   21.70
  -5   5   3  380.76   24.80
  -5   5   3  345.27   22.80
  -5   5   3  341.57   23.40
   4  -5  -3   46.80    6.60
   4  -5  -3   53.69    6.30
   4  -5  -3   52.39    4.90
   4  -5  -3   47.40    5.80
   4  -5  -3   61.39    6.00
   4  -5  -3   52.69    4.60
  -4   5   3   59.39    6.70
  -4   5   3   50.09    5.50
  -4   5   3   59.99    4.50
  -4   5   3   55.59    5.50
  -4   5   3   58.39    5.80
   3  -5  -3  376.86   28.00
   3  -5  -3  411.86   28.70
   3  -5  -3  404.66   27.80
   3  -5  -3  381.06   26.70
  -3   5   3  475.85   27.90
  -3   5   3  459.55   27.80
  -3   5   3  450.25   28.00
  -3   5   3  429.96   29.00
   2  -5  -3  471.25   29.10
   2  -5  -3  454.25   29.60
   2  -5  -3  416.16   30.40
   2  -5  -3  438.56   28.50
   2  -5  -3  433.26   30.00
  -2   5   3  429.06   30.20
  -2   5   3  462.55   30.80
  -2   5   3  516.25   29.60
   1  -5  -3  290.47   19.30
   1  -5  -3  279.57   20.80
   1  -5  -3  288.47   20.10
   1  -5  -3  291.27   19.70
  -1   5   3  307.97   19.60
  -1   5   3  287.47   20.90
  -1   5   3  301.37   19.50
  -1   5   3  313.77   19.70
   0  -5  -3  162.48   10.70
   0  -5  -3  143.49   10.20
   0  -5  -3  142.09   11.60
   0  -5  -3  144.39   10.50
   0   5   3  132.89   10.40
   0   5   3  143.89   10.20
   0   5   3  132.49   10.50
   0   5   3  146.89   10.40
   0   5   3  143.99    9.30
   0   5   3  151.58   11.80
   0   5   3  162.38   10.60
  -1  -5  -3  370.46   23.60
  -1  -5  -3  347.47   23.20
  -1  -5  -3  356.16   23.40
  -1  -5  -3  320.47   24.60
   1   5   3  374.46   23.60
   1   5   3  378.46   23.30
   1   5   3  371.56   23.70
   1   5   3  334.37   23.50
   1   5   3  366.56   25.00
  -2  -5  -3   39.40    3.80
  -2  -5  -3   36.10    5.70
  -2  -5  -3   37.50    3.90
  -2  -5  -3   36.60    4.20
  -2  -5  -3   36.80    2.50
   2   5   3   36.40    4.20
   2   5   3   36.30    4.00
   2   5   3   39.10    5.30
   2   5   3   36.50    3.90
  -3  -5  -3  562.34   37.00
  -3  -5  -3  601.24   37.00
  -3  -5  -3  599.34   36.70
  -3  -5  -3  592.34   36.70
  -3  -5  -3  490.85   38.30
   3   5   3  567.24   37.00
   3   5   3  595.34   36.70
   3   5   3  561.54   36.80
   3   5   3  590.84   38.60
   3   5   3  528.45   36.70
  -4  -5  -3  202.88   14.00
  -4  -5  -3  172.98   15.30
  -4  -5  -3  192.48   13.50
  -4  -5  -3  186.18   13.60
  -4  -5  -3  194.08   13.40
   4   5   3  183.48   13.60
   4   5   3  193.38   15.30
   4   5   3  198.98   13.50
   4   5   3  166.18   13.30
   4   5   3  163.58   13.50
  -5  -5  -3  114.29    9.40
  -5  -5  -3  107.29    9.40
  -5  -5  -3  115.79    9.70
  -5  -5  -3  114.99    9.30
  -5  -5  -3  105.89   11.10
   5   5   3  119.19   11.00
   5   5   3  126.49    9.60
   5   5   3   99.29    8.90
  -6  -5  -3   72.79    7.90
  -6  -5  -3   87.29    8.00
  -6  -5  -3   74.69    9.20
  -6  -5  -3   80.69    7.90
  -6  -5  -3   75.89    7.70
   6   5   3   74.89    9.00
   6   5   3   66.59    7.60
   6   5   3   82.09    7.50
   6   5   3   70.89    7.20
  -7  -5  -3    4.40    2.40
  -7  -5  -3    6.20    3.10
  -7  -5  -3    6.20    3.40
  -7  -5  -3    3.90    2.80
   7   5   3    7.70    2.60
   7   5   3    3.90    2.50
   7   5   3    1.80    3.10
  -8  -5  -3  105.79   10.90
  -8  -5  -3  109.89   10.60
  -8  -5  -3  102.79   10.40
   8   5   3  114.49   10.00
   8   5   3  137.59   11.10
   8   5   3  117.59   11.80
  -9  -5  -3    6.80    4.00
  -9  -5  -3    8.60    3.60
  -9  -5  -3   12.10    4.30
   9   5   3   19.20    4.50
   9   5   3    9.50    4.00
   9   5   3    2.10    7.70
   8  -6  -3   57.59    8.50
   8  -6  -3   90.79    9.50
   8  -6  -3  110.49    9.70
   8  -6  -3   62.29   11.90
  -8   6   3   90.99   10.60
  -8   6   3   91.09   10.70
  -8   6   3   88.49    9.50
  -8   6   3   80.39    7.10
  -8   6   3   73.29    8.80
   7  -6  -3   -1.70    2.70
   7  -6  -3    1.50    2.40
   7  -6  -3   -0.50    2.70
   7  -6  -3   -1.90    2.60
  -7   6   3   -1.00    3.10
  -7   6   3    0.20    2.40
  -7   6   3   -2.50    1.30
   6  -6  -3  166.28   15.80
   6  -6  -3  174.18   18.10
   6  -6  -3  201.38   15.90
  -6   6   3  220.08   17.40
  -6   6   3  229.08   13.90
  -6   6   3  215.68   15.40
  -6   6   3  193.08   15.70
   5  -6  -3    7.60    3.20
   5  -6  -3    3.10    2.60
   5  -6  -3   10.00    4.00
   5  -6  -3    7.70    3.00
   5  -6  -3   11.30    2.60
  -5   6   3   14.30    3.20
  -5   6   3    9.20    3.40
  -5   6   3    7.90    3.40
  -5   6   3    6.90    3.60
   4  -6  -3  602.44   44.00
   4  -6  -3  672.13   43.60
   4  -6  -3  656.33   44.50
   4  -6  -3  569.14   43.80
  -4   6   3  728.03   43.70
  -4   6   3  710.83   45.00
  -4   6   3  681.53   43.50
  -4   6   3  732.03   43.30
   3  -6  -3   17.50    2.30
   3  -6  -3   19.50    4.30
   3  -6  -3   24.50    4.70
   3  -6  -3   18.60    2.10
   3  -6  -3   16.00    2.60
   3  -6  -3    7.00    3.00
  -3   6   3   18.00    3.40
  -3   6   3   19.80    4.50
  -3   6   3   17.00    3.20
  -3   6   3   16.30    3.30
   2  -6  -3  233.58   15.80
   2  -6  -3  209.18   17.40
   2  -6  -3  222.78   17.00
   2  -6  -3  230.68   16.50
   2  -6  -3  235.78   15.20
  -2   6   3  258.47   16.50
  -2   6   3  237.78   16.40
  -2   6   3  223.08   17.60
  -2   6   3  255.67   16.40
   1  -6  -3   56.79    5.00
   1  -6  -3   52.09    5.40
   1  -6  -3   55.49    6.50
   1  -6  -3   52.29    5.70
  -1   6   3   59.39    5.40
  -1   6   3   59.89    5.70
  -1   6   3   59.39    5.30
  -1   6   3   64.59    6.90
  -1   6   3   57.79    5.10
   0  -6  -3   89.59    9.00
   0  -6  -3   93.59    8.00
   0  -6  -3   98.19    7.60
   0  -6  -3  107.89    8.90
   0   6   3   92.59    6.40
   0   6   3  108.29    7.90
   0   6   3  104.79    7.90
   0   6   3  101.79    7.60
   0   6   3  105.29    9.40
   0   6   3   98.89    8.00
   0   6   3   90.69    7.70
  -1  -6  -3  180.38   15.00
  -1  -6  -3  193.98   14.00
  -1  -6  -3  188.28   13.70
  -1  -6  -3  192.08   13.60
  -1  -6  -3  206.28   13.70
   1   6   3  203.28   13.70
   1   6   3  204.28   13.50
   1   6   3  193.88   15.40
   1   6   3  184.08   13.80
   1   6   3  199.98   13.90
   1   6   3  170.38   15.30
  -2  -6  -3    7.40    2.00
  -2  -6  -3    7.90    2.20
  -2  -6  -3    7.30    3.00
  -2  -6  -3    6.70    2.20
  -2  -6  -3    8.20    2.50
   2   6   3   10.90    2.80
   2   6   3    7.80    2.20
   2   6   3    4.80    2.00
   2   6   3    6.70    3.10
   2   6   3    4.60    3.30
   2   6   3    7.30    2.20
  -3  -6  -3  136.19    8.80
  -3  -6  -3  141.89   10.30
  -3  -6  -3  125.99   10.40
  -3  -6  -3  152.58   10.40
  -3  -6  -3  110.49   10.30
  -3  -6  -3  119.59   11.80
   3   6   3  132.89   10.40
   3   6   3  128.39   10.60
   3   6   3  150.68   10.30
   3   6   3  154.98   12.40
   3   6   3  121.99   10.30
  -4  -6  -3   67.69    6.20
  -4  -6  -3   65.79    7.90
  -4  -6  -3   60.19    5.10
  -4  -6  -3   61.69    6.40
  -4  -6  -3   72.59    6.40
  -4  -6  -3   51.29    6.30
   4   6   3   63.29    6.10
   4   6   3   62.29    7.60
   4   6   3   62.99    6.30
   4   6   3   58.79    6.20
   4   6   3   65.19    6.10
  -5  -6  -3  166.98   13.50
  -5  -6  -3  181.88   14.40
  -5  -6  -3  180.08   14.00
  -5  -6  -3  197.88   13.80
  -5  -6  -3  192.98   14.00
  -5  -6  -3  186.18   18.20
   5   6   3  205.78   15.90
   5   6   3  172.78   13.60
   5   6   3  197.38   13.80
   5   6   3  178.18   13.90
   5   6   3  162.98   14.00
  -6  -6  -3  115.99    9.60
  -6  -6  -3   96.69    8.90
  -6  -6  -3  103.49   10.10
  -6  -6  -3  120.89   10.00
  -6  -6  -3   93.59   11.10
  -6  -6  -3  113.69    9.90
   6   6   3  115.29    9.70
   6   6   3  116.29   11.30
   6   6   3  113.99    9.30
   6   6   3   91.89   17.00
  -7  -6  -3  146.39   11.60
  -7  -6  -3  143.79   12.00
  -7  -6  -3  116.89   12.30
  -7  -6  -3  129.09   11.60
  -7  -6  -3  119.59   10.70
   7   6   3  126.89   10.80
   7   6   3  138.69   11.30
   7   6   3  144.99   12.90
   7   6   3  101.19   33.20
  -8  -6  -3   84.09    9.40
  -8  -6  -3   97.29    9.20
  -8  -6  -3   75.39    9.10
  -8  -6  -3   92.49    8.40
  -8  -6  -3   77.79    9.60
   8   6   3   59.69   17.50
   8   6   3   94.29   10.00
   8   6   3   89.49    8.30
   8   6   3   96.29    9.10
   9   6   3   15.20   10.70
   8  -7  -3    9.70    4.10
   8  -7  -3    6.00    5.10
   8  -7  -3    3.60    3.70
  -8   7   3    7.10    4.90
  -8   7   3   11.40    5.40
  -8   7   3    9.70    4.20
   7  -7  -3    4.90    3.50
   7  -7  -3    3.70    3.70
   7  -7  -3    3.70    3.30
  -7   7   3   -3.10    2.60
  -7   7   3    2.40    3.60
  -7   7   3    5.70    4.20
   6  -7  -3   24.50    5.40
   6  -7  -3   23.90    6.00
   6  -7  -3   28.40    5.80
  -6   7   3   45.80    7.60
  -6   7   3   45.50    6.40
  -6   7   3   25.20    6.10
   5  -7  -3  104.89   10.50
   5  -7  -3  114.59   10.30
   5  -7  -3   89.19   10.00
   5  -7  -3  108.39   10.70
  -5   7   3  119.69    9.80
  -5   7   3  116.69   11.40
  -5   7   3  116.39   10.30
   4  -7  -3   99.19   10.00
   4  -7  -3  111.39    9.70
   4  -7  -3   99.99    8.20
   4  -7  -3   92.09    8.40
  -4   7   3  106.99    9.50
  -4   7   3  105.09    9.10
  -4   7   3  104.19   10.60
  -4   7   3  125.69    9.60
   3  -7  -3  488.15   34.00
   3  -7  -3  466.95   32.00
   3  -7  -3  513.55   33.60
   3  -7  -3  497.65   35.00
   3  -7  -3  490.95   35.40
  -3   7   3  542.35   33.90
  -3   7   3  537.75   34.10
  -3   7   3  574.24   36.00
   2  -7  -3  318.07   23.60
   2  -7  -3  320.67   21.10
   2  -7  -3  328.87   22.10
   2  -7  -3  298.77   23.90
   2  -7  -3  324.07   22.80
  -2   7   3  341.77   22.80
  -2   7   3  345.57   24.50
  -2   7   3  343.97   22.80
  -2   7   3  343.47   22.40
  -2   7   3  364.76   22.80
   1  -7  -3  214.58   16.00
   1  -7  -3  230.58   15.50
   1  -7  -3  188.98   17.00
   1  -7  -3  231.18   16.60
  -1   7   3  228.28   16.10
  -1   7   3  227.98   15.60
  -1   7   3  228.28   15.80
  -1   7   3  223.08   15.80
  -1   7   3  244.08   17.80
   0  -7  -3  727.83   46.70
   0  -7  -3  821.62   47.60
   0  -7  -3  712.33   47.00
   0  -7  -3  670.23   48.60
   0   7   3  792.02   47.20
   0   7   3  758.92   48.90
   0   7   3  659.53   45.20
   0   7   3  735.83   47.20
  -1  -7  -3  931.41   60.79
  -1  -7  -3  939.71   60.99
  -1  -7  -3 1053.89   61.39
  -1  -7  -3  866.61   62.79
  -1  -7  -3  884.81   61.09
   1   7   3  929.71   61.39
   1   7   3 1033.80   61.59
   1   7   3 1012.30   60.99
   1   7   3  963.60   62.19
   1   7   3  944.21   63.49
   1   7   3 1054.49   63.29
  -2  -7  -3  338.47   22.50
  -2  -7  -3  342.67   22.60
  -2  -7  -3  292.97   23.90
  -2  -7  -3  357.46   22.10
  -2  -7  -3  359.26   22.40
   2   7   3  330.97   22.70
   2   7   3  332.87   25.60
   2   7   3  294.57   22.40
   2   7   3  316.67   26.30
   2   7   3  312.37   22.40
  -3  -7  -3 1104.89   63.99
  -3  -7  -3  885.31   65.99
  -3  -7  -3  967.20   64.49
  -3  -7  -3  991.60   64.19
  -3  -7  -3 1087.29   64.09
   3   7   3  915.91   64.19
   3   7   3 1126.19   64.79
   3   7   3 1008.60   64.39
   3   7   3  937.71   70.79
   3   7   3  956.80   64.49
   3   7   3 1120.19   66.39
  -4  -7  -3  221.38   16.60
  -4  -7  -3  254.97   16.60
  -4  -7  -3  230.88   14.80
  -4  -7  -3  209.48   16.90
  -4  -7  -3  239.48   16.50
   4   7   3  227.38   16.90
   4   7   3  246.88   18.30
   4   7   3  203.38   16.70
   4   7   3  208.88   22.90
   4   7   3  217.28   16.30
   4   7   3  241.08   17.30
  -5  -7  -3  517.35   35.20
  -5  -7  -3  589.54   36.70
  -5  -7  -3  478.35   39.00
  -5  -7  -3  516.75   37.20
  -5  -7  -3  553.54   36.80
  -5  -7  -3  628.74   36.70
   5   7   3  503.45   36.20
   5   7   3  597.24   36.40
   5   7   3  523.05   46.10
   5   7   3  614.44   38.60
  -6  -7  -3   32.20    4.30
  -6  -7  -3   33.10    5.80
  -6  -7  -3   29.80    5.40
  -6  -7  -3   35.90    5.40
  -6  -7  -3   44.70    6.00
   6   7   3   33.90    6.40
   6   7   3   36.80    4.60
   6   7   3   28.20   11.10
   6   7   3   31.70    5.10
  -7  -7  -3  172.78   13.00
  -7  -7  -3  161.28   14.00
  -7  -7  -3  147.69   15.10
  -7  -7  -3  179.58   14.40
   7   7   3  164.08   24.40
   7   7   3  176.28   13.60
   7   7   3  176.58   14.90
  -8  -7  -3   31.50    4.90
  -8  -7  -3   38.20    4.70
  -8  -7  -3   26.90    5.50
  -8  -7  -3   27.90    5.60
  -8  -7  -3   25.60    5.70
   8   7   3   18.80   11.50
   8   7   3   38.80    5.00
   8   7   3   31.50    6.00
   8   7   3   18.20    4.50
   7  -8  -3   27.60    6.90
   7  -8  -3   44.20    7.70
  -7   8   3   39.60    7.00
  -7   8   3   57.49    9.70
   6  -8  -3   41.90    6.60
   6  -8  -3   43.00    7.80
   6  -8  -3   52.39    7.60
  -6   8   3   40.80    9.90
  -6   8   3   48.30    7.50
   5  -8  -3   71.39    9.10
   5  -8  -3   63.59    8.60
   5  -8  -3   57.29    6.50
  -5   8   3   67.09    9.00
  -5   8   3   73.69    8.20
  -5   8   3   74.99    7.60
   4  -8  -3  116.89   11.00
   4  -8  -3  126.19   12.20
   4  -8  -3  117.99   11.70
  -4   8   3  116.19   10.40
  -4   8   3  118.29   10.90
  -4   8   3  133.09   12.50
   3  -8  -3  129.79   11.60
   3  -8  -3  138.19   10.60
   3  -8  -3  125.09   12.30
   3  -8  -3  122.49    9.10
  -3   8   3  151.98   13.40
  -3   8   3  157.18   11.90
  -3   8   3  172.18   11.80
   2  -8  -3   97.29    9.30
   2  -8  -3  100.09    9.90
   2  -8  -3  114.79   10.80
   2  -8  -3   99.19    7.20
  -2   8   3  117.49    8.80
  -2   8   3  110.09    9.00
  -2   8   3  101.09   10.60
  -2   8   3  109.19    9.40
  -2   8   3  108.29    9.20
   1  -8  -3  195.28   14.20
   1  -8  -3  189.68   14.80
   1  -8  -3  205.38   15.60
  -1   8   3  205.78   16.60
  -1   8   3  193.08   15.00
  -1   8   3  211.98   15.60
  -1   8   3  190.88   14.90
  -1   8   3  211.38   14.50
   0  -8  -3  180.88   13.50
   0  -8  -3  170.38   12.90
   0  -8  -3  158.38   14.90
   0  -8  -3  187.28   13.90
   0   8   3  191.98   15.30
   0   8   3  191.88   11.20
   0   8   3  157.38   11.20
   0   8   3  173.78   13.50
   0   8   3  169.78   13.00
   0   8   3  185.48   13.30
   0   8   3  195.58   13.50
  -1  -8  -3  164.78   12.90
  -1  -8  -3  161.78   12.60
  -1  -8  -3  160.08   15.60
  -1  -8  -3  175.88   12.50
  -1  -8  -3  187.28   13.10
   1   8   3  156.28   12.50
   1   8   3  143.09   13.60
   1   8   3  164.88   14.40
   1   8   3  169.78   12.90
   1   8   3  182.68   14.90
  -2  -8  -3   35.30    4.60
  -2  -8  -3   25.60    6.70
  -2  -8  -3   28.20    4.50
  -2  -8  -3   30.30    4.70
  -2  -8  -3   37.50    4.40
   2   8   3   24.30    4.20
   2   8   3   33.60    6.30
   2   8   3   30.00    6.60
   2   8   3   20.10    4.30
   2   8   3   30.70    4.90
   2   8   3   29.00    4.40
  -3  -8  -3  162.08   13.30
  -3  -8  -3  180.28   12.70
  -3  -8  -3  183.78   13.00
  -3  -8  -3  143.39   14.60
  -3  -8  -3  173.08   13.20
   3   8   3  155.88   13.20
   3   8   3  170.48   13.20
   3   8   3  187.18   15.00
   3   8   3  151.18   12.80
   3   8   3  151.48   17.70
   3   8   3  188.48   12.80
  -4  -8  -3   45.60    6.40
  -4  -8  -3   59.99    6.20
  -4  -8  -3   55.89    7.50
  -4  -8  -3   54.39    7.50
  -4  -8  -3   56.39    6.10
   4   8   3   42.70   10.70
   4   8   3   45.80    6.50
   4   8   3   57.29    5.90
   4   8   3   53.99    5.80
   4   8   3   50.89    7.80
  -5  -8  -3   25.70    4.90
  -5  -8  -3   22.40    4.40
  -5  -8  -3   23.20    5.10
  -5  -8  -3   24.40    2.80
  -5  -8  -3   25.30    4.70
   5   8   3   25.10    4.40
   5   8   3   17.30    8.50
   5   8   3   28.00    5.80
   5   8   3   23.10    4.20
  -6  -8  -3   49.10    6.70
  -6  -8  -3   49.80    6.50
  -6  -8  -3   42.40    4.70
  -6  -8  -3   54.19    7.10
  -6  -8  -3   50.39    7.30
   6   8   3   58.59    6.30
   6   8   3   48.90    5.50
   6   8   3   50.49    7.70
   6   8   3   36.20   12.20
  -7  -8  -3   28.90    5.10
  -7  -8  -3   17.60    4.80
  -7  -8  -3   19.00    3.30
  -7  -8  -3   28.10    5.30
   7   8   3   23.30    4.10
   7   8   3   26.10    5.70
   7   8   3   18.70   10.20
   7   8   3   20.70    4.30
  -8  -8  -3   42.70    7.20
  -8  -8  -3   25.60    5.70
  -8  -8  -3   39.10    6.80
  -8  -8  -3   49.40    5.40
   8   8   3   52.39    6.90
   8   8   3   57.79    5.80
   8   8   3   39.40    6.00
   8   8   3   20.50   12.10
   7  -9  -3   25.20    6.10
   7  -9  -3   12.20    4.10
   7  -9  -3    8.50    5.10
  -7   9   3   11.30    5.10
  -7   9   3   19.70    6.70
   6  -9  -3   47.90    8.00
   6  -9  -3   39.60    5.20
  -6   9   3   52.99    8.00
  -6   9   3   48.80    8.90
   5  -9  -3    5.90    3.60
   5  -9  -3    8.70    5.40
  -5   9   3   14.10    6.60
   4  -9  -3   91.19    9.80
  -4   9   3  117.59   19.70
  -4   9   3   91.99    9.70
   3  -9  -3   53.59    7.60
   3  -9  -3   49.10    8.20
  -3   9   3   58.79    6.20
  -3   9   3   64.49    8.70
  -3   9   3   53.89    7.40
  -3   9   3   65.99    7.20
   2  -9  -3  167.28   14.60
   2  -9  -3  158.98   11.00
   2  -9  -3  171.78   13.70
   2  -9  -3  170.38   12.60
  -2   9   3  181.58   12.90
  -2   9   3  181.38   15.50
  -2   9   3  178.58   13.70
  -2   9   3  162.58   13.30
   1  -9  -3   94.49    8.30
   1  -9  -3  109.09    9.90
   1  -9  -3   89.19    8.90
   1  -9  -3   90.09   10.20
  -1   9   3   92.59    8.90
  -1   9   3  109.29   11.10
  -1   9   3   97.59    9.10
  -1   9   3   98.99    8.60
   0  -9  -3  106.59    9.30
   0  -9  -3   86.19   10.30
   0  -9  -3  110.79    9.80
   0  -9  -3   91.19    8.60
   0   9   3  104.99    9.10
   0   9   3  110.69   11.20
   0   9   3  106.29    9.50
   0   9   3  120.99    9.50
   0   9   3   96.79   11.40
  -1  -9  -3  137.99   10.60
  -1  -9  -3  104.49   11.40
  -1  -9  -3  109.19   10.10
  -1  -9  -3   98.29    9.60
   1   9   3  119.99   10.40
   1   9   3  111.09    9.90
   1   9   3  136.39   10.30
   1   9   3  131.09   12.10
   1   9   3  116.79   10.40
   1   9   3  119.99   11.80
  -2  -9  -3   13.90    3.90
  -2  -9  -3   21.70    4.20
  -2  -9  -3   20.50    4.00
  -2  -9  -3   12.30    4.40
  -2  -9  -3   17.10    3.60
   2   9   3   22.50    3.80
   2   9   3   12.20    3.40
   2   9   3   15.00    5.30
   2   9   3   10.30    3.60
   2   9   3   16.10    5.10
  -3  -9  -3  137.49   11.30
  -3  -9  -3  142.09   12.30
  -3  -9  -3  159.68   12.00
  -3  -9  -3  147.89   12.00
   3   9   3  154.28   11.60
   3   9   3  157.98   13.80
   3   9   3  116.49   11.60
   3   9   3  148.19   17.20
  -4  -9  -3    1.40    2.50
  -4  -9  -3    2.60    2.60
  -4  -9  -3    7.80    3.30
  -4  -9  -3    3.60    2.70
   4   9   3    5.10    2.80
   4   9   3    4.00    5.00
   4   9   3    6.60    3.70
  -5  -9  -3   92.29    9.50
  -5  -9  -3   97.29    9.40
  -5  -9  -3   91.49    9.00
   5   9   3  101.59    8.80
   5   9   3   89.09   10.20
   5   9   3   90.29   16.30
  -6  -9  -3   12.00    3.80
  -6  -9  -3    7.90    4.60
  -6  -9  -3    7.90    3.50
  -6  -9  -3   19.10    4.50
   6   9   3    4.70    3.50
   6   9   3    8.80    3.30
   6   9   3    8.70    9.40
  -7  -9  -3   63.39    8.00
  -7  -9  -3   55.79    8.10
  -7  -9  -3   70.09    6.00
  -7  -9  -3   68.49    8.30
   7   9   3   74.29    8.50
   7   9   3   45.80   15.10
   7   9   3   56.19    7.40
   6 -10  -3    3.50    4.20
   6 -10  -3    4.10    3.90
  -6  10   3    6.10    4.00
  -6  10   3    4.20    5.00
   5 -10  -3   -1.50    3.70
  -5  10   3   -1.90    3.80
  -5  10   3    3.90    4.00
   4 -10  -3    0.60    3.70
  -4  10   3    6.80    4.70
   3 -10  -3    3.80    3.70
   3 -10  -3    6.60    3.60
  -3  10   3    2.70    4.10
  -3  10   3    4.10    3.20
   2 -10  -3    6.50    4.00
   2 -10  -3    3.90    2.90
   2 -10  -3    5.60    0.80
  -2  10   3    1.70    3.80
  -2  10   3    4.30    3.30
  -2  10   3    3.10    2.80
   1 -10  -3  124.89   11.60
   1 -10  -3  139.39   12.60
   1 -10  -3  117.59   11.40
  -1  10   3  147.49   12.10
  -1  10   3  138.09   11.10
  -1  10   3  155.98   14.30
   0 -10  -3   42.80    6.50
   0 -10  -3   31.90    5.50
   0 -10  -3   26.80    4.70
   0  10   3   35.40    5.60
   0  10   3   40.40    7.50
   0  10   3   33.50    5.10
  -1 -10  -3  319.97   21.40
  -1 -10  -3  266.47   20.60
  -1 -10  -3  259.17   20.20
   1  10   3  312.27   23.00
   1  10   3  282.67   20.50
   1  10   3  319.77   22.30
   1  10   3  247.88   20.10
  -2 -10  -3   68.19    7.40
  -2 -10  -3   67.79    7.20
  -2 -10  -3   61.99    6.60
  -2 -10  -3   62.89   11.00
   2  10   3   46.50    6.70
   2  10   3   59.49    9.00
  -3 -10  -3  158.48   16.00
  -3 -10  -3  194.68   14.70
  -3 -10  -3  181.78   15.00
  -3 -10  -3  218.08   15.40
   3  10   3  213.18   17.20
   3  10   3  164.18   14.80
   3  10   3  206.18   20.80
   3  10   3  206.68   14.80
  -4 -10  -3   18.70    4.30
  -4 -10  -3    7.80    5.40
  -4 -10  -3   15.80    5.80
  -4 -10  -3   11.20    5.00
   4  10   3   24.00    6.10
   4  10   3   17.60    4.00
   4  10   3   20.00    4.20
   4  10   3   16.40    7.50
  -5 -10  -3  177.68   16.00
  -5 -10  -3  165.18   14.70
  -5 -10  -3  188.78   14.60
   5  10   3  187.38   23.50
   5  10   3  177.78   14.20
   5  10   3  213.08   16.70
   5  10   3  180.08   14.30
  -6 -10  -3   16.20    4.40
  -6 -10  -3   12.00    4.40
  -6 -10  -3   14.30    4.40
  -6 -10  -3    8.70    3.90
   6  10   3    6.70   13.50
   6  10   3    7.60    4.10
   6  10   3   10.60    3.50
   5 -11  -3   25.90    7.40
   5 -11  -3   16.50    5.60
  -5  11   3   24.60    7.20
  -5  11   3   18.80    5.90
   4 -11  -3   72.59   13.20
   4 -11  -3   74.49   10.20
  -4  11   3   81.99   11.30
  -4  11   3   85.49    9.70
   3 -11  -3   47.70    7.90
   3 -11  -3   43.30    8.10
  -3  11   3   52.19   10.80
  -3  11   3   53.29    9.10
   2 -11  -3  156.38   14.80
   2 -11  -3  154.18   20.80
   1 -11  -3   49.10    4.10
   1 -11  -3   50.39    7.80
  -1  11   3   61.59    9.80
  -1  11   3   59.79    4.40
  -1  11   3   45.60    7.00
   0 -11  -3  176.38   16.70
   0 -11  -3  239.58   19.30
   0  11   3  234.18   19.10
   0  11   3  203.58   16.50
  -1 -11  -3   46.20    7.20
   1  11   3   55.99    9.00
   1  11   3   43.40    6.50
  -2 -11  -3  150.38   13.70
   2  11   3  181.08   16.00
   2  11   3  185.68   17.70
   2  11   3  146.09   13.40
  -3 -11  -3   27.40    5.30
  -3 -11  -3   23.80    4.70
  -3 -11  -3   28.80    5.50
  -3 -11  -3   26.60    5.40
   3  11   3   26.00    8.30
   3  11   3   27.10    5.30
   3  11   3   26.30    6.20
  -4 -11  -3  103.09   10.00
  -4 -11  -3  118.29   11.10
  -4 -11  -3   98.09   10.30
  -4 -11  -3  120.99   10.80
   4  11   3  114.89   17.10
  -5 -11  -3   27.40    5.30
  -5 -11  -3   30.40    6.00
  -5 -11  -3   29.60    5.70
  -5 -11  -3   31.80    5.90
   5  11   3   46.70    5.60
   5  11   3   17.10   11.90
   5  11   3   31.40    6.60
   5  11   3   23.50    4.80
   3 -12  -3   31.30    7.80
   3 -12  -3   30.90    6.60
  -3  12   3   30.40    6.80
   2 -12  -3   17.10    5.60
   2 -12  -3    5.60    4.10
  -2  12   3   14.60    5.00
  -2  12   3   16.40    6.00
   1 -12  -3   31.30    2.40
   1 -12  -3   30.00    6.80
   1 -12  -3   28.20    5.90
   1 -12  -3   31.80    2.40
  -1  12   3   36.00    2.80
  -1  12   3   25.90    7.40
  -1  12   3   33.60    2.80
  -1  12   3   36.40    6.70
   0 -12  -3   19.40    5.40
   0 -12  -3   17.30    4.80
   0  12   3   16.70    6.40
   0  12   3   20.20    5.10
  -1 -12  -3   33.10    6.50
  -1 -12  -3   28.90    5.70
   1  12   3   36.30    6.00
   1  12   3   32.70    7.40
  -2 -12  -3   22.00    5.20
  -2 -12  -3   18.20    5.30
   2  12   3   13.30    5.70
   2  12   3   19.00    5.00
  -3 -12  -3   23.30    5.40
  -3 -12  -3   20.80    4.60
  -3 -12  -3   31.00    5.90
   3  12   3   25.00    5.50
   3  12   3   29.90   10.90
   3  12   3   23.50    7.90
   3  10  -4   26.90    4.40
   3  10  -4   21.50    4.10
   3  10  -4   25.90    4.90
  -3 -10   4   28.60    4.90
  -3 -10   4   20.40    4.30
  -3 -10   4   27.70    3.80
   2  10  -4   82.49    7.70
   2  10  -4   89.29    8.40
   2  10  -4   95.99    9.20
  -2 -10   4   99.49    9.10
  -2 -10   4   85.09    7.30
  -2 -10   4   76.39    8.00
   1  10  -4   21.60    4.80
   1  10  -4   20.90    3.40
   1  10  -4   29.00    5.10
   1  10  -4   30.50    3.00
   1  10  -4   27.90    3.30
  -1 -10   4   16.30    4.40
  -1 -10   4   28.00    4.50
  -1 -10   4   23.40    3.20
  -1 -10   4   24.30    5.20
   0  10  -4   65.39    6.10
   0  10  -4   79.59    8.40
   0  10  -4   80.89    7.40
   0  10  -4   80.49    8.10
   0  10  -4   69.09    6.40
   0 -10   4   82.59    9.00
   0 -10   4   75.79    8.40
   0 -10   4   63.29    6.70
  -1  10  -4   20.50    4.70
  -1  10  -4   10.90    2.20
  -1  10  -4   17.00    5.50
  -1  10  -4   23.80    4.60
  -1  10  -4   15.60    4.30
   1 -10   4   11.30    3.10
   1 -10   4   13.40    4.70
   1 -10   4   21.20    4.90
  -2  10  -4   69.99    8.20
  -2  10  -4   79.79    7.90
  -2  10  -4   47.50    7.80
  -2  10  -4   56.19    5.10
   2 -10   4   57.39    9.10
   2 -10   4   55.49    8.30
   2 -10   4   53.79    6.30
  -3  10  -4   -0.40    3.30
  -3  10  -4    5.30    3.80
  -3  10  -4   -1.70    1.40
   3 -10   4   -0.30    3.20
   3 -10   4   -3.30    3.00
  -4  10  -4   29.80    5.30
  -4  10  -4   25.70    3.70
  -4  10  -4   32.20    6.80
   4 -10   4   32.20    6.60
   4 -10   4   20.70    6.60
   4   9  -4    0.00    7.00
   4   9  -4   -1.00    1.70
   4   9  -4   -3.00    2.20
  -4  -9   4   -1.70    2.40
  -4  -9   4    4.80    1.80
  -4  -9   4    0.20    2.30
  -4  -9   4    0.00    2.00
   3   9  -4   53.79    5.80
   3   9  -4   52.19    5.90
   3   9  -4   52.49    6.90
  -3  -9   4   53.79    5.40
  -3  -9   4   69.99    6.90
  -3  -9   4   47.60    5.80
   2   9  -4    5.40    2.40
   2   9  -4    5.70    3.30
   2   9  -4    7.20    2.70
  -2  -9   4    0.20    2.00
  -2  -9   4    4.40    2.00
  -2  -9   4    5.40    3.20
  -2  -9   4    6.50    5.00
   1   9  -4   48.10    6.20
   1   9  -4   43.60    4.20
   1   9  -4   48.70    3.90
   1   9  -4   42.40    5.80
  -1  -9   4   37.80    4.10
  -1  -9   4   37.20    4.90
  -1  -9   4   40.20    6.30
   0   9  -4   32.50    4.60
   0   9  -4   24.40    4.80
   0   9  -4   24.40    3.10
   0   9  -4   22.50    4.40
   0   9  -4   26.80    3.80
   0  -9   4   24.90    4.90
   0  -9   4   24.30    5.10
   0  -9   4   23.40    8.30
   0  -9   4   26.90    4.10
  -1   9  -4   17.10    3.40
  -1   9  -4   17.20    4.10
  -1   9  -4   19.30    4.30
  -1   9  -4   15.40    3.70
  -1   9  -4   12.70    2.10
   1  -9   4    9.20    6.00
   1  -9   4   14.60    4.10
   1  -9   4    9.10    2.60
   1  -9   4   10.40    4.10
  -2   9  -4   94.99    9.80
  -2   9  -4   95.99    7.00
  -2   9  -4  102.29    8.60
  -2   9  -4  103.79   10.10
   2  -9   4   83.39   13.10
   2  -9   4   91.49   10.30
   2  -9   4   84.79    9.50
  -3   9  -4   10.80    2.20
  -3   9  -4    7.20    4.10
  -3   9  -4    9.30    2.10
  -3   9  -4    9.80    4.40
   3  -9   4   11.70    6.70
   3  -9   4   10.70    4.20
   3  -9   4    5.20    3.90
   3  -9   4    4.40    3.10
  -4   9  -4   13.60    2.90
  -4   9  -4   13.60    5.10
  -4   9  -4   11.10    4.30
   4  -9   4   14.70    7.20
   4  -9   4   18.50    4.80
   4  -9   4   18.40    5.90
  -5   9  -4    5.80    2.60
  -5   9  -4   -2.80    1.70
  -5   9  -4   -2.30    3.50
   5  -9   4   -0.60    3.40
   5  -9   4    2.90    3.70
   6   8  -4   24.50    2.70
   6   8  -4   23.90   11.60
  -6  -8   4   19.40    3.20
  -6  -8   4   16.60    2.80
   5   8  -4   13.90    4.00
   5   8  -4   22.30    3.00
   5   8  -4   18.30    3.00
   5   8  -4   24.00   11.20
  -5  -8   4   30.10    5.60
  -5  -8   4   22.20    4.30
  -5  -8   4   23.70    4.00
  -5  -8   4   22.30    4.10
  -5  -8   4   26.90    3.80
   4   8  -4   -4.20    1.80
   4   8  -4   -1.40    5.90
   4   8  -4    5.20    1.70
  -4  -8   4    3.00    1.80
  -4  -8   4   -0.70    1.70
  -4  -8   4    2.10    2.40
  -4  -8   4   -0.60    1.80
   3   8  -4   31.20    4.40
   3   8  -4   25.20    4.30
   3   8  -4   30.90    4.10
   3   8  -4   26.70    5.10
  -3  -8   4   35.10    6.90
  -3  -8   4   31.10    4.50
  -3  -8   4   35.90    4.10
  -3  -8   4   40.80    4.80
  -3  -8   4   35.30    4.60
  -3  -8   4   23.90    4.20
   2   8  -4   48.30    6.90
   2   8  -4   53.09    5.30
   2   8  -4   39.10    4.80
   2   8  -4   54.49    6.50
  -2  -8   4   51.09    5.90
  -2  -8   4   47.80    4.90
  -2  -8   4   46.40    5.30
  -2  -8   4   54.49    5.80
  -2  -8   4   54.79    4.60
   1   8  -4   61.69    5.80
   1   8  -4   68.89    7.50
   1   8  -4   73.69    5.40
   1   8  -4   71.09    5.60
   1   8  -4   75.79    6.90
  -1  -8   4   72.79    7.40
  -1  -8   4   72.39   12.80
  -1  -8   4   67.49    6.20
  -1  -8   4   75.89    6.00
  -1  -8   4   74.99    8.00
  -1  -8   4   74.29    7.30
   0   8  -4   66.79    5.20
   0   8  -4   63.99    6.30
   0   8  -4   69.59    7.10
   0   8  -4   69.99    5.90
   0   8  -4   75.19    7.10
   0  -8   4   62.89    7.60
   0  -8   4   58.49   11.30
   0  -8   4   71.79    7.40
   0  -8   4   59.79    5.90
   0  -8   4   63.79    7.10
  -1   8  -4  131.69   10.40
  -1   8  -4  114.29   10.20
  -1   8  -4  105.89    7.90
  -1   8  -4  114.49    9.10
  -1   8  -4  130.19   10.20
   1  -8   4  108.29   10.10
   1  -8   4  104.09   10.60
  -2   8  -4   52.69    7.40
  -2   8  -4   56.89    4.40
  -2   8  -4   52.49    6.80
   2  -8   4   59.39    7.50
   2  -8   4   42.80    6.70
   2  -8   4   50.49    5.90
  -3   8  -4  148.39   11.50
  -3   8  -4  116.89    9.50
  -3   8  -4  138.89    9.30
  -3   8  -4  136.59   12.10
  -3   8  -4  133.59   12.20
   3  -8   4  129.89   12.10
   3  -8   4  116.39   10.70
   3  -8   4  124.59   12.90
   3  -8   4  154.78   17.20
  -4   8  -4   43.90    7.30
  -4   8  -4   40.20    4.10
  -4   8  -4   40.40    4.40
  -4   8  -4   31.40    6.50
   4  -8   4   28.40    6.30
  -5   8  -4   94.59    7.80
  -5   8  -4   81.19   10.70
  -5   8  -4   77.89   13.00
   5  -8   4   76.49   10.70
   5  -8   4   84.59   10.00
  -6   8  -4   14.10    5.20
  -6   8  -4    8.30    2.90
  -6   8  -4   15.70    5.70
   6  -8   4    4.70    4.30
   6   7  -4   24.50    2.80
   6   7  -4   31.70   12.50
  -6  -7   4   37.00    6.70
  -6  -7   4   26.40    4.70
  -6  -7   4   25.20    3.30
  -6  -7   4   30.80    3.60
  -6  -7   4   25.90    4.00
   5   7  -4   25.30    3.00
  -5  -7   4   28.30    4.40
  -5  -7   4   23.10    3.30
  -5  -7   4   29.40    3.90
  -5  -7   4   25.50    5.40
  -5  -7   4   30.20    3.60
   4   7  -4  260.77   26.20
   4   7  -4  173.78   14.80
   4   7  -4  184.48   15.60
   4   7  -4  211.88   14.10
   4   7  -4  182.28   14.30
  -4  -7   4  190.88   15.90
  -4  -7   4  180.48   13.80
  -4  -7   4  220.58   14.40
  -4  -7   4  208.78   14.10
  -4  -7   4  215.58   14.60
   3   7  -4  164.78   14.80
   3   7  -4  169.88   12.50
   3   7  -4  172.78   13.10
   3   7  -4  174.88   14.20
  -3  -7   4  180.88   12.90
  -3  -7   4  190.58   13.30
  -3  -7   4  198.38   12.80
  -3  -7   4  143.49   12.60
  -3  -7   4  203.98   13.10
  -3  -7   4  183.38   14.40
   2   7  -4  443.26   29.90
   2   7  -4  391.66   28.30
   2   7  -4  423.36   28.40
  -2  -7   4  378.66   36.60
  -2  -7   4  433.06   28.40
  -2  -7   4  438.16   30.10
  -2  -7   4  502.25   28.10
  -2  -7   4  471.35   28.90
  -2  -7   4  417.16   28.40
  -2  -7   4  443.36   28.70
   1   7  -4  131.69    9.80
   1   7  -4  141.09   10.70
   1   7  -4  156.98   11.80
   1   7  -4  136.79   10.70
   1   7  -4  138.79    9.50
   1   7  -4  134.59    9.30
  -1  -7   4  134.09   10.10
  -1  -7   4  138.89   10.80
  -1  -7   4  149.99   10.10
  -1  -7   4  156.88   11.20
  -1  -7   4  147.49   12.00
  -1  -7   4  116.29   18.90
   0   7  -4  333.57   21.60
   0   7  -4  324.37   21.00
   0   7  -4  299.47   20.60
   0   7  -4  307.67   21.10
   0   7  -4  289.37   19.50
   0   7  -4  326.67   21.80
   0  -7   4  300.57   20.30
   0  -7   4  279.87   26.80
   0  -7   4  304.07   21.50
   0  -7   4  293.37   22.10
   0  -7   4  305.97   21.30
  -1   7  -4  154.18   11.30
  -1   7  -4  129.49    9.10
  -1   7  -4  136.29   10.20
  -1   7  -4  129.69   11.10
   1  -7   4  120.09   11.00
   1  -7   4  140.69   15.70
   1  -7   4  150.08   12.00
   1  -7   4  135.09   10.40
   1  -7   4  143.89   12.30
  -2   7  -4  444.36   26.70
  -2   7  -4  401.46   27.40
  -2   7  -4  381.26   27.20
  -2   7  -4  393.66   24.90
   2  -7   4  369.86   26.30
   2  -7   4  380.96   28.10
   2  -7   4  345.37   27.70
   2  -7   4  367.46   27.20
   2  -7   4  457.45   33.20
  -3   7  -4   90.09    7.70
  -3   7  -4   71.49    6.00
  -3   7  -4   80.99    8.50
  -3   7  -4   78.69    5.70
  -3   7  -4   69.29    7.90
   3  -7   4   64.69    8.50
   3  -7   4   71.99    8.20
   3  -7   4   67.89    7.10
  -4   7  -4  161.08   11.50
  -4   7  -4  176.08   14.10
  -4   7  -4  152.98   13.90
   4  -7   4  153.48   12.50
   4  -7   4  156.28   13.60
   4  -7   4  149.09   14.40
  -5   7  -4    3.20    3.60
  -5   7  -4   -2.60    1.50
   5  -7   4    3.80    4.40
   5  -7   4    3.90    3.30
  -6   7  -4   86.99   10.20
  -6   7  -4   85.09    8.10
  -6   7  -4   86.59   10.30
   6  -7   4   79.59   13.20
   6  -7   4   71.49   10.20
  -7   7  -4   13.80    5.50
  -7   7  -4   20.70    6.00
  -7   7  -4    7.90    3.40
   7  -7   4    2.80    3.80
   7  -7   4    5.40    4.70
   7   6  -4   47.60   15.10
  -7  -6   4   37.90    3.80
  -7  -6   4   37.90    3.70
  -7  -6   4   38.20    4.80
  -7  -6   4   53.09    6.30
  -7  -6   4   27.50    5.80
   6   6  -4   44.80   13.60
   6   6  -4   35.70    3.10
   6   6  -4   40.60    3.20
  -6  -6   4   39.00    4.00
  -6  -6   4   39.20    4.60
  -6  -6   4   42.90    7.00
  -6  -6   4   36.20    5.70
  -6  -6   4   44.10    3.90
   5   6  -4  184.98   12.90
   5   6  -4  198.48   12.80
  -5  -6   4  222.68   13.40
  -5  -6   4  186.38   13.40
  -5  -6   4  186.48   15.80
  -5  -6   4  205.48   15.00
  -5  -6   4  186.58   14.60
   4   6  -4   31.60    3.10
   4   6  -4   29.70    3.20
   4   6  -4   40.50   11.40
   4   6  -4   23.70    4.90
   4   6  -4   30.10    4.60
  -4  -6   4   37.80    3.80
  -4  -6   4   31.60    5.50
  -4  -6   4   32.70    5.40
  -4  -6   4   38.30    4.40
  -4  -6   4   38.60    3.60
  -4  -6   4   32.30    4.80
   3   6  -4  378.36   25.90
   3   6  -4  377.86   27.00
   3   6  -4  386.66   25.30
  -3  -6   4  424.26   25.70
  -3  -6   4  389.06   26.00
  -3  -6   4  314.47   33.70
  -3  -6   4  370.66   25.50
  -3  -6   4  449.86   25.60
  -3  -6   4  408.06   25.40
  -3  -6   4  386.46   26.80
   2   6  -4    6.20    1.90
   2   6  -4    4.50    2.60
   2   6  -4    4.30    1.60
   2   6  -4    4.70    1.90
  -2  -6   4    6.20    1.60
  -2  -6   4    4.20    1.80
  -2  -6   4    8.70    2.20
  -2  -6   4    5.40    1.90
  -2  -6   4    9.10    2.10
  -2  -6   4    4.10    2.30
   1   6  -4  156.58   11.30
   1   6  -4  149.29   12.30
   1   6  -4  154.98   10.60
   1   6  -4  159.98   11.30
   1   6  -4  150.58   10.00
   1   6  -4  153.08   10.10
  -1  -6   4  156.98   10.80
  -1  -6   4  137.69   16.90
  -1  -6   4  152.58   11.40
  -1  -6   4  161.08   12.40
  -1  -6   4  162.58   10.40
  -1  -6   4  155.98   10.90
  -1  -6   4  164.88   11.70
   0   6  -4   17.00    2.60
   0   6  -4   20.70    3.10
   0   6  -4   17.00    1.90
   0   6  -4   23.00    3.50
   0   6  -4   23.70    4.00
   0   6  -4   17.70    3.10
   0  -6   4   19.90    2.50
   0  -6   4   24.10    3.90
   0  -6   4   19.50    3.90
   0  -6   4   19.20    3.70
   0  -6   4   20.30    6.60
  -1   6  -4   69.79    4.90
  -1   6  -4   76.39    6.90
  -1   6  -4   77.59    6.70
  -1   6  -4   71.69    6.10
  -1   6  -4   67.69    6.60
   1  -6   4   64.59    7.00
   1  -6   4   78.99    7.00
   1  -6   4   68.99   10.10
   1  -6   4   67.79    7.10
  -2   6  -4   15.10    3.70
  -2   6  -4   18.60    1.90
  -2   6  -4   22.40    3.90
  -2   6  -4   19.30    3.30
  -2   6  -4   18.60    4.00
   2  -6   4   16.40    3.10
   2  -6   4   17.10    4.00
   2  -6   4   19.80    6.40
   2  -6   4    9.60    3.30
   2  -6   4   12.80    3.90
  -3   6  -4   10.60    1.80
  -3   6  -4   15.00    3.40
  -3   6  -4   10.80    2.10
  -3   6  -4   11.40    3.50
  -3   6  -4   13.80    3.60
  -3   6  -4   11.80    3.60
   3  -6   4   12.20    3.60
   3  -6   4    8.70    3.70
   3  -6   4   13.40    3.10
   3  -6   4   14.90    4.30
  -4   6  -4    5.40    3.30
  -4   6  -4   -0.30    2.40
  -4   6  -4    2.10    1.60
  -4   6  -4    2.60    3.00
   4  -6   4    4.90    3.10
   4  -6   4    2.10    2.20
   4  -6   4    4.90    3.10
  -5   6  -4    4.00    0.70
  -5   6  -4    3.60    3.50
  -5   6  -4    5.10    2.20
  -5   6  -4    3.70    0.70
   5  -6   4    6.80    3.70
   5  -6   4    0.70    2.40
   5  -6   4    0.50    3.30
  -6   6  -4   17.60    5.50
  -6   6  -4   18.70    5.50
  -6   6  -4   19.60    4.00
  -6   6  -4   18.60    2.10
   6  -6   4   15.00    4.70
  -7   6  -4    0.30    2.40
  -7   6  -4    2.50    1.30
  -7   6  -4   -4.30    2.90
  -7   6  -4   -3.50    3.20
   7  -6   4    0.10    2.90
   7  -6   4    3.40    3.30
  -8   6  -4    4.10    3.10
  -8   6  -4    4.60    4.60
  -8   6  -4   10.90    5.10
  -8   6  -4    9.70    2.00
   8  -6   4    7.00    5.00
   8  -6   4   -1.40    3.30
   8   5  -4   48.70   15.90
  -8  -5   4   52.59    4.80
  -8  -5   4   53.39    7.90
  -8  -5   4   61.29    4.80
  -8  -5   4   63.09    7.20
  -8  -5   4   59.69    6.10
   7   5  -4    4.90    7.10
  -7  -5   4    2.90    1.90
  -7  -5   4    6.50    2.70
  -7  -5   4    4.60    1.50
  -7  -5   4    4.70    3.80
   6   5  -4   45.20   13.10
   6   5  -4   34.10    2.80
   6   5  -4   37.30    2.80
  -6  -5   4   42.40    3.60
  -6  -5   4   38.40    5.70
  -6  -5   4   40.20    6.30
  -6  -5   4   43.50    4.80
  -6  -5   4   41.10    3.60
   5   5  -4   82.59    6.00
   5   5  -4   84.59    6.00
   5   5  -4  116.79   17.00
  -5  -5   4   97.09    6.50
  -5  -5   4   94.49    7.00
  -5  -5   4   95.19    8.40
  -5  -5   4   82.69    6.50
  -5  -5   4   83.09    8.60
  -5  -5   4   80.59    8.00
   4   5  -4   25.50    2.60
   4   5  -4   34.10   10.10
   4   5  -4   23.70    4.70
   4   5  -4   27.40    2.60
  -4  -5   4   31.40    4.60
  -4  -5   4   27.00    3.10
  -4  -5   4   28.90    2.90
  -4  -5   4   29.10    4.10
  -4  -5   4   28.20    4.60
  -4  -5   4   27.80    4.30
  -4  -5   4   31.00    3.00
  -4  -5   4   18.70    7.90
   3   5  -4  136.99   10.70
   3   5  -4  173.78   18.50
   3   5  -4  138.89    9.70
   3   5  -4  137.39    9.70
   3   5  -4  147.09   11.80
  -3  -5   4  161.68   11.30
  -3  -5   4  133.09   10.10
  -3  -5   4  147.29   10.00
  -3  -5   4  148.69   10.50
  -3  -5   4  136.49    9.90
  -3  -5   4  145.49   11.00
  -3  -5   4  142.19   10.80
  -3  -5   4  125.59   25.10
   2   5  -4   24.50    3.20
   2   5  -4   24.60    3.00
   2   5  -4   21.70    4.20
   2   5  -4   31.80    8.70
  -2  -5   4   22.70    2.90
  -2  -5   4   24.50    2.80
  -2  -5   4   27.60    2.80
  -2  -5   4   23.00    3.30
  -2  -5   4   26.80    3.70
  -2  -5   4   24.00    3.10
   1   5  -4  165.88   11.90
   1   5  -4  165.38   11.50
   1   5  -4  163.08   13.10
   1   5  -4  178.08   12.00
  -1  -5   4  172.28   11.90
  -1  -5   4  171.38   12.10
  -1  -5   4  176.48   11.60
  -1  -5   4  170.18   12.70
  -1  -5   4  152.08   17.40
  -1  -5   4  196.28   11.40
  -1  -5   4  181.38   12.20
   0   5  -4    5.00    1.70
   0   5  -4    2.40    1.60
   0   5  -4    2.70    1.30
   0   5  -4    2.20    1.20
   0   5  -4    3.80    0.80
   0   5  -4    5.20    2.00
   0  -5   4    1.50    1.70
   0  -5   4    4.00    1.50
   0  -5   4    1.70    2.00
   0  -5   4    3.30    1.80
   0  -5   4    5.50    1.30
   0  -5   4    3.10    3.40
  -1   5  -4  404.26   25.90
  -1   5  -4  421.76   27.00
  -1   5  -4  415.66   27.00
  -1   5  -4  441.26   26.50
  -1   5  -4  422.16   26.90
  -1   5  -4  382.86   25.20
   1  -5   4  394.26   27.50
   1  -5   4  451.65   32.20
   1  -5   4  352.36   27.20
   1  -5   4  415.56   26.50
   1  -5   4  383.76   27.00
  -2   5  -4   -2.00    1.80
  -2   5  -4    0.10    1.80
  -2   5  -4    1.70    1.70
  -2   5  -4   -0.30    0.70
  -2   5  -4    0.40    0.80
  -2   5  -4    0.20    0.60
  -2   5  -4    0.90    1.60
   2  -5   4    2.60    2.10
   2  -5   4   -0.30    1.50
   2  -5   4   -1.50    1.70
   2  -5   4    0.50    2.00
  -3   5  -4  399.76   26.60
  -3   5  -4  420.36   24.30
  -3   5  -4  390.06   24.90
  -3   5  -4  369.36   26.60
  -3   5  -4  411.66   26.50
  -3   5  -4  406.36   29.20
   3  -5   4  356.66   27.20
   3  -5   4  374.46   25.80
   3  -5   4  355.36   26.40
   3  -5   4  370.06   27.00
  -4   5  -4    8.20    2.10
  -4   5  -4   10.50    1.50
  -4   5  -4    7.10    3.60
  -4   5  -4    9.50    4.00
  -4   5  -4   14.50    3.70
  -4   5  -4   13.20    3.80
   4  -5   4    7.80    2.70
   4  -5   4    9.20    3.50
   4  -5   4    6.30    3.40
   4  -5   4   11.90    3.50
  -5   5  -4  410.56   28.80
  -5   5  -4  379.16   26.80
  -5   5  -4  402.36   27.30
  -5   5  -4  393.76   26.30
   5  -5   4  353.66   25.70
   5  -5   4  339.27   27.70
   5  -5   4  348.77   26.60
  -6   5  -4    3.40    3.70
  -6   5  -4    2.50    3.50
  -6   5  -4    2.70    2.40
   6  -5   4    6.60    4.00
   6  -5   4    4.40    3.40
  -7   5  -4  182.78   13.90
  -7   5  -4  169.28   15.40
  -7   5  -4  177.38   15.00
   7  -5   4  158.58   14.80
   7  -5   4  146.99   16.00
  -8   5  -4    8.60    4.60
  -8   5  -4    9.30    4.00
  -8   5  -4    1.50    2.80
  -8   5  -4    5.40    1.90
   8  -5   4    6.40    4.00
   8  -5   4    7.60    4.40
   8   4  -4   39.90   14.40
  -8  -4   4   40.60    3.90
  -8  -4   4   30.80    6.20
  -8  -4   4   37.30    3.80
  -8  -4   4   37.40    4.90
   7   4  -4    2.80    6.70
   7   4  -4    0.10    0.60
  -7  -4   4    2.00    1.20
  -7  -4   4    1.70    1.30
  -7  -4   4    6.30    3.20
  -7  -4   4    2.50    2.30
  -7  -4   4   -0.60    1.60
   6   4  -4  158.58    9.90
   6   4  -4  163.58   21.50
   6   4  -4  140.59    9.90
  -6  -4   4  171.28   10.50
  -6  -4   4  162.88   11.30
  -6  -4   4  157.28   10.60
  -6  -4   4  169.98   13.10
  -6  -4   4  138.49   12.40
   5   4  -4   37.80    2.60
   5   4  -4   39.50   11.20
  -5  -4   4   37.10    3.70
  -5  -4   4   33.90    5.20
  -5  -4   4   36.90    4.90
  -5  -4   4   39.10    3.40
  -5  -4   4   39.10    5.20
  -5  -4   4   39.00    5.30
   4   4  -4  170.08   19.10
   4   4  -4  154.28    9.70
  -4  -4   4  164.78   10.00
  -4  -4   4  170.18   10.40
  -4  -4   4  147.19   11.50
  -4  -4   4  139.89   10.10
  -4  -4   4  159.48   11.90
  -4  -4   4  116.09   17.30
  -4  -4   4  145.79   11.30
  -4  -4   4  140.69   12.80
   3   4  -4   18.40    7.00
   3   4  -4   14.00    3.50
   3   4  -4   14.90    1.70
  -3  -4   4   14.10    1.90
  -3  -4   4   14.20    2.90
  -3  -4   4   14.10    2.90
  -3  -4   4   18.20    1.90
  -3  -4   4   14.30    2.50
  -3  -4   4   11.30    5.90
  -3  -4   4   15.70    1.90
  -3  -4   4   15.60    2.70
   2   4  -4  199.78   15.80
   2   4  -4  268.27   21.90
   2   4  -4  201.68   14.30
  -2  -4   4  220.78   14.90
  -2  -4   4  196.28   20.90
  -2  -4   4  209.08   14.40
  -2  -4   4  218.98   14.80
  -2  -4   4  217.88   14.30
  -2  -4   4  234.98   14.30
  -2  -4   4  217.58   14.20
   1   4  -4    0.90    1.00
   1   4  -4   -0.20    1.10
   1   4  -4   -1.70    1.60
   1   4  -4   -0.30    0.80
  -1  -4   4    1.20    1.10
  -1  -4   4    2.10    1.20
  -1  -4   4    1.10    1.30
  -1  -4   4    2.40    0.70
  -1  -4   4   -0.90    2.40
  -1  -4   4    1.40    1.20
   0   4  -4 1031.40   61.99
   0   4  -4  920.11   61.39
   0   4  -4  987.90   61.99
   0   4  -4  923.91   61.49
   0   4  -4 1061.59   62.69
   0   4  -4  970.60   61.79
   0  -4   4 1030.90   67.69
   0  -4   4  932.21   62.19
   0  -4   4 1004.20   61.69
   0  -4   4  940.61   62.19
   0  -4   4 1053.79   63.39
   0  -4   4 1036.60   61.59
  -1   4  -4  143.79   10.70
  -1   4  -4  154.28   10.00
  -1   4  -4  144.49   10.80
  -1   4  -4  165.98   10.50
  -1   4  -4  156.18   10.80
   1  -4   4  134.29   11.10
   1  -4   4  127.89   10.70
   1  -4   4  140.59   11.20
   1  -4   4  137.19   10.40
   1  -4   4  168.98   15.40
  -2   4  -4 1001.50   65.49
  -2   4  -4 1115.09   66.99
  -2   4  -4 1063.79   67.19
  -2   4  -4 1166.28   67.19
  -2   4  -4 1155.48   65.79
  -2   4  -4 1071.09   67.09
   2  -4   4  937.41   67.59
   2  -4   4 1005.10   67.09
   2  -4   4 1034.50   67.59
   2  -4   4 1059.09   66.79
  -3   4  -4    1.70    2.20
  -3   4  -4    4.60    2.20
  -3   4  -4    1.60    1.10
  -3   4  -4    2.10    2.20
  -3   4  -4   -0.10    1.60
   3  -4   4   -1.10    1.70
   3  -4   4    1.00    1.80
   3  -4   4    0.60    1.80
   3  -4   4    0.00    1.90
  -4   4  -4  911.31   56.79
  -4   4  -4  927.41   58.09
  -4   4  -4  932.01   58.49
  -4   4  -4  934.91   60.09
  -4   4  -4  958.80   58.19
   4  -4   4  780.62   58.89
   4  -4   4  898.11   58.19
   4  -4   4  856.01   58.59
   4  -4   4  908.21   57.59
  -5   4  -4   35.20    5.70
  -5   4  -4   32.70    5.80
  -5   4  -4   39.30    6.00
  -5   4  -4   38.00    6.20
   5  -4   4   28.90    5.50
   5  -4   4   38.40    6.20
   5  -4   4   28.30    6.30
  -6   4  -4  299.47   22.30
  -6   4  -4  316.17   21.30
  -6   4  -4  327.67   23.10
   6  -4   4  278.47   23.60
   6  -4   4  280.77   22.30
  -7   4  -4   10.30    6.10
  -7   4  -4    9.00    4.00
  -7   4  -4   11.50    3.50
   7  -4   4    5.60    4.00
   7  -4   4    4.00    4.00
  -8   4  -4   25.80    6.20
  -8   4  -4   33.90    5.90
  -8   4  -4   34.80    7.00
   8  -4   4   34.70    7.00
  -9   4  -4   45.10    5.00
  -9   4  -4   25.90    6.00
  -9   4  -4   32.70    7.70
  -9   4  -4   30.00    7.20
   9  -4   4   30.30    7.10
   8   3  -4   33.50    3.00
   8   3  -4   49.50   14.40
   8   3  -4   28.70    3.50
  -8  -3   4   33.70    4.00
  -8  -3   4   41.80    4.90
  -8  -3   4   37.90    3.90
  -8  -3   4   26.40    5.20
  -8  -3   4   27.70    5.90
   7   3  -4  211.78   25.80
   7   3  -4  216.18   13.30
   7   3  -4  198.68   13.30
  -7  -3   4  205.88   14.00
  -7  -3   4  207.08   16.60
  -7  -3   4  201.48   15.60
  -7  -3   4  213.38   14.00
   6   3  -4  123.39    8.00
   6   3  -4  115.59    8.00
   6   3  -4  129.69   18.50
  -6  -3   4  122.49    8.70
  -6  -3   4  142.49   12.40
  -6  -3   4  132.99    8.60
  -6  -3   4  133.29   11.10
  -6  -3   4  123.89    9.30
  -6  -3   4  122.69   10.40
   5   3  -4  907.41   64.39
  -5  -3   4  854.51   54.49
  -5  -3   4  821.22   55.99
  -5  -3   4  868.61   52.59
  -5  -3   4  823.92   52.99
  -5  -3   4  780.72   53.89
  -5  -3   4  884.61   52.49
  -5  -3   4  841.22   54.69
   4   3  -4  141.69   16.40
  -4  -3   4  121.79    8.10
  -4  -3   4   91.69   14.60
  -4  -3   4  113.59    8.80
  -4  -3   4  122.29    9.60
  -4  -3   4  113.49    7.80
  -4  -3   4  127.79    9.90
  -4  -3   4  125.29    7.70
  -4  -3   4  119.29    9.50
   3   3  -4 1023.80   68.29
   3   3  -4 1235.78   75.69
  -3  -3   4 1047.70   67.39
  -3  -3   4 1090.19   67.79
  -3  -3   4  958.60   74.89
  -3  -3   4 1071.39   66.09
  -3  -3   4 1079.49   66.59
  -3  -3   4 1058.29   67.49
  -3  -3   4 1121.09   66.29
  -3  -3   4 1053.49   66.19
   2   3  -4  163.58   15.50
   2   3  -4  130.59    8.70
   2   3  -4  127.39    8.60
   2   3  -4  132.49   10.60
   2   3  -4  128.19    9.80
  -2  -3   4  126.19    8.70
  -2  -3   4  130.79    9.00
  -2  -3   4  134.09   10.00
  -2  -3   4  141.89    9.60
  -2  -3   4  142.49    8.70
  -2  -3   4  129.09   15.00
  -2  -3   4  128.19    8.70
  -2  -3   4  127.49    9.30
   1   3  -4 1575.94   96.99
   1   3  -4 1417.06   95.89
   1   3  -4 1593.34   94.59
  -1  -3   4 1557.94  101.39
  -1  -3   4 1484.55   94.89
  -1  -3   4 1590.34   94.49
  -1  -3   4 1517.05   94.79
  -1  -3   4 1493.25   94.49
  -1  -3   4 1571.24   94.69
   0   3  -4    3.70    1.30
   0   3  -4    2.10    1.20
   0   3  -4    3.30    1.20
   0   3  -4    4.20    1.10
   0   3  -4    5.30    1.90
   0   3  -4    4.90    1.00
   0  -3   4    4.50    1.50
   0  -3   4    3.20    1.40
   0  -3   4    1.70    1.00
   0  -3   4    3.60    1.50
   0  -3   4    5.10    3.40
  -1   3  -4 1316.67   76.49
  -1   3  -4 1143.49   76.89
  -1   3  -4 1265.07   76.79
  -1   3  -4 1286.77   77.19
  -1   3  -4 1248.08   77.09
   1  -3   4 1159.78   77.49
   1  -3   4 1236.58   76.89
   1  -3   4 1271.27   78.29
   1  -3   4 1183.48   77.19
  -2   3  -4    2.40    1.60
  -2   3  -4    0.00    1.60
  -2   3  -4   -1.70    1.30
  -2   3  -4    1.00    0.60
   2  -3   4   -0.10    1.30
   2  -3   4   -0.60    1.30
   2  -3   4    1.40    1.70
   2  -3   4   -0.20    1.40
  -3   3  -4  691.13   43.20
  -3   3  -4  697.53   44.40
  -3   3  -4  733.83   44.60
  -3   3  -4  734.63   45.60
  -3   3  -4  695.03   44.60
   3  -3   4  668.93   44.70
   3  -3   4  616.34   45.10
   3  -3   4  666.53   44.40
   3  -3   4  681.63   44.00
  -4   3  -4   90.59    7.30
  -4   3  -4   94.29    8.60
  -4   3  -4   88.29    8.60
  -4   3  -4   96.19    8.50
  -4   3  -4  101.49    8.60
   4  -3   4   85.29    8.40
   4  -3   4   96.29    8.60
   4  -3   4   96.39    8.10
  -5   3  -4  165.68   15.80
  -5   3  -4  208.48   14.50
  -5   3  -4  196.98   14.90
  -5   3  -4  186.08   14.40
   5  -3   4  144.49   14.50
   5  -3   4  168.98   14.10
   5  -3   4  185.88   13.60
   5  -3   4  170.78   14.10
  -6   3  -4   11.60    3.00
  -6   3  -4   18.70    4.50
  -6   3  -4    6.60    3.10
  -6   3  -4   14.60    4.30
   6  -3   4   11.80    3.40
   6  -3   4    7.40    3.30
   6  -3   4   12.50    4.00
   6  -3   4   11.30    4.40
  -7   3  -4   19.70    5.20
  -7   3  -4   20.60    5.10
  -7   3  -4   22.10    4.40
   7  -3   4   19.70    5.40
  -8   3  -4   17.20    5.40
  -8   3  -4   19.40    5.20
  -8   3  -4   14.90    4.30
   8  -3   4   27.60    6.20
   8  -3   4   19.10    6.40
  -9   3  -4    5.60    4.40
  -9   3  -4   -1.70    2.70
  -9   3  -4    4.20    3.90
   9  -3   4    4.20    4.90
   9   2  -4   15.80   11.80
   9   2  -4    6.30    1.70
  -9  -2   4   16.30    3.10
  -9  -2   4   11.90    3.30
  -9  -2   4   11.90    4.70
  -9  -2   4   13.40    3.50
   8   2  -4   83.89   16.90
   8   2  -4   76.69    6.30
   8   2  -4   94.89    6.60
  -8  -2   4   98.49    8.40
  -8  -2   4   70.59    8.50
  -8  -2   4   93.59    7.30
  -8  -2   4   89.69    7.10
  -8  -2   4   82.49    9.70
   7   2  -4    0.90    6.10
   7   2  -4    1.70    1.00
   7   2  -4   -0.20    1.00
  -7  -2   4    1.40    1.50
  -7  -2   4    1.80    1.40
  -7  -2   4   -0.40    2.00
  -7  -2   4    0.80    2.90
   6   2  -4  177.38   21.80
   6   2  -4  170.78   11.50
   6   2  -4  188.28   11.60
  -6  -2   4  183.98   12.10
  -6  -2   4  177.18   14.40
  -6  -2   4  169.98   12.60
  -6  -2   4  184.68   12.10
  -6  -2   4  179.08   14.40
   5   2  -4    4.30    0.70
   5   2  -4    3.60    4.70
   5   2  -4    6.00    0.80
  -5  -2   4    5.70    2.80
  -5  -2   4    4.20    1.20
  -5  -2   4    5.10    2.00
  -5  -2   4    2.30    2.50
  -5  -2   4    5.90    1.20
  -5  -2   4    4.60    2.30
  -5  -2   4    4.20    1.50
   4   2  -4   96.89   13.50
  -4  -2   4  117.79    6.80
  -4  -2   4  101.59    7.20
  -4  -2   4   81.39   13.00
  -4  -2   4  118.09    6.80
  -4  -2   4  102.29    8.90
  -4  -2   4  102.29    7.60
  -4  -2   4  103.89    8.70
  -4  -2   4   99.79    8.40
   3   2  -4    1.20    1.80
   3   2  -4    0.50    1.60
   3   2  -4    3.60    3.70
  -3  -2   4    5.80    4.30
  -3  -2   4    1.60    1.50
  -3  -2   4    2.00    1.40
  -3  -2   4    0.60    1.50
   2   2  -4   47.70    7.80
   2   2  -4   35.00    4.00
   2   2  -4   38.40    4.60
  -2  -2   4   42.00    2.70
  -2  -2   4   36.30    4.10
  -2  -2   4   35.10    7.30
  -2  -2   4   36.70    3.70
  -2  -2   4   41.50    3.80
  -2  -2   4   42.40    2.70
   1   2  -4  990.30   65.09
   1   2  -4 1027.50   64.49
   1   2  -4 1005.20   63.79
   1   2  -4 1065.89   63.79
  -1  -2   4 1072.99   64.29
  -1  -2   4 1088.49   63.79
  -1  -2   4  996.60   63.89
  -1  -2   4 1107.99   70.29
  -1  -2   4 1041.50   63.89
  -1  -2   4  968.70   63.89
  -1  -2   4 1005.20   64.19
   0   2  -4  119.79    8.20
   0   2  -4  112.59    8.10
   0   2  -4  115.69    7.60
   0   2  -4  120.59    8.20
   0   2  -4  120.09    7.70
   0   2  -4  124.99    8.80
   0  -2   4  111.09    8.20
   0  -2   4  130.29   14.20
   0  -2   4  111.59    8.20
   0  -2   4  116.49    8.00
   0  -2   4  114.79    8.30
  -1   2  -4 1009.00   61.39
  -1   2  -4 1064.79   60.89
  -1   2  -4  995.10   61.29
  -1   2  -4  927.71   61.19
   1  -2   4 1006.40   61.29
   1  -2   4 1011.90   61.59
   1  -2   4  944.41   61.49
   1  -2   4  890.91   61.69
  -2   2  -4  142.69   10.40
  -2   2  -4  133.49   10.00
  -2   2  -4  135.69   10.10
  -2   2  -4  138.19    8.90
  -2   2  -4  140.29   10.00
   2  -2   4  129.09   10.10
   2  -2   4  143.99   10.00
   2  -2   4  125.39   10.50
   2  -2   4  135.19   10.20
  -3   2  -4  703.43   45.00
  -3   2  -4  708.33   45.40
  -3   2  -4  703.23   43.80
  -3   2  -4  696.13   45.00
  -3   2  -4  728.03   45.00
   3  -2   4  655.63   45.80
   3  -2   4  690.33   45.10
   3  -2   4  693.23   44.60
  -4   2  -4  327.07   21.30
  -4   2  -4  305.27   20.00
  -4   2  -4  300.77   20.90
  -4   2  -4  319.17   21.20
  -4   2  -4  290.07   21.50
   4  -2   4  260.87   21.60
   4  -2   4  303.17   21.20
   4  -2   4  294.57   21.00
   4  -2   4  299.67   20.60
  -5   2  -4  322.77   22.10
  -5   2  -4  338.47   22.20
  -5   2  -4  318.07   21.70
  -5   2  -4  287.67   22.40
   5  -2   4  259.47   22.40
   5  -2   4  293.57   21.90
   5  -2   4  335.07   21.60
   5  -2   4  300.67   21.90
  -6   2  -4   16.40    4.30
  -6   2  -4   10.80    3.70
  -6   2  -4   19.60    3.80
  -6   2  -4   21.90    4.90
   6  -2   4   17.60    3.80
   6  -2   4   20.00    4.60
   6  -2   4   18.40    4.40
  -7   2  -4  267.47   19.60
  -7   2  -4  269.77   20.60
  -7   2  -4  270.47   20.40
  -7   2  -4  275.47   20.30
   7  -2   4  248.88   20.30
  -8   2  -4   26.60    5.30
   8  -2   4   31.90    6.30
  -9   2  -4  120.69   12.20
  -9   2  -4  109.09   11.20
  -9   2  -4  109.99   11.90
   9  -2   4  105.99   13.30
   9   1  -4   26.20    3.80
   9   1  -4   19.40   11.00
  -9  -1   4   34.30    5.60
  -9  -1   4   23.40    5.90
  -9  -1   4   28.20    3.90
   8   1  -4   26.20    3.20
   8   1  -4   31.90    4.00
   8   1  -4   24.40   13.00
  -8  -1   4   31.40    6.40
  -8  -1   4   28.50    4.90
  -8  -1   4   30.20    3.90
  -8  -1   4   33.30    4.30
  -8  -1   4   26.50    5.10
   7   1  -4   10.10    7.10
   7   1  -4    5.70    1.50
   7   1  -4    4.70    1.70
  -7  -1   4    5.60    2.70
  -7  -1   4    6.10    2.00
  -7  -1   4    3.00    2.20
  -7  -1   4    5.20    1.90
  -7  -1   4    4.50    3.40
   6   1  -4   33.40    3.30
   6   1  -4   35.30    3.10
   6   1  -4   38.10   10.90
  -6  -1   4   28.50    4.90
  -6  -1   4   45.40    5.90
  -6  -1   4   29.80    5.30
  -6  -1   4   31.10    4.00
  -6  -1   4   37.10    4.10
  -6  -1   4   42.50    5.50
  -6  -1   4   33.40    3.50
   5   1  -4   -0.60    3.60
   5   1  -4    0.40    0.60
   5   1  -4    1.70    0.80
  -5  -1   4    1.00    2.10
  -5  -1   4   -0.30    1.10
  -5  -1   4   -0.10    0.90
  -5  -1   4   -1.10    1.90
  -5  -1   4   -2.70    1.20
  -5  -1   4    1.20    1.00
   4   1  -4  378.46   30.80
  -4  -1   4  366.56   22.70
  -4  -1   4  341.07   23.30
  -4  -1   4  375.86   22.70
  -4  -1   4  372.06   24.70
  -4  -1   4  359.16   23.00
  -4  -1   4  351.76   24.50
  -4  -1   4  366.56   24.10
   3   1  -4   17.50    3.30
   3   1  -4   17.00    6.70
  -3  -1   4   21.40    3.10
  -3  -1   4   20.30    6.50
  -3  -1   4   16.00    3.10
  -3  -1   4   15.80    2.60
   2   1  -4  831.62   55.59
   2   1  -4  883.91   55.09
  -2  -1   4  915.01   54.89
  -2  -1   4  874.21   55.29
  -2  -1   4  859.71   54.99
  -2  -1   4  897.41   60.89
   1   1  -4  381.76   26.20
   1   1  -4  415.36   24.90
   1   1  -4  394.16   25.60
   1   1  -4  394.36   24.90
  -1  -1   4  405.46   25.00
  -1  -1   4  443.86   30.80
  -1  -1   4  403.76   25.50
  -1  -1   4  406.56   25.90
  -1  -1   4  396.66   24.90
  -1  -1   4  385.26   24.80
  -1  -1   4  390.36   24.80
   0   1  -4  256.27   16.50
   0   1  -4  262.57   16.60
   0   1  -4  277.97   17.10
   0   1  -4  286.27   17.70
   0   1  -4  275.57   17.00
   0   1  -4  266.47   17.10
   0  -1   4  275.77   17.00
   0  -1   4  270.37   16.60
   0  -1   4  241.08   16.90
   0  -1   4  231.68   17.10
   0  -1   4  278.97   17.10
  -1   1  -4  231.48   14.50
  -1   1  -4  210.38   14.10
  -1   1  -4  219.48   13.50
  -1   1  -4  235.08   14.40
   1  -1   4  209.38   13.50
   1  -1   4  201.38   14.40
   1  -1   4  190.28   14.70
   1  -1   4  233.88   14.60
   1  -1   4  213.78   14.30
  -2   1  -4 1370.96   82.29
  -2   1  -4 1280.27   82.39
  -2   1  -4 1381.26   80.99
  -2   1  -4 1407.76   82.09
  -2   1  -4 1293.47   81.79
   2  -1   4 1335.37   82.09
   2  -1   4 1314.27   81.79
   2  -1   4 1287.97   81.09
   2  -1   4 1156.88   82.39
   2  -1   4 1301.57   82.09
  -3   1  -4   35.30    4.50
  -3   1  -4   42.60    4.30
  -3   1  -4   33.90    3.30
  -3   1  -4   37.30    4.20
  -3   1  -4   36.30    4.70
   3  -1   4   38.90    4.30
   3  -1   4   30.40    4.90
   3  -1   4   37.00    3.50
   3  -1   4   36.20    4.20
  -4   1  -4 1010.10   66.59
  -4   1  -4 1090.69   64.99
  -4   1  -4 1147.59   66.09
  -4   1  -4 1032.70   65.69
   4  -1   4 1020.50   65.79
   4  -1   4 1056.19   65.79
   4  -1   4 1041.70   65.39
   4  -1   4 1016.60   64.99
   4  -1   4  885.91   66.29
  -5   1  -4   38.70    4.60
  -5   1  -4   37.90    5.40
  -5   1  -4   30.50    5.10
  -5   1  -4   42.90    5.80
  -5   1  -4   35.20    6.10
   5  -1   4   38.60    5.70
   5  -1   4   34.60    4.90
   5  -1   4   32.10    5.30
  -6   1  -4  483.45   31.90
  -6   1  -4  475.25   32.60
  -6   1  -4  468.55   32.20
  -6   1  -4  510.65   32.80
  -6   1  -4  464.45   33.60
   6  -1   4  457.25   31.90
   6  -1   4  484.45   34.70
   6  -1   4  455.05   32.40
  -7   1  -4   29.90    5.20
  -7   1  -4   35.00    5.60
  -7   1  -4   24.20    5.50
  -7   1  -4   33.40    5.90
   7  -1   4   26.40    6.70
   7  -1   4   27.90    5.30
   7  -1   4   37.90    6.20
  -8   1  -4  198.48   15.90
  -8   1  -4  210.88   15.90
  -8   1  -4  187.38   16.00
   8  -1   4  184.28   16.00
   8  -1   4  166.18   17.50
  -9   1  -4    1.40    3.50
  -9   1  -4    1.50    3.50
  -9   1  -4    2.30    3.30
   9  -1   4   -0.90    3.20
   9  -1   4    0.80    4.40
   9   0  -4   33.70   12.50
   9   0  -4   31.90    4.30
  -9   0   4   28.80    6.60
  -9   0   4   25.40    4.30
  -9   0   4   35.20    5.00
  -9   0   4   27.70    5.50
   8   0  -4    3.50    1.70
   8   0  -4    6.70    6.20
   8   0  -4   11.90    2.70
  -8   0   4    7.40    3.20
  -8   0   4    6.60    2.60
  -8   0   4    6.50    2.40
  -8   0   4    6.30    4.70
   7   0  -4   75.29   14.00
   7   0  -4   77.49    6.10
  -7   0   4   80.09    7.60
  -7   0   4   82.99    8.00
  -7   0   4   82.49    6.80
  -7   0   4   56.89    8.60
  -7   0   4   85.39    6.70
   6   0  -4    8.20    1.60
   6   0  -4    7.00    6.90
  -6   0   4    6.00    2.20
  -6   0   4   10.90    2.80
  -6   0   4    2.20    2.80
  -6   0   4    5.20    1.70
  -6   0   4    3.40    2.10
  -6   0   4    5.90    3.00
  -6   0   4    5.30    1.90
   5   0  -4  582.94   45.30
   5   0  -4  601.34   37.10
   5   0  -4  580.84   36.60
  -5   0   4  604.94   38.10
  -5   0   4  525.95   37.70
  -5   0   4  615.44   37.00
  -5   0   4  566.74   38.90
  -5   0   4  603.84   37.60
  -5   0   4  601.64   39.00
  -5   0   4  590.44   37.10
   4   0  -4    0.20    3.00
   4   0  -4    1.10    0.80
   4   0  -4    0.70    1.60
  -4   0   4    0.90    1.50
  -4   0   4    1.90    0.80
  -4   0   4    0.10    1.00
  -4   0   4   -0.70    1.20
  -4   0   4    2.20    1.80
  -4   0   4    1.70    1.10
  -4   0   4    0.00    0.80
   3   0  -4 1411.06   84.09
   3   0  -4 1469.05   84.29
   3   0  -4 1482.75   90.99
   3   0  -4 1303.27   85.49
  -3   0   4 1163.88   84.39
  -3   0   4 1398.86   84.39
  -3   0   4 1393.56   85.89
  -3   0   4 1495.15   84.29
  -3   0   4 1226.58   90.89
  -3   0   4 1365.86   85.29
  -3   0   4 1361.36   84.49
   2   0  -4   57.09    7.50
   2   0  -4   47.00    4.30
   2   0  -4   34.80    4.40
  -2   0   4   46.50    3.10
  -2   0   4   42.00    7.10
  -2   0   4   49.40    4.50
  -2   0   4   57.09    3.20
  -2   0   4   39.30    3.90
  -1   0   4 7692.43  502.25
   0   0  -4  697.63   40.50
   0   0  -4  672.73   40.10
   0   0  -4  581.84   39.70
   0   0  -4  657.33   39.90
   0   0  -4  651.33   40.10
   0   0   4  610.84   39.90
   0   0   4  672.03   40.00
   0   0   4  544.15   40.10
   0   0   4  647.44   39.80
   0   0   4  680.03   40.00
   1   0   4 7302.87  498.15
  -2   0  -4   18.10    2.50
  -2   0  -4   18.40    3.30
  -2   0  -4   26.60    3.20
  -2   0  -4   27.60    3.10
   2   0   4   15.40    3.10
   2   0   4   27.80    3.30
   2   0   4   20.80    2.20
   2   0   4   21.90    2.80
   2   0   4   27.70    3.40
  -3   0  -4 1747.63  114.59
  -3   0  -4 2010.80  115.19
  -3   0  -4 1941.81  114.79
  -3   0  -4 1839.42  114.09
  -3   0  -4 1651.13  115.39
   3   0   4 1706.33  114.09
   3   0   4 1955.50  114.99
   3   0   4 1758.72  114.79
   3   0   4 2009.10  115.59
  -4   0  -4   15.40    3.80
  -4   0  -4   11.20    2.40
  -4   0  -4   14.60    3.20
  -4   0  -4   12.80    2.90
  -4   0  -4    8.60    2.80
   4   0   4   13.70    2.50
   4   0   4    7.60    3.10
   4   0   4   16.30    3.10
   4   0   4   11.40    3.00
   4   0   4   14.40    3.00
  -5   0  -4  801.12   50.99
  -5   0  -4  712.73   51.79
  -5   0  -4  815.12   50.79
  -5   0  -4  857.81   51.29
  -5   0  -4  839.02   50.49
   5   0   4  816.82   51.09
   5   0   4  731.23   50.29
   5   0   4  762.32   52.69
   5   0   4  738.93   50.79
   5   0   4  792.32   50.59
  -6   0  -4  154.38   11.00
  -6   0  -4  133.29   11.10
  -6   0  -4  111.99   11.60
  -6   0  -4  140.89   11.10
  -6   0  -4  121.19   10.90
   6   0   4  127.99   12.70
   6   0   4  135.89   10.70
   6   0   4  106.99   10.10
   6   0   4  116.99   10.90
   6   0   4  117.29   10.70
  -7   0  -4  127.19   11.80
  -7   0  -4  132.79   11.30
  -7   0  -4  138.19   11.70
  -7   0  -4  124.99   11.70
   7   0   4  123.49   13.20
   7   0   4  130.99   11.60
   7   0   4  138.29   12.10
  -8   0  -4   94.99    9.40
  -8   0  -4   78.69   10.50
  -8   0  -4   89.69    9.50
  -8   0  -4   78.89    8.80
   8   0   4   74.59    9.10
   8   0   4   79.79   10.80
  -9   0  -4   19.60    5.00
  -9   0  -4   18.70    4.90
  -9   0  -4   10.70    4.50
   9   0   4   19.20    7.90
   9  -1  -4   17.50    9.20
   9  -1  -4   22.90    4.00
  -9   1   4   23.00    4.40
  -9   1   4   24.60    6.30
  -9   1   4   26.10    5.10
   8  -1  -4  187.68   24.50
   8  -1  -4  230.38   15.70
  -8   1   4  205.78   15.50
  -8   1   4  196.48   16.50
  -8   1   4  203.78   19.30
  -8   1   4  219.88   15.30
  -8   1   4  223.98   16.70
   7  -1  -4   93.49    7.40
   7  -1  -4   78.09    6.40
   7  -1  -4   76.89   14.20
  -7   1   4   76.29    8.00
  -7   1   4   80.59    9.10
  -7   1   4   90.19    8.20
  -7   1   4   82.19    7.10
  -7   1   4   79.99    7.30
   6  -1  -4  646.44   51.99
   6  -1  -4  669.63   43.80
   6  -1  -4  685.93   43.10
  -6   1   4  692.03   43.80
  -6   1   4  709.33   44.50
  -6   1   4  628.94   44.50
  -6   1   4  724.13   44.40
  -6   1   4  693.23   45.70
  -6   1   4  710.03   45.90
  -6   1   4  698.23   43.60
   5  -1  -4    8.90    2.10
   5  -1  -4   13.90    1.90
   5  -1  -4    9.40    5.40
  -5   1   4   10.80    2.60
  -5   1   4   10.50    2.00
  -5   1   4   10.20    2.70
  -5   1   4   11.60    2.20
  -5   1   4    8.50    2.40
  -5   1   4   10.60    3.10
  -5   1   4   12.90    3.40
   4  -1  -4  555.34   43.80
   4  -1  -4  587.14   34.80
   4  -1  -4  510.95   35.80
  -4   1   4  597.44   35.80
  -4   1   4  558.54   36.60
  -4   1   4  566.24   35.70
  -4   1   4  568.04   35.20
  -4   1   4  488.35   35.40
  -4   1   4  575.24   35.00
   3  -1  -4    1.40    0.60
   3  -1  -4    2.10    2.60
   3  -1  -4   -0.40    1.20
  -3   1   4    1.50    0.80
  -3   1   4    1.50    1.50
  -3   1   4    0.80    0.90
  -3   1   4    0.70    1.00
  -3   1   4    0.00    0.70
  -3   1   4   -0.30    2.40
  -3   1   4    0.40    1.10
   2  -1  -4  441.16   27.20
   2  -1  -4  369.16   28.20
   2  -1  -4  445.86   28.00
   2  -1  -4  512.85   31.80
  -2   1   4  424.16   28.30
  -2   1   4  424.06   27.40
  -2   1   4  494.35   27.30
  -2   1   4  427.16   27.80
  -2   1   4  391.46   31.50
  -2   1   4  436.56   27.80
  -2   1   4  439.56   27.30
   1  -1  -4  315.37   20.10
   1  -1  -4  307.57   19.70
   1  -1  -4  285.47   20.40
  -1   1   4  361.66   24.20
  -1   1   4  309.37   19.70
  -1   1   4  303.27   20.20
  -1   1   4  287.37   20.10
  -1   1   4  335.17   19.60
  -1   1   4  305.07   19.60
   0  -1  -4  601.64   36.10
   0  -1  -4  552.54   35.80
   0  -1  -4  572.54   35.70
   0  -1  -4  593.14   35.50
   0   1   4  543.85   36.40
   0   1   4  531.25   35.70
   0   1   4  556.94   35.70
   0   1   4  584.84   35.70
   0   1   4  594.54   35.70
  -1  -1  -4   45.80    3.50
  -1  -1  -4   46.30    3.70
  -1  -1  -4   45.20    4.40
  -1  -1  -4   47.20    4.00
  -1  -1  -4   52.69    4.20
   1   1   4   49.10    4.00
   1   1   4   44.60    4.70
   1   1   4   46.40    4.00
   1   1   4   51.49    3.70
   1   1   4   42.10    3.90
  -2  -1  -4    5.70    1.20
  -2  -1  -4    9.80    1.90
  -2  -1  -4    5.90    1.90
  -2  -1  -4    7.00    1.70
  -2  -1  -4    8.00    1.90
   2   1   4    6.40    1.80
   2   1   4    9.50    2.00
   2   1   4    7.90    2.60
   2   1   4    5.20    1.60
   2   1   4    7.10    1.50
  -3  -1  -4  476.75   28.90
  -3  -1  -4  427.46   28.70
  -3  -1  -4  471.85   28.40
  -3  -1  -4  378.76   29.50
  -3  -1  -4  477.05   29.20
   3   1   4  425.66   28.90
   3   1   4  432.56   30.30
   3   1   4  432.26   28.50
   3   1   4  463.85   29.10
  -4  -1  -4    1.30    1.90
  -4  -1  -4    0.60    2.00
  -4  -1  -4   -1.90    2.70
  -4  -1  -4    3.90    1.70
  -4  -1  -4   -0.50    1.40
   4   1   4   -1.50    1.20
   4   1   4    2.40    1.70
   4   1   4    3.60    1.80
   4   1   4    1.30    1.60
   4   1   4   -1.00    1.50
  -5  -1  -4   35.80    6.00
  -5  -1  -4   34.50    4.80
  -5  -1  -4   42.70    5.70
  -5  -1  -4   28.70    4.00
  -5  -1  -4   33.20    4.50
   5   1   4   40.10    5.10
   5   1   4   24.90    4.60
   5   1   4   33.60    5.00
   5   1   4   26.80    5.70
   5   1   4   29.40    4.40
  -6  -1  -4   76.69    7.70
  -6  -1  -4   79.19    7.90
  -6  -1  -4   74.49    7.90
  -6  -1  -4   91.69    7.80
  -6  -1  -4   77.49    9.00
   6   1   4   71.49    7.40
   6   1   4   86.29    7.90
   6   1   4   76.09    8.00
   6   1   4   70.29    7.40
  -7  -1  -4    8.50    3.30
  -7  -1  -4    2.50    3.00
  -7  -1  -4    1.50    2.60
  -7  -1  -4    3.10    3.10
   7   1   4    5.00    2.60
   7   1   4    2.20    2.90
   7   1   4    0.20    1.90
   7   1   4    3.20    4.10
  -8  -1  -4   37.60    9.50
  -8  -1  -4   43.60    6.60
  -8  -1  -4   32.00    5.70
  -8  -1  -4   39.20    6.40
   8   1   4   25.50    7.00
   8   1   4   23.00    5.90
  -9  -1  -4    2.50    3.50
  -9  -1  -4    5.10    3.90
  -9  -1  -4    7.40    3.80
   9   1   4    0.20    4.20
   9   1   4    2.10    3.60
   9  -2  -4   25.90    4.70
  -9   2   4   29.40    5.30
  -9   2   4   16.30    5.90
  -9   2   4   29.50    4.80
  -9   2   4   28.80    6.00
   8  -2  -4   27.00    9.60
   8  -2  -4   13.20    3.50
  -8   2   4   10.00    4.10
  -8   2   4   22.70    4.90
  -8   2   4   22.90    4.10
  -8   2   4   18.10    5.30
  -8   2   4   28.00    4.60
   7  -2  -4   12.50    3.10
   7  -2  -4   10.80    2.40
   7  -2  -4   14.20    7.30
  -7   2   4   17.90    4.10
  -7   2   4   18.20    3.70
  -7   2   4   21.00    3.60
  -7   2   4   10.00    3.30
  -7   2   4    8.80    3.80
  -7   2   4   26.00    6.10
   6  -2  -4   74.29    6.80
   6  -2  -4   65.89   11.80
   6  -2  -4   78.19    6.10
  -6   2   4   76.39    6.90
  -6   2   4   79.99    6.60
  -6   2   4   74.79    8.30
  -6   2   4   82.99    7.70
  -6   2   4   72.09    7.30
  -6   2   4   75.49    8.10
   5  -2  -4    8.90    1.80
   5  -2  -4    8.10    2.20
   5  -2  -4    7.80    4.60
  -5   2   4    6.60    2.30
  -5   2   4   11.20    2.90
  -5   2   4    7.80    2.10
  -5   2   4    9.30    2.40
  -5   2   4    7.40    2.70
  -5   2   4    8.70    2.10
   4  -2  -4  208.08   14.80
   4  -2  -4  217.98   15.20
   4  -2  -4  222.68   14.20
   4  -2  -4  208.88   19.20
   4  -2  -4  204.38   14.00
  -4   2   4  218.78   16.00
  -4   2   4  226.18   14.60
  -4   2   4  230.88   15.50
  -4   2   4  233.38   14.80
  -4   2   4  223.58   16.30
  -4   2   4  214.98   15.10
   3  -2  -4   24.80    5.10
   3  -2  -4   21.60    2.90
   3  -2  -4   21.00    2.10
   3  -2  -4   20.70    2.50
   3  -2  -4   22.40    2.30
  -3   2   4   20.50    3.40
  -3   2   4   21.70    2.40
  -3   2   4   23.80    5.90
  -3   2   4   21.90    2.60
  -3   2   4   24.00    3.10
  -3   2   4   26.30    2.70
  -3   2   4   20.70    2.40
   2  -2  -4  258.57   17.30
   2  -2  -4  258.57   16.90
   2  -2  -4  264.57   17.40
   2  -2  -4  266.47   17.10
   2  -2  -4  239.38   17.00
   2  -2  -4  317.67   21.90
  -2   2   4  287.47   17.20
  -2   2   4  262.77   17.90
  -2   2   4  259.97   17.10
  -2   2   4  283.07   17.10
  -2   2   4  282.87   17.30
  -2   2   4  240.48   17.60
  -2   2   4  240.78   20.20
   1  -2  -4  504.05   35.80
   1  -2  -4  578.84   35.60
   1  -2  -4  577.04   35.60
   1  -2  -4  548.05   36.00
   1  -2  -4  557.64   35.40
  -1   2   4  535.75   35.50
  -1   2   4  564.54   35.70
  -1   2   4  552.04   36.30
  -1   2   4  589.94   35.40
  -1   2   4  647.24   35.50
   0  -2  -4    9.60    1.60
   0  -2  -4    8.20    2.00
   0  -2  -4    7.20    1.40
   0  -2  -4    6.10    1.40
   0  -2  -4    9.00    1.50
   0   2   4    9.20    1.50
   0   2   4    8.40    1.50
   0   2   4    6.50    1.80
   0   2   4    3.70    1.20
   0   2   4    9.00    1.50
   0   2   4    6.70    1.40
  -1  -2  -4   10.50    2.60
  -1  -2  -4   14.40    1.80
  -1  -2  -4   15.30    2.20
  -1  -2  -4   14.90    2.30
  -1  -2  -4   12.20    1.70
   1   2   4   12.10    2.70
   1   2   4   12.50    2.00
   1   2   4   12.60    2.00
   1   2   4   16.10    2.10
   1   2   4   14.50    2.20
  -2  -2  -4  539.95   33.70
  -2  -2  -4  517.45   33.30
  -2  -2  -4  547.65   33.10
  -2  -2  -4  514.55   34.80
  -2  -2  -4  515.65   33.50
   2   2   4  487.95   33.50
   2   2   4  527.55   35.00
   2   2   4  508.75   33.20
   2   2   4  524.55   33.60
   2   2   4  557.14   33.70
  -3  -2  -4   55.59    5.10
  -3  -2  -4   55.29    5.00
  -3  -2  -4   55.59    4.70
  -3  -2  -4   53.79    5.30
  -3  -2  -4   47.50    6.00
   3   2   4   52.79    4.80
   3   2   4   55.09    5.20
   3   2   4   55.19    5.00
   3   2   4   51.79    5.00
   3   2   4   53.69    6.20
  -4  -2  -4  346.77   23.60
  -4  -2  -4  352.76   23.30
  -4  -2  -4  332.27   23.20
  -4  -2  -4  353.46   23.80
   4   2   4  328.67   23.30
   4   2   4  363.26   23.60
   4   2   4  340.47   23.30
   4   2   4  346.97   23.20
   4   2   4  357.66   25.50
  -5  -2  -4  154.18   10.90
  -5  -2  -4  133.29   10.90
  -5  -2  -4  148.19   11.40
  -5  -2  -4  123.09   11.80
  -5  -2  -4  135.79   10.90
   5   2   4  129.59   10.80
   5   2   4  134.29   12.60
   5   2   4  154.08   12.20
   5   2   4  131.79   10.80
  -6  -2  -4  834.42   53.59
  -6  -2  -4  843.62   53.69
  -6  -2  -4  797.12   53.99
  -6  -2  -4  835.82   53.79
   6   2   4  841.32   56.09
   6   2   4  765.32   56.79
   6   2   4  829.42   53.59
   6   2   4  900.51   54.09
   6   2   4  799.12   53.79
  -7  -2  -4   98.49    9.90
  -7  -2  -4  105.39   10.30
  -7  -2  -4  110.99   10.10
  -7  -2  -4  116.59   10.10
   7   2   4  111.29   10.20
   7   2   4  121.19   12.50
   7   2   4  109.69   10.10
  -8  -2  -4  325.27   24.50
  -8  -2  -4  323.47   23.40
  -8  -2  -4  298.77   22.80
   8   2   4  303.97   23.00
   8   2   4  303.27   25.20
  -9  -2  -4   43.50    7.10
  -9  -2  -4   35.00    6.60
  -9  -2  -4   45.90    7.50
   9   2   4   47.20    7.40
   9   2   4   18.80    6.50
   9  -3  -4   13.50    3.70
  -9   3   4    7.00    3.80
  -9   3   4    0.70    2.90
  -9   3   4   11.30    4.60
  -9   3   4    2.60    3.70
   8  -3  -4   24.60    9.10
   8  -3  -4   26.20    4.70
  -8   3   4   23.80    5.60
  -8   3   4   34.80    6.40
  -8   3   4   23.50    4.50
  -8   3   4   34.70    5.50
   7  -3  -4   18.70    7.60
   7  -3  -4   23.40    4.30
   7  -3  -4   21.50    3.50
   7  -3  -4   27.60    3.40
  -7   3   4   20.80    4.50
  -7   3   4   26.40    4.00
  -7   3   4   23.80    4.40
  -7   3   4   29.40    5.50
  -7   3   4   26.10    4.10
  -7   3   4   16.40    4.90
   6  -3  -4   63.39    6.60
   6  -3  -4   69.99    6.60
   6  -3  -4   69.29   11.20
   6  -3  -4   72.09    6.30
   6  -3  -4   66.49    5.90
  -6   3   4   71.19    6.50
  -6   3   4   76.59    6.90
  -6   3   4   63.99    7.80
  -6   3   4   75.39    7.70
  -6   3   4   68.39    6.30
  -6   3   4   59.29    7.60
  -6   3   4   77.59    7.40
   5  -3  -4  195.18   13.80
   5  -3  -4  208.68   14.50
   5  -3  -4  192.08   14.50
  -5   3   4  190.58   15.60
  -5   3   4  201.58   14.90
  -5   3   4  226.58   15.80
  -5   3   4  211.28   14.30
  -5   3   4  216.58   14.30
  -5   3   4  191.68   14.40
   4  -3  -4  274.67   19.50
   4  -3  -4  254.17   19.40
   4  -3  -4  292.67   23.50
   4  -3  -4  279.57   19.70
   4  -3  -4  274.87   19.50
  -4   3   4  290.37   19.50
  -4   3   4  310.97   19.90
  -4   3   4  318.27   19.40
  -4   3   4  323.07   19.40
  -4   3   4  292.17   20.50
  -4   3   4  304.47   20.50
   3  -3  -4  899.31   59.49
   3  -3  -4  960.20   62.19
   3  -3  -4  951.20   58.69
   3  -3  -4  912.21   59.09
   3  -3  -4  834.72   59.19
   3  -3  -4  940.51   59.19
  -3   3   4  877.01   59.69
  -3   3   4 1012.20   59.09
  -3   3   4  999.10   60.19
  -3   3   4 1014.60   58.99
  -3   3   4  948.41   58.99
  -3   3   4  976.20   59.39
   2  -3  -4   36.00    3.30
   2  -3  -4   26.80    3.20
   2  -3  -4   33.50    3.20
   2  -3  -4   30.80    3.60
   2  -3  -4   33.40    3.30
  -2   3   4   42.10    3.50
  -2   3   4   33.00    4.10
  -2   3   4   31.10    4.80
  -2   3   4   33.30    3.20
  -2   3   4   35.10    3.20
  -2   3   4   29.50    3.50
   1  -3  -4 3062.19  178.38
   1  -3  -4 2667.53  179.08
  -1   3   4 2951.90  178.28
   0  -3  -4   14.30    2.30
   0  -3  -4   17.00    2.20
   0  -3  -4   13.50    1.90
   0  -3  -4   14.70    2.20
   0  -3  -4   17.80    3.20
   0   3   4   21.20    3.80
   0   3   4   17.30    2.30
   0   3   4   17.30    1.90
   0   3   4   17.70    2.50
   0   3   4   20.10    2.20
   0   3   4   19.70    2.50
  -1  -3  -4 2714.23  174.28
   1   3   4 2781.22  174.38
   1   3   4 2917.91  173.18
  -2  -3  -4  858.41   52.29
  -2  -3  -4  873.41   52.69
  -2  -3  -4  855.91   52.49
  -2  -3  -4  778.52   55.39
  -2  -3  -4  845.72   52.79
   2   3   4  790.52   52.49
   2   3   4  807.22   54.09
   2   3   4  857.11   52.69
   2   3   4  829.12   53.39
   2   3   4  839.02   52.69
  -3  -3  -4 1481.25   92.09
  -3  -3  -4 1591.04   91.69
  -3  -3  -4 1433.06   93.59
  -3  -3  -4 1526.65   91.89
  -3  -3  -4 1473.05   91.69
   3   3   4 1384.36   91.79
   3   3   4 1433.86   91.89
   3   3   4 1458.35   93.69
   3   3   4 1406.66   91.69
   3   3   4 1516.65   91.89
  -4  -3  -4  449.56   28.70
  -4  -3  -4  445.06   28.40
  -4  -3  -4  430.76   30.30
  -4  -3  -4  418.36   28.10
  -4  -3  -4  456.75   28.20
   4   3   4  408.56   30.10
   4   3   4  406.76   28.30
   4   3   4  411.06   28.30
   4   3   4  393.06   28.10
   4   3   4  455.45   28.50
  -5  -3  -4  479.95   34.10
  -5  -3  -4  547.15   34.00
  -5  -3  -4  542.65   33.80
  -5  -3  -4  503.35   36.10
  -5  -3  -4  519.65   33.90
   5   3   4  493.75   33.80
   5   3   4  482.25   33.80
   5   3   4  542.55   36.30
   5   3   4  502.75   34.00
  -6  -3  -4  307.37   20.90
  -6  -3  -4  273.27   21.00
  -6  -3  -4  287.07   20.80
  -6  -3  -4  301.17   20.80
   6   3   4  320.27   21.10
   6   3   4  283.77   20.70
   6   3   4  304.87   23.10
   6   3   4  273.67   20.80
   6   3   4  273.47   20.60
  -7  -3  -4   74.39    8.00
  -7  -3  -4   67.99    7.80
  -7  -3  -4   76.59    8.00
  -7  -3  -4   72.29    7.80
   7   3   4   76.39    7.80
   7   3   4   69.09    7.80
   7   3   4   65.79    9.20
  -8  -3  -4  157.18   18.10
  -8  -3  -4  147.89   15.00
  -8  -3  -4  155.28   13.50
  -8  -3  -4  155.58   13.60
   8   3   4  155.58   13.00
   8   3   4  171.98   13.70
   8   3   4  152.98   15.80
  -9  -3  -4   26.00    6.00
  -9  -3  -4   21.20    4.30
  -9  -3  -4   18.00    4.90
  -9  -3  -4   22.00    5.30
   9   3   4   18.20    4.90
   9   3   4   18.90    6.40
   9  -4  -4    0.70    5.20
   9  -4  -4    6.50    2.10
   9  -4  -4   -4.90    2.20
  -9   4   4    4.20    3.70
  -9   4   4    3.80    2.90
  -9   4   4    0.80    3.30
  -9   4   4   -2.50    2.70
   8  -4  -4  135.79   10.70
   8  -4  -4  105.89   16.30
   8  -4  -4  116.39   12.30
   8  -4  -4  116.09   10.80
  -8   4   4  132.39   12.70
  -8   4   4  125.89   12.20
  -8   4   4  128.09   10.80
   7  -4  -4   20.20    3.70
   7  -4  -4   13.40    6.30
   7  -4  -4    9.30    3.00
   7  -4  -4   11.60    3.30
  -7   4   4   14.50    4.60
  -7   4   4   14.50    4.00
  -7   4   4   13.10    3.50
  -7   4   4   19.90    3.50
  -7   4   4   13.70    6.90
  -7   4   4   13.10    3.60
   6  -4  -4  404.46   28.90
   6  -4  -4  391.56   33.90
   6  -4  -4  425.26   29.00
   6  -4  -4  417.26   27.90
  -6   4   4  450.05   29.50
  -6   4   4  449.16   30.20
  -6   4   4  457.25   28.20
  -6   4   4  429.06   28.90
   5  -4  -4   85.19    7.70
   5  -4  -4   83.79    6.70
   5  -4  -4   73.89    7.40
   5  -4  -4   74.39    7.40
   5  -4  -4   74.99   10.40
  -5   4   4  100.19    8.90
  -5   4   4   89.89    7.60
  -5   4   4   81.69    7.20
  -5   4   4   92.19    6.90
  -5   4   4   87.49    7.70
   4  -4  -4 1060.39   70.49
   4  -4  -4  998.60   69.99
   4  -4  -4 1054.19   73.49
  -4   4   4 1152.78   70.49
  -4   4   4 1205.98   69.89
  -4   4   4 1176.08   70.79
  -4   4   4 1155.48   71.69
  -4   4   4 1157.78   70.29
   3  -4  -4   90.69    8.20
   3  -4  -4   99.29    7.30
   3  -4  -4   99.19    7.10
   3  -4  -4   85.89    7.70
   3  -4  -4  104.89    9.30
   3  -4  -4   85.19    7.50
  -3   4   4  102.69    7.60
  -3   4   4   86.99    7.90
  -3   4   4  108.79    7.80
  -3   4   4  104.89    8.70
  -3   4   4   95.79    7.60
   2  -4  -4 2136.89  142.19
   2  -4  -4 2233.38  141.39
   2  -4  -4 2308.87  140.99
   2  -4  -4 2268.77  140.89
  -2   4   4 2408.66  141.29
  -2   4   4 2306.67  142.59
  -2   4   4 2068.69  141.29
  -2   4   4 2458.65  141.39
  -2   4   4 2372.86  141.39
   1  -4  -4  499.15   33.50
   1  -4  -4  520.85   33.00
   1  -4  -4  490.75   34.30
   1  -4  -4  529.05   33.40
  -1   4   4  548.15   33.10
  -1   4   4  551.34   33.40
  -1   4   4  524.75   34.60
  -1   4   4  532.05   33.80
  -1   4   4  497.95   32.90
   0  -4  -4 2397.06  154.38
   0  -4  -4 2611.84  154.18
   0  -4  -4 2284.57  155.08
   0   4   4 2528.15  155.58
   0   4   4 2455.45  154.08
   0   4   4 2685.63  154.88
  -1  -4  -4  317.97   21.40
  -1  -4  -4  335.57   21.40
  -1  -4  -4  351.26   21.90
  -1  -4  -4  331.27   20.70
  -1  -4  -4  298.67   23.00
   1   4   4  322.97   21.70
   1   4   4  313.07   23.00
   1   4   4  344.47   21.60
   1   4   4  339.17   21.90
   1   4   4  340.17   21.80
  -2  -4  -4  508.75   32.50
  -2  -4  -4  531.45   32.10
  -2  -4  -4  523.65   32.20
  -2  -4  -4  493.15   32.60
  -2  -4  -4  473.15   33.90
   2   4   4  492.25   32.40
   2   4   4  503.55   32.60
   2   4   4  484.35   34.00
   2   4   4  495.05   32.50
   2   4   4  505.25   32.30
  -3  -4  -4  203.68   16.30
  -3  -4  -4  202.28   14.80
  -3  -4  -4  193.78   14.80
  -3  -4  -4  211.08   15.10
   3   4   4  202.98   14.60
   3   4   4  184.18   14.30
   3   4   4  231.48   14.70
   3   4   4  209.88   14.70
   3   4   4  219.78   16.70
  -4  -4  -4    5.40    1.90
  -4  -4  -4    6.80    2.50
  -4  -4  -4    1.00    1.80
  -4  -4  -4    2.00    1.90
  -4  -4  -4    2.40    2.60
   4   4   4    6.90    2.30
   4   4   4    2.40    2.70
   4   4   4    1.80    2.10
   4   4   4    3.40    2.70
   4   4   4    2.30    1.80
  -5  -4  -4  332.87   27.50
  -5  -4  -4  387.06   25.70
  -5  -4  -4  363.56   25.90
  -5  -4  -4  392.06   25.50
  -5  -4  -4  415.16   25.70
   5   4   4  351.96   25.50
   5   4   4  366.46   25.60
   5   4   4  341.77   25.60
   5   4   4  397.46   27.90
   5   4   4  411.36   26.00
  -6  -4  -4    1.30    2.40
  -6  -4  -4    4.40    3.00
  -6  -4  -4    5.90    2.80
  -6  -4  -4    4.40    2.80
  -6  -4  -4    3.40    2.60
   6   4   4    4.60    2.10
   6   4   4    5.60    3.00
   6   4   4    3.60    3.60
   6   4   4   -1.20    1.90
   6   4   4   -0.30    2.00
  -7  -4  -4  104.19   10.80
  -7  -4  -4  116.79   11.00
  -7  -4  -4  134.79   11.40
  -7  -4  -4  130.29   11.30
   7   4   4  132.59   11.40
   7   4   4  126.89   11.00
   7   4   4  149.09   13.70
  -8  -4  -4   -1.20    2.90
   8   4   4    4.00    2.90
   8   4   4    8.10    2.60
   8   4   4   -2.90    3.80
  -9  -4  -4   30.50    6.30
  -9  -4  -4   26.10    5.70
  -9  -4  -4   38.60    6.40
  -9  -4  -4   31.60    6.40
   9   4   4   40.80    6.90
   9   4   4   39.10    7.70
   8  -5  -4    5.00    3.20
   8  -5  -4    1.10    4.70
   8  -5  -4    0.40    2.80
  -8   5   4    2.90    3.50
  -8   5   4    2.60    3.30
  -8   5   4   -1.80    2.50
  -8   5   4   -1.30    2.80
   7  -5  -4  168.48   18.90
   7  -5  -4  189.68   14.50
   7  -5  -4  169.08   14.40
  -7   5   4  170.88   15.50
  -7   5   4  179.68   13.20
  -7   5   4  195.28   14.30
  -7   5   4  188.08   16.10
   6  -5  -4   28.70    5.00
   6  -5  -4   21.20    4.50
   6  -5  -4   15.20    5.70
   6  -5  -4   29.60    5.10
  -6   5   4   29.80    4.80
  -6   5   4   25.90    5.60
  -6   5   4   19.60    3.30
  -6   5   4   24.20    4.60
  -6   5   4   28.40    5.00
   5  -5  -4  132.89   13.80
   5  -5  -4  117.49   11.30
   5  -5  -4  143.59   11.50
   5  -5  -4  133.49   11.80
  -5   5   4  143.69   11.50
  -5   5   4  150.78   12.80
  -5   5   4  160.48   10.40
  -5   5   4  154.58   11.20
  -5   5   4  153.58   11.70
   4  -5  -4   13.40    2.40
   4  -5  -4   19.20    4.20
   4  -5  -4   11.40    2.40
   4  -5  -4   10.40    2.90
   4  -5  -4   13.90    3.40
  -4   5   4   16.70    3.30
  -4   5   4   13.90    2.90
  -4   5   4   16.60    3.40
  -4   5   4   17.70    4.30
   3  -5  -4   25.40    4.60
   3  -5  -4   25.80    4.40
   3  -5  -4   29.50    4.00
   3  -5  -4   27.20    3.00
   3  -5  -4   34.30    3.30
   3  -5  -4   27.70    4.00
  -3   5   4   31.00    5.40
  -3   5   4   27.10    3.70
  -3   5   4   28.30    5.00
  -3   5   4   35.20    4.00
   2  -5  -4   -0.60    1.80
   2  -5  -4    1.90    1.20
   2  -5  -4    1.70    1.60
   2  -5  -4    0.70    1.00
   2  -5  -4    0.40    1.40
  -2   5   4    1.50    2.10
  -2   5   4   -1.10    1.20
  -2   5   4    1.30    1.30
  -2   5   4   -0.70    1.30
  -2   5   4    0.40    1.30
   1  -5  -4    4.50    2.20
   1  -5  -4    6.80    2.00
   1  -5  -4    5.30    1.60
   1  -5  -4    4.20    2.10
  -1   5   4    7.20    1.80
  -1   5   4    6.90    1.40
  -1   5   4    7.70    2.00
  -1   5   4    3.90    1.60
  -1   5   4    3.80    2.40
   0  -5  -4   -0.20    1.30
   0  -5  -4    0.20    1.20
   0  -5  -4    0.50    1.20
   0  -5  -4   -1.40    1.50
   0   5   4    0.00    1.20
   0   5   4    1.60    1.60
   0   5   4    1.30    1.90
   0   5   4    2.90    1.40
   0   5   4    1.70    0.70
   0   5   4    0.20    1.10
  -1  -5  -4  171.68   11.70
  -1  -5  -4  158.78   11.90
  -1  -5  -4  160.78   11.80
  -1  -5  -4  150.98   13.00
  -1  -5  -4  161.78   11.50
   1   5   4  157.28   11.80
   1   5   4  157.98   11.90
   1   5   4  173.98   12.00
   1   5   4  171.08   13.50
   1   5   4  181.88   11.70
  -2  -5  -4  149.59   13.90
  -2  -5  -4  184.38   12.60
  -2  -5  -4  175.48   12.40
  -2  -5  -4  187.18   13.00
  -2  -5  -4  175.68   13.00
   2   5   4  193.08   12.70
   2   5   4  184.18   12.90
   2   5   4  170.98   12.80
   2   5   4  170.98   12.70
  -3  -5  -4  329.37   22.00
  -3  -5  -4  308.27   23.70
  -3  -5  -4  334.37   21.70
  -3  -5  -4  304.77   22.00
  -3  -5  -4  337.47   21.60
   3   5   4  293.37   21.70
   3   5   4  325.17   23.70
   3   5   4  318.77   22.00
   3   5   4  327.17   22.00
   3   5   4  343.47   21.80
  -4  -5  -4  205.78   14.50
  -4  -5  -4  214.58   14.50
  -4  -5  -4  194.88   15.00
  -4  -5  -4  187.98   16.50
  -4  -5  -4  213.18   14.90
   4   5   4  201.68   14.80
   4   5   4  215.58   16.80
   4   5   4  207.28   14.70
   4   5   4  187.58   14.50
   4   5   4  177.18   14.40
  -5  -5  -4  278.97   19.80
  -5  -5  -4  306.37   19.80
  -5  -5  -4  288.77   19.70
  -5  -5  -4  264.07   22.20
  -5  -5  -4  267.87   20.10
   5   5   4  244.08   19.70
   5   5   4  266.57   19.60
   5   5   4  267.07   19.80
   5   5   4  308.27   20.00
   5   5   4  291.87   22.00
  -6  -5  -4   49.30    7.00
  -6  -5  -4   55.99    6.50
  -6  -5  -4   43.80    6.10
  -6  -5  -4   45.90    8.40
  -6  -5  -4   47.60    6.50
   6   5   4   45.20    7.90
   6   5   4   57.79    7.10
   6   5   4   47.70    5.60
  -7  -5  -4  136.69   12.70
  -7  -5  -4  154.18   12.90
  -7  -5  -4  149.59   13.00
  -7  -5  -4  161.28   13.10
   7   5   4  169.18   13.20
   7   5   4  144.89   12.40
   7   5   4  156.78   14.70
  -8  -5  -4   61.09    8.10
  -8  -5  -4   52.59    8.80
  -8  -5  -4   53.49    7.80
  -8  -5  -4   58.89    7.50
   8   5   4   69.69    7.10
   8   5   4   53.29    9.30
   8   5   4   62.69    8.00
  -9  -5  -4   59.59    8.80
  -9  -5  -4   68.69    8.50
  -9  -5  -4   61.09    8.90
  -9  -5  -4   75.49    8.30
   9   5   4   77.89   10.30
   9   5   4   92.89    9.30
   8  -6  -4    1.90    4.20
   8  -6  -4   -0.30    2.40
  -8   6   4   -0.50    3.20
  -8   6   4    1.00    2.20
  -8   6   4   -4.30    2.60
  -8   6   4    4.00    3.90
   7  -6  -4   13.30    5.60
   7  -6  -4   10.70    3.60
   7  -6  -4   17.50    4.60
   7  -6  -4   23.80    4.70
  -7   6   4   15.60    3.80
  -7   6   4   18.90    3.30
   6  -6  -4    7.90    3.60
   6  -6  -4   11.60    5.00
   6  -6  -4    9.50    3.40
   6  -6  -4   21.60    4.70
  -6   6   4   15.20    4.20
  -6   6   4   22.70    4.50
  -6   6   4   22.10    3.00
  -6   6   4   18.10    5.50
   5  -6  -4   49.50    6.50
   5  -6  -4   45.00    6.90
   5  -6  -4   47.90    6.40
   5  -6  -4   47.60    6.20
  -5   6   4   38.30    6.00
  -5   6   4   54.09    7.20
  -5   6   4   46.90    6.00
  -5   6   4   49.00    5.80
   4  -6  -4   22.80    4.80
   4  -6  -4   23.60    4.60
   4  -6  -4   24.40    4.30
   4  -6  -4   26.60    3.00
   4  -6  -4   22.20    3.30
  -4   6   4   25.20    4.40
  -4   6   4   27.30    4.40
  -4   6   4   32.10    4.70
  -4   6   4   30.90    5.70
   3  -6  -4  223.88   16.40
   3  -6  -4  212.88   15.50
   3  -6  -4  214.38   17.30
   3  -6  -4  222.88   15.20
   3  -6  -4  209.68   16.80
  -3   6   4  232.38   16.20
  -3   6   4  238.98   16.40
  -3   6   4  264.47   16.50
  -3   6   4  242.28   17.90
   2  -6  -4   90.99    9.70
   2  -6  -4  105.49    8.70
   2  -6  -4  110.39    7.70
   2  -6  -4   97.99    9.10
   2  -6  -4  105.49    8.00
  -2   6   4  106.69   10.00
  -2   6   4   99.99    8.50
  -2   6   4  103.09    8.50
  -2   6   4  126.79    8.70
   1  -6  -4  381.46   23.90
   1  -6  -4  334.57   25.50
   1  -6  -4  332.67   24.60
   1  -6  -4  323.77   24.90
  -1   6   4  364.76   24.40
  -1   6   4  343.57   23.30
  -1   6   4  383.96   24.10
  -1   6   4  393.86   24.20
  -1   6   4  388.86   26.10
  -1   6   4  393.36   24.20
   0  -6  -4  814.02   46.30
   0  -6  -4  615.04   47.10
   0  -6  -4  703.83   46.10
   0  -6  -4  692.53   45.60
   0   6   4  726.73   45.60
   0   6   4  786.32   46.00
   0   6   4  709.53   47.60
   0   6   4  625.64   45.60
   0   6   4  687.53   46.00
   0   6   4  781.72   46.00
   0   6   4  753.22   44.40
  -1  -6  -4  360.96   24.30
  -1  -6  -4  349.07   24.70
  -1  -6  -4  386.36   24.70
  -1  -6  -4  360.36   24.60
  -1  -6  -4  329.97   26.10
   1   6   4  394.96   25.00
   1   6   4  387.36   26.60
   1   6   4  375.56   24.80
   1   6   4  392.26   25.00
  -2  -6  -4  305.07   19.80
  -2  -6  -4  271.77   19.90
  -2  -6  -4  264.97   21.50
  -2  -6  -4  275.47   20.00
  -2  -6  -4  309.67   19.60
   2   6   4  300.37   20.10
   2   6   4  291.97   20.20
   2   6   4  282.17   20.10
   2   6   4  300.97   20.30
   2   6   4  300.37   21.90
  -3  -6  -4  667.73   46.30
  -3  -6  -4  647.14   48.00
  -3  -6  -4  785.62   45.90
  -3  -6  -4  801.82   46.10
  -3  -6  -4  646.54   44.30
  -3  -6  -4  728.83   46.30
   3   6   4  708.03   46.30
   3   6   4  706.63   46.40
   3   6   4  711.03   46.20
   3   6   4  758.02   48.40
  -4  -6  -4  117.79    9.30
  -4  -6  -4  111.59    9.70
  -4  -6  -4  110.09    9.90
  -4  -6  -4  127.39    9.50
  -4  -6  -4   99.89   11.00
   4   6   4  104.59    9.30
   4   6   4  121.99   11.50
   4   6   4  102.29    9.40
   4   6   4  108.19    9.40
   4   6   4  118.39    9.50
  -5  -6  -4  519.45   33.80
  -5  -6  -4  487.75   36.70
  -5  -6  -4  507.65   34.10
  -5  -6  -4  536.85   33.90
  -5  -6  -4  522.75   34.60
   5   6   4  488.45   34.10
   5   6   4  535.15   33.90
   5   6   4  550.84   36.40
   5   6   4  459.65   34.10
   5   6   4  478.75   33.80
  -6  -6  -4  112.39   10.60
  -6  -6  -4  109.89   10.70
  -6  -6  -4  133.49   10.80
  -6  -6  -4  116.99   10.30
   6   6   4  126.59   12.60
   6   6   4  132.69   10.70
   6   6   4  117.19   10.30
  -7  -6  -4  284.77   21.50
  -7  -6  -4  291.87   21.00
  -7  -6  -4  306.57   21.50
  -7  -6  -4  266.87   21.10
   7   6   4  308.57   23.50
   7   6   4  298.17   21.10
   7   6   4  262.97   20.50
  -8  -6  -4  110.89   10.40
  -8  -6  -4   91.39    9.80
  -8  -6  -4   90.79   10.20
  -8  -6  -4   99.69   10.00
   8   6   4  117.69   12.30
   8   6   4  107.49   10.20
   8  -7  -4   10.60    4.30
   8  -7  -4   21.00    5.20
   8  -7  -4   11.80    5.80
  -8   7   4   11.10    5.30
  -8   7   4   16.40    5.40
  -8   7   4   17.00    5.20
   7  -7  -4   30.10    7.40
   7  -7  -4   27.10    6.00
   7  -7  -4   25.10    5.70
  -7   7   4   43.40    8.40
  -7   7   4   35.60    5.70
  -7   7   4   31.10    6.00
   6  -7  -4   52.59    6.60
   6  -7  -4   33.20    6.30
   6  -7  -4   38.90    6.50
   6  -7  -4   37.80    6.90
  -6   7   4   51.29    8.50
  -6   7   4   46.80    6.40
  -6   7   4   40.50    6.60
   5  -7  -4    6.30    3.60
   5  -7  -4   20.20    4.80
   5  -7  -4   18.40    4.70
   5  -7  -4   15.20    3.90
  -5   7   4   17.40    5.40
  -5   7   4   17.30    4.30
  -5   7   4   24.20    4.50
   4  -7  -4  214.38   13.50
   4  -7  -4  164.58   13.10
   4  -7  -4  180.28   15.60
   4  -7  -4  188.58   15.00
   4  -7  -4  190.18   13.80
   4  -7  -4  180.38   15.80
  -4   7   4  193.58   15.00
  -4   7   4  218.08   15.00
  -4   7   4  211.98   14.80
  -4   7   4  202.78   16.50
   3  -7  -4  195.18   14.00
   3  -7  -4  204.78   14.80
   3  -7  -4  210.08   15.80
   3  -7  -4  185.88   16.30
   3  -7  -4  192.98   16.70
  -3   7   4  239.48   17.70
  -3   7   4  219.18   15.70
  -3   7   4  228.58   15.70
  -3   7   4  250.97   17.00
   2  -7  -4  503.25   36.50
   2  -7  -4  514.65   34.40
   2  -7  -4  543.35   35.90
   2  -7  -4  542.05   35.10
  -2   7   4  560.34   35.70
  -2   7   4  554.14   37.60
  -2   7   4  566.64   35.50
  -2   7   4  585.74   35.70
  -2   7   4  534.65   35.80
   1  -7  -4  486.75   31.20
   1  -7  -4  442.66   33.10
   1  -7  -4  432.76   33.00
   1  -7  -4  472.75   32.20
  -1   7   4  490.75   33.60
  -1   7   4  523.25   31.50
  -1   7   4  504.35   31.50
  -1   7   4  518.25   31.60
  -1   7   4  485.05   31.80
  -1   7   4  435.66   30.30
   0  -7  -4  448.56   31.20
   0  -7  -4  474.95   31.70
   0  -7  -4  503.35   32.00
   0  -7  -4  415.46   33.00
   0   7   4  538.25   31.00
   0   7   4  453.05   33.30
   0   7   4  504.85   31.70
   0   7   4  474.35   31.30
   0   7   4  482.05   31.50
   0   7   4  494.25   29.60
   0   7   4  457.85   31.70
  -1  -7  -4  834.92   53.39
  -1  -7  -4  777.42   52.69
  -1  -7  -4  957.80   53.49
  -1  -7  -4  787.52   52.99
  -1  -7  -4  757.82   54.89
   1   7   4  860.61   55.39
   1   7   4  837.02   53.49
   1   7   4  882.11   53.59
   1   7   4  741.63   54.99
   1   7   4  851.41   53.39
   1   7   4  883.61   53.89
  -2  -7  -4  342.37   26.40
  -2  -7  -4  395.96   24.20
  -2  -7  -4  356.76   24.60
  -2  -7  -4  378.06   24.70
  -2  -7  -4  370.06   24.30
   2   7   4  376.26   24.90
   2   7   4  329.27   24.80
   2   7   4  314.27   27.80
   2   7   4  409.16   24.30
   2   7   4  341.17   24.50
   2   7   4  371.16   26.60
  -3  -7  -4  880.31   61.19
  -3  -7  -4  954.20   61.09
  -3  -7  -4 1043.90   60.79
  -3  -7  -4  982.60   60.79
  -3  -7  -4  812.02   62.79
   3   7   4  941.41   61.29
   3   7   4 1046.70   60.79
   3   7   4  934.81   62.09
   3   7   4  900.61   60.99
   3   7   4 1044.80   63.79
  -4  -7  -4  202.38   16.20
  -4  -7  -4  233.58   15.70
  -4  -7  -4  226.38   15.60
  -4  -7  -4  219.38   16.00
  -4  -7  -4  202.18   17.90
  -4  -7  -4  195.98   13.70
   4   7   4  237.58   15.60
   4   7   4  213.38   15.80
   4   7   4  217.08   17.90
   4   7   4  192.18   15.70
   4   7   4  203.08   16.00
  -5  -7  -4  309.97   21.10
  -5  -7  -4  266.07   19.10
  -5  -7  -4  294.87   21.60
  -5  -7  -4  232.88   22.60
  -5  -7  -4  311.57   20.70
  -5  -7  -4  321.27   20.90
   5   7   4  317.37   23.20
   5   7   4  317.77   20.70
   5   7   4  260.27   20.40
  -6  -7  -4   61.59    7.00
  -6  -7  -4   60.29    8.10
  -6  -7  -4   69.79    7.10
  -6  -7  -4   64.09    5.80
  -6  -7  -4   48.60    7.00
   6   7   4   49.80   13.90
   6   7   4   59.49    9.30
   6   7   4   56.39    6.80
   6   7   4   53.69    6.40
  -7  -7  -4  157.48   14.10
  -7  -7  -4  176.88   13.60
  -7  -7  -4  163.58   13.70
  -7  -7  -4  155.18   12.40
  -7  -7  -4  151.88   13.50
   7   7   4  150.18   23.30
   7   7   4  176.78   13.50
   7   7   4  150.38   12.70
   7   7   4  166.18   15.40
  -8  -7  -4    3.00    3.20
  -8  -7  -4    8.40    3.20
  -8  -7  -4   -0.70    2.80
  -8  -7  -4   -1.40    2.90
   8   7   4    0.50    6.70
   8   7   4    7.30    2.90
   8   7   4    1.40    3.80
   8   7   4    1.00    3.20
   7  -8  -4  107.19   12.40
   7  -8  -4  124.19   13.20
   7  -8  -4  134.99   12.80
  -7   8   4  160.28   14.90
  -7   8   4  126.49   12.90
   6  -8  -4    3.80    2.70
   6  -8  -4    4.00    3.80
   6  -8  -4    9.20    4.30
  -6   8   4    7.90    3.50
  -6   8   4   11.00    4.50
   5  -8  -4  307.97   19.70
   5  -8  -4  267.87   21.80
   5  -8  -4  251.17   22.50
  -5   8   4  324.17   23.90
  -5   8   4  306.87   21.40
   4  -8  -4   84.69    6.80
   4  -8  -4   85.59    9.00
   4  -8  -4   95.69   10.10
   4  -8  -4  106.19   10.20
  -4   8   4   92.19    9.20
  -4   8   4  106.99   10.90
   3  -8  -4  280.57   22.10
   3  -8  -4  293.17   20.90
   3  -8  -4  261.97   19.50
   3  -8  -4  266.17   18.60
  -3   8   4  307.57   20.90
  -3   8   4  280.07   22.40
  -3   8   4  337.57   20.80
  -3   8   4  286.87   20.50
   2  -8  -4   18.60    4.80
   2  -8  -4   22.50    4.20
   2  -8  -4   20.50    2.60
   2  -8  -4   19.90    4.80
   2  -8  -4   16.00    3.20
  -2   8   4   18.20    4.10
  -2   8   4   18.00    3.90
  -2   8   4   19.50    3.80
  -2   8   4   21.30    5.30
   1  -8  -4   90.19    9.10
   1  -8  -4  102.59    8.20
  -1   8   4   89.99    7.00
  -1   8   4  108.19    8.50
  -1   8   4   97.09    8.80
  -1   8   4  104.59    8.60
  -1   8   4  108.39    8.80
  -1   8   4  100.89   10.30
   0  -8  -4   52.99    5.60
   0  -8  -4   51.09    6.00
   0  -8  -4   57.99    6.30
   0   8   4   54.09    7.50
   0   8   4   52.29    6.00
   0   8   4   63.19    5.90
   0   8   4   53.39    5.80
  -1  -8  -4   23.30    6.20
  -1  -8  -4   27.00    4.20
  -1  -8  -4   23.20    4.10
  -1  -8  -4   21.70    4.10
   1   8   4   23.20    4.30
   1   8   4   20.40    4.40
   1   8   4   21.30    4.60
   1   8   4   24.50    4.60
   1   8   4   25.40    5.70
   1   8   4   30.30    4.30
  -2  -8  -4   35.10    5.30
  -2  -8  -4   32.00    4.40
  -2  -8  -4   40.20    4.90
  -2  -8  -4   31.70    6.40
  -2  -8  -4   39.30    5.40
   2   8   4   35.10    5.20
   2   8   4   29.80    6.80
   2   8   4   43.70    5.20
   2   8   4   34.10    5.30
   2   8   4   33.30    6.40
  -3  -8  -4    3.70    2.60
  -3  -8  -4   -0.30    1.90
  -3  -8  -4    0.00    2.60
  -3  -8  -4   -2.20    2.00
  -3  -8  -4    2.80    2.30
   3   8   4   -2.50    2.40
   3   8   4    3.20    2.50
   3   8   4   -2.30    2.00
   3   8   4   -1.00    2.10
   3   8   4   -0.30    3.50
  -4  -8  -4   10.10    3.30
  -4  -8  -4    8.10    3.20
  -4  -8  -4   18.00    3.80
  -4  -8  -4   11.60    3.40
  -4  -8  -4   19.30    5.70
   4   8   4   13.10    3.50
   4   8   4   12.70    4.60
   4   8   4   10.30    6.80
  -5  -8  -4   53.09    6.10
  -5  -8  -4   57.59    8.00
  -5  -8  -4   45.40    6.70
  -5  -8  -4   55.89    6.40
  -5  -8  -4   46.50    4.10
   5   8   4   58.49    6.30
   5   8   4   49.80    8.30
   5   8   4   43.60   12.20
   5   8   4   42.80    5.70
  -6  -8  -4   31.80    5.40
  -6  -8  -4   33.60    3.90
  -6  -8  -4   34.80    5.80
  -6  -8  -4   49.60    9.50
   6   8   4   39.10    5.10
   6   8   4   28.30   11.10
   6   8   4   35.40    5.50
   6   8   4   32.40    6.90
  -7  -8  -4   24.60    5.30
  -7  -8  -4   30.80    5.70
  -7  -8  -4   24.20    3.80
  -7  -8  -4   20.30    5.10
  -7  -8  -4   24.30    5.20
   7   8   4   38.30    5.00
   7   8   4   28.40   12.10
   7   8   4   30.00    5.30
   7   8   4   36.80    7.00
  -8  -8  -4    6.70    2.60
  -8  -8  -4    6.10    3.50
  -8  -8  -4    1.90    3.20
  -8  -8  -4    5.00    3.90
   8   8   4    5.80    4.20
   8   8   4    4.40    3.20
   8   8   4    5.90    8.90
   7  -9  -4   -1.50    4.10
  -7   9   4   18.50    5.90
  -7   9   4    9.10    5.50
   6  -9  -4   -6.30    2.50
   6  -9  -4   -1.00    3.30
  -6   9   4   -4.90    3.20
  -6   9   4    1.40    4.20
   5  -9  -4    8.80    3.80
   5  -9  -4   11.20    5.10
  -5   9   4   21.70    6.40
  -5   9   4   12.00    4.50
   4  -9  -4   57.29    9.00
   4  -9  -4   52.79    7.80
  -4   9   4   65.49   11.50
   3  -9  -4    2.80    3.30
   3  -9  -4    3.20    3.10
   3  -9  -4    4.10    1.10
  -3   9   4    7.20    3.20
  -3   9   4    0.80    2.60
  -3   9   4    5.30    4.10
   2  -9  -4   82.49    6.10
   2  -9  -4   88.49    9.40
   2  -9  -4   66.29    8.10
   2  -9  -4   75.09    7.80
  -2   9   4   97.09    8.00
  -2   9   4   88.79   10.20
  -2   9   4   78.79    8.30
  -2   9   4   79.39    8.20
   1  -9  -4   15.10    3.50
   1  -9  -4   24.10    5.50
   1  -9  -4   19.20    4.50
  -1   9   4   19.50    4.30
  -1   9   4   20.20    2.40
  -1   9   4   20.10    5.70
  -1   9   4   24.90    4.60
  -1   9   4   32.40    4.50
  -1   9   4   23.70    4.30
   0  -9  -4  106.69    9.50
   0  -9  -4  112.79   10.10
   0  -9  -4  128.39   10.60
   0  -9  -4  114.09   11.60
   0   9   4  110.09    9.80
   0   9   4  118.79   10.40
   0   9   4  114.39    9.90
   0   9   4  123.29   12.30
   0   9   4  120.39    9.80
  -1  -9  -4   44.60    5.70
  -1  -9  -4   37.90    5.60
  -1  -9  -4   31.20    6.90
  -1  -9  -4   32.20    5.10
   1   9   4   34.40    5.50
   1   9   4   35.30    5.50
   1   9   4   42.10    5.60
   1   9   4   38.20    6.00
   1   9   4   32.60    7.00
  -2  -9  -4   46.80    6.40
  -2  -9  -4   48.70    6.50
  -2  -9  -4   47.90    5.70
  -2  -9  -4   56.49    6.20
   2   9   4   50.69    5.90
   2   9   4   42.80    6.00
   2   9   4   63.49    8.10
   2   9   4   51.79    6.10
   2   9   4   38.50    8.10
  -3  -9  -4   82.89    7.90
  -3  -9  -4   71.49    7.80
  -3  -9  -4   73.29    7.40
  -3  -9  -4   70.59    7.90
   3   9   4   74.09   11.80
   3   9   4   63.29    7.40
   3   9   4   77.69    9.90
   3   9   4   82.19    7.50
  -4  -9  -4  111.69   11.00
  -4  -9  -4  134.29   10.60
  -4  -9  -4  137.69   10.60
  -4  -9  -4  109.19   10.50
   4   9   4  126.99   10.30
   4   9   4  105.89   10.20
   4   9   4   96.49   15.60
   4   9   4  137.09   13.10
  -5  -9  -4   51.59    8.20
  -5  -9  -4   68.89    7.30
   5   9   4   59.19    6.80
   5   9   4   66.99    7.00
   5   9   4   50.59   13.30
   5   9   4   66.59    9.20
  -6  -9  -4   88.09    8.70
  -6  -9  -4   72.69    6.00
  -6  -9  -4   82.39    9.00
  -6  -9  -4   68.89    8.50
  -6  -9  -4   92.99    9.20
   6   9   4   90.19   10.60
   6   9   4   88.39    8.00
   6   9   4   76.69    8.10
  -7  -9  -4   39.90    6.50
  -7  -9  -4   42.20    6.70
  -7  -9  -4   35.70    4.30
  -7  -9  -4   40.00    6.70
   7   9   4   40.80    7.70
   7   9   4   36.60   13.50
   7   9   4   42.10    6.20
   7   9   4   56.69    6.40
   6 -10  -4   -7.80    3.50
  -6  10   4    3.90    4.60
  -6  10   4    1.10    4.00
   5 -10  -4   53.69   12.90
   5 -10  -4   37.70    8.40
  -5  10   4   55.99    8.90
  -5  10   4   53.39    9.80
   4 -10  -4   10.50    4.00
   4 -10  -4    1.60    3.10
  -4  10   4    4.40    3.90
  -4  10   4    4.10    3.70
   3 -10  -4   46.80    3.60
   3 -10  -4   48.70    7.60
   3 -10  -4   33.00    8.70
  -3  10   4   62.29    9.80
   2 -10  -4   15.70    4.50
   2 -10  -4   16.20    2.10
   2 -10  -4   14.00    4.90
  -2  10   4   15.70    4.30
  -2  10   4   15.90    5.30
   1 -10  -4  188.98   15.40
   1 -10  -4  171.48   15.70
  -1  10   4  164.58   11.80
  -1  10   4  220.38   17.70
  -1  10   4  181.48   14.50
   0 -10  -4   75.29    8.30
   0 -10  -4   67.89    7.80
   0 -10  -4   68.19    7.20
   0  10   4   70.69    8.00
   0  10   4   91.99   10.30
  -1 -10  -4  205.18   17.20
  -1 -10  -4  248.68   18.10
  -1 -10  -4  219.08   17.80
   1  10   4  229.98   19.80
   1  10   4  269.07   19.10
   1  10   4  228.58   17.50
  -2 -10  -4  168.68   14.50
  -2 -10  -4  173.88   14.60
  -2 -10  -4  167.58   13.90
  -2 -10  -4  204.28   14.90
   2  10   4  189.98   17.80
   2  10   4  207.98   17.50
  -3 -10  -4  166.18   14.40
  -3 -10  -4  183.38   13.90
  -3 -10  -4  167.88   14.30
   3  10   4  191.68   16.80
   3  10   4  180.28   19.30
   3  10   4  175.88   13.80
  -4 -10  -4   26.30    4.80
  -4 -10  -4   15.80    5.10
  -4 -10  -4   32.80    5.50
  -4 -10  -4   27.10    5.10
   4  10   4   25.80    8.70
   4  10   4   31.60    5.10
   4  10   4   33.20    7.10
  -5 -10  -4  150.88   12.70
  -5 -10  -4  146.69   13.10
  -5 -10  -4  161.08   13.80
  -5 -10  -4  152.18   12.70
   5  10   4  136.09   20.30
   5  10   4  150.08   12.40
   5  10   4  153.68   14.70
  -6 -10  -4    8.90    3.80
  -6 -10  -4   12.80    4.20
  -6 -10  -4   11.10    4.50
   6  10   4   10.20    8.10
   6  10   4    4.40    3.40
   6  10   4    5.00    4.50
   5 -11  -4   51.89    9.10
   5 -11  -4   41.60    8.90
  -5  11   4   67.29   11.10
  -5  11   4   53.19    9.20
   4 -11  -4   33.70    8.20
   4 -11  -4   46.10    7.60
  -4  11   4   61.09   10.00
  -4  11   4   41.50    7.50
   3 -11  -4   94.89   15.70
   3 -11  -4   58.29   10.20
  -3  11   4   75.99    8.80
  -3  11   4   87.69   11.20
   2 -11  -4  127.19   12.80
   2 -11  -4  121.29   11.50
   2 -11  -4  110.39    8.00
  -2  11   4  136.19   11.90
  -2  11   4  142.29   14.10
   1 -11  -4   85.59   10.50
  -1  11   4  101.79   12.00
  -1  11   4   94.99    6.20
  -1  11   4   79.29    9.20
   0 -11  -4  157.98   14.40
   0  11   4  190.78   14.80
   0  11   4  196.78   19.70
  -1 -11  -4   54.79    8.50
   1  11   4   61.49   10.10
   1  11   4   57.79    7.70
  -2 -11  -4  121.09   12.90
  -2 -11  -4  117.29   11.60
   2  11   4  139.19   14.40
   2  11   4  128.19   13.50
   2  11   4  136.19   11.70
  -3 -11  -4    1.40    2.70
  -3 -11  -4    0.80    2.70
  -3 -11  -4    6.20    3.60
   3  11   4    1.60    3.90
   3  11   4    0.30    4.20
  -4 -11  -4   71.19    8.00
  -4 -11  -4   77.99    8.70
  -4 -11  -4   70.79    8.70
   4  11   4   91.69   11.00
   4  11   4   78.29    8.30
   4  11   4   75.09   14.10
  -5 -11  -4    5.20    4.00
  -5 -11  -4   -1.00    3.00
  -5 -11  -4   -2.10    3.10
   5  11   4    2.30    3.30
   5  11   4   -3.30    5.90
   5  11   4    3.20    3.60
   3 -12  -4   11.40    5.70
   3 -12  -4   12.40    4.40
  -3  12   4    5.70    4.90
  -3  12   4    3.20    4.70
   2 -12  -4   -2.90    3.30
   2 -12  -4   -0.60    3.70
  -2  12   4    0.50    4.40
  -2  12   4    4.40    1.60
  -2  12   4    5.10    4.20
   1 -12  -4   20.40    5.30
   1 -12  -4   12.20    5.00
   1 -12  -4   14.90    2.10
  -1  12   4   20.70    6.60
   0 -12  -4   16.20    4.90
   0 -12  -4   16.60    5.70
   0  12   4   16.80    5.00
   0  12   4   24.40    6.80
  -1 -12  -4    4.30    3.70
  -1 -12  -4    6.20    3.80
   1  12   4    8.40    4.00
   1  12   4   -4.50    4.00
  -2 -12  -4   27.00    6.00
  -2 -12  -4   35.50    6.70
   2  12   4   32.00    6.00
  -3 -12  -4   -1.10    2.60
  -3 -12  -4   -1.80    2.80
  -3 -12  -4   -0.50    3.50
   3  12   4    1.70    4.40
   3  12   4   -0.70    4.30
   3  12   4    0.60    3.20
  -4 -12  -4   30.30    5.70
  -4 -12  -4   34.80    6.60
  -4 -12  -4   37.40    6.60
   4  12   4   36.00   10.40
   0 -13  -4    0.30    4.00
   0 -13  -4    4.30    4.10
   0  13   4    0.70    3.60
   2  10  -5   37.20    6.00
   2  10  -5   40.30    5.50
  -2 -10   5   33.00    4.60
  -2 -10   5   28.80    4.10
  -2 -10   5   28.70    5.20
   1  10  -5    4.50    3.10
   1  10  -5    1.90    2.70
  -1 -10   5    2.00    3.10
  -1 -10   5    1.40    3.60
  -1 -10   5    0.00    2.10
   0  10  -5   32.00    5.60
   0  10  -5   30.90    5.70
   0  10  -5   35.60    4.00
   0 -10   5   30.30    4.40
   0 -10   5   27.80    6.00
   0 -10   5   22.40    5.10
  -1  10  -5   -2.00    2.40
  -1  10  -5    7.60    2.90
  -1  10  -5    1.40    5.00
  -1  10  -5   -0.70    3.00
   1 -10   5   -2.40    2.80
   1 -10   5    3.80    2.50
   1 -10   5    2.50    3.50
  -2  10  -5   30.50    5.60
  -2  10  -5   31.70    5.80
  -2  10  -5   31.90    6.10
   2 -10   5   37.70    7.30
   2 -10   5   23.30    4.50
   2 -10   5   28.20    6.20
  -4  -9   5   10.20    3.50
  -4  -9   5   11.30    2.90
  -4  -9   5   13.50    2.40
  -4  -9   5   10.60    2.90
   3   9  -5   59.49    7.60
   3   9  -5   68.09    6.30
  -3  -9   5   66.89    5.60
  -3  -9   5   55.99    6.50
  -3  -9   5   71.69    7.50
  -3  -9   5   52.09    5.90
   2   9  -5   69.69    6.70
   2   9  -5   67.29    8.10
  -2  -9   5   72.69    7.70
  -2  -9   5   69.09    7.40
  -2  -9   5   48.40    6.00
  -2  -9   5   70.39    6.20
   1   9  -5   36.30    5.30
   1   9  -5   42.70    6.50
  -1  -9   5   35.20    6.10
  -1  -9   5   38.10    5.80
   0   9  -5   93.29    7.60
   0   9  -5  103.19    9.30
   0   9  -5  104.79    9.80
   0  -9   5   91.59    9.80
   0  -9   5   89.39    8.00
  -1   9  -5   14.40    3.90
  -1   9  -5   13.00    3.80
  -1   9  -5   13.20    3.40
  -1   9  -5    8.80    2.70
   1  -9   5    8.10    2.70
   1  -9   5   13.50    4.10
   1  -9   5   10.20    5.00
  -2   9  -5  147.09   13.40
  -2   9  -5  194.28   13.70
  -2   9  -5  151.78   12.00
  -2   9  -5  162.38   13.10
   2  -9   5  132.29   13.30
   2  -9   5  119.59   14.90
  -3   9  -5   17.80    4.70
  -3   9  -5   18.70    5.10
   3  -9   5   24.60    5.80
   3  -9   5   21.60    5.80
   3  -9   5   17.50    5.10
  -4   9  -5   60.69    5.00
  -4   9  -5   63.19    4.90
  -4   9  -5   55.79    9.70
  -4   9  -5   64.09    8.70
   4  -9   5   51.39    8.30
   4  -9   5   57.69   10.00
   5   8  -5  125.99   21.00
  -5  -8   5   98.29    8.70
  -5  -8   5  103.49    8.60
  -5  -8   5   82.39    7.30
  -5  -8   5  109.99   10.50
  -5  -8   5   92.39    7.60
   4   8  -5   34.60    3.60
   4   8  -5   35.80    6.30
   4   8  -5   49.20   14.40
   4   8  -5   31.60    3.80
  -4  -8   5   38.30    4.60
  -4  -8   5   41.30    4.70
  -4  -8   5   40.60    7.20
  -4  -8   5   38.40    4.80
   3   8  -5  160.28   13.40
   3   8  -5  171.58   14.70
  -3  -8   5  194.48   12.40
  -3  -8   5  140.79   12.40
  -3  -8   5  196.88   13.50
  -3  -8   5  168.88   12.80
   2   8  -5    9.80    3.80
   2   8  -5    7.80    2.60
  -2  -8   5   12.30    3.00
  -2  -8   5    8.00    3.10
  -2  -8   5    5.10    2.30
  -2  -8   5   10.60    3.30
  -2  -8   5    5.90    2.30
   1   8  -5  174.58   14.10
   1   8  -5  169.68   12.90
  -1  -8   5  175.68   12.00
  -1  -8   5  157.78   12.10
  -1  -8   5  162.58   14.10
  -1  -8   5  179.68   13.70
  -1  -8   5  162.48   13.10
   0   8  -5    9.60    2.10
   0   8  -5   10.90    3.60
   0   8  -5    9.00    2.30
   0   8  -5    7.60    2.90
   0  -8   5   12.30    3.80
   0  -8   5    6.30    2.20
   0  -8   5    4.40    2.60
   0  -8   5    8.70    3.30
  -1   8  -5  220.28   18.90
  -1   8  -5  199.98   15.10
  -1   8  -5  222.18   15.90
  -1   8  -5  203.28   14.40
   1  -8   5  206.38   16.70
   1  -8   5  217.88   17.10
   1  -8   5  179.78   21.20
  -2   8  -5    9.30    3.30
  -2   8  -5    5.00    2.60
  -2   8  -5    3.10    2.90
   2  -8   5   12.90    3.30
   2  -8   5    8.60    3.60
   2  -8   5    4.50    5.80
   2  -8   5    9.80    4.10
  -3   8  -5   63.69    7.00
  -3   8  -5   56.69    7.60
  -3   8  -5   62.29    8.30
  -3   8  -5   58.79    4.30
  -3   8  -5   57.19    4.20
   3  -8   5   54.99   11.90
   3  -8   5   54.49    6.60
   3  -8   5   51.99    8.00
   3  -8   5   61.49    9.40
  -4   8  -5   12.10    4.60
  -4   8  -5   10.20    1.90
  -4   8  -5    8.90    4.20
  -4   8  -5    8.60    1.90
   4  -8   5    7.60    4.60
   4  -8   5    6.60    3.90
  -5   8  -5   24.80    3.70
  -5   8  -5   31.00    6.70
  -5   8  -5   26.70    3.40
   5  -8   5   26.30    6.70
   5  -8   5   22.20    5.70
  -6   8  -5    0.00    3.60
  -6   8  -5    0.10    2.00
  -6   8  -5   -2.70    3.60
   6  -8   5   -1.40    4.30
   6  -8   5   -0.70    3.90
   6   7  -5   65.29   17.00
  -6  -7   5   62.69    6.00
  -6  -7   5   55.89    4.50
  -6  -7   5   71.19    8.40
  -6  -7   5   79.39    7.60
  -6  -7   5   61.49    4.50
   5   7  -5    5.10    8.00
  -5  -7   5    2.20    1.30
  -5  -7   5   -2.50    2.00
  -5  -7   5    1.60    1.40
  -5  -7   5    0.30    2.80
  -5  -7   5   -2.10    1.80
   4   7  -5   99.29   17.30
   4   7  -5   65.39    5.30
   4   7  -5   72.39    5.60
   4   7  -5   64.29    8.00
  -4  -7   5   70.19    6.10
  -4  -7   5   77.99    8.00
  -4  -7   5   64.09    5.80
  -4  -7   5   79.29    6.70
  -4  -7   5   81.79    6.70
   3   7  -5   15.40    4.50
  -3  -7   5   25.10    3.90
  -3  -7   5   20.90    3.10
  -3  -7   5   20.80    3.40
  -3  -7   5   19.20    3.30
  -3  -7   5   20.20    3.60
  -3  -7   5   26.60    4.60
   2   7  -5   27.40    4.10
   2   7  -5   28.50    5.50
   2   7  -5   25.70    3.70
  -2  -7   5   29.90    5.10
  -2  -7   5   28.30    4.10
  -2  -7   5   27.00    2.90
  -2  -7   5   20.40    3.30
  -2  -7   5   24.10    3.60
  -2  -7   5   28.60    4.20
   1   7  -5   43.00    4.80
   1   7  -5   37.00    6.10
   1   7  -5   44.70    4.60
  -1  -7   5   40.90    5.60
  -1  -7   5   37.50   10.40
  -1  -7   5   43.00    4.20
  -1  -7   5   40.30    5.10
  -1  -7   5   44.00    5.50
  -1  -7   5   39.00    4.10
   0   7  -5   43.00    4.40
   0   7  -5   45.20    5.00
   0   7  -5   55.99    5.70
   0   7  -5   49.20    4.30
   0   7  -5   52.49    6.20
   0  -7   5   49.50    6.10
   0  -7   5   49.50    4.70
   0  -7   5   47.20    6.20
   0  -7   5   46.20   10.10
   0  -7   5   51.49    5.80
  -1   7  -5   -0.50    1.90
  -1   7  -5   -2.80    1.40
  -1   7  -5   -0.20    2.00
  -1   7  -5    3.30    2.50
   1  -7   5   -1.30    3.90
   1  -7   5    2.50    1.90
   1  -7   5    1.60    2.70
   1  -7   5    2.30    2.60
   1  -7   5    2.30    2.70
  -2   7  -5  141.29   11.30
  -2   7  -5  137.79   11.50
  -2   7  -5  140.59   10.40
   2  -7   5  114.09   11.20
   2  -7   5  112.79   11.60
   2  -7   5  121.09   10.30
   2  -7   5  144.79   16.70
  -3   7  -5   -1.90    2.40
  -3   7  -5    0.50    2.80
  -3   7  -5   -0.10    0.80
  -3   7  -5    0.50    0.90
  -3   7  -5   -4.20    2.20
   3  -7   5    1.10    3.10
   3  -7   5   -5.00    2.10
   3  -7   5   -1.00    1.80
   3  -7   5   -5.40    3.60
  -4   7  -5   61.49    4.80
  -4   7  -5   58.59    7.70
  -4   7  -5   58.29    5.00
  -4   7  -5   61.19    8.60
   4  -7   5   50.99    7.90
   4  -7   5   62.89    8.60
   4  -7   5   45.90    6.60
  -5   7  -5   31.00    6.80
  -5   7  -5   29.60    6.40
  -5   7  -5   32.30    4.20
   5  -7   5   30.50    7.10
   5  -7   5   31.30    6.30
  -6   7  -5    8.30    5.20
  -6   7  -5    3.20    2.10
  -6   7  -5    6.00    3.80
   6  -7   5    9.30    4.60
   6  -7   5    0.90    3.70
   7   6  -5   18.60   11.40
   6   6  -5   -1.60    6.60
  -6  -6   5    0.50    2.50
  -6  -6   5    1.80    1.90
  -5  -6   5   44.00    6.60
  -5  -6   5   45.20    3.60
  -5  -6   5   42.50    3.50
  -5  -6   5   33.50    5.00
  -5  -6   5   38.80    4.50
   4   6  -5   12.00    7.80
   4   6  -5    8.80    1.40
   4   6  -5    9.80    1.30
   4   6  -5    6.60    3.30
  -4  -6   5   10.10    2.20
  -4  -6   5    9.00    2.40
  -4  -6   5    7.00    1.70
  -4  -6   5    7.40    1.50
  -4  -6   5    7.90    3.00
   3   6  -5  145.09   10.60
   3   6  -5  146.89   10.60
   3   6  -5  162.48   13.40
  -3  -6   5  159.08   12.40
  -3  -6   5  149.69   11.70
  -3  -6   5  158.58   11.00
  -3  -6   5  166.28   11.20
  -3  -6   5  165.18   11.20
   2   6  -5    8.70    2.30
   2   6  -5   10.80    3.80
  -2  -6   5    9.60    2.10
  -2  -6   5   12.10    2.90
  -2  -6   5    4.40    2.30
  -2  -6   5    9.00    2.30
  -2  -6   5    6.90    2.10
  -2  -6   5   10.50    1.80
  -2  -6   5   13.50    6.70
   1   6  -5  134.29    9.80
   1   6  -5  127.69    9.70
   1   6  -5  142.29   11.40
  -1  -6   5  131.29    9.50
  -1  -6   5  128.99    9.90
  -1  -6   5  125.99   10.10
  -1  -6   5  132.69   10.80
  -1  -6   5  123.99    9.20
  -1  -6   5  124.69   16.50
   0   6  -5   72.79    6.90
   0   6  -5   68.09    5.70
   0   6  -5   67.99    6.60
   0   6  -5   88.39    7.70
   0   6  -5   72.49    5.50
   0  -6   5   67.59    7.20
   0  -6   5   70.99    7.00
   0  -6   5   72.29    6.80
   0  -6   5   78.09   12.10
  -1   6  -5  115.29    9.10
  -1   6  -5  115.89    8.50
  -1   6  -5  120.59    9.60
  -1   6  -5  116.69    9.20
   1  -6   5  100.09    9.70
   1  -6   5  110.89   13.90
   1  -6   5  117.59    9.60
   1  -6   5  109.79    9.50
   1  -6   5  105.39    9.90
  -2   6  -5  102.69    9.40
  -2   6  -5  130.49    9.70
  -2   6  -5  107.09    7.80
  -2   6  -5  126.99    9.10
  -2   6  -5  117.69   10.00
   2  -6   5  106.79    9.70
   2  -6   5  127.49   14.80
   2  -6   5   99.59   10.00
   2  -6   5   95.69   10.20
   2  -6   5   96.49    8.90
  -3   6  -5   21.00    4.80
  -3   6  -5   17.00    2.00
  -3   6  -5   19.10    1.90
  -3   6  -5   20.10    3.90
  -3   6  -5   18.40    2.10
  -3   6  -5   20.60    4.50
   3  -6   5   18.00    4.70
   3  -6   5   17.30    5.00
   3  -6   5   23.60    4.10
   3  -6   5   20.70    4.40
  -4   6  -5  237.98   18.80
  -4   6  -5  248.58   16.50
  -4   6  -5  271.67   18.80
  -4   6  -5  249.28   19.00
  -4   6  -5  254.57   15.60
   4  -6   5  219.98   19.60
   4  -6   5  220.38   18.60
  -5   6  -5    1.40    0.80
  -5   6  -5    3.10    3.30
  -5   6  -5    2.10    1.60
  -5   6  -5   -1.00    3.40
   5  -6   5    2.20    3.50
   5  -6   5    0.30    3.10
  -6   6  -5  200.98   11.80
  -6   6  -5  184.48   13.80
  -6   6  -5  165.38   15.80
   6  -6   5  182.68   16.00
   6  -6   5  137.29   16.10
  -7   6  -5    2.10    2.50
  -7   6  -5    1.40    3.70
  -7   6  -5    7.40    6.60
  -7   6  -5    1.10    1.20
   7  -6   5    3.30    3.60
   7  -6   5   -3.10    3.30
   7   5  -5   13.00    9.70
  -7  -5   5   19.20    3.90
  -7  -5   5   17.20    2.90
  -7  -5   5   12.50    4.20
   6   5  -5   15.30    9.40
  -6  -5   5   18.90    3.00
  -6  -5   5   20.70    4.40
  -6  -5   5   15.90    4.10
  -5  -5   5  145.29   10.00
  -5  -5   5  128.89   11.60
  -5  -5   5  148.69   11.50
   4   5  -5   60.09   12.40
   4   5  -5   34.40    6.10
  -4  -5   5   42.50    3.50
  -4  -5   5   48.10    5.10
  -4  -5   5   42.30    5.50
  -4  -5   5   45.60    4.00
  -4  -5   5   43.10    5.00
  -4  -5   5   37.10    5.00
   3   5  -5  729.33   49.00
   3   5  -5  790.82   51.99
   3   5  -5  792.52   49.10
  -3  -5   5  793.72   49.40
  -3  -5   5  804.22   49.90
  -3  -5   5  812.72   50.59
  -3  -5   5  690.23   59.69
  -3  -5   5  779.82   50.39
  -3  -5   5  800.02   49.30
  -3  -5   5  887.41   49.60
   2   5  -5   -0.10    2.40
   2   5  -5   -1.10    1.10
  -2  -5   5   -0.10    1.30
  -2  -5   5    0.50    1.10
  -2  -5   5    0.00    1.30
  -2  -5   5    1.00    1.30
  -2  -5   5   -1.00    4.10
  -2  -5   5    0.00    1.00
   1   5  -5  989.10   65.89
   1   5  -5 1084.69   64.39
   1   5  -5  973.80   64.39
  -1  -5   5 1119.29   63.49
  -1  -5   5 1070.39   64.39
  -1  -5   5 1050.99   64.79
  -1  -5   5  993.40   63.89
  -1  -5   5  962.60   72.29
  -1  -5   5  994.00   64.49
  -1  -5   5 1028.30   65.19
   0   5  -5    5.90    1.30
   0   5  -5    8.00    2.10
   0   5  -5    8.30    2.20
   0   5  -5    4.40    1.80
   0   5  -5    4.90    2.50
   0   5  -5    3.90    1.40
   0  -5   5    1.30    3.90
   0  -5   5    4.20    1.80
   0  -5   5    7.60    2.60
   0  -5   5    3.60    2.00
  -1   5  -5  851.91   55.79
  -1   5  -5  907.71   56.29
  -1   5  -5  930.71   56.19
  -1   5  -5  887.11   55.29
   1  -5   5  872.21   55.69
   1  -5   5  838.52   56.19
   1  -5   5  844.62   56.79
   1  -5   5  847.62   56.79
   1  -5   5  964.60   62.69
  -2   5  -5   10.90    3.10
  -2   5  -5   15.40    3.00
  -2   5  -5   12.00    3.10
  -2   5  -5   16.60    2.20
   2  -5   5   17.10    3.20
   2  -5   5   13.00    3.60
   2  -5   5   13.70    3.50
   2  -5   5   11.50    3.20
  -3   5  -5  308.37   21.70
  -3   5  -5  312.67   21.90
  -3   5  -5  313.37   21.60
  -3   5  -5  335.57   19.70
  -3   5  -5  338.27   21.70
  -3   5  -5  296.07   19.50
   3  -5   5  285.07   22.50
   3  -5   5  279.57   20.90
   3  -5   5  308.77   22.40
   3  -5   5  269.17   21.60
  -4   5  -5    8.70    3.30
  -4   5  -5   14.70    1.90
  -4   5  -5   13.80    4.00
  -4   5  -5    8.50    2.00
  -4   5  -5    8.20    3.50
   4  -5   5   11.80    4.20
   4  -5   5   11.00    3.40
   4  -5   5   10.90    3.70
   4  -5   5   12.00    3.50
  -5   5  -5  165.98   13.60
  -5   5  -5  167.68   13.90
  -5   5  -5  160.68   11.60
   5  -5   5  128.59   14.10
   5  -5   5  148.79   13.50
   5  -5   5  168.28   12.90
  -6   5  -5   -2.40    1.60
  -6   5  -5    4.40    3.50
   6  -5   5    0.80    3.70
  -7   5  -5   95.49    8.80
  -7   5  -5   92.59   10.50
   7  -5   5   96.59   10.70
   7  -5   5   68.39   11.40
  -8   5  -5    8.60    2.10
  -8   5  -5    1.20    2.90
  -8   5  -5    3.00    4.00
  -8   5  -5    7.70    4.60
   8  -5   5    7.60    5.60
   8  -5   5    8.50    4.80
   8   4  -5   64.09   17.30
  -8  -4   5   41.20    7.50
  -8  -4   5   47.70    6.40
  -8  -4   5   62.59    5.90
   7   4  -5    2.60    6.30
  -7  -4   5    6.50    2.70
   6   4  -5  215.48   24.60
  -6  -4   5  166.28   13.60
  -6  -4   5  158.78   14.10
  -6  -4   5  185.28   12.50
   5   4  -5    3.80    5.70
  -5  -4   5    1.20    2.10
  -5  -4   5    1.80    2.30
  -5  -4   5    1.60    1.90
  -5  -4   5    2.00    1.20
   4   4  -5  197.08   17.30
   4   4  -5  271.87   25.40
  -4  -4   5  211.48   16.20
  -4  -4   5  220.08   15.80
  -4  -4   5  238.48   16.50
  -4  -4   5  227.58   16.80
  -4  -4   5  247.68   15.00
   3   4  -5   15.90    4.00
   3   4  -5   21.60    7.80
  -3  -4   5   12.10    1.80
  -3  -4   5   15.70    1.80
  -3  -4   5   14.30    2.40
  -3  -4   5   15.00    2.90
  -3  -4   5   12.80    1.60
  -3  -4   5   13.00    2.40
  -3  -4   5   13.90    3.20
  -3  -4   5   16.70    7.00
   2   4  -5  191.08   12.10
   2   4  -5  178.18   13.30
   2   4  -5  166.98   12.10
   2   4  -5  149.88   14.10
  -2  -4   5  178.08   12.70
  -2  -4   5  176.18   19.80
  -2  -4   5  183.48   12.10
  -2  -4   5  185.98   12.90
  -2  -4   5  199.68   12.50
  -2  -4   5  197.68   12.40
  -2  -4   5  207.08   12.40
   1   4  -5    5.30    1.50
   1   4  -5    7.70    1.60
   1   4  -5    6.50    2.00
   1   4  -5    5.30    2.60
  -1  -4   5    8.80    1.90
  -1  -4   5    9.10    4.90
  -1  -4   5    8.50    1.10
  -1  -4   5    8.50    2.20
  -1  -4   5    7.00    2.00
  -1  -4   5    6.40    1.70
   0   4  -5  644.14   40.40
   0   4  -5  657.23   41.30
   0   4  -5  618.64   40.50
   0   4  -5  670.63   41.20
   0   4  -5  652.63   41.20
   0   4  -5  691.93   42.20
   0  -4   5  612.54   41.70
   0  -4   5  609.94   41.60
   0  -4   5  683.43   47.80
   0  -4   5  651.83   41.50
   0  -4   5  666.63   41.00
  -1   4  -5    0.10    1.10
  -1   4  -5    1.40    1.40
  -1   4  -5    1.80    1.30
  -1   4  -5   -0.10    1.40
  -1   4  -5    0.70    1.40
   1  -4   5    1.30    1.70
   1  -4   5    2.20    1.50
   1  -4   5    1.50    1.90
   1  -4   5   -1.20    1.50
  -2   4  -5   71.39    5.00
  -2   4  -5   66.09    6.20
  -2   4  -5   59.29    6.00
  -2   4  -5   63.09    6.00
  -2   4  -5   64.79    5.80
   2  -4   5   49.90    6.30
   2  -4   5   56.79    6.10
   2  -4   5   58.79    6.20
  -3   4  -5    2.30    2.40
  -3   4  -5   -1.10    1.80
  -3   4  -5    4.00    2.20
  -3   4  -5    1.20    2.00
  -3   4  -5    1.10    1.10
  -3   4  -5    1.30    0.80
   3  -4   5    1.40    2.40
   3  -4   5    0.00    1.80
   3  -4   5    1.60    2.00
   3  -4   5   -0.50    1.80
  -4   4  -5   25.20    3.10
  -4   4  -5   26.60    4.80
  -4   4  -5   30.70    5.20
  -4   4  -5   25.90    5.00
  -4   4  -5   20.90    4.80
   4  -4   5   26.90    4.30
   4  -4   5   22.00    4.50
   4  -4   5   21.30    5.30
   4  -4   5   20.90    4.50
  -5   4  -5    5.30    2.20
  -5   4  -5    6.00    3.20
  -5   4  -5   10.70    3.60
  -5   4  -5    8.60    3.60
  -5   4  -5    4.30    3.30
   5  -4   5    5.30    3.30
   5  -4   5    7.30    4.00
   5  -4   5   13.80    3.30
  -6   4  -5   46.10    7.10
  -6   4  -5   48.70    5.50
  -6   4  -5   38.30    6.90
   6  -4   5   35.70    7.50
   6  -4   5   39.00    6.80
  -7   4  -5   -0.10    3.20
  -7   4  -5   -0.50    2.10
   7  -4   5   -4.20    2.70
  -8   4  -5    4.90    3.30
  -8   4  -5    2.10    3.90
  -8   4  -5   -0.70    3.40
   8  -4   5    7.80    4.30
   8   3  -5   -0.90    6.60
  -8  -3   5    2.40    2.50
  -8  -3   5   -4.70    2.80
  -8  -3   5    4.10    2.00
   7   3  -5  104.29   18.00
  -7  -3   5   92.39    9.50
  -7  -3   5   80.89    7.20
   6   3  -5    0.80    5.40
  -6  -3   5    1.00    1.30
  -6  -3   5    1.00    2.60
  -6  -3   5    1.70    1.70
   5   3  -5  123.39   16.80
  -5  -3   5  112.49    7.80
  -5  -3   5  104.89    9.60
  -5  -3   5  116.09    9.60
  -5  -3   5  100.29    8.40
   4   3  -5    2.10    2.30
   4   3  -5   -1.50    4.20
  -4  -3   5    1.20    0.80
  -4  -3   5    0.10    1.70
  -4  -3   5   -0.80    1.60
  -4  -3   5    0.60    3.50
  -4  -3   5    2.40    1.10
  -4  -3   5    1.20    1.80
   3   3  -5  193.88   16.00
   3   3  -5  260.67   22.80
   3   3  -5  207.58   15.40
  -3  -3   5  177.58   21.40
  -3  -3   5  196.08   14.80
  -3  -3   5  209.68   15.40
  -3  -3   5  239.18   13.70
  -3  -3   5  219.28   15.00
  -3  -3   5  217.48   13.90
   2   3  -5    8.00    2.80
   2   3  -5   10.80    2.60
   2   3  -5    8.70    1.10
   2   3  -5   13.20    5.70
   2   3  -5    9.10    1.10
  -2  -3   5   12.50    1.40
  -2  -3   5    7.90    1.60
  -2  -3   5    7.90    2.10
  -2  -3   5    7.90    1.20
  -2  -3   5    9.00    2.50
  -2  -3   5    9.00    5.00
  -2  -3   5    9.00    1.40
  -2  -3   5    8.80    1.50
   1   3  -5   85.29    7.10
   1   3  -5   98.19    6.90
   1   3  -5   91.09    8.00
  -1  -3   5   85.89    6.50
  -1  -3   5   92.39    6.60
  -1  -3   5   79.39    6.60
  -1  -3   5   85.59    6.10
  -1  -3   5   92.99    6.80
  -1  -3   5  101.19   12.40
  -1  -3   5   90.39    6.20
   0   3  -5   60.59    5.80
   0   3  -5   60.39    4.20
   0   3  -5   61.09    4.90
   0   3  -5   57.89    5.00
   0   3  -5   60.69    4.20
   0   3  -5   58.29    5.00
   0  -3   5   61.59    5.20
   0  -3   5   57.69    5.20
   0  -3   5   67.39    9.40
   0  -3   5   64.49    4.90
   0  -3   5   57.49    5.30
  -1   3  -5   40.20    4.10
  -1   3  -5   36.40    3.70
  -1   3  -5   43.30    3.70
  -1   3  -5   38.70    4.10
  -1   3  -5   43.50    3.80
   1  -3   5   36.50    4.30
   1  -3   5   39.10    4.30
   1  -3   5   41.90    4.40
   1  -3   5   39.90    4.00
  -2   3  -5  285.17   16.90
  -2   3  -5  287.37   18.80
  -2   3  -5  262.87   18.50
  -2   3  -5  302.77   17.70
  -2   3  -5  274.17   18.80
  -2   3  -5  273.47   18.70
   2  -3   5  236.68   20.20
   2  -3   5  276.37   18.50
   2  -3   5  245.48   18.70
   2  -3   5  254.27   18.90
  -3   3  -5  192.48   14.40
  -3   3  -5  210.58   14.30
  -3   3  -5  189.38   14.10
  -3   3  -5  197.88   14.20
  -3   3  -5  187.58   12.50
   3  -3   5  168.68   14.70
   3  -3   5  180.68   14.30
   3  -3   5  195.78   14.30
   3  -3   5  191.78   13.80
  -4   3  -5  549.54   36.10
  -4   3  -5  570.54   35.90
  -4   3  -5  562.84   36.50
  -4   3  -5  536.45   34.30
  -4   3  -5  557.24   36.00
   4  -3   5  534.25   36.00
   4  -3   5  517.75   36.10
   4  -3   5  467.45   36.70
   4  -3   5  540.85   35.40
  -5   3  -5   34.40    4.00
  -5   3  -5   32.50    5.60
  -5   3  -5   42.60    6.60
  -5   3  -5   36.80    6.00
  -5   3  -5   33.90    6.10
   5  -3   5   26.40    6.10
   5  -3   5   35.70    6.00
   5  -3   5   35.30    5.80
   5  -3   5   26.90    4.70
  -6   3  -5  349.67   24.20
  -6   3  -5  335.97   24.40
  -6   3  -5  347.87   22.90
   6  -3   5  326.67   25.90
   6  -3   5  322.57   23.40
   6  -3   5  294.67   25.20
  -7   3  -5   -1.00    2.90
  -7   3  -5   -1.30    2.40
  -7   3  -5   -1.50    2.10
   7  -3   5    0.20    3.30
  -8   3  -5  156.28   15.20
  -8   3  -5  181.28   14.60
  -8   3  -5  188.28   16.00
   8  -3   5  169.78   17.90
   8  -3   5  171.88   15.60
  -9   3  -5   -2.10    3.10
  -9   3  -5    4.10    3.70
  -9   3  -5    0.40    2.80
   9  -3   5   -2.10    3.80
   9  -3   5    0.90    4.20
   8   2  -5   -4.40    5.40
  -8  -2   5    1.30    2.10
  -8  -2   5    1.30    1.10
  -8  -2   5    1.30    1.10
  -8  -2   5    0.40    2.90
  -8  -2   5    2.10    2.30
   7   2  -5    2.20    5.40
  -7  -2   5    4.10    1.20
  -7  -2   5    5.20    1.20
  -7  -2   5    3.60    2.10
  -7  -2   5    4.90    3.00
  -7  -2   5    4.10    2.30
   6   2  -5   22.40    9.70
  -6  -2   5   12.40    4.00
  -6  -2   5   17.80    2.90
  -6  -2   5   22.10    1.70
  -6  -2   5   21.80    1.70
   5   2  -5   81.39   13.30
  -5  -2   5   58.19    7.10
  -5  -2   5   75.49    7.10
  -5  -2   5   78.99    7.60
  -5  -2   5   70.59    6.00
  -5  -2   5   74.59    5.50
   4   2  -5   78.19   12.00
  -4  -2   5   56.39    4.10
  -4  -2   5   56.79    4.30
  -4  -2   5   53.79   10.80
  -4  -2   5   72.69    6.00
  -4  -2   5   58.19    6.10
  -4  -2   5   54.39    5.90
   3   2  -5  379.06   28.20
   3   2  -5  416.16   27.70
  -3  -2   5  425.36   27.30
  -3  -2   5  448.26   27.80
  -3  -2   5  409.16   35.30
  -3  -2   5  419.06   27.30
   2   2  -5   25.80    3.60
   2   2  -5   34.50    7.40
   2   2  -5   21.10    4.00
  -2  -2   5   29.40    1.90
  -2  -2   5   25.60    3.50
  -2  -2   5   23.00    2.90
  -2  -2   5   33.40    3.30
  -2  -2   5   27.30    7.80
  -2  -2   5   25.90    2.00
   1   2  -5  834.42   52.09
   1   2  -5  835.02   51.09
   1   2  -5  845.52   53.09
   1   2  -5  808.42   51.19
  -1  -2   5  779.82   51.29
  -1  -2   5  802.82   51.29
  -1  -2   5  867.31   51.79
  -1  -2   5  908.01   58.99
  -1  -2   5  813.12   51.29
  -1  -2   5  784.22   51.29
   0   2  -5  358.86   22.20
   0   2  -5  337.57   23.00
   0   2  -5  373.16   23.60
   0   2  -5  346.07   22.30
   0   2  -5  387.36   24.00
   0  -2   5  347.87   23.20
   0  -2   5  363.56   23.00
   0  -2   5  330.57   23.30
   0  -2   5  350.16   23.20
   0  -2   5  411.96   28.90
  -1   2  -5 1120.19   67.79
  -1   2  -5 1129.19   68.09
  -1   2  -5 1158.38   67.59
  -1   2  -5 1050.69   67.59
  -1   2  -5 1105.49   67.99
   1  -2   5  969.30   68.39
   1  -2   5 1079.79   67.89
   1  -2   5 1117.29   68.19
   1  -2   5 1051.59   68.19
  -2   2  -5  360.06   22.80
  -2   2  -5  351.56   21.30
  -2   2  -5  325.27   22.50
  -2   2  -5  362.96   23.00
  -2   2  -5  361.86   23.90
   2  -2   5  326.47   22.90
   2  -2   5  307.57   23.30
   2  -2   5  332.17   22.50
   2  -2   5  341.07   23.00
  -3   2  -5 1437.16   90.79
  -3   2  -5 1541.35   90.49
  -3   2  -5 1489.05   90.59
  -3   2  -5 1481.95   90.59
  -3   2  -5 1466.05   88.99
   3  -2   5 1414.36   90.59
   3  -2   5 1431.86   90.49
   3  -2   5 1420.86   90.09
   3  -2   5 1259.47   91.09
  -4   2  -5  159.88   11.90
  -4   2  -5  153.98   11.70
  -4   2  -5  150.18   10.40
  -4   2  -5  146.49   12.20
  -4   2  -5  140.89   11.60
   4  -2   5  120.69   12.20
   4  -2   5  151.48   11.90
   4  -2   5  135.89   11.20
   4  -2   5  146.69   11.90
  -5   2  -5  853.91   52.69
  -5   2  -5  831.92   51.09
  -5   2  -5  810.62   51.49
  -5   2  -5  803.52   51.29
   5  -2   5  767.72   51.59
   5  -2   5  651.83   52.09
   5  -2   5  799.12   50.89
   5  -2   5  773.32   51.39
  -6   2  -5   95.19    9.40
  -6   2  -5   90.69    9.50
  -6   2  -5  111.59    9.80
  -6   2  -5   89.59    8.40
   6  -2   5  101.79    9.80
   6  -2   5   92.19    8.70
   6  -2   5   94.69   10.50
  -7   2  -5  182.88   15.60
  -7   2  -5  195.88   14.80
  -7   2  -5  177.18   15.70
   7  -2   5  198.68   18.20
   7  -2   5  188.28   16.00
  -8   2  -5   91.49   10.20
  -8   2  -5   90.69    9.30
  -8   2  -5   81.99    9.90
   8  -2   5   94.69   21.10
   8  -2   5   83.79   10.10
  -9   2  -5   33.70    6.10
  -9   2  -5   25.30    6.20
  -9   2  -5   31.60    6.90
   9  -2   5   17.40    5.80
   9  -2   5   32.50    8.30
   8   1  -5  172.88   23.10
   8   1  -5  171.18   10.80
  -8  -1   5  165.58   11.20
  -8  -1   5  153.58   12.50
  -8  -1   5  162.98   11.40
  -8  -1   5  170.08   14.90
  -8  -1   5  131.69   12.80
   7   1  -5   16.80    2.00
  -7  -1   5   13.00    3.60
  -7  -1   5   21.50    2.70
  -7  -1   5   19.00    3.50
  -7  -1   5   18.10    2.40
  -7  -1   5   18.40    4.70
   6   1  -5  733.43   54.69
  -6  -1   5  637.04   45.10
  -6  -1   5  717.83   42.60
  -6  -1   5  588.14   43.60
  -6  -1   5  685.23   43.40
  -6  -1   5  722.43   42.40
   5   1  -5   10.60    6.20
  -5  -1   5    7.80    0.90
  -5  -1   5    7.20    1.00
  -5  -1   5   13.30    3.20
  -5  -1   5    4.50    1.60
  -5  -1   5    5.60    1.50
  -5  -1   5    5.60    2.30
  -5  -1   5    6.60    2.80
   4   1  -5 1447.16   87.39
   4   1  -5 1165.78   79.09
  -4  -1   5 1327.47   77.49
  -4  -1   5 1281.57   78.89
  -4  -1   5 1214.18   77.59
  -4  -1   5 1245.18   79.39
  -4  -1   5 1079.79   86.59
  -4  -1   5 1288.27   79.59
   3   1  -5   68.99    7.20
   3   1  -5   89.99   11.50
   3   1  -5   78.49    6.90
  -3  -1   5   85.59    6.60
  -3  -1   5   82.69    6.80
  -3  -1   5   80.79    7.00
  -3  -1   5   65.19   11.20
   2   1  -5 2574.94  155.88
  -2  -1   5 2479.45  155.48
  -2  -1   5 2512.75  155.48
  -2  -1   5 2546.15  162.98
  -2  -1   5 2474.55  155.88
   1   1  -5    8.50    1.10
   1   1  -5    7.60    1.00
   1   1  -5    5.20    1.70
   1   1  -5    4.00    2.00
  -1  -1   5    6.50    1.90
  -1  -1   5    5.90    3.90
  -1  -1   5    5.60    1.50
  -1  -1   5    3.80    1.00
  -1  -1   5    6.50    1.10
  -1  -1   5    4.50    0.90
  -1  -1   5    8.40    1.10
   0   1  -5 2230.78  136.69
   0   1  -5 2202.78  136.29
   0  -1   5 1939.61  136.59
   0  -1   5 2243.58  136.49
   0  -1   5 2039.20  136.29
   0  -1   5 2214.08  136.39
   0  -1   5 2348.27  135.89
   0  -1   5 2485.75  142.09
  -1   1  -5   10.40    1.90
  -1   1  -5   10.40    2.00
  -1   1  -5    8.90    1.70
  -1   1  -5    8.80    2.00
   1  -1   5    9.00    2.30
   1  -1   5    8.60    1.90
   1  -1   5   10.40    2.10
   1  -1   5   11.10    2.00
   1  -1   5    9.30    1.10
  -2   1  -5 1534.15   90.69
  -2   1  -5 1398.06   90.79
  -2   1  -5 1461.45   90.39
  -2   1  -5 1586.44   89.29
  -2   1  -5 1421.36   90.19
   2  -1   5 1534.05   90.39
   2  -1   5 1233.28   90.89
   2  -1   5 1397.26   89.39
   2  -1   5 1400.76   90.49
   2  -1   5 1516.75   90.69
  -3   1  -5  121.49    9.00
  -3   1  -5  117.99    7.90
  -3   1  -5  131.29    9.50
  -3   1  -5  107.59    9.40
  -3   1  -5  105.69    8.80
   3  -1   5   96.09    9.60
   3  -1   5  117.59    8.90
   3  -1   5  101.59    7.90
   3  -1   5  111.09    9.10
   3  -1   5  105.69    8.90
  -4   1  -5  678.83   42.30
  -4   1  -5  642.74   42.20
  -4   1  -5  627.24   43.10
  -4   1  -5  668.43   41.20
  -4   1  -5  703.63   42.70
   4  -1   5  679.13   42.20
   4  -1   5  640.44   42.00
   4  -1   5  639.84   42.40
   4  -1   5  552.54   43.00
   4  -1   5  644.44   42.40
  -5   1  -5    3.40    2.60
  -5   1  -5   -0.70    2.00
  -5   1  -5    0.60    1.70
  -5   1  -5    1.30    2.30
  -5   1  -5    5.20    2.80
   5  -1   5   -2.00    1.70
   5  -1   5    0.60    1.60
   5  -1   5    2.20    2.20
   5  -1   5    4.30    2.40
  -6   1  -5  136.69   13.60
  -6   1  -5  159.68   13.30
  -6   1  -5  166.18   12.40
  -6   1  -5  168.68   13.50
  -6   1  -5  159.48   13.10
   6  -1   5  151.98   12.60
   6  -1   5  150.08   13.10
   6  -1   5  166.08   13.40
   6  -1   5  157.98   15.10
  -7   1  -5   -3.40    2.50
  -7   1  -5   -2.40    2.80
  -7   1  -5    0.60    2.50
  -7   1  -5    2.20    2.80
   7  -1   5    0.00    4.10
   7  -1   5   -0.50    3.00
  -8   1  -5   57.69   10.40
  -8   1  -5   68.69    7.80
   8  -1   5   64.59   11.10
   8  -1   5   66.89    9.20
  -9   1  -5    4.70    3.90
  -9   1  -5   -4.30    2.80
  -9   1  -5   -1.70    2.60
   9  -1   5    2.40    4.50
   9  -1   5    0.90    3.80
   9   0  -5   78.19   16.90
  -9   0   5   74.49    7.20
  -9   0   5   68.19   10.30
  -9   0   5   93.99    8.70
   8   0  -5   14.40   14.20
   8   0  -5   16.50    2.60
  -8   0   5   11.40    3.10
  -8   0   5   12.20    2.70
  -8   0   5   13.00    3.60
  -8   0   5   12.70    3.70
  -8   0   5    4.70    4.20
   7   0  -5  137.29    9.50
   7   0  -5  141.29   19.30
  -7   0   5  116.89   10.70
  -7   0   5  135.39    9.80
  -7   0   5  134.59   10.70
  -7   0   5  121.49   12.20
  -7   0   5  145.89   11.60
   6   0  -5   62.79   11.80
   6   0  -5   53.39    4.50
  -6   0   5   60.69    4.60
  -6   0   5   54.79    5.40
  -6   0   5   49.40    7.10
  -6   0   5   47.00    5.40
  -6   0   5   57.49    4.70
   5   0  -5  272.57   16.70
   5   0  -5  278.57   17.00
   5   0  -5  291.87   26.00
  -5   0   5  262.37   19.50
  -5   0   5  256.97   18.60
  -5   0   5  266.67   17.90
  -5   0   5  281.57   17.10
  -5   0   5  234.38   17.80
  -5   0   5  260.27   17.20
  -5   0   5  268.57   19.50
   4   0  -5    1.90    1.80
   4   0  -5    3.80    4.20
  -4   0   5    2.30    1.20
  -4   0   5    3.40    3.80
  -4   0   5    1.60    1.60
  -4   0   5    1.90    2.00
  -4   0   5    3.20    0.80
  -4   0   5    1.70    2.10
  -4   0   5    3.70    0.80
  -4   0   5    1.80    1.00
   3   0  -5  493.35   31.80
   3   0  -5  521.05   39.90
   3   0  -5  412.66   32.00
  -3   0   5  519.55   32.10
  -3   0   5  470.85   38.00
  -3   0   5  505.55   30.10
  -3   0   5  534.75   30.10
  -3   0   5  512.85   31.50
  -3   0   5  431.86   30.20
  -3   0   5  475.25   30.40
   2   0  -5    0.80    1.50
   2   0  -5    1.30    1.30
   2   0  -5    2.40    2.90
  -2   0   5    1.30    0.40
  -2   0   5    1.10    0.50
  -2   0   5    0.80    0.40
  -2   0   5    2.00    3.10
  -2   0   5    3.70    1.60
  -2   0   5    1.90    1.10
   1   0  -5  206.68   13.40
   1   0  -5  215.88   13.60
   1   0  -5  201.58   14.60
   1   0  -5  202.48   14.00
  -1   0   5  212.18   13.60
  -1   0   5  207.18   13.30
  -1   0   5  210.18   13.20
  -1   0   5  199.48   14.20
  -1   0   5  226.88   21.40
   0   0  -5   69.49    5.60
   0   0  -5   69.59    5.40
   0   0  -5   80.39    5.00
   0   0  -5   68.79    5.10
   0   0  -5   86.79    5.80
   0   0  -5   93.89    6.30
   0   0   5   68.09    5.40
   0   0   5   68.59    5.40
   0   0   5   81.99    5.30
   0   0   5   59.69    5.70
   0   0   5   73.79    5.50
  -1   0  -5 1218.18   76.29
  -1   0  -5 1360.26   77.09
  -1   0  -5 1168.08   77.19
  -1   0  -5 1336.57   77.29
   1   0   5 1202.78   76.99
   1   0   5 1041.20   77.39
   1   0   5 1294.07   77.09
   1   0   5 1263.97   76.39
   1   0   5 1255.77   77.09
  -2   0  -5  143.59   10.20
  -2   0  -5  128.59   10.60
  -2   0  -5  150.28    9.40
  -2   0  -5  138.99   10.00
  -2   0  -5  150.68   10.60
   2   0   5  146.39   10.30
   2   0   5  139.79    9.60
   2   0   5  136.39   10.30
   2   0   5  130.29   10.30
  -3   0  -5   51.89    5.30
  -3   0  -5   52.39    6.00
  -3   0  -5   68.69    6.00
  -3   0  -5   61.79    4.80
   3   0   5   55.69    5.60
   3   0   5   60.99    6.10
   3   0   5   71.99    5.90
   3   0   5   58.59    5.00
  -4   0  -5   46.50    5.40
  -4   0  -5   47.30    5.20
  -4   0  -5   50.99    5.50
  -4   0  -5   51.09    4.50
  -4   0  -5   43.50    5.80
   4   0   5   41.00    5.00
   4   0   5   44.60    5.00
   4   0   5   43.70    4.50
   4   0   5   45.00    5.30
   4   0   5   42.10    6.90
  -5   0  -5   14.40    4.10
  -5   0  -5   15.80    3.70
  -5   0  -5   16.60    3.90
  -5   0  -5   15.00    3.50
  -5   0  -5   19.20    3.30
   5   0   5   13.60    3.00
   5   0   5   19.30    3.80
   5   0   5   15.70    3.90
   5   0   5   18.80    3.60
   5   0   5   12.80    4.40
  -6   0  -5  339.97   23.70
  -6   0  -5  324.07   25.10
  -6   0  -5  349.57   24.00
  -6   0  -5  333.47   24.00
  -6   0  -5  348.47   23.10
   6   0   5  321.37   23.40
   6   0   5  295.37   22.90
   6   0   5  359.86   26.40
   6   0   5  344.57   24.00
   6   0   5  319.67   23.80
  -7   0  -5   -0.60    2.50
  -7   0  -5    2.90    3.10
  -7   0  -5    0.00    2.40
  -7   0  -5    0.40    2.80
   7   0   5    1.40    4.10
   7   0   5    0.40    2.90
   7   0   5    0.40    2.40
  -8   0  -5  219.38   17.40
  -8   0  -5  241.58   17.20
  -8   0  -5  187.28   18.10
   8   0   5  197.68   19.40
   8   0   5  214.28   17.60
  -9   0  -5   10.10    4.30
  -9   0  -5    7.60    4.20
  -9   0  -5    9.20    4.40
   9   0   5    4.60    4.50
   9   0   5    4.10    4.00
   9  -1  -5    4.70    7.50
  -9   1   5    4.60    4.30
  -9   1   5    6.10    3.30
  -9   1   5    0.50    1.90
  -9   1   5    1.10    2.40
   8  -1  -5   31.20   10.90
  -8   1   5   36.20    5.90
  -8   1   5   33.30    4.80
  -8   1   5   38.70    4.50
  -8   1   5   41.20    7.20
  -8   1   5   33.50    5.50
   7  -1  -5   24.90    9.60
  -7   1   5   29.00    4.70
  -7   1   5   25.00    3.80
  -7   1   5   26.80    3.50
  -7   1   5   22.50    4.10
  -7   1   5   18.90    5.10
   6  -1  -5   79.19   13.50
  -6   1   5   74.19    7.30
  -6   1   5   86.79    7.60
  -6   1   5   79.99    8.80
  -6   1   5   86.39    6.50
  -6   1   5   80.49    7.50
  -6   1   5   91.79    6.90
   5  -1  -5    4.70    4.60
   5  -1  -5    5.80    2.20
   5  -1  -5   10.40    1.40
  -5   1   5    8.20    2.30
  -5   1   5    8.50    3.00
  -5   1   5    9.80    1.80
  -5   1   5    7.30    1.80
  -5   1   5    9.60    2.10
  -5   1   5    8.70    3.80
  -5   1   5    8.70    2.50
   4  -1  -5   39.20    3.00
   4  -1  -5   41.80    8.00
   4  -1  -5   33.40    4.70
   4  -1  -5   42.10    3.40
  -4   1   5   41.10    4.20
  -4   1   5   42.60    4.10
  -4   1   5   39.60    4.90
  -4   1   5   43.20    3.50
  -4   1   5   33.20    3.60
  -4   1   5   29.00    8.30
   3  -1  -5   40.20    3.10
   3  -1  -5   43.40    4.40
   3  -1  -5   43.80    3.30
   3  -1  -5   52.79    7.90
  -3   1   5   38.30    7.60
  -3   1   5   40.50    3.40
  -3   1   5   46.30    4.10
  -3   1   5   43.40    3.30
  -3   1   5   38.20    4.50
  -3   1   5   42.30    3.90
  -3   1   5   39.50    3.30
   2  -1  -5  371.56   23.40
   2  -1  -5  340.37   23.50
   2  -1  -5  314.37   23.90
   2  -1  -5  377.36   22.70
  -2   1   5  372.66   23.40
  -2   1   5  362.26   22.70
  -2   1   5  337.17   23.20
  -2   1   5  356.46   22.80
  -2   1   5  347.37   23.70
  -2   1   5  422.06   22.70
   1  -1  -5  101.69    7.70
   1  -1  -5   94.39    7.10
  -1   1   5  100.59    7.40
  -1   1   5   94.09    6.60
  -1   1   5   98.59    6.70
  -1   1   5   88.19    7.20
  -1   1   5  113.19   11.40
  -1   1   5   95.39    6.50
   0  -1  -5  467.95   34.70
   0  -1  -5  566.74   34.40
   0  -1  -5  558.04   34.70
   0  -1  -5  574.54   35.10
   0  -1  -5  550.24   34.80
   0   1   5  532.25   35.60
   0   1   5  547.75   34.60
   0   1   5  594.84   34.70
   0   1   5  556.54   34.70
   0   1   5  559.84   34.70
  -1  -1  -5  909.91   61.59
  -1  -1  -5  938.51   63.09
  -1  -1  -5 1018.60   62.09
  -1  -1  -5  992.10   61.49
  -1  -1  -5  994.40   61.79
   1   1   5 1011.30   61.89
   1   1   5 1018.00   61.89
   1   1   5  960.00   61.79
   1   1   5  989.60   63.09
   1   1   5 1063.29   61.59
  -2  -1  -5   61.59    5.60
  -2  -1  -5   61.99    5.20
  -2  -1  -5   56.49    5.80
  -2  -1  -5   67.29    5.50
   2   1   5   62.19    4.90
   2   1   5   59.09    5.40
   2   1   5   58.19    5.40
   2   1   5   63.79    6.60
   2   1   5   61.09    5.40
  -3  -1  -5  854.31   53.09
  -3  -1  -5  874.61   52.59
  -3  -1  -5  847.22   53.59
  -3  -1  -5  734.33   53.99
  -3  -1  -5  887.51   53.29
   3   1   5  859.31   53.29
   3   1   5  812.22   52.69
   3   1   5  803.72   53.29
   3   1   5  824.22   54.99
   3   1   5  880.11   53.49
  -4  -1  -5   49.10    5.10
  -4  -1  -5   47.50    6.00
  -4  -1  -5   59.19    5.80
  -4  -1  -5   46.00    4.60
  -4  -1  -5   48.20    5.30
   4   1   5   44.40    5.00
   4   1   5   45.40    5.70
   4   1   5   45.90    5.70
   4   1   5   48.10    4.90
   4   1   5   46.90    6.50
  -5  -1  -5  434.86   29.30
  -5  -1  -5  438.86   28.90
  -5  -1  -5  454.55   29.00
  -5  -1  -5  398.06   30.10
  -5  -1  -5  429.36   28.20
   5   1   5  435.66   31.10
   5   1   5  416.76   28.50
   5   1   5  419.56   29.00
   5   1   5  401.76   28.60
  -6  -1  -5  290.47   19.90
  -6  -1  -5  277.97   20.20
  -6  -1  -5  300.47   19.50
  -6  -1  -5  279.17   19.90
  -6  -1  -5  234.98   20.80
   6   1   5  279.67   20.10
   6   1   5  263.17   20.00
   6   1   5  258.17   19.60
   6   1   5  248.38   19.30
   6   1   5  277.37   22.10
  -7  -1  -5   65.69    8.80
  -7  -1  -5   73.29    8.00
  -7  -1  -5   73.49    7.70
  -7  -1  -5   72.59    8.00
   7   1   5   59.99    7.10
   7   1   5   60.09    8.30
   7   1   5   66.69    7.80
   7   1   5   63.19   10.20
  -8  -1  -5   84.59    9.20
  -8  -1  -5   86.39    9.10
  -8  -1  -5   82.89    9.30
   8   1   5   80.29    9.30
   8   1   5   91.99   11.70
  -9  -1  -5   43.40    7.00
  -9  -1  -5   40.70    7.30
  -9  -1  -5   37.80    6.80
   9   1   5   38.40    8.50
   9   1   5   38.10    6.80
   9  -2  -5    3.60    2.10
   9  -2  -5    4.00    6.60
  -9   2   5    2.70    3.30
  -9   2   5   -3.10    2.20
  -9   2   5   -0.40    2.40
  -9   2   5   -2.50    3.20
   8  -2  -5   18.20    3.80
   8  -2  -5   27.60   10.30
  -8   2   5   34.40    4.90
  -8   2   5   31.80    5.60
  -8   2   5   30.70    4.50
  -8   2   5   29.10    6.70
  -8   2   5   25.30    5.30
   7  -2  -5    0.90    5.10
   7  -2  -5    3.40    2.00
  -7   2   5    3.00    2.30
  -7   2   5    2.90    2.00
  -7   2   5    2.20    2.50
  -7   2   5    2.50    2.70
  -7   2   5    5.50    3.30
   6  -2  -5  328.37   22.70
   6  -2  -5  337.67   30.30
  -6   2   5  335.17   22.80
  -6   2   5  349.77   24.90
  -6   2   5  349.47   23.70
  -6   2   5  346.47   22.50
  -6   2   5  328.67   23.40
  -6   2   5  349.17   23.20
   5  -2  -5   43.30    4.30
   5  -2  -5   38.60    3.50
   5  -2  -5   33.40    4.90
   5  -2  -5   42.90    8.80
  -5   2   5   42.60    4.50
  -5   2   5   47.10    4.70
  -5   2   5   41.60    4.10
  -5   2   5   41.80    4.30
  -5   2   5   45.30    5.00
   4  -2  -5  451.45   30.20
   4  -2  -5  489.85   35.40
   4  -2  -5  439.56   29.00
   4  -2  -5  453.95   29.60
  -4   2   5  452.45   29.80
  -4   2   5  477.05   29.40
  -4   2   5  435.96   29.90
  -4   2   5  480.25   30.00
  -4   2   5  481.25   30.40
  -4   2   5  458.55   30.90
   3  -2  -5  103.69   10.50
   3  -2  -5   80.69    6.20
   3  -2  -5   78.99    5.90
  -3   2   5   79.49    6.10
  -3   2   5   99.49    6.80
  -3   2   5   87.19    7.40
  -3   2   5   88.89    6.40
  -3   2   5   88.99    7.10
  -3   2   5   85.19    6.20
  -3   2   5   65.99    9.80
   2  -2  -5 1656.93  102.99
   2  -2  -5 1693.93  102.59
   2  -2  -5 1644.14  102.39
  -2   2   5 1833.32  102.49
  -2   2   5 1626.84  102.49
  -2   2   5 1581.84  103.19
  -2   2   5 1521.95  107.19
  -2   2   5 1785.22  102.59
  -2   2   5 1588.24  103.39
   1  -2  -5 1950.80  119.69
   1  -2  -5 1928.61  119.39
   1  -2  -5 1827.12  118.99
   1  -2  -5 1850.41  119.89
   1  -2  -5 1998.60  119.29
  -1   2   5 2020.50  119.19
  -1   2   5 1985.50  119.39
  -1   2   5 1959.60  119.69
  -1   2   5 1877.01  120.19
   0  -2  -5 2752.62  165.08
   0  -2  -5 2662.73  165.78
   0   2   5 2612.84  166.08
  -1  -2  -5 2126.79  129.89
  -1  -2  -5 2129.89  130.89
  -1  -2  -5 2029.30  129.19
   1   2   5 2133.99  129.49
   1   2   5 2034.40  130.99
   1   2   5 2090.29  129.69
   1   2   5 2147.59  129.59
   1   2   5 2071.89  129.59
  -2  -2  -5 1581.24  101.39
  -2  -2  -5 1641.14  104.29
  -2  -2  -5 1665.03  100.69
  -2  -2  -5 1697.03  101.19
  -2  -2  -5 1690.03  100.99
   2   2   5 1592.74  101.19
   2   2   5 1524.35  101.19
   2   2   5 1607.44  102.89
   2   2   5 1716.03  101.39
   2   2   5 1552.24  100.79
  -3  -2  -5  569.14   35.20
  -3  -2  -5  532.05   35.40
  -3  -2  -5  553.24   35.00
  -3  -2  -5  568.54   34.70
   3   2   5  507.55   34.80
   3   2   5  547.65   35.30
   3   2   5  513.05   36.90
   3   2   5  530.05   35.30
   3   2   5  558.94   35.40
  -4  -2  -5  947.51   56.19
  -4  -2  -5  935.71   56.59
  -4  -2  -5  879.91   56.39
  -4  -2  -5  922.61   56.99
  -4  -2  -5  743.73   57.39
   4   2   5  947.81   56.89
   4   2   5  826.92   56.19
   4   2   5  908.61   58.79
   4   2   5  846.82   56.59
   4   2   5  905.21   56.59
  -5  -2  -5  285.57   19.90
  -5  -2  -5  290.17   19.40
  -5  -2  -5  286.67   20.30
  -5  -2  -5  249.38   20.90
  -5  -2  -5  295.87   20.00
   5   2   5  267.47   19.70
   5   2   5  302.07   22.30
   5   2   5  261.07   19.50
   5   2   5  259.27   19.80
   5   2   5  312.57   20.30
  -6  -2  -5  247.18   18.80
  -6  -2  -5  252.07   18.50
  -6  -2  -5  256.87   18.50
  -6  -2  -5  222.58   19.50
  -6  -2  -5  268.57   19.30
   6   2   5  253.37   20.70
   6   2   5  250.97   18.40
   6   2   5  210.58   21.10
   6   2   5  249.58   19.90
   6   2   5  272.27   18.90
  -7  -2  -5   75.49    8.30
  -7  -2  -5   75.19    8.00
  -7  -2  -5   71.49    7.90
  -7  -2  -5   66.89    7.40
   7   2   5   72.59   11.10
   7   2   5   63.59    8.40
   7   2   5   65.69    7.40
  -8  -2  -5  116.39   12.00
  -8  -2  -5  109.29   10.80
  -8  -2  -5  100.59   10.50
  -8  -2  -5  103.09   10.60
   8   2   5  117.79   11.20
   8   2   5  102.09   12.50
  -9  -2  -5   55.39    8.00
  -9  -2  -5   54.19    8.20
  -9  -2  -5   45.70    7.70
   9   2   5   64.19    8.60
   9   2   5   51.99    9.80
   9  -3  -5   70.59    7.70
   9  -3  -5   85.19   15.70
  -9   3   5   75.19   11.00
  -9   3   5   78.19    9.40
  -9   3   5   74.99    8.30
  -9   3   5   87.69    8.30
   8  -3  -5    1.90    5.30
   8  -3  -5    6.30    2.50
  -8   3   5    2.70    2.70
  -8   3   5    6.10    2.80
  -8   3   5   -2.30    2.50
  -8   3   5    0.00    3.30
   7  -3  -5  349.27   32.20
   7  -3  -5  308.57   24.20
  -7   3   5  351.36   26.30
  -7   3   5  391.86   24.30
  -7   3   5  382.26   25.90
  -7   3   5  359.36   24.60
   6  -3  -5    4.40    2.00
   6  -3  -5    5.90    5.00
  -6   3   5   10.60    3.60
  -6   3   5    7.20    2.10
  -6   3   5    4.80    2.30
  -6   3   5    5.50    2.30
  -6   3   5    3.70    2.40
   5  -3  -5  494.35   32.40
   5  -3  -5  523.25   32.50
   5  -3  -5  505.55   32.70
   5  -3  -5  511.95   33.60
   5  -3  -5  479.25   33.70
   5  -3  -5  532.05   39.30
  -5   3   5  519.55   33.90
  -5   3   5  548.25   33.50
  -5   3   5  545.05   33.30
  -5   3   5  505.55   33.40
   4  -3  -5    0.10    1.20
   4  -3  -5   -0.60    1.40
   4  -3  -5   -0.60    1.00
   4  -3  -5   -0.50    0.80
   4  -3  -5    0.30    1.00
   4  -3  -5   -1.00    2.20
  -4   3   5   -0.20    1.30
  -4   3   5    1.30    1.40
  -4   3   5    1.50    1.20
  -4   3   5    0.40    1.60
  -4   3   5    0.40    1.90
  -4   3   5   -0.90    1.20
   3  -3  -5 1140.39   74.79
   3  -3  -5 1128.89   74.79
   3  -3  -5 1188.78   74.19
   3  -3  -5 1168.78   74.59
   3  -3  -5 1017.40   74.39
   3  -3  -5 1343.77   78.69
  -3   3   5 1273.67   74.59
  -3   3   5 1248.58   74.59
  -3   3   5 1147.29   75.39
  -3   3   5 1194.08   75.69
  -3   3   5 1249.68   74.79
  -3   3   5 1274.97   74.79
   2  -3  -5  177.38   12.50
   2  -3  -5  184.58   12.00
   2  -3  -5  161.88   11.60
   2  -3  -5  179.18   12.10
   2  -3  -5  165.08   11.80
  -2   3   5  182.88   11.90
  -2   3   5  158.48   14.80
  -2   3   5  174.08   11.90
  -2   3   5  168.18   12.40
  -2   3   5  200.58   12.00
  -2   3   5  170.78   13.00
   1  -3  -5  424.16   30.10
   1  -3  -5  481.45   30.10
   1  -3  -5  448.16   30.00
   1  -3  -5  445.26   30.80
   1  -3  -5  474.45   30.00
   1  -3  -5  456.45   29.80
  -1   3   5  451.95   30.00
  -1   3   5  482.55   29.80
  -1   3   5  476.55   31.30
  -1   3   5  546.55   33.80
  -1   3   5  475.95   30.10
  -1   3   5  482.15   29.90
   0  -3  -5  123.59    8.90
   0  -3  -5  118.09    8.70
   0  -3  -5  113.39    9.30
   0  -3  -5  103.69   10.10
   0  -3  -5  126.99    8.70
   0   3   5  116.19    8.80
   0   3   5  110.49    9.80
   0   3   5  143.99    9.00
   0   3   5  122.39    8.70
   0   3   5  140.69    8.80
   0   3   5  120.49    8.70
  -1  -3  -5  227.38   15.40
  -1  -3  -5  243.78   15.30
  -1  -3  -5  228.98   15.90
  -1  -3  -5  245.08   15.50
  -1  -3  -5  252.57   16.00
  -1  -3  -5  219.68   17.00
   1   3   5  227.28   15.80
   1   3   5  208.78   17.00
   1   3   5  238.78   15.80
   1   3   5  238.08   15.70
  -2  -3  -5   56.59    5.10
  -2  -3  -5   44.50    5.00
  -2  -3  -5   58.29    4.60
  -2  -3  -5   59.09    6.30
  -2  -3  -5   51.09    4.70
   2   3   5   50.69    4.80
   2   3   5   59.49    5.10
   2   3   5   53.89    5.00
   2   3   5   51.29    5.10
   2   3   5   55.29    6.30
  -3  -3  -5  111.59   10.80
  -3  -3  -5  125.09    9.70
  -3  -3  -5  120.49    9.90
  -3  -3  -5  128.49    9.00
  -3  -3  -5  122.39    9.40
   3   3   5  117.59    9.40
   3   3   5  119.19   12.30
   3   3   5  113.89    9.30
   3   3   5  124.89    9.50
   3   3   5  115.99    9.10
  -4  -3  -5  102.29    7.90
  -4  -3  -5  107.49    8.40
  -4  -3  -5   91.29    8.00
  -4  -3  -5   89.19    8.40
  -4  -3  -5  101.79   10.00
   4   3   5   99.99    8.50
   4   3   5   89.69    9.80
   4   3   5   85.89    8.10
   4   3   5   97.39    8.20
   4   3   5   93.09    7.90
  -5  -3  -5  158.58   12.60
  -5  -3  -5  160.38   12.50
  -5  -3  -5  169.98   13.20
  -5  -3  -5  169.98   12.30
   5   3   5  174.38   13.00
   5   3   5  170.18   12.80
   5   3   5  160.98   14.70
   5   3   5  155.28   12.70
   5   3   5  143.19   12.30
  -6  -3  -5   22.70    5.50
  -6  -3  -5   34.20    5.10
  -6  -3  -5   27.80    5.00
  -6  -3  -5   24.80    4.80
  -6  -3  -5   34.60    5.90
   6   3   5   18.30    5.70
   6   3   5   37.90    5.50
   6   3   5   37.30    5.70
   6   3   5   22.20    5.20
   6   3   5   31.70    5.10
  -7  -3  -5   16.90    4.30
  -7  -3  -5   13.60    4.30
  -7  -3  -5   16.10    4.00
   7   3   5   11.90    4.00
   7   3   5   16.80    4.30
   7   3   5   14.70    5.70
  -8  -3  -5   70.29    8.20
  -8  -3  -5   65.89    8.00
  -8  -3  -5   70.19    8.10
   8   3   5   65.89    8.90
   8   3   5   55.79   10.10
  -9  -3  -5    0.10    3.30
  -9  -3  -5    2.40    3.40
   9   3   5    3.00    5.70
   9   3   5   -0.50    2.90
   8  -4  -5   32.10    9.90
   8  -4  -5   25.40    4.80
  -8   4   5   39.60    5.40
  -8   4   5   35.00    7.00
  -8   4   5   23.90    5.70
  -8   4   5   35.40    6.60
   7  -4  -5    7.70    2.90
   7  -4  -5    9.50    2.20
   7  -4  -5   10.40    2.40
   7  -4  -5    9.20    6.10
  -7   4   5    5.30    2.90
  -7   4   5   12.40    3.80
  -7   4   5    7.70    4.00
  -7   4   5    5.50    3.40
  -7   4   5   12.90    4.70
   6  -4  -5   89.79    8.10
   6  -4  -5  104.39    8.60
   6  -4  -5   98.49    8.70
   6  -4  -5  101.99   13.20
  -6   4   5  109.09    9.00
  -6   4   5   97.39    8.40
  -6   4   5  111.29   10.00
  -6   4   5   95.49    9.00
  -6   4   5   93.69    8.90
   5  -4  -5    2.00    1.80
   5  -4  -5    0.10    2.70
   5  -4  -5    0.00    1.80
   5  -4  -5    1.90    1.60
   5  -4  -5    1.80    1.70
   5  -4  -5    0.60    1.30
  -5   4   5    0.60    2.70
  -5   4   5    1.70    1.70
  -5   4   5    2.50    2.50
  -5   4   5    1.30    1.60
  -5   4   5    2.20    1.90
  -5   4   5   -0.80    1.80
   4  -4  -5  239.48   17.30
   4  -4  -5  231.48   17.10
   4  -4  -5  218.98   17.20
   4  -4  -5  263.27   20.60
   4  -4  -5  245.78   16.60
   4  -4  -5  239.68   17.60
  -4   4   5  258.47   18.30
  -4   4   5  280.47   18.90
  -4   4   5  255.87   17.10
  -4   4   5  263.27   17.00
  -4   4   5  266.67   17.40
  -4   4   5  261.37   17.50
   3  -4  -5   52.69    5.50
   3  -4  -5   66.19    7.20
   3  -4  -5   51.49    5.10
   3  -4  -5   51.79    4.50
   3  -4  -5   48.20    5.00
   3  -4  -5   55.29    5.00
  -3   4   5   54.49    5.00
  -3   4   5   53.89    6.10
  -3   4   5   57.49    5.00
  -3   4   5   52.89    5.40
  -3   4   5   57.59    5.10
   2  -4  -5    4.20    1.50
   2  -4  -5    4.60    2.20
   2  -4  -5    2.10    1.40
   2  -4  -5    5.70    1.80
  -2   4   5    4.70    2.40
  -2   4   5    1.70    1.80
  -2   4   5    6.40    1.90
  -2   4   5    3.70    1.60
  -2   4   5    3.50    1.40
   1  -4  -5  103.49    7.80
   1  -4  -5   96.99    8.00
   1  -4  -5   91.59    8.80
  -1   4   5   98.09    8.00
  -1   4   5  105.69    7.80
  -1   4   5  108.59    9.40
  -1   4   5  110.79    7.80
  -1   4   5  122.49   10.00
  -1   4   5  114.79    7.90
   0  -4  -5   19.30    4.40
   0  -4  -5   29.60    3.30
   0  -4  -5   25.80    3.00
   0  -4  -5   27.80    3.10
   0  -4  -5   21.80    2.60
   0   4   5   20.20    2.80
   0   4   5   26.40    3.00
   0   4   5   28.00    3.20
   0   4   5   26.40    2.60
   0   4   5   23.40    4.50
   0   4   5   27.00    3.50
  -1  -4  -5  509.35   32.60
  -1  -4  -5  506.95   32.10
  -1  -4  -5  488.95   32.50
  -1  -4  -5  509.85   31.60
  -1  -4  -5  445.66   33.70
  -1  -4  -5  547.15   32.30
   1   4   5  528.95   32.30
   1   4   5  482.85   32.50
   1   4   5  485.15   34.00
   1   4   5  500.75   32.50
   1   4   5  510.15   32.50
  -2  -4  -5    2.70    1.50
  -2  -4  -5    4.10    1.50
  -2  -4  -5    2.80    1.70
  -2  -4  -5    2.20    1.90
  -2  -4  -5    1.10    1.50
   2   4   5    1.30    1.50
   2   4   5    2.40    1.80
   2   4   5    0.20    2.10
   2   4   5    0.90    1.30
   2   4   5   -0.50    1.20
  -3  -4  -5   71.89    8.10
  -3  -4  -5   77.89    6.60
  -3  -4  -5   79.59    6.50
  -3  -4  -5   68.69    6.70
  -3  -4  -5   80.19    7.20
   3   4   5   83.29    8.60
   3   4   5   80.59    7.00
   3   4   5   82.49    7.70
   3   4   5   68.29    6.70
   3   4   5   80.89    6.80
  -4  -4  -5   16.90    3.90
  -4  -4  -5   23.50    3.80
  -4  -4  -5   21.30    3.30
  -4  -4  -5   22.00    4.00
  -4  -4  -5   21.90    5.00
   4   4   5   18.10    4.90
   4   4   5   19.80    3.70
   4   4   5   21.60    3.90
   4   4   5   13.60    3.00
   4   4   5   18.50    3.70
  -5  -4  -5  451.25   34.50
  -5  -4  -5  472.15   32.30
  -5  -4  -5  504.65   32.00
  -5  -4  -5  498.75   31.70
  -5  -4  -5  483.65   31.70
   5   4   5  482.35   34.30
   5   4   5  496.55   32.10
   5   4   5  422.76   31.60
   5   4   5  498.65   33.10
   5   4   5  446.26   31.80
  -6  -4  -5  174.78   13.70
  -6  -4  -5  168.88   13.90
  -6  -4  -5  181.18   13.60
  -6  -4  -5  176.08   16.10
  -6  -4  -5  188.18   13.60
   6   4   5  168.98   15.80
   6   4   5  156.38   13.50
   6   4   5  189.98   14.00
   6   4   5  142.09   13.30
   6   4   5  164.48   13.50
  -7  -4  -5  400.86   26.30
  -7  -4  -5  367.96   26.20
  -7  -4  -5  372.46   26.20
   7   4   5  377.66   29.00
   7   4   5  323.27   25.70
   7   4   5  384.66   26.40
  -8  -4  -5  101.09    9.90
  -8  -4  -5   91.99   10.00
  -8  -4  -5   96.89    9.90
   8   4   5   84.59    9.70
   8   4   5   93.79   11.70
  -9  -4  -5   80.69    9.40
  -9  -4  -5   80.89    9.30
  -9  -4  -5   61.89    9.00
   9   4   5  102.09   21.80
   9   4   5   77.19    9.20
   8  -5  -5   13.70    3.20
   8  -5  -5   12.30    6.50
  -8   5   5    2.80    3.20
  -8   5   5    9.30    3.70
  -8   5   5   13.60    5.10
  -8   5   5   12.70    5.00
   7  -5  -5    0.20    2.40
   7  -5  -5    2.10    2.50
   7  -5  -5    4.80    2.60
   7  -5  -5   -0.10    3.90
  -7   5   5    2.30    3.10
  -7   5   5    3.00    2.20
  -7   5   5    3.90    2.80
  -7   5   5    2.90    2.80
   6  -5  -5    6.00    2.80
   6  -5  -5   10.80    5.00
   6  -5  -5   13.40    3.30
   6  -5  -5   11.40    3.10
  -6   5   5   13.70    3.70
  -6   5   5    9.90    2.60
  -6   5   5    9.20    4.00
  -6   5   5   13.50    3.20
  -6   5   5    6.30    3.20
   5  -5  -5   57.49    7.10
   5  -5  -5   70.59    5.90
   5  -5  -5   65.29    6.90
   5  -5  -5   55.49    6.70
   5  -5  -5   66.19    6.20
   5  -5  -5   67.69    9.10
  -5   5   5   72.29    6.10
  -5   5   5   90.69    7.30
  -5   5   5   63.29    6.40
  -5   5   5   85.29    8.30
  -5   5   5   71.49    7.60
  -5   5   5   66.19    6.90
   4  -5  -5    2.00    1.50
   4  -5  -5   -0.40    1.80
   4  -5  -5    0.20    1.50
   4  -5  -5    2.30    2.30
   4  -5  -5    1.80    1.80
   4  -5  -5   -1.20    1.60
  -4   5   5    1.00    2.10
  -4   5   5    5.30    2.10
  -4   5   5    3.40    2.30
  -4   5   5    1.40    1.70
  -4   5   5    2.70    1.90
   3  -5  -5  265.07   19.20
   3  -5  -5  278.27   18.50
   3  -5  -5  283.37   18.30
   3  -5  -5  282.07   19.10
   3  -5  -5  250.07   19.70
  -3   5   5  286.57   19.00
  -3   5   5  261.37   19.00
  -3   5   5  310.27   20.70
  -3   5   5  276.57   18.80
   2  -5  -5  188.58   13.60
   2  -5  -5  181.28   13.20
   2  -5  -5  175.18   12.70
   2  -5  -5  189.48   12.80
   2  -5  -5  161.68   14.00
  -2   5   5  178.88   15.70
  -2   5   5  204.78   13.20
  -2   5   5  197.88   13.20
  -2   5   5  183.68   13.20
   1  -5  -5   92.89    7.70
   1  -5  -5   94.39    7.40
   1  -5  -5   76.69    7.60
   1  -5  -5  100.09    8.90
  -1   5   5  101.19    8.10
  -1   5   5  101.69    7.50
  -1   5   5   88.89    9.00
  -1   5   5  107.19    7.60
  -1   5   5   95.09    7.10
  -1   5   5  106.59    7.70
  -1   5   5   93.19    7.70
   0  -5  -5  331.27   21.60
   0  -5  -5  296.57   22.80
   0  -5  -5  313.77   21.60
   0  -5  -5  303.77   21.30
   0   5   5  316.97   21.70
   0   5   5  314.67   23.40
   0   5   5  321.57   21.40
   0   5   5  338.87   21.60
   0   5   5  352.76   20.60
  -1  -5  -5  842.32   53.09
  -1  -5  -5  825.12   52.79
  -1  -5  -5  814.82   51.79
  -1  -5  -5  834.52   53.19
  -1  -5  -5  775.42   54.59
   1   5   5  835.32   53.19
   1   5   5  873.51   53.19
   1   5   5  864.31   53.49
   1   5   5  826.12   56.39
   1   5   5  866.81   53.29
  -2  -5  -5  530.25   31.80
  -2  -5  -5  509.45   31.90
  -2  -5  -5  513.25   30.70
  -2  -5  -5  453.45   33.90
  -2  -5  -5  472.65   32.30
   2   5   5  492.35   32.40
   2   5   5  488.65   32.20
   2   5   5  481.55   34.10
   2   5   5  467.25   32.20
  -3  -5  -5 1189.28   70.09
  -3  -5  -5 1069.09   70.69
  -3  -5  -5 1117.39   70.49
  -3  -5  -5 1180.48   70.19
  -3  -5  -5 1053.79   72.49
   3   5   5 1096.19   70.59
   3   5   5 1072.79   70.39
   3   5   5 1099.79   70.59
   3   5   5 1083.19   72.49
   3   5   5 1154.68   70.39
  -4  -5  -5  340.37   23.60
  -4  -5  -5  325.97   23.90
  -4  -5  -5  358.26   23.20
  -4  -5  -5  318.27   25.60
  -4  -5  -5  365.66   23.40
   4   5   5  359.06   23.50
   4   5   5  346.27   23.80
   4   5   5  297.87   23.20
   4   5   5  375.76   26.10
   4   5   5  335.17   23.80
  -5  -5  -5  751.82   46.60
  -5  -5  -5  727.63   47.30
  -5  -5  -5  712.53   46.70
  -5  -5  -5  671.03   49.30
  -5  -5  -5  753.42   46.50
   5   5   5  749.03   49.50
   5   5   5  673.63   46.70
   5   5   5  781.72   46.90
   5   5   5  619.64   46.50
   5   5   5  720.63   47.00
  -6  -5  -5   10.80    3.50
  -6  -5  -5   13.80    3.50
  -6  -5  -5   14.10    3.90
  -6  -5  -5   14.10    4.00
   6   5   5    4.40    4.50
   6   5   5   16.00    3.40
   6   5   5   19.40    4.20
  -7  -5  -5  278.17   20.30
  -7  -5  -5  256.17   20.90
  -7  -5  -5  347.17   26.10
   7   5   5  289.77   23.30
   7   5   5  250.07   20.00
   7   5   5  265.17   20.30
  -8  -5  -5   26.70    5.40
  -8  -5  -5   16.80    4.20
  -8  -5  -5   19.20    5.00
  -8  -5  -5   24.80    5.60
   8   5   5   15.30    4.60
   8   5   5   27.00    7.50
  -9  -5  -5   95.19   10.40
  -9  -5  -5   86.79   10.30
  -9  -5  -5   88.89    9.90
   9   5   5   97.39   18.10
   9   5   5   86.79   10.00
   8  -6  -5    2.00    4.70
   8  -6  -5    3.30    2.70
   8  -6  -5    3.10    3.10
   8  -6  -5    4.30    3.20
  -8   6   5    0.60    4.20
  -8   6   5    0.90    3.50
  -8   6   5    6.40    3.50
  -8   6   5    1.50    3.00
   7  -6  -5  193.78   19.50
   7  -6  -5  172.28   15.20
   7  -6  -5  189.58   15.80
  -7   6   5  225.08   14.40
  -7   6   5  205.88   15.30
  -7   6   5  186.98   15.90
   6  -6  -5   83.69    8.90
   6  -6  -5   93.49   14.00
   6  -6  -5   73.89    8.70
   6  -6  -5  100.09    9.30
  -6   6   5  106.69    9.50
  -6   6   5  107.99   10.70
  -6   6   5  100.69    8.90
   5  -6  -5  399.06   29.40
   5  -6  -5  379.86   30.60
   5  -6  -5  433.76   31.20
   5  -6  -5  466.25   32.60
   5  -6  -5  414.56   31.60
  -5   6   5  456.05   31.20
  -5   6   5  508.25   30.90
  -5   6   5  483.25   30.40
  -5   6   5  513.75   32.70
  -5   6   5  476.05   30.80
   4  -6  -5  560.64   38.40
   4  -6  -5  494.05   38.40
   4  -6  -5  560.64   37.30
   4  -6  -5  536.05   37.90
   4  -6  -5  646.44   39.10
   4  -6  -5  523.55   39.00
  -4   6   5  612.64   38.50
  -4   6   5  560.84   38.50
  -4   6   5  623.44   40.10
  -4   6   5  607.04   38.10
  -4   6   5  676.13   38.60
   3  -6  -5  914.91   56.29
   3  -6  -5  891.61   57.29
   3  -6  -5  827.62   57.59
   3  -6  -5  881.01   56.39
   3  -6  -5  822.92   58.19
  -3   6   5  959.10   59.09
  -3   6   5  839.12   56.89
  -3   6   5 1021.00   57.29
  -3   6   5  887.81   56.99
  -3   6   5  903.31   57.09
   2  -6  -5  933.71   59.49
   2  -6  -5  916.61   59.29
   2  -6  -5  891.81   61.39
   2  -6  -5  865.91   60.59
   2  -6  -5  938.31   60.19
  -2   6   5  985.40   61.99
  -2   6   5  985.90   59.99
  -2   6   5  965.20   60.09
  -2   6   5 1032.30   59.99
   1  -6  -5  784.52   56.79
   1  -6  -5  921.71   56.69
   1  -6  -5  838.32   56.09
  -1   6   5  915.11   56.39
  -1   6   5  902.81   58.49
  -1   6   5  981.20   56.59
  -1   6   5  859.01   56.59
  -1   6   5  921.61   55.69
   0  -6  -5  704.93   52.99
   0  -6  -5  724.53   51.29
   0  -6  -5  867.91   51.89
   0  -6  -5  743.03   51.69
   0   6   5  889.51   50.29
   0   6   5  805.32   53.69
   0   6   5  812.62   51.29
   0   6   5  835.52   51.59
   0   6   5  808.22   51.79
   0   6   5  892.41   51.79
  -1  -6  -5 1003.50   66.69
  -1  -6  -5 1109.59   66.99
  -1  -6  -5  938.31   68.69
  -1  -6  -5 1024.60   67.09
  -1  -6  -5 1088.69   67.39
   1   6   5 1041.90   67.29
   1   6   5 1104.29   67.39
   1   6   5 1080.69   69.39
   1   6   5 1104.69   67.39
   1   6   5 1122.49   66.89
  -2  -6  -5  399.36   25.80
  -2  -6  -5  365.16   28.00
  -2  -6  -5  388.46   26.30
  -2  -6  -5  367.96   26.20
  -2  -6  -5  401.06   25.90
   2   6   5  378.46   26.40
   2   6   5  389.06   26.40
   2   6   5  424.56   26.00
   2   6   5  386.26   26.30
   2   6   5  401.66   28.40
  -3  -6  -5  761.52   48.70
  -3  -6  -5  715.43   48.70
  -3  -6  -5  639.24   50.29
  -3  -6  -5  823.52   48.20
  -3  -6  -5  806.22   48.30
   3   6   5  736.13   48.70
   3   6   5  785.82   48.30
   3   6   5  727.33   48.80
   3   6   5  733.23   48.60
   3   6   5  776.02   50.89
  -4  -6  -5  229.28   17.90
  -4  -6  -5  246.28   17.20
  -4  -6  -5  231.38   17.60
  -4  -6  -5  268.27   17.50
   4   6   5  255.27   17.60
   4   6   5  241.88   19.80
   4   6   5  244.28   17.70
   4   6   5  216.68   17.60
  -5  -6  -5  138.09   11.90
  -5  -6  -5  134.09   13.90
  -5  -6  -5  143.69   12.40
  -5  -6  -5  157.08   11.80
  -5  -6  -5  160.98   11.80
   5   6   5  152.78   11.90
   5   6   5  137.99   11.90
   5   6   5  126.89   11.70
   5   6   5  149.88   14.20
  -6  -6  -5  161.98   14.60
  -6  -6  -5  184.08   14.40
  -6  -6  -5  192.58   14.90
  -6  -6  -5  190.88   14.40
   6   6   5  155.08   14.00
   6   6   5  209.98   17.50
   6   6   5  199.88   14.70
  -7  -6  -5   66.49    9.80
  -7  -6  -5   78.19    8.30
  -7  -6  -5   61.89    8.50
  -7  -6  -5   77.99    8.40
   7   6   5   62.19   10.20
   7   6   5   58.29    7.70
   7   6   5   75.59    8.20
  -8  -6  -5   50.89    7.90
  -8  -6  -5   46.30    8.00
  -8  -6  -5   59.29    8.00
  -8  -6  -5   54.99    7.40
   8   6   5   72.19    8.80
   8   6   5   52.79    9.50
   7  -7  -5   38.20    6.60
   7  -7  -5   55.99    6.80
   7  -7  -5   53.39    8.90
   7  -7  -5   34.20    6.60
  -7   7   5   49.99    7.40
  -7   7   5   49.50    8.80
  -7   7   5   46.80   10.70
   6  -7  -5   28.20    5.80
   6  -7  -5   38.70    7.10
   6  -7  -5   42.70    6.90
   6  -7  -5   36.70    6.60
  -6   7   5   33.20    6.10
  -6   7   5   40.10    7.80
  -6   7   5   47.30    6.30
   5  -7  -5   69.79    8.00
   5  -7  -5   55.99    5.80
   5  -7  -5   60.59    7.60
   5  -7  -5   75.09    7.50
   5  -7  -5   64.19    7.70
  -5   7   5   67.39    7.10
  -5   7   5   69.19    7.90
  -5   7   5   74.49    7.80
  -5   7   5   65.89    8.70
   4  -7  -5   55.39    5.20
   4  -7  -5   54.89    7.00
   4  -7  -5   58.59    6.50
   4  -7  -5   54.69    6.90
   4  -7  -5   60.99    6.60
  -4   7   5   59.49    6.30
  -4   7   5   55.09    7.80
  -4   7   5   64.99    6.50
  -4   7   5   64.89    7.00
  -4   7   5   54.69    6.40
   3  -7  -5   52.49    6.90
   3  -7  -5   57.49    5.40
   3  -7  -5   49.70    6.10
   3  -7  -5   46.60    6.50
   3  -7  -5   55.39    4.80
  -3   7   5   64.69    6.00
  -3   7   5   53.19    6.00
  -3   7   5   63.09    7.80
  -3   7   5   51.29    6.10
  -3   7   5   46.00    5.40
   2  -7  -5  129.99   10.40
   2  -7  -5  122.89    9.50
   2  -7  -5  114.29   11.30
   2  -7  -5  118.39    9.10
  -2   7   5  127.59   12.00
  -2   7   5  129.69   10.00
  -2   7   5  133.89   10.40
  -2   7   5  133.19   10.10
  -2   7   5  128.49   10.20
   1  -7  -5   10.70    3.90
   1  -7  -5   12.90    3.50
   1  -7  -5    6.00    2.80
   1  -7  -5   13.90    2.90
  -1   7   5   14.70    4.50
  -1   7   5   18.70    3.80
  -1   7   5   14.50    2.10
  -1   7   5   12.10    3.00
  -1   7   5   14.10    3.10
  -1   7   5   17.50    3.20
   0  -7  -5   71.29    6.50
   0  -7  -5   57.39    5.80
   0  -7  -5   56.59    7.60
   0  -7  -5   52.39    7.20
   0   7   5   69.89    6.50
   0   7   5   65.79    6.10
   0   7   5   62.29    5.90
   0   7   5   71.89    8.20
   0   7   5   78.39    6.40
   0   7   5   56.89    5.40
  -1  -7  -5   73.29    8.40
  -1  -7  -5   71.79    7.20
  -1  -7  -5   76.19    7.10
  -1  -7  -5   80.39    6.90
  -1  -7  -5   85.39    7.20
   1   7   5   76.49    7.40
   1   7   5   87.69    7.10
   1   7   5   80.29    7.30
   1   7   5   70.59    7.10
   1   7   5   77.69    8.90
  -2  -7  -5    6.00    2.60
  -2  -7  -5    9.10    2.70
  -2  -7  -5    8.10    2.70
  -2  -7  -5    8.00    2.70
  -2  -7  -5    7.10    2.30
   2   7   5    5.50    2.70
   2   7   5    9.10    2.70
   2   7   5    6.40    2.60
   2   7   5   11.10    3.20
   2   7   5    6.40    3.60
  -3  -7  -5  136.99   13.90
  -3  -7  -5  152.58   11.70
  -3  -7  -5  151.28   12.40
  -3  -7  -5  158.48   11.60
  -3  -7  -5  158.38   12.20
   3   7   5  144.39   12.20
   3   7   5  170.98   11.90
   3   7   5  144.49   12.20
   3   7   5  152.88   14.10
  -4  -7  -5   -0.10    2.20
  -4  -7  -5    2.60    2.30
  -4  -7  -5    3.60    2.80
  -4  -7  -5    0.70    2.20
  -4  -7  -5    0.00    2.30
  -4  -7  -5   -0.10    0.90
   4   7   5    1.90    3.50
   4   7   5   -3.90    1.50
   4   7   5    0.50    2.10
   4   7   5    0.90    2.20
  -5  -7  -5  111.49   10.90
  -5  -7  -5  132.89   10.80
  -5  -7  -5  134.79   10.80
  -5  -7  -5  126.69   11.50
   5   7   5  130.99   10.80
   5   7   5  123.19   10.80
   5   7   5  127.99   13.10
  -6  -7  -5    7.20    4.30
  -6  -7  -5    3.90    3.10
   6   7   5    7.00    3.10
   6   7   5    1.60    3.00
   6   7   5   -4.00    3.20
  -7  -7  -5  106.69   10.30
  -7  -7  -5  109.09   10.10
  -7  -7  -5   86.69    8.40
  -7  -7  -5  103.89   10.30
   7   7   5  103.69   10.00
   7   7   5  106.09   12.00
  -8  -7  -5   33.70    6.20
  -8  -7  -5   28.00    5.70
  -8  -7  -5   27.60    6.00
   8   7   5   24.30    5.60
   8   7   5   37.80    7.50
   7  -8  -5   10.30    4.40
   7  -8  -5    4.60    3.60
   7  -8  -5    8.10    4.00
  -7   8   5   10.80    5.40
  -7   8   5   12.20    4.90
   6  -8  -5   11.10    4.40
   6  -8  -5   12.00    3.50
   6  -8  -5    6.70    3.80
  -6   8   5    8.60    4.10
  -6   8   5   10.80    3.60
   5  -8  -5   49.99    6.50
   5  -8  -5   18.70    5.30
   5  -8  -5   29.40    5.80
  -5   8   5   31.50    7.00
  -5   8   5   35.10    5.40
  -5   8   5   29.70    5.40
  -5   8   5   34.60    6.20
   4  -8  -5   -2.40    2.30
   4  -8  -5    0.30    1.20
   4  -8  -5    4.70    2.80
   4  -8  -5   -0.80    2.40
  -4   8   5   -2.60    2.90
  -4   8   5   -0.80    2.70
  -4   8   5   -0.30    1.80
  -4   8   5   -0.80    2.30
   3  -8  -5  151.78   13.60
   3  -8  -5  149.79   10.70
   3  -8  -5  121.39   12.70
   3  -8  -5  153.28   12.60
  -3   8   5  160.08   14.40
  -3   8   5  171.88   13.20
  -3   8   5  147.99   12.40
  -3   8   5  144.09   11.50
  -3   8   5  176.28   12.60
   2  -8  -5    6.80    3.40
   2  -8  -5   12.20    3.50
   2  -8  -5   11.80    4.00
   2  -8  -5   10.70    2.10
   2  -8  -5   15.10    3.10
  -2   8   5   13.40    3.40
  -2   8   5    9.30    4.30
  -2   8   5   13.90    3.10
  -2   8   5    9.10    3.20
  -2   8   5    9.20    2.90
   1  -8  -5    1.70    3.20
   1  -8  -5    3.00    1.90
   1  -8  -5    2.50    2.40
   1  -8  -5    0.00    2.10
  -1   8   5    2.10    2.30
  -1   8   5   -2.10    1.50
  -1   8   5    0.80    3.00
  -1   8   5    0.40    0.90
  -1   8   5    2.50    2.50
  -1   8   5    3.20    2.10
   0  -8  -5  191.08   13.60
   0  -8  -5  139.69   15.60
   0  -8  -5  150.48   12.60
   0   8   5  169.58   13.30
   0   8   5  182.18   13.10
   0   8   5  163.28   12.70
   0   8   5  200.58   16.80
   0   8   5  168.88   15.10
  -1  -8  -5   76.39    9.20
  -1  -8  -5   81.69    8.00
  -1  -8  -5   82.99    7.70
  -1  -8  -5  107.39    8.30
   1   8   5   90.09    8.20
   1   8   5   85.39    8.20
   1   8   5   85.69    9.80
   1   8   5   78.69    8.90
   1   8   5   81.89    7.60
   1   8   5   89.39    9.20
  -2  -8  -5  288.47   20.50
  -2  -8  -5  277.77   19.70
  -2  -8  -5  309.37   20.30
  -2  -8  -5  266.87   22.30
  -2  -8  -5  259.57   20.20
   2   8   5  326.77   23.30
   2   8   5  258.57   23.50
   2   8   5  282.67   20.50
   2   8   5  322.27   20.10
   2   8   5  280.87   20.60
  -3  -8  -5  119.39   10.90
  -3  -8  -5  140.69   10.70
  -3  -8  -5  106.39   12.10
  -3  -8  -5  117.89   10.80
  -3  -8  -5  141.89   10.60
   3   8   5  149.09   10.70
   3   8   5  114.09   10.80
   3   8   5  126.59   15.40
   3   8   5  123.89   11.10
   3   8   5  115.39   10.80
   3   8   5  152.38   16.30
  -4  -8  -5   69.09    6.90
  -4  -8  -5   60.99    7.30
  -4  -8  -5   72.49    7.70
  -4  -8  -5   66.59    6.90
   4   8   5   60.59    6.90
   4   8   5   71.29    9.20
   4   8   5   40.50   10.90
   4   8   5   67.19    6.80
  -5  -8  -5  179.98   13.00
  -5  -8  -5  217.58   15.50
  -5  -8  -5  202.78   17.80
  -5  -8  -5  202.18   15.80
  -5  -8  -5  207.78   15.30
   5   8   5  202.58   15.70
   5   8   5  176.28   22.90
   5   8   5  216.48   15.50
   5   8   5  203.88   17.90
  -6  -8  -5   78.49    8.30
  -6  -8  -5   63.79    9.80
  -6  -8  -5   90.79    9.20
   6   8   5   58.09   15.90
   6   8   5   86.59    8.30
   6   8   5   79.39   10.60
  -7  -8  -5  115.49   10.50
  -7  -8  -5  100.39   10.10
  -7  -8  -5   99.49    8.40
  -7  -8  -5  106.29   10.60
  -7  -8  -5  102.69   10.70
   7   8   5  100.39    9.90
   7   8   5  107.99   12.50
   7   8   5   86.79   18.70
   6  -9  -5   41.70    7.20
  -6   9   5   31.80    7.10
  -6   9   5   41.20    8.60
   5  -9  -5   63.19    8.60
   5  -9  -5   63.39    8.90
  -5   9   5   56.29    8.20
  -5   9   5   58.69    9.70
   4  -9  -5  134.59   13.60
   4  -9  -5  134.09   12.60
   4  -9  -5  138.79   10.00
  -4   9   5  152.18   12.90
  -4   9   5  149.79   12.30
  -4   9   5  144.39   11.50
  -4   9   5  134.49   16.00
   3  -9  -5   88.49   10.50
   3  -9  -5  105.79    7.80
   3  -9  -5   97.19   10.00
  -3   9   5   99.79    8.70
  -3   9   5  111.49   10.00
  -3   9   5  131.39   12.70
  -3   9   5  128.29   10.50
   2  -9  -5  362.26   28.10
   2  -9  -5  372.36   25.20
   2  -9  -5  383.06   27.20
  -2   9   5  418.16   29.70
  -2   9   5  414.66   27.30
  -2   9   5  403.56   27.20
   1  -9  -5  130.89   11.70
   1  -9  -5  136.19   11.20
   1  -9  -5  128.19   12.80
   1  -9  -5  117.29   10.20
  -1   9   5  126.59   10.50
  -1   9   5  135.89   11.10
  -1   9   5  121.79    8.70
  -1   9   5  136.19   13.20
  -1   9   5  127.99   11.10
   0  -9  -5  792.82   47.70
   0  -9  -5  629.84   49.00
   0  -9  -5  673.33   46.60
   0   9   5  760.22   49.90
   0   9   5  673.83   47.20
   0   9   5  737.63   46.90
   0   9   5  752.72   47.10
   0   9   5  730.33   46.90
  -1  -9  -5  103.19    9.30
  -1  -9  -5  100.69    9.70
  -1  -9  -5  112.99    9.70
   1   9   5  106.59   11.80
   1   9   5  109.69   10.30
   1   9   5  105.29    9.90
   1   9   5  105.79    9.50
   1   9   5  108.29    9.20
   1   9   5  103.89    9.80
  -2  -9  -5  553.04   39.60
  -2  -9  -5  692.33   40.60
  -2  -9  -5  568.24   40.30
  -2  -9  -5  595.84   40.40
   2   9   5  575.44   40.70
   2   9   5  554.74   43.60
   2   9   5  666.83   40.10
   2   9   5  659.03   43.60
   2   9   5  640.84   42.90
  -3  -9  -5   18.10    4.10
  -3  -9  -5   20.40    4.50
  -3  -9  -5   18.10    3.70
  -3  -9  -5   16.60    4.20
   3   9   5   12.20    5.80
   3   9   5   17.80    5.60
   3   9   5    7.80    3.50
   3   9   5   25.40    4.40
  -4  -9  -5  362.96   24.60
  -4  -9  -5  346.97   26.10
  -4  -9  -5  357.76   24.70
  -4  -9  -5  325.77   25.40
   4   9   5  384.16   24.60
   4   9   5  359.46   27.50
   4   9   5  326.27   32.00
  -5  -9  -5   25.20    4.80
  -5  -9  -5   29.50    5.80
  -5  -9  -5   27.90    5.10
   5   9   5   27.70    5.10
   5   9   5   23.00    9.80
   5   9   5   26.80    6.60
  -6  -9  -5  122.99   12.30
  -6  -9  -5  156.78   12.20
  -6  -9  -5  119.79   11.30
  -6  -9  -5  116.49    8.70
  -6  -9  -5  126.89   12.10
   6   9   5  142.79   11.50
   6   9   5  126.69   23.00
  -7  -9  -5    7.00    3.80
  -7  -9  -5    6.20    1.90
  -7  -9  -5    6.70    4.00
  -7  -9  -5    3.40    3.60
   7   9   5    8.00    4.30
   7   9   5    6.50    8.10
   7   9   5    4.30    3.40
   6 -10  -5   22.10    6.40
   6 -10  -5   37.60    7.10
  -6  10   5   24.60    7.50
  -6  10   5   49.00    8.20
   5 -10  -5   99.89   11.30
   5 -10  -5   78.69   13.90
  -5  10   5  109.59   12.70
  -5  10   5  107.79   11.30
   4 -10  -5   55.29    9.90
   4 -10  -5   79.29    9.40
  -4  10   5   79.89    7.50
  -4  10   5   90.39    9.70
  -4  10   5   93.69   11.30
   3 -10  -5   69.89    5.60
   3 -10  -5   63.59    8.70
  -3  10   5   89.49    8.90
  -3  10   5   73.29    6.90
  -3  10   5   80.39   10.60
   2 -10  -5   41.70    4.00
   2 -10  -5   49.30    7.20
   2 -10  -5   48.30    8.00
  -2  10   5   38.90    5.60
  -2  10   5   45.80    6.70
   1 -10  -5   81.09    8.50
   1 -10  -5   69.89    8.80
  -1  10   5   87.49   10.50
  -1  10   5   77.49    5.40
  -1  10   5   75.79    8.30
   0 -10  -5   49.50    6.70
   0  10   5   41.10    8.20
   0  10   5   47.20    6.80
  -1 -10  -5   14.20    4.00
  -1 -10  -5   18.70    4.40
  -1 -10  -5    9.80    5.00
   1  10   5   16.10    4.00
   1  10   5   13.10    5.40
  -2 -10  -5   72.09    7.30
  -2 -10  -5   64.69    7.50
  -2 -10  -5   65.39    7.90
  -2 -10  -5   70.99    7.60
   2  10   5   72.49    9.90
   2  10   5   61.39    7.20
   2  10   5   73.89    9.70
  -3 -10  -5    1.10    2.80
  -3 -10  -5    6.40    2.80
  -3 -10  -5    2.30    3.10
  -3 -10  -5    7.30    3.60
   3  10   5    3.10    4.30
   3  10   5    1.30    2.70
   3  10   5    1.00    4.10
  -4 -10  -5   17.10    4.80
  -4 -10  -5   13.70    4.10
  -4 -10  -5   19.40    5.40
   4  10   5   16.50    7.50
   4  10   5   22.70    4.70
   4  10   5   17.70    6.40
  -5 -10  -5   34.60    5.90
  -5 -10  -5   38.50    6.30
  -5 -10  -5   33.60    6.10
   5  10   5   32.20    5.50
   5  10   5   33.80   11.60
   5  10   5   39.00    8.50
  -6 -10  -5    2.80    3.10
  -6 -10  -5   -4.80    2.60
  -6 -10  -5   -1.50    2.90
   6  10   5   -0.60    4.90
   6  10   5    4.00    3.30
   6  10   5   -2.40    5.80
   5 -11  -5    8.90    4.70
   5 -11  -5   18.10    5.50
  -5  11   5   21.30    7.30
  -5  11   5   20.40    6.10
   4 -11  -5   -3.20    3.40
  -4  11   5    2.30    4.50
  -4  11   5   -0.80    3.50
   3 -11  -5    7.10    4.00
   3 -11  -5    6.90    4.50
   3 -11  -5    6.20    1.30
  -3  11   5    9.90    5.20
  -3  11   5    8.70    2.40
   2 -11  -5    9.00    1.80
   2 -11  -5   13.60    4.60
   2 -11  -5    5.60    4.40
  -2  11   5   11.00    5.40
  -2  11   5   11.90    2.20
  -2  11   5   18.60    6.70
   1 -11  -5    0.50    2.70
  -1  11   5    3.30    6.30
   0  11   5   25.20    5.00
   0  11   5   23.50    7.10
  -1 -11  -5    3.80    3.30
   1  11   5   12.20    5.40
   1  11   5    3.40    3.50
  -2 -11  -5   16.70    4.90
  -2 -11  -5   20.40    4.80
   2  11   5   15.30    5.10
   2  11   5   14.30    5.80
  -3 -11  -5   22.30    5.50
  -3 -11  -5   22.60    5.30
  -3 -11  -5   31.90    5.80
   3  11   5   33.20    8.70
   3  11   5   39.80    6.00
   3  11   5   39.70    8.20
  -4 -11  -5   50.89    6.80
  -4 -11  -5   38.00    6.70
  -4 -11  -5   39.50    6.00
   4  11   5   37.20   10.90
   4  11   5   41.20    8.40
   4  11   5   40.80    6.20
  -5 -11  -5   39.30    6.50
  -5 -11  -5   44.20    7.10
  -5 -11  -5   47.30    7.00
   5  11   5   36.50   11.40
   5  11   5   40.20    6.40
   5  11   5   49.40    9.20
   3 -12  -5    3.70    3.50
   3 -12  -5   -1.60    3.50
  -3  12   5    1.70    1.70
  -3  12   5   -1.80    3.30
  -3  12   5   -1.50    4.50
   2 -12  -5   36.30    3.20
   2 -12  -5   39.00    7.90
   2 -12  -5   25.60    6.30
  -2  12   5   23.70    6.00
  -2  12   5   43.20    3.70
  -2  12   5   45.40    9.20
   1 -12  -5   -0.30    1.20
   1 -12  -5   -0.70    3.00
   1 -12  -5   -0.50    3.30
  -1  12   5   -1.00    4.00
  -1  12   5    2.40    3.70
   0 -12  -5  103.09   11.40
   0  12   5  101.09   12.60
  -1 -12  -5    3.00    3.50
  -1 -12  -5    3.50    3.20
   1  12   5    5.40    4.70
   1  12   5    4.70    3.80
  -2 -12  -5  157.78   15.20
  -2 -12  -5  199.08   15.90
   2  12   5  197.68   17.00
   2  12   5  178.08   17.60
   2  12   5  160.68   17.60
  -3 -12  -5    3.30    3.60
  -3 -12  -5    1.40    3.30
   3  12   5    0.10    4.40
   3  12   5   -0.80    4.30
  -4 -12  -5   96.39   11.40
  -4 -12  -5  144.49   12.60
  -4 -12  -5  115.69   11.30
   4  12   5  119.69   17.20
   0 -13  -5    3.20    4.10
   0 -13  -5    4.10    4.30
   2   9  -6   48.60    8.30
   2   9  -6   34.70    5.00
  -2  -9   6   39.20    4.90
  -2  -9   6   41.30    6.40
   1   9  -6   24.90    4.60
   1   9  -6   32.20    9.30
  -1  -9   6   23.00    5.10
  -1  -9   6   19.40    4.40
  -1  -9   6   25.50    3.80
   0   9  -6   59.89    7.00
   0  -9   6   51.79    5.70
   0  -9   6   65.99    7.40
  -1   9  -6   17.20    4.50
  -1   9  -6   15.00    4.40
  -1   9  -6   18.90    3.40
  -1   9  -6   14.40    2.90
   1  -9   6   11.10    3.10
   1  -9   6   18.30    4.50
  -2   9  -6  115.59   10.90
  -2   9  -6  111.29    9.80
  -2   9  -6  125.79   15.20
   2  -9   6   97.49   11.30
   2  -9   6   87.29   10.50
  -3   9  -6    6.40    4.20
  -3   9  -6    6.90    3.80
   3  -9   6    5.70    4.10
   3  -9   6    9.00    4.80
   4   8  -6   35.20    4.30
   4   8  -6   37.10    6.50
  -4  -8   6   41.70    4.50
  -4  -8   6   47.20    5.50
  -4  -8   6   49.10    4.80
  -4  -8   6   41.00    3.90
   3   8  -6  107.29    8.70
   3   8  -6   99.89   11.30
   3   8  -6  115.99    9.00
  -3  -8   6  115.99   10.00
  -3  -8   6  126.29    9.40
  -3  -8   6  103.29    8.80
  -3  -8   6  119.29    8.50
  -3  -8   6  136.39   11.10
   2   8  -6   11.50    4.50
   2   8  -6   19.10    3.30
  -2  -8   6   17.70    3.70
  -2  -8   6   15.20    2.90
  -2  -8   6   19.10    4.00
  -2  -8   6   15.10    3.00
  -2  -8   6   24.80    5.00
   1   8  -6  153.08   13.10
   1   8  -6  133.59   11.10
  -1  -8   6  142.59   12.20
  -1  -8   6  130.09   10.40
  -1  -8   6  158.38   12.90
  -1  -8   6  140.39   11.60
   0   8  -6    2.10    0.90
   0   8  -6    1.70    1.30
   0   8  -6   -0.40    2.80
   0   8  -6    2.50    2.50
   0  -8   6    1.30    2.20
   0  -8   6    4.30    3.20
  -1   8  -6  123.09    9.00
  -1   8  -6  128.09   11.00
  -1   8  -6  112.49   10.50
   1  -8   6  114.29   11.30
   1  -8   6  100.29   10.50
  -2   8  -6   15.60    4.40
  -2   8  -6   14.00    4.20
  -2   8  -6    9.00    3.10
  -2   8  -6    8.10    2.80
   2  -8   6    3.90    2.70
   2  -8   6    5.30    3.50
   2  -8   6   11.30    5.40
  -3   8  -6   25.30    4.90
  -3   8  -6   25.60    5.10
  -3   8  -6   25.20    5.40
   3  -8   6   21.50    5.20
   3  -8   6   24.70    4.50
   3  -8   6   23.80    6.20
  -4   8  -6   15.30    5.50
  -4   8  -6   15.60    5.10
   4  -8   6   13.20    4.80
   4  -8   6    5.10    3.60
  -5   8  -6    4.50    1.60
  -5   8  -6    6.30    1.60
  -5   8  -6    7.80    4.10
  -5   8  -6    8.10    4.40
   5  -8   6    4.20    4.50
   5  -8   6    9.40    4.60
   5   7  -6    5.20    8.60
  -5  -7   6   12.70    3.60
  -5  -7   6    2.90    2.10
  -5  -7   6    9.10    3.00
   4   7  -6   44.60    7.90
  -4  -7   6   72.59    7.10
  -4  -7   6   57.19    5.80
  -4  -7   6   59.89    5.10
  -4  -7   6   58.99    4.80
  -4  -7   6   72.89    6.10
   3   7  -6   47.00    4.30
   3   7  -6   45.90    4.30
   3   7  -6   53.79    8.20
  -3  -7   6   43.80    4.50
  -3  -7   6   53.29    5.00
  -3  -7   6   51.49    4.60
  -3  -7   6   43.50    5.80
  -3  -7   6   55.19    5.50
   2   7  -6   14.30    4.60
   2   7  -6    9.80    2.50
  -2  -7   6   15.30    3.30
  -2  -7   6   16.70    3.70
  -2  -7   6    9.90    2.40
  -2  -7   6   10.00    2.60
  -2  -7   6   10.50    2.80
  -2  -7   6   15.20    1.80
   1   7  -6   86.49    9.40
   1   7  -6   92.69    7.80
   1   7  -6   92.59    7.60
  -1  -7   6   84.19    6.90
  -1  -7   6   80.89    8.50
  -1  -7   6   78.49    7.80
  -1  -7   6   96.39    8.50
   0   7  -6    5.10    1.10
   0   7  -6    1.70    2.90
   0   7  -6    5.30    1.00
   0   7  -6    1.60    2.20
   0  -7   6    4.10    2.70
   0  -7   6    6.00    2.90
   0  -7   6   14.10    3.60
  -1   7  -6  175.78   13.70
  -1   7  -6  193.78   14.30
  -1   7  -6  183.28   12.80
  -1   7  -6  173.78   12.20
   1  -7   6  175.28   14.50
   1  -7   6  161.78   13.70
   1  -7   6  165.88   12.90
   1  -7   6  167.38   14.60
  -2   7  -6    8.40    3.30
  -2   7  -6    6.00    2.90
  -2   7  -6    5.50    2.60
   2  -7   6    7.60    2.80
   2  -7   6    6.90    3.20
   2  -7   6    6.10    3.50
  -3   7  -6   93.19    9.40
  -3   7  -6  108.49    8.90
  -3   7  -6  111.79   10.10
   3  -7   6   84.39    8.50
   3  -7   6   92.99   10.60
   3  -7   6   80.39    9.40
  -4   7  -6   -1.40    0.60
  -4   7  -6   -1.80    3.00
  -4   7  -6   -0.70    0.60
  -4   7  -6   -2.10    2.80
   4  -7   6   -3.30    2.00
   4  -7   6    1.00    2.90
  -5   7  -6   47.30    4.50
  -5   7  -6   54.69    8.20
  -5   7  -6   48.30    8.20
  -5   7  -6   53.89    4.50
   5  -7   6   48.30    9.00
   5  -7   6   41.10    7.40
  -6   7  -6   -2.80    1.60
  -6   7  -6   -1.20    3.50
  -6   7  -6   10.10    5.50
   6  -7   6    2.80    4.40
   6  -7   6   -0.40    3.10
   6   6  -6   46.60   14.80
  -6  -6   6   70.59    7.50
  -6  -6   6   52.09    5.20
  -6  -6   6   60.09    7.00
   5   6  -6   17.80    9.90
  -5  -6   6   14.40    2.70
  -5  -6   6   17.30    4.00
  -5  -6   6    9.90    2.90
   4   6  -6  108.29   17.80
   4   6  -6   78.69    9.20
  -4  -6   6   74.79    7.50
  -4  -6   6   76.59    6.70
  -4  -6   6   65.29    5.20
  -4  -6   6   85.89    6.40
  -4  -6   6   69.19    5.20
   3   6  -6    1.00    0.90
   3   6  -6   -4.70    2.50
   3   6  -6    1.40    0.80
  -3  -6   6    0.60    1.30
  -3  -6   6   -2.40    1.50
  -3  -6   6   -0.20    1.20
  -3  -6   6    1.60    1.10
  -3  -6   6    0.20    1.90
  -3  -6   6    0.70    1.70
   2   6  -6   64.39    7.90
   2   6  -6   57.09    6.50
   2   6  -6   53.19    5.20
  -2  -6   6   66.09    4.70
  -2  -6   6   56.09    5.00
  -2  -6   6   59.19    6.40
  -2  -6   6   64.19    5.60
  -2  -6   6   59.39    5.80
   1   6  -6   11.50    2.60
   1   6  -6   13.80    4.20
   1   6  -6   13.90    2.60
  -1  -6   6   14.50    3.10
  -1  -6   6   13.10    2.20
  -1  -6   6   17.20    2.90
  -1  -6   6   17.70    8.20
  -1  -6   6   19.50    3.60
  -1  -6   6   21.30    3.80
   0   6  -6  269.57   18.40
   0   6  -6  246.68   15.30
   0   6  -6  240.78   15.40
   0   6  -6  250.67   16.90
   0   6  -6  247.58   17.30
   0  -6   6  228.58   23.90
   0  -6   6  232.98   17.30
   0  -6   6  236.68   16.50
   0  -6   6  250.07   18.20
   0  -6   6  237.68   17.90
  -1   6  -6   55.59    6.40
  -1   6  -6   59.29    5.50
  -1   6  -6   68.59    7.00
  -1   6  -6   58.19    6.20
  -1   6  -6   62.89    5.70
  -1   6  -6   69.29    6.40
   1  -6   6   63.59    6.80
   1  -6   6   65.79   11.70
   1  -6   6   65.69    7.30
   1  -6   6   58.59    5.90
  -2   6  -6  241.38   16.60
  -2   6  -6  246.88   17.90
  -2   6  -6  264.77   18.60
  -2   6  -6  280.87   17.60
   2  -6   6  283.37   25.20
   2  -6   6  216.68   19.10
   2  -6   6  231.78   17.60
   2  -6   6  251.67   19.20
   2  -6   6  242.38   18.50
  -3   6  -6   64.79    5.00
  -3   6  -6   68.29    6.90
  -3   6  -6   67.89    7.70
  -3   6  -6   55.69    6.90
   3  -6   6   57.39    6.50
   3  -6   6   54.19    7.70
   3  -6   6   59.09    7.90
  -4   6  -6  353.16   22.10
  -4   6  -6  354.96   25.40
  -4   6  -6  399.76   25.50
  -4   6  -6  338.67   22.20
  -4   6  -6  367.26   22.40
   4  -6   6  322.57   26.50
   4  -6   6  356.36   24.50
   4  -6   6  295.27   25.60
  -5   6  -6   14.40    4.60
  -5   6  -6   15.50    2.00
  -5   6  -6   14.00    4.80
  -5   6  -6   13.30    2.40
   5  -6   6    8.20    5.40
   5  -6   6   13.10    4.40
  -6   6  -6  156.38   14.70
  -6   6  -6  170.48   10.60
  -6   6  -6  138.79   16.00
  -6   6  -6  153.68   11.80
   6  -6   6  155.88   14.40
   6  -6   6  145.29   15.60
  -7   6  -6   11.00    5.00
  -7   6  -6    3.00    2.40
  -7   6  -6    4.10    4.30
   7  -6   6    2.40    4.00
   7  -6   6    4.30    4.70
   7   5  -6   43.00   14.70
  -7  -5   6   61.09    6.60
  -7  -5   6   47.70    4.90
  -7  -5   6   34.80    7.30
   6   5  -6   27.90   11.20
  -6  -5   6   20.30    4.40
  -6  -5   6   25.60    4.60
  -6  -5   6   23.60    3.10
   5   5  -6  180.28   35.10
  -5  -5   6  150.28   12.20
  -5  -5   6  126.39   15.00
  -5  -5   6  165.48   10.80
   4   5  -6   71.29   14.00
   4   5  -6   45.00    7.20
  -4  -5   6   45.70    5.10
  -4  -5   6   50.69    4.30
  -4  -5   6   40.90    5.00
   3   5  -6  269.27   22.60
  -3  -5   6  340.67   20.20
  -3  -5   6  297.17   19.60
  -3  -5   6  299.37   19.50
  -3  -5   6  306.97   20.80
  -3  -5   6  302.97   20.90
  -3  -5   6  318.47   20.30
   2   5  -6   33.40    3.70
   2   5  -6   40.80    3.70
   2   5  -6   33.60    6.30
  -2  -5   6   49.99    3.70
  -2  -5   6   34.10   10.30
  -2  -5   6   45.80    4.60
  -2  -5   6   42.70    4.10
  -2  -5   6   45.80    4.90
  -2  -5   6   46.90    4.40
   1   5  -6  507.05   33.40
   1   5  -6  530.05   34.90
   1   5  -6  530.05   32.80
   1   5  -6  509.45   32.80
  -1  -5   6  498.65   33.40
  -1  -5   6  489.75   32.30
  -1  -5   6  541.45   33.00
  -1  -5   6  495.45   41.60
  -1  -5   6  502.05   33.10
  -1  -5   6  515.65   33.70
   0   5  -6    0.80    1.80
   0   5  -6    0.90    0.60
   0   5  -6    2.10    1.60
   0   5  -6    1.90    2.50
   0   5  -6    1.70    1.70
   0  -5   6    0.40    1.90
   0  -5   6   -0.20    1.90
   0  -5   6   -0.80    3.60
   0  -5   6    2.30    1.90
   0  -5   6    1.30    1.40
  -1   5  -6  440.76   28.80
  -1   5  -6  435.96   29.60
  -1   5  -6  528.45   33.60
  -1   5  -6  465.45   28.90
  -1   5  -6  463.65   28.60
   1  -5   6  431.26   30.20
   1  -5   6  395.56   30.10
   1  -5   6  460.15   29.10
   1  -5   6  405.46   29.60
  -2   5  -6    3.70    2.10
  -2   5  -6    2.90    2.10
  -2   5  -6    0.30    1.30
  -2   5  -6    1.50    2.20
  -2   5  -6    0.50    1.80
   2  -5   6    2.70    2.60
   2  -5   6    3.00    2.40
   2  -5   6    0.40    1.90
   2  -5   6   -0.20    2.30
  -3   5  -6  475.65   32.20
  -3   5  -6  525.75   32.30
  -3   5  -6  520.05   30.50
  -3   5  -6  495.05   32.50
   3  -5   6  433.06   33.40
   3  -5   6  474.85   33.10
   3  -5   6  458.35   31.70
   3  -5   6  423.06   32.30
  -4   5  -6   99.29    9.50
  -4   5  -6  102.69    9.20
  -4   5  -6   92.39    6.80
  -4   5  -6  101.59    7.00
  -4   5  -6  101.59    9.60
   4  -5   6   76.09    9.80
   4  -5   6   81.69    8.30
   4  -5   6   92.39    9.40
  -5   5  -6  111.69   10.80
  -5   5  -6  115.09    8.60
  -5   5  -6  128.79   11.60
   5  -5   6   77.89   14.90
   5  -5   6  103.39    9.90
  -6   5  -6   62.29    8.30
  -6   5  -6   68.09    9.30
  -6   5  -6   69.09    6.40
   6  -5   6   55.89   10.00
   6  -5   6   56.39   10.20
  -7   5  -6   20.30    5.50
  -7   5  -6   14.80    3.50
  -7   5  -6   16.90    5.40
   7  -5   6    9.20    4.50
   7  -5   6   17.10    5.30
   7   4  -6   27.10   11.80
  -7  -4   6   18.10    2.90
  -7  -4   6   12.30    3.50
  -7  -4   6   14.30    4.40
   6   4  -6   50.39   13.70
  -6  -4   6   51.89    4.30
  -6  -4   6   40.80    6.10
  -6  -4   6   40.40    4.90
  -5  -4   6   32.70    3.00
  -5  -4   6   26.30    4.10
  -5  -4   6   23.20    4.40
   4   4  -6  154.18   14.70
   4   4  -6  221.38   23.00
  -4  -4   6  177.68   11.70
  -4  -4   6  176.18   13.20
  -4  -4   6  186.28   14.00
  -4  -4   6  172.28   12.50
   3   4  -6    0.40    2.60
   3   4  -6    8.40    6.20
  -3  -4   6    2.30    2.50
  -3  -4   6    8.20    1.50
  -3  -4   6    6.20    1.80
  -3  -4   6    3.60    2.10
  -3  -4   6    4.50    4.80
  -3  -4   6    3.10    1.70
   2   4  -6  118.19    9.60
   2   4  -6  116.79    7.80
   2   4  -6  111.79    7.80
  -2  -4   6  123.29    8.30
  -2  -4   6  114.19    8.70
  -2  -4   6  116.59    8.90
  -2  -4   6  115.89    8.10
  -2  -4   6  121.59   16.60
  -2  -4   6  111.59    7.90
  -2  -4   6  114.49    8.30
   1   4  -6   75.19    6.90
   1   4  -6   69.69    7.70
   1   4  -6   85.49    6.00
  -1  -4   6   81.19    5.80
  -1  -4   6   72.39    7.10
  -1  -4   6   76.29   12.00
  -1  -4   6   77.89    6.50
  -1  -4   6   81.79    6.50
  -1  -4   6   82.09    5.20
  -1  -4   6   78.89    6.30
   0   4  -6   53.79    5.30
   0   4  -6   64.09    6.50
   0   4  -6   60.09    5.60
   0   4  -6   65.59    5.30
   0  -4   6   53.79    5.70
   0  -4   6   63.89    5.20
   0  -4   6   63.69    5.70
   0  -4   6   55.09    5.80
   0  -4   6   62.99   10.30
  -1   4  -6   51.29    4.20
  -1   4  -6   46.40    4.80
  -1   4  -6   43.40    4.20
  -1   4  -6   47.40    4.40
  -1   4  -6   45.20    4.90
   1  -4   6   51.09   11.20
   1  -4   6   45.40    5.20
   1  -4   6   43.60    5.50
   1  -4   6   48.80    4.70
   1  -4   6   42.70    5.20
  -2   4  -6    0.50    1.70
  -2   4  -6   -0.10    1.20
  -2   4  -6   -0.70    1.80
  -2   4  -6    0.00    1.70
  -2   4  -6    0.50    1.80
   2  -4   6   -0.40    2.00
   2  -4   6    0.50    2.10
   2  -4   6    0.50    2.20
   2  -4   6   -0.70    1.70
  -3   4  -6    6.10    1.70
  -3   4  -6    4.80    2.80
  -3   4  -6    8.00    2.80
  -3   4  -6    6.30    2.70
  -3   4  -6    6.10    0.90
   3  -4   6    3.20    2.30
   3  -4   6    4.90    2.90
   3  -4   6    4.60    2.80
  -4   4  -6  118.59   10.50
  -4   4  -6  125.79    8.30
  -4   4  -6  113.59   10.30
  -4   4  -6  128.69   10.70
   4  -4   6   99.69   11.10
   4  -4   6  124.79   10.10
   4  -4   6   98.59   10.20
   4  -4   6  113.59   10.70
  -5   4  -6   -1.10    1.20
  -5   4  -6   -0.90    2.40
  -5   4  -6    2.60    2.80
   5  -4   6    3.80    3.20
   5  -4   6    0.10    3.40
   5  -4   6    0.40    2.50
  -6   4  -6    7.80    2.70
  -6   4  -6    8.60    4.00
  -6   4  -6    5.60    3.70
   6  -4   6    7.70    4.10
  -7   4  -6   21.30    5.70
  -7   4  -6   23.80    5.90
  -7   4  -6   29.20    4.70
   7  -4   6   14.40    5.50
   7  -4   6   22.80    5.80
  -8   4  -6    7.70    3.40
  -8   4  -6    9.90    4.80
  -8   4  -6    7.10    4.60
   8  -4   6    4.30    3.80
   8   3  -6   24.00   12.00
  -8  -3   6   14.30    5.10
   7   3  -6   21.70   10.70
  -7  -3   6    7.80    2.70
  -7  -3   6   12.40    2.40
  -7  -3   6   11.30    5.20
   6   3  -6   69.09   14.50
  -6  -3   6   49.10    6.70
  -6  -3   6   49.10    5.00
  -6  -3   6   44.90    4.20
   5   3  -6    1.70    5.60
  -5  -3   6    1.20    2.10
  -5  -3   6    2.20    1.10
  -5  -3   6    5.40    1.70
   4   3  -6  327.47   26.50
  -4  -3   6  404.36   23.50
  -4  -3   6  361.66   25.30
  -4  -3   6  345.37   35.10
  -4  -3   6  371.66   25.30
  -4  -3   6  384.26   23.90
  -4  -3   6  412.06   26.10
   3   3  -6  102.79    9.10
   3   3  -6  100.29   10.00
  -3  -3   6  107.09    8.50
  -3  -3   6  109.59    7.30
  -3  -3   6   98.19   15.50
  -3  -3   6  110.59    7.10
  -3  -3   6  110.39    8.40
  -3  -3   6  109.59    9.80
   2   3  -6  457.55   32.70
   2   3  -6  483.05   31.70
  -2  -3   6  462.95   39.60
  -2  -3   6  491.15   30.10
  -2  -3   6  478.55   30.50
  -2  -3   6  442.16   29.90
  -2  -3   6  525.05   30.40
  -2  -3   6  522.55   31.30
  -2  -3   6  465.25   30.60
   1   3  -6   12.10    1.60
   1   3  -6   10.60    2.70
   1   3  -6    6.50    2.80
  -1  -3   6   12.40    2.30
  -1  -3   6    9.60    1.90
  -1  -3   6    9.40    2.00
  -1  -3   6   10.10    1.30
  -1  -3   6   12.60    5.70
  -1  -3   6    9.20    1.50
  -1  -3   6   10.80    2.10
   0   3  -6  906.51   59.79
   0   3  -6  981.40   60.09
   0   3  -6  972.00   59.79
   0   3  -6 1030.90   60.99
   0  -3   6  962.10   59.69
   0  -3   6  934.81   59.99
   0  -3   6  938.21   62.49
   0  -3   6 1028.20   67.29
   0  -3   6  849.12   60.19
  -1   3  -6    0.20    1.30
  -1   3  -6    1.00    1.30
  -1   3  -6   -0.30    1.20
  -1   3  -6    0.60    1.00
  -1   3  -6    0.00    1.30
   1  -3   6    2.80    1.60
   1  -3   6    1.50    1.80
   1  -3   6    3.90    2.00
   1  -3   6    1.80    1.60
  -2   3  -6 1254.07   75.29
  -2   3  -6 1342.37   74.59
  -2   3  -6 1193.18   75.09
  -2   3  -6 1206.78   75.39
  -2   3  -6 1235.48   75.59
   2  -3   6 1061.29   76.09
   2  -3   6 1169.68   75.59
   2  -3   6 1138.09   75.79
   2  -3   6 1148.09   75.09
  -3   3  -6   13.40    3.50
  -3   3  -6   15.30    3.40
  -3   3  -6   12.90    3.40
  -3   3  -6   13.30    3.20
  -3   3  -6   15.10    1.70
   3  -3   6   14.50    3.60
   3  -3   6   13.60    4.00
   3  -3   6   15.40    3.20
   3  -3   6   12.50    3.30
  -4   3  -6  715.83   45.50
  -4   3  -6  713.03   45.20
  -4   3  -6  705.73   45.00
  -4   3  -6  700.83   43.00
  -4   3  -6  675.13   44.90
   4  -3   6  627.34   46.10
   4  -3   6  689.23   45.50
   4  -3   6  663.43   45.00
   4  -3   6  652.43   44.40
  -5   3  -6   18.30    4.50
  -5   3  -6   11.80    2.50
  -5   3  -6    9.10    3.50
   5  -3   6   15.00    4.40
   5  -3   6   10.50    4.20
  -6   3  -6  304.77   22.30
  -6   3  -6  299.77   20.40
  -6   3  -6  317.37   22.30
   6  -3   6  263.87   23.20
   6  -3   6  277.17   22.00
  -7   3  -6    4.60    2.40
  -7   3  -6    9.80    7.60
   7  -3   6    2.40    3.70
  -8   3  -6  156.48   12.40
  -8   3  -6  130.79   13.40
  -8   3  -6  137.69   13.70
   8  -3   6  125.09   13.20
   8  -3   6  140.99   16.20
   8   2  -6   11.60   11.40
  -8  -2   6    7.50    2.40
  -8  -2   6    2.90    2.40
  -8  -2   6    2.10    3.40
   7   2  -6   72.59   15.40
  -7  -2   6   50.69    6.00
  -7  -2   6   63.29    5.60
   6   2  -6   26.70   10.30
  -6  -2   6   18.70    4.30
  -6  -2   6   22.70    2.80
  -6  -2   6   17.00    2.90
   5   2  -6  212.28   22.60
  -5  -2   6  182.58   12.10
  -5  -2   6  178.48   14.30
  -5  -2   6  178.28   12.50
   4   2  -6   12.70    3.50
   4   2  -6   13.60    3.80
   4   2  -6   17.60    7.20
  -4  -2   6   10.90    2.80
  -4  -2   6    9.10    6.10
  -4  -2   6   10.30    2.50
  -4  -2   6   12.30    3.20
   3   2  -6  205.38   17.70
   3   2  -6  247.68   17.20
  -3  -2   6  234.68   24.80
  -3  -2   6  265.57   17.40
  -3  -2   6  239.78   16.60
  -3  -2   6  248.08   16.60
   2   2  -6   13.40    2.90
   2   2  -6    5.30    2.70
  -2  -2   6    9.80    5.80
  -2  -2   6    7.30    1.10
  -2  -2   6   12.80    2.50
  -2  -2   6    9.60    2.60
  -2  -2   6    9.60    1.90
  -2  -2   6    7.70    1.20
   1   2  -6 1082.69   67.89
   1   2  -6 1093.19   66.89
   1   2  -6 1116.49   66.79
   1   2  -6 1106.69   68.89
  -1  -2   6 1022.60   67.19
  -1  -2   6 1014.90   67.09
  -1  -2   6 1111.69   75.29
  -1  -2   6 1033.60   66.99
  -1  -2   6 1165.48   67.69
  -1  -2   6 1070.99   67.09
   0   2  -6    6.70    1.60
   0   2  -6    7.00    2.30
   0   2  -6    7.30    2.00
   0   2  -6    7.20    1.80
   0  -2   6    7.00    0.70
   0  -2   6    7.30    2.00
   0  -2   6    6.90    0.70
   0  -2   6    4.70    1.40
   0  -2   6    5.80    1.70
   0  -2   6    5.50    1.70
   0  -2   6    7.50    4.40
  -1   2  -6  713.03   44.70
  -1   2  -6  730.63   45.30
  -1   2  -6  755.92   45.50
  -1   2  -6  764.12   45.00
  -1   2  -6  725.83   44.90
   1  -2   6  700.53   45.20
   1  -2   6  743.13   45.60
   1  -2   6  671.63   45.50
   1  -2   6  619.24   45.80
  -2   2  -6   22.50    1.80
  -2   2  -6   23.70    3.70
  -2   2  -6   23.90    3.70
  -2   2  -6   22.00    3.30
  -2   2  -6   23.80    3.60
   2  -2   6   23.10    3.90
   2  -2   6   21.80    3.40
   2  -2   6   18.50    3.50
   2  -2   6   18.20    4.50
  -3   2  -6  523.25   34.00
  -3   2  -6  538.95   32.50
  -3   2  -6  537.65   34.40
  -3   2  -6  554.04   34.30
  -3   2  -6  532.65   34.70
   3  -2   6  448.96   35.00
   3  -2   6  505.55   34.30
   3  -2   6  526.05   34.00
   3  -2   6  486.45   34.40
  -4   2  -6  367.06   24.40
  -4   2  -6  353.96   22.80
  -4   2  -6  355.26   25.10
  -4   2  -6  361.06   25.40
  -4   2  -6  362.86   24.80
   4  -2   6  361.56   24.70
   4  -2   6  353.06   24.10
   4  -2   6  327.97   24.50
   4  -2   6  312.37   25.30
  -5   2  -6  295.57   20.40
  -5   2  -6  284.87   18.50
  -5   2  -6  258.17   19.80
  -5   2  -6  300.67   21.20
  -5   2  -6  277.07   20.10
   5  -2   6  257.47   20.00
   5  -2   6  255.97   19.40
   5  -2   6  231.98   20.90
   5  -2   6  268.07   20.20
  -6   2  -6  210.38   15.00
  -6   2  -6  223.98   16.60
  -6   2  -6  188.48   16.20
   6  -2   6  198.08   16.50
   6  -2   6  199.08   15.80
  -7   2  -6   53.89    8.00
  -7   2  -6   52.79    6.30
  -7   2  -6   45.10    7.40
   7  -2   6   53.79    8.10
   7  -2   6   30.60    8.10
  -8   2  -6   54.99    8.20
  -8   2  -6   56.79    7.60
  -8   2  -6   64.79    9.40
   8  -2   6   49.50   10.90
  -9   2  -6    3.00    3.40
  -9   2  -6    3.00    3.30
  -9   2  -6    5.30    4.00
   9  -2   6    0.40    3.80
   9  -2   6    7.20    5.60
   8   1  -6  109.39   18.70
  -8  -1   6   92.19    8.70
  -8  -1   6   97.59   10.90
  -8  -1   6  113.59    6.80
  -8  -1   6   90.09    9.10
  -8  -1   6  100.69    6.80
   7   1  -6   23.00   10.20
  -7  -1   6   18.60    3.20
  -7  -1   6   13.70    6.40
  -7  -1   6   15.50    3.50
   6   1  -6  413.86   34.60
  -6  -1   6  359.26   23.00
  -6  -1   6  334.27   25.10
  -6  -1   6  312.57   23.10
   5   1  -6   79.09   13.40
  -5  -1   6   78.89    7.10
  -5  -1   6   92.59    8.10
  -5  -1   6   81.39    5.70
  -5  -1   6   66.29    5.70
  -5  -1   6   54.89   12.00
  -5  -1   6   72.99    7.50
   4   1  -6 1134.89   72.09
  -4  -1   6 1167.58   71.69
  -4  -1   6 1189.58   69.79
  -4  -1   6 1106.99   69.79
  -4  -1   6 1026.50   81.69
  -4  -1   6 1104.19   75.99
  -4  -1   6 1195.28   72.19
   3   1  -6   43.80    5.90
   3   1  -6   41.70    5.00
   3   1  -6   59.49   10.20
  -3  -1   6   43.30    4.80
  -3  -1   6   43.60    4.70
  -3  -1   6   53.09    5.40
  -3  -1   6   53.19   12.30
   2   1  -6 1531.85  101.19
   2   1  -6 1634.44  100.39
  -2  -1   6 1729.33  100.09
  -2  -1   6 1476.15   98.79
  -2  -1   6 1675.73   98.69
  -2  -1   6 1643.04  100.59
  -2  -1   6 1624.34  108.69
  -2  -1   6 1555.84   99.99
   1   1  -6   15.90    1.70
   1   1  -6   10.30    3.00
   1   1  -6   12.40    1.50
  -1  -1   6   12.10    1.70
  -1  -1   6   13.70    1.80
  -1  -1   6   14.30    1.70
  -1  -1   6   12.70    5.60
  -1  -1   6   10.30    1.80
   0   1  -6  771.22   48.00
   0   1  -6  748.63   47.80
   0   1  -6  764.32   48.90
   0   1  -6  759.02   48.20
   0  -1   6  812.02   47.40
   0  -1   6  688.63   47.90
   0  -1   6  749.13   48.00
   0  -1   6  757.82   47.90
   0  -1   6  837.12   54.19
  -1   1  -6   24.70    2.60
  -1   1  -6   28.50    3.00
  -1   1  -6   27.50    3.10
  -1   1  -6   32.40    3.40
  -1   1  -6   24.40    2.90
   1  -1   6   18.90    3.60
   1  -1   6   29.90    3.60
   1  -1   6   26.00    3.40
   1  -1   6   23.80    2.10
   1  -1   6   25.60    4.00
  -2   1  -6  235.18   16.30
  -2   1  -6  259.67   15.30
  -2   1  -6  258.87   17.00
  -2   1  -6  249.48   17.10
  -2   1  -6  250.47   16.60
   2  -1   6  191.28   17.10
   2  -1   6  246.48   16.60
   2  -1   6  229.48   16.80
   2  -1   6  237.58   16.80
   2  -1   6  237.98   15.50
  -3   1  -6   50.69    6.00
  -3   1  -6   65.59    6.20
  -3   1  -6   62.19    4.60
  -3   1  -6   56.09    5.80
   3  -1   6   43.40    6.10
   3  -1   6   57.39    5.90
   3  -1   6   58.19    4.80
   3  -1   6   64.29    6.00
   3  -1   6   60.49    6.10
  -4   1  -6   15.60    2.50
  -4   1  -6   19.50    4.60
  -4   1  -6   16.00    3.60
  -4   1  -6   15.20    3.70
  -4   1  -6   18.30    3.90
   4  -1   6   22.00    4.10
   4  -1   6   17.70    3.50
   4  -1   6   10.70    3.60
   4  -1   6   14.70    3.70
   4  -1   6   14.40    3.40
  -5   1  -6   19.90    4.40
  -5   1  -6   13.00    4.30
  -5   1  -6   32.40    5.10
  -5   1  -6   20.50    3.30
  -5   1  -6   22.60    4.60
   5  -1   6   23.90    4.40
   5  -1   6   28.20    5.00
   5  -1   6   18.70    3.30
   5  -1   6   19.10    4.10
  -6   1  -6    1.90    2.50
  -6   1  -6    1.20    1.80
  -6   1  -6   -1.40    2.50
  -6   1  -6   -1.30    2.50
   6  -1   6    0.60    3.10
   6  -1   6   -4.40    2.30
   6  -1   6    3.80    2.40
  -7   1  -6   44.80    7.70
  -7   1  -6   29.70    5.70
  -7   1  -6   34.60    5.30
   7  -1   6   39.20    8.70
   7  -1   6   28.40    6.30
  -8   1  -6    1.60    3.30
  -8   1  -6    0.00    2.50
  -8   1  -6   -0.10    2.70
   8  -1   6    0.60    6.30
   8  -1   6   -4.60    3.30
  -9   1  -6   23.40    6.00
  -9   1  -6   25.10    5.40
  -9   1  -6   30.30    7.00
   9  -1   6   20.50    7.10
   9  -1   6   29.10    6.10
   8   0  -6   -0.80    0.60
   8   0  -6   -1.30    5.80
  -8   0   6    0.30    1.60
  -8   0   6   -3.90    2.10
  -8   0   6    2.10    3.50
  -8   0   6    0.20    1.20
  -8   0   6    2.50    2.30
   7   0  -6   21.10   14.20
  -7   0   6   17.30    3.90
  -7   0   6   26.70    2.70
  -7   0   6   20.30    2.60
   6   0  -6   58.89   12.20
  -6   0   6   59.59    4.60
  -6   0   6   51.59    6.00
  -6   0   6   57.49    5.60
  -6   0   6   62.09    4.40
  -6   0   6   58.49    7.90
   5   0  -6   78.69   13.90
   5   0  -6   67.19    7.20
  -5   0   6   73.19    6.80
  -5   0   6   77.19    4.80
  -5   0   6   62.99    7.30
  -5   0   6   63.99    5.80
  -5   0   6   71.89    7.60
  -5   0   6   74.69    4.80
  -5   0   6   71.29    5.90
   4   0  -6  303.57   21.80
   4   0  -6  368.06   28.70
  -4   0   6  313.87   22.10
  -4   0   6  294.87   20.20
  -4   0   6  321.67   21.40
  -4   0   6  336.37   20.50
  -4   0   6  270.17   28.40
  -4   0   6  327.67   22.20
   3   0  -6    4.70    2.40
   3   0  -6    3.30    4.10
   3   0  -6    5.10    2.20
  -3   0   6    3.60    0.70
  -3   0   6    4.60    2.10
  -3   0   6    3.00    4.00
  -3   0   6    5.00    1.70
  -3   0   6    3.30    0.90
   2   0  -6  395.86   28.90
   2   0  -6  416.46   28.20
  -2   0   6  444.26   28.00
  -2   0   6  451.95   35.50
  -2   0   6  430.36   28.40
  -2   0   6  462.05   26.80
  -2   0   6  416.86   26.80
   1   0  -6  574.74   34.50
   1   0  -6  562.34   36.20
   1   0  -6  524.35   33.70
  -1   0   6  558.34   33.60
  -1   0   6  534.85   33.60
  -1   0   6  564.24   34.80
  -1   0   6  451.25   33.90
  -1   0   6  528.85   33.70
  -1   0   6  556.14   40.60
   0   0  -6  733.83   46.10
   0   0  -6  779.12   46.40
   0   0  -6  754.82   46.90
   0   0  -6  755.22   45.50
   0   0  -6  720.33   45.60
   0   0   6  622.94   46.60
   0   0   6  729.43   46.20
   0   0   6  719.13   46.20
   0   0   6  823.52   45.90
   0   0   6  721.83   46.20
  -1   0  -6 1161.48   70.79
  -1   0  -6 1161.68   69.99
  -1   0  -6 1084.59   70.59
  -1   0  -6 1203.28   70.49
   1   0   6 1123.99   70.59
   1   0   6 1153.68   70.59
   1   0   6 1130.09   70.49
   1   0   6  956.30   70.99
   1   0   6 1169.18   69.79
  -2   0  -6  519.85   36.30
  -2   0  -6  566.44   33.70
  -2   0  -6  536.35   34.40
  -2   0  -6  554.14   35.10
  -2   0  -6  527.55   34.70
   2   0   6  513.95   33.90
   2   0   6  528.75   34.90
   2   0   6  553.14   34.80
  -3   0  -6  477.85   32.70
  -3   0  -6  500.05   31.60
  -3   0  -6  484.95   31.90
  -3   0  -6  514.75   30.50
  -3   0  -6  485.95   32.30
   3   0   6  463.15   31.70
   3   0   6  458.15   31.70
   3   0   6  492.05   33.50
   3   0   6  459.25   30.70
   3   0   6  454.05   31.40
  -4   0  -6  503.55   32.70
  -4   0  -6  540.95   33.00
  -4   0  -6  537.75   33.40
  -4   0  -6  464.15   33.80
  -4   0  -6  525.05   31.70
   4   0   6  474.35   34.70
   4   0   6  512.85   33.10
   4   0   6  467.25   32.60
   4   0   6  458.65   32.90
   4   0   6  445.76   31.80
  -5   0  -6  133.49   11.30
  -5   0  -6  124.79   11.00
  -5   0  -6  148.99   10.20
  -5   0  -6  117.99   13.00
  -5   0  -6  128.49   10.90
   5   0   6  123.89   12.80
   5   0   6  122.49   10.60
   5   0   6  118.69   11.00
   5   0   6  129.19   12.40
   5   0   6  137.89   10.40
  -6   0  -6  561.84   36.50
  -6   0  -6  572.34   37.90
  -6   0  -6  560.14   35.40
  -6   0  -6  561.54   36.80
  -6   0  -6  506.55   37.80
   6   0   6  547.25   36.60
   6   0   6  520.65   36.50
   6   0   6  535.05   38.90
   6   0   6  460.45   35.20
   6   0   6  532.05   36.00
  -7   0  -6   65.79    7.20
  -7   0  -6   64.59    7.80
  -7   0  -6   76.69    9.10
   7   0   6   51.69    7.20
   7   0   6   73.49    8.40
   7   0   6   47.50    9.30
  -8   0  -6  173.18   15.80
  -8   0  -6  174.98   14.50
  -8   0  -6  204.88   16.00
   8   0   6  171.38   17.50
   8   0   6  163.88   15.20
  -9   0  -6   48.10    8.30
  -9   0  -6   45.90    7.80
  -9   0  -6   49.20    7.60
   9   0   6   42.30    9.50
   8  -1  -6   -1.50    5.90
   8  -1  -6    5.30    1.90
   8  -1  -6    0.50    1.20
  -8   1   6   -3.00    3.10
  -8   1   6   -0.10    2.50
  -8   1   6   -0.90    1.70
   7  -1  -6  131.39    9.30
   7  -1  -6  135.79    9.90
   7  -1  -6  146.59   19.60
  -7   1   6  140.59   10.20
  -7   1   6  128.59   11.10
  -7   1   6  146.99   11.40
  -7   1   6  150.18   10.20
   6  -1  -6    9.30    1.90
   6  -1  -6    8.70    1.40
   6  -1  -6   11.30    6.70
  -6   1   6    9.30    1.80
  -6   1   6    6.90    3.40
  -6   1   6   10.90    2.80
  -6   1   6   10.40    2.70
  -6   1   6    9.50    2.00
   5  -1  -6  168.68   11.40
   5  -1  -6  194.88   19.70
   5  -1  -6  147.19   13.20
   5  -1  -6  171.48   11.70
  -5   1   6  182.88   11.80
  -5   1   6  176.88   12.50
  -5   1   6  180.28   14.10
  -5   1   6  189.18   12.20
  -5   1   6  179.28   13.00
  -5   1   6  178.38   14.30
  -5   1   6  184.78   12.80
   4  -1  -6  166.78   16.30
   4  -1  -6  118.59   10.20
   4  -1  -6  129.49    8.70
  -4   1   6  103.79   14.90
  -4   1   6  126.19   10.70
  -4   1   6  134.29    8.80
  -4   1   6  126.79    9.20
  -4   1   6  125.29    8.80
  -4   1   6  142.39   10.00
  -4   1   6  142.29    9.80
   3  -1  -6  343.07   21.60
   3  -1  -6  297.07   23.50
   3  -1  -6  333.37   23.00
   3  -1  -6  347.57   21.70
  -3   1   6  360.36   23.40
  -3   1   6  344.47   21.70
  -3   1   6  329.37   29.50
  -3   1   6  380.66   22.90
  -3   1   6  343.57   21.70
  -3   1   6  343.97   22.50
  -3   1   6  354.16   21.90
   2  -1  -6  140.19    9.40
   2  -1  -6  142.69   10.50
   2  -1  -6  134.39    9.40
   2  -1  -6  126.19   10.90
  -2   1   6  147.59   15.80
  -2   1   6  145.29   10.70
  -2   1   6  131.99   10.10
  -2   1   6  157.28    9.40
  -2   1   6  159.18   10.40
   1  -1  -6  537.35   35.10
   1  -1  -6  551.84   34.70
   1  -1  -6  531.55   35.70
  -1   1   6  544.75   34.50
  -1   1   6  567.34   34.50
  -1   1   6  527.65   35.40
  -1   1   6  581.44   41.00
  -1   1   6  550.74   35.40
  -1   1   6  560.14   34.60
   0  -1  -6   72.79    6.20
   0  -1  -6   94.29    6.50
   0  -1  -6   86.19    5.90
   0  -1  -6   87.49    7.00
   0  -1  -6   86.99    7.10
   0  -1  -6   84.19    6.60
   0   1   6   89.89    6.50
   0   1   6   92.19    6.40
   0   1   6   74.89    7.20
   0   1   6   78.89    6.30
   0   1   6   97.29    6.40
  -1  -1  -6  943.21   57.99
  -1  -1  -6  810.92   58.39
  -1  -1  -6  978.30   58.39
  -1  -1  -6  939.21   57.59
  -1  -1  -6 1009.20   58.09
   1   1   6  876.41   59.29
   1   1   6  953.00   57.69
   1   1   6  916.11   58.09
   1   1   6  925.81   58.09
   1   1   6  885.91   57.99
  -2  -1  -6   36.60    3.70
  -2  -1  -6   35.90    3.10
  -2  -1  -6   35.30    4.20
  -2  -1  -6   33.90    4.30
  -2  -1  -6   28.30    4.20
   2   1   6   28.10    5.10
   2   1   6   34.30    4.00
   2   1   6   34.10    3.90
   2   1   6   41.20    4.20
   2   1   6   34.20    3.30
  -3  -1  -6 1678.53   99.79
  -3  -1  -6 1414.06  100.59
  -3  -1  -6 1690.23   98.89
  -3  -1  -6 1683.53  100.29
  -3  -1  -6 1593.74   99.69
   3   1   6 1511.55   99.89
   3   1   6 1565.24   99.79
   3   1   6 1626.14   99.99
   3   1   6 1586.84  101.79
  -4  -1  -6  159.98   11.00
  -4  -1  -6  159.18   12.20
  -4  -1  -6  137.39   12.70
  -4  -1  -6  164.18   12.10
  -4  -1  -6  136.09   11.50
   4   1   6  159.58   11.90
   4   1   6  143.89   13.50
   4   1   6  151.58   12.00
   4   1   6  149.09   11.20
   4   1   6  161.18   12.20
  -5  -1  -6  662.03   48.10
  -5  -1  -6  731.83   46.60
  -5  -1  -6  715.63   47.00
  -5  -1  -6  745.63   45.80
  -5  -1  -6  723.43   46.60
   5   1   6  703.13   46.50
   5   1   6  672.03   46.90
   5   1   6  736.73   49.20
   5   1   6  777.42   47.00
   5   1   6  657.33   45.90
  -6  -1  -6  132.59   11.10
  -6  -1  -6  123.39    9.80
  -6  -1  -6  112.79   10.40
  -6  -1  -6  132.39   10.90
  -6  -1  -6  108.59   11.50
   6   1   6  111.29   10.30
   6   1   6  103.19    9.90
   6   1   6  119.09   12.80
   6   1   6  132.79   11.00
   6   1   6  106.09   10.40
  -7  -1  -6  192.98   16.30
  -7  -1  -6  190.48   15.00
  -7  -1  -6  186.08   14.30
  -7  -1  -6  169.68   14.60
   7   1   6  159.68   14.20
   7   1   6  179.68   15.10
   7   1   6  172.78   17.10
  -8  -1  -6   75.59    9.20
  -8  -1  -6   70.39    8.30
  -8  -1  -6   74.99   11.50
   8   1   6   71.29   11.70
   8   1   6   71.69    9.60
  -9  -1  -6   90.59   11.20
  -9  -1  -6   79.59    8.90
  -9  -1  -6   78.39    9.70
   9   1   6   67.89   12.00
   9   1   6   76.59   10.50
   8  -2  -6   53.89   13.80
  -8   2   6   59.49    5.70
  -8   2   6   60.99    6.20
  -8   2   6   57.49    7.30
  -8   2   6   59.29    8.90
  -8   2   6   49.99    6.80
   7  -2  -6   22.10    8.30
   7  -2  -6   24.10    2.70
  -7   2   6   22.90    3.70
  -7   2   6   22.40    4.40
  -7   2   6   21.70    3.30
  -7   2   6   23.30    4.20
  -7   2   6   20.70    5.20
   6  -2  -6  306.77   27.60
   6  -2  -6  283.47   18.50
  -6   2   6  287.07   20.00
  -6   2   6  297.67   21.70
  -6   2   6  272.17   19.30
  -6   2   6  296.57   19.10
  -6   2   6  265.67   21.40
   5  -2  -6    7.70    2.60
   5  -2  -6    7.40    1.40
   5  -2  -6    6.60    4.90
  -5   2   6    3.40    2.20
  -5   2   6    8.50    2.50
  -5   2   6    8.50    1.90
  -5   2   6    9.30    3.40
  -5   2   6    6.00    1.90
  -5   2   6    5.30    1.90
   4  -2  -6 1186.68   73.29
   4  -2  -6 1030.10   65.79
   4  -2  -6  955.60   67.09
  -4   2   6 1071.69   67.89
  -4   2   6 1059.89   67.29
  -4   2   6 1066.89   66.19
  -4   2   6 1027.40   66.39
  -4   2   6 1101.19   66.59
  -4   2   6 1071.99   66.89
   3  -2  -6   17.50    3.10
   3  -2  -6   20.40    5.70
   3  -2  -6   15.00    2.00
  -3   2   6   18.30    3.30
  -3   2   6   14.10    5.50
  -3   2   6   18.60    2.90
  -3   2   6   12.30    2.00
  -3   2   6   19.90    2.40
  -3   2   6   15.10    2.90
  -3   2   6   18.90    2.30
   2  -2  -6 1562.94   93.79
   2  -2  -6 1340.97   95.09
   2  -2  -6 1519.05   93.09
   2  -2  -6 1557.54   93.09
  -2   2   6 1650.23   93.09
  -2   2   6 1520.85   93.99
  -2   2   6 1467.05   99.59
  -2   2   6 1507.75   93.09
  -2   2   6 1397.06   93.99
   1  -2  -6   59.39    4.30
   1  -2  -6   56.09    4.80
   1  -2  -6   52.29    4.50
   1  -2  -6   63.09    5.60
   1  -2  -6   59.49    5.20
  -1   2   6   62.49    4.70
  -1   2   6   66.29    4.80
  -1   2   6   64.99    5.30
  -1   2   6   63.49    8.90
  -1   2   6   58.19    4.80
  -1   2   6   57.49    5.70
   0  -2  -6 3033.40  192.68
   0   2   6 2899.61  193.78
   0   2   6 3098.69  192.68
   0   2   6 3142.99  192.48
   0   2   6 3448.35  192.68
  -1  -2  -6  368.96   22.20
  -1  -2  -6  348.27   22.60
  -1  -2  -6  353.56   22.40
   1   2   6  337.77   22.30
   1   2   6  309.07   23.60
   1   2   6  345.67   22.40
   1   2   6  353.16   22.20
   1   2   6  296.37   22.70
  -2  -2  -6 1181.08   70.49
  -2  -2  -6 1200.28   70.19
  -2  -2  -6  966.00   71.19
  -2  -2  -6 1161.88   69.79
  -2  -2  -6 1143.49   70.79
   2   2   6 1093.49   70.49
   2   2   6 1077.69   70.49
   2   2   6 1149.39   70.69
   2   2   6 1110.19   72.29
   2   2   6 1122.69   70.19
  -3  -2  -6  283.67   18.50
  -3  -2  -6  260.57   17.80
  -3  -2  -6  292.47   17.40
  -3  -2  -6  282.67   18.90
  -3  -2  -6  219.18   18.80
   3   2   6  271.87   18.20
   3   2   6  227.38   17.90
   3   2   6  282.97   18.30
   3   2   6  235.88   17.40
   3   2   6  245.38   19.80
  -4  -2  -6  346.47   27.30
  -4  -2  -6  415.76   25.60
  -4  -2  -6  422.26   26.40
  -4  -2  -6  393.26   26.70
  -4  -2  -6  394.16   26.10
   4   2   6  394.06   26.40
   4   2   6  360.36   25.70
   4   2   6  393.66   26.30
   4   2   6  374.66   28.30
   4   2   6  376.16   26.40
  -5  -2  -6  416.86   28.30
  -5  -2  -6  395.56   27.60
  -5  -2  -6  383.46   30.70
  -5  -2  -6  387.66   27.60
  -5  -2  -6  430.76   27.20
   5   2   6  384.56   27.30
   5   2   6  401.26   28.00
   5   2   6  394.76   30.00
   5   2   6  484.45   30.00
   5   2   6  396.16   27.80
  -6  -2  -6   20.60    4.60
  -6  -2  -6   25.10    4.90
  -6  -2  -6   17.50    4.80
  -6  -2  -6   25.20    4.30
  -6  -2  -6   28.10    5.30
   6   2   6   32.50    5.00
   6   2   6   24.40    6.40
   6   2   6   34.20    5.50
   6   2   6   18.80    4.10
  -7  -2  -6  187.28   15.20
  -7  -2  -6  177.68   15.20
  -7  -2  -6  206.78   15.00
  -7  -2  -6  185.38   15.60
   7   2   6  181.28   17.90
   7   2   6  181.18   15.30
  -8  -2  -6   -2.90    2.80
  -8  -2  -6   -0.40    2.70
  -8  -2  -6   -0.90    2.70
   8   2   6   -1.60    2.70
  -9  -2  -6   92.89   11.20
  -9  -2  -6   66.49    9.00
  -9  -2  -6   95.39    9.90
   9   2   6   84.99   15.90
   9   2   6   65.09   11.60
   8  -3  -6   20.10    3.70
   8  -3  -6   18.00    8.60
  -8   3   6   17.60    5.40
  -8   3   6   16.70    4.70
  -8   3   6   19.60    3.90
  -8   3   6   17.40    3.50
   7  -3  -6  250.87   18.40
   7  -3  -6  265.57   26.40
  -7   3   6  268.57   20.00
  -7   3   6  238.48   20.50
  -7   3   6  255.97   18.60
  -7   3   6  289.47   18.40
   6  -3  -6   26.70    4.10
   6  -3  -6   33.40    9.00
   6  -3  -6   30.40    3.30
  -6   3   6   32.30    4.80
  -6   3   6   29.70    5.20
  -6   3   6   31.50    4.40
  -6   3   6   35.40    4.10
  -6   3   6   33.80    4.50
   5  -3  -6  186.08   14.60
   5  -3  -6  189.18   15.20
   5  -3  -6  219.48   14.00
   5  -3  -6  227.28   20.60
  -5   3   6  216.58   16.50
  -5   3   6  210.58   15.00
  -5   3   6  228.38   14.60
  -5   3   6  206.38   14.70
   4  -3  -6    6.50    1.40
   4  -3  -6    8.00    2.50
   4  -3  -6    5.80    4.60
   4  -3  -6    4.50    1.80
  -4   3   6    4.80    1.80
  -4   3   6    4.40    2.50
  -4   3   6    5.00    2.40
  -4   3   6    8.80    1.90
  -4   3   6    4.50    1.50
  -4   3   6    5.30    1.90
   3  -3  -6   24.70    5.80
   3  -3  -6   23.80    2.20
   3  -3  -6   22.80    2.50
   3  -3  -6   26.10    3.70
   3  -3  -6   16.60    1.90
   3  -3  -6   24.70    3.10
  -3   3   6   29.70    3.00
  -3   3   6   20.60    3.80
  -3   3   6   29.80    3.30
  -3   3   6   23.50    6.40
   2  -3  -6   18.60    2.50
   2  -3  -6   19.90    3.00
   2  -3  -6   20.50    2.70
   2  -3  -6   19.50    2.90
   2  -3  -6   16.00    2.20
   2  -3  -6   17.30    3.10
  -2   3   6   23.50    6.00
  -2   3   6   22.40    4.00
  -2   3   6   21.90    2.50
  -2   3   6   20.90    3.20
  -2   3   6   17.20    2.60
   1  -3  -6  114.79    9.30
   1  -3  -6  121.49    9.60
   1  -3  -6  114.49    8.90
   1  -3  -6  113.59    8.70
   1  -3  -6  122.49    8.90
   1  -3  -6  129.79    9.10
  -1   3   6  129.79   10.20
  -1   3   6  123.89    8.70
  -1   3   6  133.49    8.80
  -1   3   6  129.29    9.00
  -1   3   6  123.19   12.60
  -1   3   6  123.19    9.10
   0  -3  -6  162.18   11.20
   0  -3  -6  183.98   11.00
   0  -3  -6  144.49   11.10
   0  -3  -6  150.18   12.00
   0  -3  -6  151.98   11.10
   0   3   6  143.69   11.00
   0   3   6  155.48   10.90
   0   3   6  138.29   12.10
   0   3   6  174.28   11.20
  -1  -3  -6   51.99    5.20
  -1  -3  -6   56.09    4.70
  -1  -3  -6   63.49    4.90
  -1  -3  -6   47.30    5.00
  -1  -3  -6   63.19    4.80
   1   3   6   57.19    5.10
   1   3   6   55.89    5.20
   1   3   6   51.79    4.90
   1   3   6   51.39    6.20
   1   3   6   55.49    5.00
  -2  -3  -6  121.39    9.20
  -2  -3  -6  124.49    9.00
  -2  -3  -6  104.79   10.10
  -2  -3  -6  124.19    8.60
  -2  -3  -6  115.89    8.30
   2   3   6  114.99    8.70
   2   3   6  110.19    8.90
   2   3   6  105.69    8.90
   2   3   6   99.19   11.10
  -3  -3  -6   62.59    7.20
  -3  -3  -6   66.29    5.80
  -3  -3  -6   64.79    6.10
  -3  -3  -6   55.49    6.00
   3   3   6   61.69    6.00
   3   3   6   57.59    7.40
   3   3   6   58.49    5.50
   3   3   6   53.59    5.80
   3   3   6   57.49    6.00
  -4  -3  -6  185.78   12.20
  -4  -3  -6  170.78   12.40
  -4  -3  -6  167.18   12.60
  -4  -3  -6  169.88   13.00
   4   3   6  171.88   12.80
   4   3   6  153.38   12.50
   4   3   6  139.19   12.00
   4   3   6  158.98   12.60
   4   3   6  156.68   14.50
  -5  -3  -6  147.49   10.80
  -5  -3  -6  145.49   11.60
  -5  -3  -6  121.59   13.70
  -5  -3  -6  128.69   11.20
  -5  -3  -6  138.49   11.10
   5   3   6  124.19   10.80
   5   3   6  123.19   11.20
   5   3   6  150.38   11.70
   5   3   6  147.19   13.70
   5   3   6  143.29   11.40
  -6  -3  -6   -0.10    2.60
  -6  -3  -6    1.70    2.20
  -6  -3  -6    0.20    2.50
  -6  -3  -6    0.00    2.90
  -6  -3  -6   -0.90    3.40
   6   3   6    0.30    1.80
   6   3   6    1.30    3.60
   6   3   6    1.10    2.10
   6   3   6    1.00    2.60
   6   3   6    1.50    2.00
  -7  -3  -6   50.29    7.60
  -7  -3  -6   59.89    7.30
  -7  -3  -6   63.69    7.10
  -7  -3  -6   47.20    7.10
   7   3   6   44.50    7.20
   7   3   6   51.39    9.90
  -8  -3  -6   10.90    4.10
  -8  -3  -6    8.90    4.20
  -8  -3  -6    9.90    4.10
   8   3   6   14.20    4.60
  -9  -3  -6   25.20    5.70
  -9  -3  -6   27.00    6.10
  -9  -3  -6   26.60    6.30
   9   3   6   24.90    6.30
   9   3   6   26.20    7.30
   8  -4  -6    1.20    2.20
   8  -4  -6   -0.50    5.30
  -8   4   6   -3.60    2.80
  -8   4   6    0.20    2.60
  -8   4   6   -2.40    2.00
  -8   4   6   -0.50    3.00
   7  -4  -6   70.09    7.10
   7  -4  -6   70.39   12.50
  -7   4   6   64.89    7.20
  -7   4   6   58.39   10.60
  -7   4   6   72.29    7.70
  -7   4   6   74.89    7.00
  -7   4   6   78.99    8.90
   6  -4  -6   27.60    7.90
   6  -4  -6   17.10    3.70
   6  -4  -6   24.60    3.20
  -6   4   6   25.20    4.00
  -6   4   6   32.10    4.30
  -6   4   6   33.30    5.70
  -6   4   6   24.20    4.20
  -6   4   6   32.20    4.80
   5  -4  -6   95.49    7.20
   5  -4  -6   87.59    8.10
   5  -4  -6   75.69    7.70
   5  -4  -6  104.39   12.20
  -5   4   6   93.99    7.70
  -5   4   6   82.89    7.70
  -5   4   6   98.19    9.30
  -5   4   6  100.19    8.20
  -5   4   6  100.39    7.80
  -5   4   6   90.19    8.90
   4  -4  -6   90.19   10.20
   4  -4  -6   77.39    6.70
   4  -4  -6   65.09    6.50
   4  -4  -6   68.29    6.80
   4  -4  -6   69.69    6.20
   4  -4  -6   76.99    6.00
  -4   4   6   80.99    7.70
  -4   4   6   83.59    6.70
  -4   4   6   75.49    7.90
  -4   4   6   79.39    6.70
  -4   4   6   88.59    6.70
   3  -4  -6  156.58   11.20
   3  -4  -6  159.98   12.20
   3  -4  -6  140.39   11.40
   3  -4  -6  170.18   11.90
   3  -4  -6  167.18   12.00
  -3   4   6  167.58   11.80
  -3   4   6  140.49   14.90
  -3   4   6  159.68   12.20
  -3   4   6  175.48   11.80
  -3   4   6  199.38   12.00
  -3   4   6  176.98   13.20
   2  -4  -6  529.65   36.50
   2  -4  -6  515.65   35.70
   2  -4  -6  566.54   35.90
   2  -4  -6  535.35   35.40
   2  -4  -6  576.24   36.60
  -2   4   6  541.45   39.20
  -2   4   6  623.44   35.70
  -2   4   6  562.74   36.00
  -2   4   6  552.14   35.80
  -2   4   6  578.64   37.40
   1  -4  -6   77.69    6.80
   1  -4  -6   90.09    6.80
   1  -4  -6   82.39    6.70
   1  -4  -6   77.29    6.80
   1  -4  -6   76.09    6.80
   1  -4  -6   82.59    7.80
  -1   4   6  100.49   10.00
  -1   4   6   90.39    8.30
  -1   4   6   87.89    6.70
  -1   4   6   89.59    6.90
  -1   4   6   89.19    6.70
  -1   4   6   80.29    6.80
  -1   4   6   88.59    6.70
   0  -4  -6 1749.53  112.29
   0  -4  -6 1746.63  112.59
   0  -4  -6 1856.11  112.69
   0  -4  -6 1658.43  113.99
   0   4   6 1989.20  112.69
   0   4   6 1695.63  114.19
   0   4   6 2068.89  112.79
   0   4   6 1724.13  112.59
  -1  -4  -6  530.45   33.00
  -1  -4  -6  520.95   33.80
  -1  -4  -6  514.55   33.80
  -1  -4  -6  501.55   35.30
  -1  -4  -6  507.45   33.30
  -1  -4  -6  558.34   33.40
   1   4   6  517.95   34.40
   1   4   6  520.95   33.60
   1   4   6  501.75   33.70
   1   4   6  502.65   35.50
   1   4   6  541.45   33.80
  -2  -4  -6  951.00   62.49
  -2  -4  -6 1008.90   61.89
  -2  -4  -6  942.51   64.09
  -2  -4  -6 1038.40   61.99
   2   4   6  979.80   62.49
   2   4   6  934.21   64.19
   2   4   6  982.70   62.29
   2   4   6 1003.90   62.19
   2   4   6 1003.20   62.49
  -3  -4  -6 1132.39   76.39
  -3  -4  -6 1211.48   73.89
  -3  -4  -6 1163.58   74.19
  -3  -4  -6 1287.37   73.79
  -3  -4  -6 1146.99   74.59
   3   4   6 1124.09   74.39
   3   4   6 1140.39   76.49
   3   4   6 1136.19   74.09
   3   4   6 1220.08   74.29
   3   4   6 1172.98   74.39
  -4  -4  -6  346.17   24.30
  -4  -4  -6  357.06   23.60
  -4  -4  -6  348.57   23.80
  -4  -4  -6  350.86   26.20
  -4  -4  -6  361.46   23.30
   4   4   6  323.07   23.70
   4   4   6  341.87   24.00
   4   4   6  375.26   26.60
   4   4   6  330.27   23.60
   4   4   6  333.67   23.90
  -5  -4  -6  470.55   33.90
  -5  -4  -6  487.05   36.20
  -5  -4  -6  536.85   33.10
  -5  -4  -6  513.85   33.40
  -5  -4  -6  542.95   33.80
   5   4   6  488.45   33.70
   5   4   6  528.15   33.80
   5   4   6  420.86   34.50
   5   4   6  499.85   36.20
  -6  -4  -6  182.38   14.00
  -6  -4  -6  177.38   13.40
  -6  -4  -6  185.98   13.90
  -6  -4  -6  193.68   16.00
   6   4   6  150.28   13.60
   6   4   6  145.09   13.40
   6   4   6  166.48   14.00
   6   4   6  182.78   18.30
  -7  -4  -6  386.46   29.60
  -7  -4  -6  437.66   29.00
  -7  -4  -6  426.86   30.60
  -7  -4  -6  401.86   29.30
   7   4   6  446.76   29.60
   7   4   6  399.06   32.00
  -8  -4  -6  130.29   11.50
  -8  -4  -6  118.89   11.60
  -8  -4  -6  106.79   11.20
   8   4   6  123.79   11.80
  -9  -4  -6   59.29    8.90
  -9  -4  -6   68.79    8.80
  -9  -4  -6   59.49    9.00
   9   4   6   51.39   10.50
   9   4   6   65.09    8.90
   8  -5  -6   15.50    3.90
   8  -5  -6   17.70    7.60
  -8   5   6    9.00    3.60
  -8   5   6   15.00    5.00
  -8   5   6   16.60    4.10
  -8   5   6   14.00    5.20
   7  -5  -6   74.69    6.20
   7  -5  -6   56.29    7.00
   7  -5  -6   70.19    6.00
   7  -5  -6   72.09   11.70
  -7   5   6   67.89    7.30
  -7   5   6   84.99    9.10
  -7   5   6   62.49    7.40
   6  -5  -6    5.00    2.60
   6  -5  -6    2.40    2.30
   6  -5  -6    7.30    4.70
  -6   5   6    0.00    2.00
  -6   5   6    3.40    3.60
  -6   5   6    3.20    4.00
  -6   5   6    6.50    2.90
  -6   5   6    1.90    2.00
   5  -5  -6   75.59    9.80
   5  -5  -6   67.49    5.90
   5  -5  -6   61.89    6.70
   5  -5  -6   64.19    6.50
   5  -5  -6   68.29    6.50
  -5   5   6   74.39    8.40
  -5   5   6   65.99    6.60
  -5   5   6   64.29    6.90
  -5   5   6   73.49    6.80
  -5   5   6   80.59    7.80
   4  -5  -6  105.49    9.20
   4  -5  -6  106.39    9.70
   4  -5  -6  114.39    9.00
   4  -5  -6  106.89    8.80
   4  -5  -6   95.59    8.90
   4  -5  -6  132.69   11.80
  -4   5   6  116.59   10.70
  -4   5   6  103.89    9.60
  -4   5   6  119.69    9.30
  -4   5   6  124.49    9.30
  -4   5   6  115.99    9.10
   3  -5  -6  227.58   16.50
   3  -5  -6  252.27   17.30
   3  -5  -6  234.48   17.90
   3  -5  -6  212.48   17.10
   3  -5  -6  257.27   17.10
  -3   5   6  260.77   17.30
  -3   5   6  254.27   17.20
  -3   5   6  281.27   17.20
  -3   5   6  266.57   18.90
  -3   5   6  235.18   17.40
   2  -5  -6  639.44   45.60
   2  -5  -6  630.94   44.80
   2  -5  -6  688.13   44.20
   2  -5  -6  708.13   44.80
   2  -5  -6  802.22   47.00
  -2   5   6  745.23   44.70
  -2   5   6  696.53   44.50
  -2   5   6  599.24   46.20
  -2   5   6  758.02   44.60
  -2   5   6  712.63   44.70
  -2   5   6  741.63   46.60
   1  -5  -6   32.30    4.10
   1  -5  -6   37.80    5.30
   1  -5  -6   34.30    3.80
   1  -5  -6   36.20    4.20
  -1   5   6   32.00    3.80
  -1   5   6   38.00    5.90
  -1   5   6   35.90    3.80
  -1   5   6   36.40    3.60
  -1   5   6   36.20    5.30
  -1   5   6   33.60    3.90
  -1   5   6   35.90    4.60
   0  -5  -6  920.01   64.99
   0  -5  -6  866.31   62.79
   0  -5  -6 1128.79   63.69
   0  -5  -6  962.10   63.39
   0  -5  -6 1038.20   63.79
   0   5   6 1121.29   63.79
   0   5   6 1066.89   63.59
   0   5   6  964.90   63.59
   0   5   6  996.90   63.19
   0   5   6 1015.30   65.59
  -1  -5  -6  401.56   27.60
  -1  -5  -6  438.76   27.80
  -1  -5  -6  371.76   29.00
  -1  -5  -6  415.06   26.50
  -1  -5  -6  424.26   27.30
  -1  -5  -6  377.36   27.10
   1   5   6  435.26   27.70
   1   5   6  441.26   27.80
   1   5   6  443.16   27.80
   1   5   6  402.56   29.50
   1   5   6  439.76   27.40
  -2  -5  -6  319.57   21.80
  -2  -5  -6  312.67   21.20
  -2  -5  -6  325.27   21.10
  -2  -5  -6  327.97   21.80
  -2  -5  -6  323.47   20.30
  -2  -5  -6  281.57   23.20
   2   5   6  305.77   23.60
   2   5   6  329.17   21.50
   2   5   6  319.57   21.80
   2   5   6  325.57   21.90
   2   5   6  308.47   21.80
  -3  -5  -6  465.65   30.30
  -3  -5  -6  489.25   29.40
  -3  -5  -6  420.46   31.80
  -3  -5  -6  440.26   29.80
  -3  -5  -6  469.55   29.50
   3   5   6  409.86   29.90
   3   5   6  431.66   32.00
   3   5   6  434.46   29.80
   3   5   6  455.95   29.70
   3   5   6  443.26   30.00
  -4  -5  -6  194.88   15.30
  -4  -5  -6  208.38   14.80
  -4  -5  -6  204.88   14.60
  -4  -5  -6  218.58   15.30
  -4  -5  -6  188.68   17.20
   4   5   6  179.78   14.80
   4   5   6  216.38   17.60
   4   5   6  212.78   15.20
   4   5   6  185.88   15.00
   4   5   6  197.98   15.20
  -5  -5  -6  156.18   12.20
  -5  -5  -6  171.68   12.20
  -5  -5  -6  155.88   14.80
  -5  -5  -6  177.38   12.80
  -5  -5  -6  142.19   12.60
   5   5   6  142.99   12.30
   5   5   6  164.88   15.10
   5   5   6  113.69   11.70
   5   5   6  147.89   12.30
   5   5   6  158.48   12.60
  -6  -5  -6   51.89    6.20
  -6  -5  -6   41.90    6.50
  -6  -5  -6   51.39    7.30
  -6  -5  -6   41.50    5.90
   6   5   6   43.40    6.50
   6   5   6   44.20    5.80
   6   5   6   48.50    8.90
  -7  -5  -6  168.78   14.50
  -7  -5  -6  182.18   14.20
  -7  -5  -6  168.48   14.10
  -7  -5  -6  145.59   13.80
   7   5   6  177.48   17.00
   7   5   6  176.28   14.40
  -8  -5  -6   -0.10    3.10
  -8  -5  -6   -3.10    2.60
  -8  -5  -6    1.50    3.10
   8   5   6    3.70    3.50
  -9  -5  -6   53.49    8.40
  -9  -5  -6   70.99    9.30
  -9  -5  -6   67.99    9.40
   9   5   6   65.29   11.10
   9   5   6   74.29   10.00
   8  -6  -6    1.00    4.60
   8  -6  -6    0.90    2.40
  -8   6   6    8.80    3.20
  -8   6   6    0.10    2.70
  -8   6   6    0.60    3.50
  -8   6   6   -0.30    4.10
   7  -6  -6  134.19   11.80
   7  -6  -6  152.48   16.50
   7  -6  -6  129.99   13.20
  -7   6   6  184.68   22.00
  -7   6   6  135.49   12.40
  -7   6   6  160.78   12.40
   6  -6  -6    1.80    2.60
   6  -6  -6    4.80    2.90
   6  -6  -6    5.90    4.00
   6  -6  -6    2.40    2.20
  -6   6   6    2.20    3.50
  -6   6   6    3.80    2.90
  -6   6   6    7.10    3.20
   5  -6  -6  372.86   28.80
   5  -6  -6  414.66   29.80
   5  -6  -6  492.25   32.30
   5  -6  -6  398.66   30.10
  -5   6   6  464.05   29.80
  -5   6   6  479.25   31.90
  -5   6   6  459.45   30.00
  -5   6   6  429.66   29.40
  -5   6   6  431.26   30.40
   4  -6  -6   77.99    8.40
   4  -6  -6   90.09    9.40
   4  -6  -6   99.89    8.90
   4  -6  -6   96.29    8.10
   4  -6  -6   99.79    7.90
  -4   6   6  128.99    9.40
  -4   6   6  101.89    9.10
  -4   6   6  118.49   10.80
  -4   6   6  106.79    8.80
   3  -6  -6  715.23   53.19
   3  -6  -6  824.02   53.19
   3  -6  -6  759.82   54.09
   3  -6  -6  822.52   52.49
  -3   6   6  924.31   53.39
  -3   6   6  927.61   53.09
  -3   6   6  841.32   54.99
  -3   6   6  840.02   52.99
  -3   6   6  803.12   52.89
   2  -6  -6  159.08   12.00
   2  -6  -6  150.58   11.30
   2  -6  -6  140.99   11.90
   2  -6  -6  150.38   13.10
   2  -6  -6  140.89   12.10
  -2   6   6  176.18   12.20
  -2   6   6  160.78   11.60
  -2   6   6  165.38   13.80
  -2   6   6  175.38   12.00
  -2   6   6  159.68   11.40
   1  -6  -6  673.63   45.00
   1  -6  -6  638.14   45.60
   1  -6  -6  724.63   45.60
   1  -6  -6  656.73   46.90
  -1   6   6  730.53   44.60
  -1   6   6  719.13   47.60
  -1   6   6  704.93   45.70
  -1   6   6  735.13   45.30
  -1   6   6  723.03   45.60
  -1   6   6  771.02   45.50
  -1   6   6  702.13   45.10
   0  -6  -6  843.52   49.80
   0  -6  -6  718.93   52.89
   0  -6  -6  721.53   49.40
   0  -6  -6  741.33   49.70
   0   6   6  755.12   49.80
   0   6   6  833.42   49.70
   0   6   6  737.33   51.69
   0   6   6  852.31   49.80
   0   6   6  760.72   49.30
  -1  -6  -6  309.67   20.30
  -1  -6  -6  254.07   21.90
  -1  -6  -6  281.97   20.00
  -1  -6  -6  315.27   20.80
  -1  -6  -6  290.87   20.40
   1   6   6  304.97   20.70
   1   6   6  319.87   20.70
   1   6   6  310.27   20.20
   1   6   6  277.57   20.50
   1   6   6  308.07   22.80
  -2  -6  -6  242.48   17.30
  -2  -6  -6  248.18   16.80
  -2  -6  -6  250.77   16.70
  -2  -6  -6  251.17   15.40
  -2  -6  -6  225.48   19.00
  -2  -6  -6  219.98   17.10
   2   6   6  230.18   17.30
   2   6   6  258.87   17.00
   2   6   6  235.28   19.20
   2   6   6  239.78   17.40
   2   6   6  232.28   17.20
  -3  -6  -6  179.38   16.10
  -3  -6  -6  185.18   14.30
  -3  -6  -6  187.78   13.80
  -3  -6  -6  206.98   13.80
  -3  -6  -6  192.88   14.50
   3   6   6  189.38   14.30
   3   6   6  201.08   16.60
   3   6   6  171.48   14.30
   3   6   6  181.58   14.30
  -4  -6  -6  102.59    8.50
  -4  -6  -6   98.79    8.50
  -4  -6  -6   97.69    9.20
  -4  -6  -6   96.69    9.00
  -4  -6  -6  107.89   11.10
   4   6   6   73.59    8.30
   4   6   6   84.59    8.70
   4   6   6   99.09   11.00
   4   6   6  102.59    8.90
   4   6   6  105.09   10.20
  -5  -6  -6   46.90    6.50
  -5  -6  -6   42.90    7.50
  -5  -6  -6   39.40    5.60
  -5  -6  -6   43.90    5.70
   5   6   6   42.20    5.80
   5   6   6   41.90    6.30
   5   6   6   42.70    8.20
  -6  -6  -6  107.19   10.40
  -6  -6  -6   97.29   10.20
  -6  -6  -6  114.19    9.80
  -6  -6  -6  105.09    9.80
   6   6   6  112.99   10.40
   6   6   6   99.49   12.20
  -7  -6  -6   37.40    7.50
  -7  -6  -6   39.40    9.80
  -7  -6  -6   37.90    7.10
  -7  -6  -6   36.50    6.90
   7   6   6   35.00    8.50
   7   6   6   37.40    6.60
  -8  -6  -6   24.70    5.30
  -8  -6  -6   26.50    5.70
  -8  -6  -6   25.90    5.80
   8   6   6   28.00    5.80
   8   6   6   21.10    6.40
   7  -7  -6   -0.50    3.40
   7  -7  -6   -4.50    1.90
   7  -7  -6    1.80    2.90
  -7   7   6    4.80    4.90
  -7   7   6    1.40    3.30
  -7   7   6   -5.10    2.40
   6  -7  -6    4.00    2.70
   6  -7  -6    3.00    2.70
   6  -7  -6   -3.40    2.00
   6  -7  -6    1.10    2.90
  -6   7   6   -1.00    2.20
  -6   7   6    2.60    4.00
   5  -7  -6   24.60    5.00
   5  -7  -6   31.80    5.60
   5  -7  -6   21.50    4.80
   5  -7  -6   20.40    3.50
  -5   7   6   27.80    4.70
  -5   7   6   24.50    6.20
  -5   7   6   29.70    5.20
  -5   7   6   27.30    5.00
   4  -7  -6   75.09    6.70
   4  -7  -6   73.89    8.60
   4  -7  -6   67.59    7.80
   4  -7  -6   78.89    7.90
  -4   7   6   80.89    9.40
  -4   7   6   87.39    7.80
  -4   7   6   76.99    7.60
  -4   7   6   74.09    7.90
  -4   7   6   73.39    7.50
   3  -7  -6   86.39    9.10
   3  -7  -6   92.69    8.50
   3  -7  -6   87.19    7.50
   3  -7  -6   95.19    7.50
   3  -7  -6   86.59    8.70
  -3   7   6  102.69    8.30
  -3   7   6   88.09    8.50
  -3   7   6   89.49    8.30
  -3   7   6   91.19    7.90
  -3   7   6   91.59   10.00
   2  -7  -6  284.27   20.50
   2  -7  -6  293.37   21.20
   2  -7  -6  257.67   20.20
   2  -7  -6  285.57   22.50
   2  -7  -6  242.48   21.30
  -2   7   6  311.47   21.30
  -2   7   6  368.46   22.30
  -2   7   6  319.37   20.40
  -2   7   6  330.87   21.10
  -2   7   6  334.97   21.30
  -2   7   6  332.67   23.60
   1  -7  -6   46.10    5.90
   1  -7  -6   38.30    4.60
   1  -7  -6   34.80    6.40
  -1   7   6   44.20    5.80
  -1   7   6   42.80    3.90
  -1   7   6   47.40    7.50
  -1   7   6   40.80    4.70
  -1   7   6   44.10    4.90
   0  -7  -6  507.25   40.90
   0  -7  -6  542.35   38.80
   0  -7  -6  686.53   39.60
   0  -7  -6  564.44   39.20
   0   7   6  645.04   39.30
   0   7   6  618.94   38.90
   0   7   6  663.63   39.30
   0   7   6  600.64   41.60
   0   7   6  560.94   39.30
  -1  -7  -6    2.00    2.10
  -1  -7  -6    2.70    2.90
  -1  -7  -6    1.00    1.80
  -1  -7  -6    2.60    2.20
   1   7   6    0.60    1.90
   1   7   6    0.30    2.00
   1   7   6    4.10    2.10
   1   7   6    2.70    2.30
   1   7   6   -0.10    2.70
  -2  -7  -6  281.07   21.60
  -2  -7  -6  319.67   21.30
  -2  -7  -6  297.77   21.00
  -2  -7  -6  279.57   24.80
  -2  -7  -6  300.97   21.60
   2   7   6  302.37   21.80
   2   7   6  349.87   24.50
   2   7   6  330.27   25.90
   2   7   6  315.47   22.20
   2   7   6  329.07   21.30
  -3  -7  -6   11.60    3.10
  -3  -7  -6   15.30    3.20
  -3  -7  -6   10.80    4.20
  -3  -7  -6   12.60    1.20
  -3  -7  -6    7.80    3.10
  -3  -7  -6   10.30    3.50
   3   7   6   13.10    3.50
   3   7   6   13.90    4.70
   3   7   6    8.50    3.00
   3   7   6   12.30    3.40
   3   7   6   17.50    3.70
  -4  -7  -6  488.75   30.20
  -4  -7  -6  411.66   32.90
  -4  -7  -6  486.85   30.10
  -4  -7  -6  442.46   30.50
  -4  -7  -6  408.36   31.60
   4   7   6  413.26   30.50
   4   7   6  440.06   30.80
   4   7   6  460.65   30.20
   4   7   6  417.96   30.50
   4   7   6  466.65   33.40
  -5  -7  -6    6.00    3.30
  -5  -7  -6    8.20    3.80
  -5  -7  -6    9.80    3.40
  -5  -7  -6   12.20    3.30
   5   7   6   16.40    6.00
   5   7   6   16.00    4.00
   5   7   6   10.30    3.40
  -6  -7  -6  225.68   17.00
  -6  -7  -6  236.98   18.80
  -6  -7  -6  210.38   17.90
  -6  -7  -6  206.68   17.30
   6   7   6  226.88   20.10
   6   7   6  234.98   17.40
  -7  -7  -6   24.70    5.10
  -7  -7  -6   18.00    4.90
  -7  -7  -6   22.00    5.40
   7   7   6   28.30    5.70
   7   7   6   25.90    7.00
  -8  -7  -6  132.69   11.80
  -8  -7  -6  109.39   11.90
  -8  -7  -6  113.69   11.50
   8   7   6  107.89   11.30
   8   7   6  125.49   13.90
   7  -8  -6   23.30    4.20
   7  -8  -6   19.50    5.20
   7  -8  -6    5.70    3.90
   7  -8  -6    7.70    4.00
  -7   8   6   15.30    5.00
  -7   8   6   13.30    4.40
  -7   8   6   29.50    7.10
   6  -8  -6    3.40    3.30
   6  -8  -6    6.20    3.10
   6  -8  -6    3.10    3.20
  -6   8   6    4.40    2.90
  -6   8   6   -0.80    3.80
  -6   8   6    0.70    3.10
   5  -8  -6   86.89    9.40
   5  -8  -6   85.09    9.60
   5  -8  -6   84.59    7.50
   5  -8  -6   85.69    9.30
  -5   8   6   89.59    8.70
  -5   8   6   87.09    9.60
  -5   8   6  102.59    9.20
   4  -8  -6   65.49    5.90
   4  -8  -6   72.19    8.10
   4  -8  -6   50.69    7.70
   4  -8  -6   53.09    7.50
  -4   8   6   66.49    7.80
  -4   8   6   65.39    6.90
  -4   8   6   73.09    9.50
  -4   8   6   65.89    7.00
   3  -8  -6   95.59   10.90
   3  -8  -6  125.29    9.30
   3  -8  -6  114.59   10.60
   3  -8  -6  125.69   11.90
  -3   8   6  126.49   10.50
  -3   8   6  142.99   12.90
  -3   8   6  120.19    9.70
  -3   8   6  131.89   11.00
   2  -8  -6   22.60    3.50
   2  -8  -6   27.50    6.00
   2  -8  -6   28.20    5.10
   2  -8  -6   20.00    4.70
   2  -8  -6   29.60    4.30
  -2   8   6   36.10    4.60
  -2   8   6   20.00    5.60
  -2   8   6   29.50    4.80
  -2   8   6   29.90    4.50
  -2   8   6   31.30    5.00
  -2   8   6   31.10    3.60
   1  -8  -6  210.28   16.50
   1  -8  -6  206.58   15.80
   1  -8  -6  199.68   17.70
   1  -8  -6  242.18   17.20
  -1   8   6  212.78   16.40
  -1   8   6  231.68   16.20
  -1   8   6  228.58   14.70
  -1   8   6  232.78   16.20
  -1   8   6  212.28   16.20
  -1   8   6  233.28   18.90
   0  -8  -6  152.28   11.50
   0  -8  -6  155.88   11.60
   0  -8  -6  121.79   10.70
   0  -8  -6  109.59   12.20
   0   8   6  131.69   10.80
   0   8   6  141.39   11.10
   0   8   6  149.99   13.70
   0   8   6  144.09   11.10
   0   8   6  132.69   11.40
  -1  -8  -6  172.28   12.10
  -1  -8  -6  135.79   11.80
  -1  -8  -6  113.19   13.00
  -1  -8  -6  151.38   12.10
   1   8   6  146.09   11.50
   1   8   6  152.28   12.00
   1   8   6  156.78   14.30
   1   8   6  150.58   13.90
   1   8   6  149.99   12.00
  -2  -8  -6  409.46   30.30
  -2  -8  -6  464.35   29.30
  -2  -8  -6  376.76   31.30
  -2  -8  -6  432.36   28.90
  -2  -8  -6  418.06   29.60
   2   8   6  456.35   32.40
   2   8   6  479.35   29.20
   2   8   6  438.66   30.00
   2   8   6  421.26   29.70
   2   8   6  426.56   29.80
  -3  -8  -6   63.49    7.00
  -3  -8  -6   65.89    7.50
  -3  -8  -6   72.99    7.00
  -3  -8  -6   58.69    7.30
   3   8   6   69.79    7.40
   3   8   6   84.99    8.80
   3   8   6   57.49    7.50
   3   8   6   80.69    9.90
   3   8   6   80.59    7.40
  -4  -8  -6  206.78   14.80
  -4  -8  -6  182.98   14.30
  -4  -8  -6  177.78   15.10
  -4  -8  -6  164.28   15.00
   4   8   6  195.78   17.60
   4   8   6  201.98   14.70
  -5  -8  -6  152.28   11.50
  -5  -8  -6  188.38   15.20
  -5  -8  -6  174.48   14.90
   5   8   6  203.58   17.80
   5   8   6  193.18   14.30
  -6  -8  -6  107.59   11.30
  -6  -8  -6  114.79   12.00
  -6  -8  -6  122.49   11.00
   6   8   6  122.59   13.50
   6   8   6  132.19   11.30
  -7  -8  -6  138.19   12.60
  -7  -8  -6  158.08   13.10
  -7  -8  -6  134.49   11.00
  -7  -8  -6  127.39   12.80
   7   8   6  149.39   13.10
   7   8   6  171.78   16.70
   6  -9  -6   57.29    9.20
   6  -9  -6   61.09    9.30
  -6   9   6   75.39   10.00
  -6   9   6   88.99   11.00
   5  -9  -6   76.89   10.00
   5  -9  -6   69.19    9.50
   5  -9  -6   74.69    6.70
  -5   9   6   94.49   11.30
  -5   9   6   90.39    9.00
  -5   9   6   86.69    9.80
   4  -9  -6   71.69    8.90
   4  -9  -6   74.79    6.60
   4  -9  -6   81.59    9.60
  -4   9   6   85.49    8.70
  -4   9   6   80.99    9.10
  -4   9   6   77.49    7.80
  -4   9   6  106.59   11.40
   3  -9  -6  211.68   14.60
   3  -9  -6  217.88   16.80
   3  -9  -6  165.98   17.00
  -3   9   6  239.78   19.20
  -3   9   6  204.58   15.10
  -3   9   6  236.48   16.70
  -3   9   6  218.28   16.70
   2  -9  -6  112.49    9.00
   2  -9  -6  113.39   10.70
   2  -9  -6  105.99   11.20
  -2   9   6  127.59    9.10
  -2   9   6  129.49   13.10
  -2   9   6  125.29   10.80
  -2   9   6  128.19   10.90
   1  -9  -6  391.66   27.90
   1  -9  -6  345.97   30.80
   1  -9  -6  419.56   28.60
  -1   9   6  375.96   27.80
  -1   9   6  403.16   25.50
  -1   9   6  445.16   27.90
  -1   9   6  427.56   30.70
   0  -9  -6  326.97   21.80
   0  -9  -6  265.97   20.60
   0  -9  -6  289.57   21.30
   0   9   6  310.37   24.00
   0   9   6  285.27   21.40
  -1  -9  -6  256.07   17.80
  -1  -9  -6  232.68   17.60
  -1  -9  -6  213.38   17.80
   1   9   6  225.08   18.40
   1   9   6  260.07   17.50
   1   9   6  236.48   20.30
   1   9   6  248.78   18.10
  -2  -9  -6  343.77   24.20
  -2  -9  -6  337.57   24.90
  -2  -9  -6  376.76   24.80
  -2  -9  -6  376.86   25.30
   2   9   6  363.36   24.40
   2   9   6  374.96   27.90
   2   9   6  318.77   27.90
  -3  -9  -6   -0.40    2.30
  -3  -9  -6    3.60    2.80
  -3  -9  -6   -0.40    2.50
  -3  -9  -6    2.80    3.00
   3   9   6    0.50    2.60
   3   9   6    5.90    4.70
   3   9   6    0.30    3.20
  -4  -9  -6  340.77   25.60
   4   9   6  296.47   31.20
   4   9   6  392.06   28.50
   4   9   6  384.26   24.70
  -5  -9  -6   -0.60    2.70
  -5  -9  -6    1.60    3.40
   5   9   6    1.10    5.20
   5   9   6   -3.50    3.50
   5   9   6    6.30    3.00
  -6  -9  -6  139.49   12.20
  -6  -9  -6  127.99   12.30
  -6  -9  -6  145.39   12.00
  -6  -9  -6  125.29    8.80
   6   9   6  146.69   11.90
   6   9   6   90.09   24.90
   6   9   6  134.89   16.60
  -7  -9  -6    4.30    3.50
  -7  -9  -6   12.20    4.40
  -7  -9  -6    5.70    4.30
  -7  -9  -6    8.10    2.20
   7   9   6    7.80    8.00
   7   9   6    8.60    6.30
   7   9   6    7.80    4.00
   5 -10  -6   17.70    5.50
   5 -10  -6   13.60    5.80
  -5  10   6   24.40    6.70
  -5  10   6    3.00    4.40
   4 -10  -6   47.40    7.90
   4 -10  -6   46.60    8.50
  -4  10   6   70.29    7.50
  -4  10   6   49.10    7.80
  -4  10   6   63.39   10.50
   3 -10  -6   -0.50    3.80
   3 -10  -6    0.00    2.90
  -3  10   6    4.40    2.10
   2 -10  -6   14.00    2.70
   2 -10  -6   14.40    4.60
   2 -10  -6   23.80    5.00
  -2  10   6   13.70    5.60
   1 -10  -6    6.90    3.60
   1 -10  -6    4.90    3.50
  -1  10   6    8.60    1.30
  -1  10   6   10.60    5.80
  -1  10   6    8.30    3.50
   0 -10  -6    2.00    2.80
   0 -10  -6    1.30    2.90
   0  10   6   -0.90    2.60
   0  10   6    2.50    3.90
  -1 -10  -6   10.80    4.10
  -1 -10  -6    6.90    3.40
   1  10   6    7.00    2.70
   1  10   6   15.10    3.80
   1  10   6    6.40    4.80
  -2 -10  -6   46.10    6.90
   2  10   6   49.00    6.60
   2  10   6   47.70   10.70
   2  10   6   45.50    7.80
  -3 -10  -6   -2.60    2.30
  -3 -10  -6    0.10    2.70
  -3 -10  -6    2.00    3.20
   3  10   6   -5.50    3.60
   3  10   6    0.30    3.60
   3  10   6    0.10    2.50
  -4 -10  -6   93.99    9.40
  -4 -10  -6  109.39    9.80
  -4 -10  -6   90.19    9.90
   4  10   6   84.29   14.60
   4  10   6  108.39    9.70
  -5 -10  -6   -2.00    2.70
  -5 -10  -6    2.30    2.90
  -5 -10  -6    4.70    3.50
   5  10   6    0.10    5.90
   5  10   6    0.80    3.90
   5  10   6    2.00    3.30
  -6 -10  -6   65.89    7.50
  -6 -10  -6   57.09    7.50
  -6 -10  -6   41.90    7.40
   6  10   6   41.80    6.50
   6  10   6   42.20   13.30
   4 -11  -6    1.10    1.20
   4 -11  -6   -4.70    3.10
   4 -11  -6   -0.60    3.30
  -4  11   6    1.20    3.70
  -4  11   6   -5.40    4.00
   3 -11  -6   46.30    8.90
   3 -11  -6   49.20    4.80
   3 -11  -6   53.79    8.10
  -3  11   6   65.79    5.70
  -3  11   6   73.79   11.60
  -3  11   6   58.49    8.40
   2 -11  -6    3.00    3.50
   2 -11  -6    1.40    2.10
   2 -11  -6   -2.10    3.00
  -2  11   6    0.30    1.40
  -2  11   6   -0.30    4.80
  -2  11   6   -2.60    3.80
   1 -11  -6  119.49   11.80
   1 -11  -6  123.29   14.20
  -1  11   6  117.59   11.40
  -1  11   6  149.39   14.90
   0 -11  -6    0.60    3.40
   0 -11  -6    3.30    3.40
   0  11   6    3.80    6.20
  -1 -11  -6  106.39   10.30
  -1 -11  -6   85.89   12.10
   1  11   6  112.89   14.70
  -2 -11  -6    3.30    3.30
  -2 -11  -6    4.60    3.50
   2  11   6   -0.60    2.80
   2  11   6    1.00    2.70
   2  11   6   -1.50    3.30
  -3 -11  -6  117.79   11.60
  -3 -11  -6  149.09   12.60
  -3 -11  -6  126.49   12.50
   3  11   6  172.48   23.50
   3  11   6  138.39   16.30
   3  11   6  159.38   12.40
  -4 -11  -6   35.80    6.50
  -4 -11  -6   34.10    6.00
  -4 -11  -6   17.60    4.70
   4  11   6   26.70    7.90
   4  11   6   23.40    8.60
   4  11   6   23.40    5.20
  -5 -11  -6   96.59    9.90
  -5 -11  -6   81.29    9.90
  -5 -11  -6   88.59    9.40
   5  11   6   76.59   15.70
   5  11   6  101.49   12.40
   3 -12  -6    0.00    3.80
   3 -12  -6    1.30    3.90
   3 -12  -6    3.70    1.30
  -3  12   6    3.40    4.80
  -3  12   6    2.90    3.80
   2 -12  -6   47.20    8.20
   2 -12  -6   63.69   10.10
   2 -12  -6   63.49    5.40
  -2  12   6   56.89   10.60
  -2  12   6   68.09    5.00
  -2  12   6   63.99    9.10
   1 -12  -6   11.90    2.30
   1 -12  -6   15.10    5.20
   1 -12  -6    7.50    4.20
  -1  12   6    6.80    4.10
  -1  12   6    9.60    5.70
   0 -12  -6   73.89    8.90
   0 -12  -6   92.89    9.90
   0  12   6   75.19    9.00
   0  12   6   65.09   11.70
  -1 -12  -6    6.30    4.30
  -1 -12  -6    5.90    4.70
   1  12   6   11.60    5.30
   1  12   6   14.20    5.50
  -2 -12  -6  103.59   10.60
  -2 -12  -6   89.09   10.50
   2  12   6  103.39   10.90
   2  12   6  107.29   13.90
  -3 -12  -6    8.40    4.10
  -3 -12  -6    7.60    4.00
   3  12   6    8.90    5.40
   3  12   6   11.50    5.70
   3  12   6   22.50    7.40
   0   9  -7   -2.30    2.30
   0   9  -7    4.00    3.20
   0  -9   7    1.60    2.10
   0  -9   7    3.40    2.80
  -1   9  -7    1.80    1.40
  -1   9  -7   -2.00    1.20
  -1   9  -7    2.00    3.30
  -1   9  -7   -1.80    2.70
   1  -9   7   -2.10    3.50
   1  -9   7    5.50    3.40
   1  -9   7   -0.60    2.00
   3   8  -7    9.70    1.60
   3   8  -7    7.50    1.90
   3   8  -7    4.40    4.10
  -3  -8   7    9.30    1.80
  -3  -8   7   11.50    3.50
  -3  -8   7    9.80    2.60
  -3  -8   7   19.10    3.60
  -3  -8   7    5.80    1.50
   2   8  -7   -1.90    3.00
  -2  -8   7    3.40    2.30
  -2  -8   7   -0.40    1.50
  -2  -8   7    2.60    2.80
   1   8  -7    7.80    2.70
   1   8  -7    9.60    4.40
  -1  -8   7   13.10    2.50
  -1  -8   7    8.70    3.20
  -1  -8   7   11.70    4.10
   0   8  -7    1.60    3.10
   0   8  -7    4.20    3.00
   0  -8   7    9.10    3.70
   0  -8   7    7.50    2.30
  -1   8  -7   36.80    3.70
  -1   8  -7   31.90    6.10
  -1   8  -7   36.40    3.90
  -1   8  -7   36.00    5.60
   1  -8   7   37.10    6.10
  -2   8  -7   30.90    4.30
  -2   8  -7   34.80    6.30
  -2   8  -7   37.20    4.90
  -2   8  -7   31.00    6.80
   2  -8   7   30.90    4.80
   2  -8   7   25.90    5.70
  -3   8  -7   21.50    5.40
  -3   8  -7   15.00    4.10
  -3   8  -7   13.20    4.10
   3  -8   7   12.80    4.00
   3  -8   7   14.80    5.20
   3  -8   7   24.60    5.20
  -4   8  -7   78.39   10.00
   4  -8   7   43.50    8.00
   4  -8   7   54.49    9.50
   4   7  -7   13.40    4.30
  -4  -7   7   14.10    2.80
  -4  -7   7   22.30    3.70
   3   7  -7  108.09    7.60
   3   7  -7  101.39   11.50
   3   7  -7  108.49    8.70
  -3  -7   7  119.89    9.70
  -3  -7   7  126.29   10.40
  -3  -7   7  110.49    8.50
  -3  -7   7  121.39    8.30
  -3  -7   7  128.79    8.40
   2   7  -7   29.30    6.10
   2   7  -7   28.30    3.60
   2   7  -7   30.30    3.50
  -2  -7   7   44.10    5.60
  -2  -7   7   33.30    5.00
  -2  -7   7   27.90    4.80
  -2  -7   7   26.20    4.00
  -2  -7   7   22.10    3.30
   1   7  -7  263.77   20.10
   1   7  -7  256.87   17.80
  -1  -7   7  247.58   18.20
  -1  -7   7  233.18   17.00
  -1  -7   7  263.27   19.10
  -1  -7   7  278.87   19.60
   0   7  -7   19.60    4.80
   0   7  -7   15.90    3.50
   0  -7   7   17.90    4.60
   0  -7   7   20.60    4.40
   0  -7   7   24.50    5.00
  -1   7  -7  344.37   24.30
  -1   7  -7  397.16   25.20
  -1   7  -7  362.06   22.40
  -1   7  -7  349.96   22.70
   1  -7   7  308.57   23.20
   1  -7   7  316.27   25.40
  -2   7  -7   -2.70    1.80
  -2   7  -7   -0.90    1.90
  -2   7  -7    0.60    2.50
   2  -7   7    1.30    3.10
   2  -7   7   -1.10    2.80
   2  -7   7   -1.20    2.10
  -3   7  -7  277.67   18.00
  -3   7  -7  266.37   18.60
  -3   7  -7  228.88   18.70
   3  -7   7  219.48   20.00
   3  -7   7  232.58   19.00
   3  -7   7  226.28   17.70
  -4   7  -7    0.80    2.80
  -4   7  -7    5.10    3.70
   4  -7   7    2.10    4.10
   4  -7   7    1.40    3.20
   4  -7   7    3.00    2.60
  -5   7  -7   98.69   10.80
   5  -7   7   98.19   11.10
   5  -7   7  104.79   13.00
   5   6  -7   10.20    9.90
  -5  -6   7   12.50    3.90
  -5  -6   7   14.80    2.80
  -5  -6   7    9.70    2.90
   4   6  -7  142.09   14.00
  -4  -6   7  143.29   11.80
  -4  -6   7  152.58   10.90
  -4  -6   7  149.99   11.00
   3   6  -7    1.70    3.70
  -3  -6   7    4.30    1.50
  -3  -6   7    6.00    2.70
  -3  -6   7    5.90    1.20
  -3  -6   7    5.80    1.40
   2   6  -7  170.78   15.70
   2   6  -7  178.18   12.80
   2   6  -7  186.38   12.70
  -2  -6   7  199.18   13.70
  -2  -6   7  204.38   12.10
  -2  -6   7  193.48   13.90
  -2  -6   7  181.08   14.30
  -2  -6   7  158.38   13.80
  -2  -6   7  193.88   13.20
   1   6  -7    5.60    1.90
   1   6  -7    7.10    2.00
   1   6  -7    5.80    3.90
  -1  -6   7    4.00    2.50
  -1  -6   7    6.60    1.60
  -1  -6   7    8.50    2.50
  -1  -6   7    8.80    3.00
   0   6  -7  225.48   16.50
   0   6  -7  208.38   15.00
   0   6  -7  216.98   14.80
   0   6  -7  212.58   15.10
   0  -6   7  203.98   15.40
   0  -6   7  197.38   15.90
   0  -6   7  209.18   14.50
   0  -6   7  195.38   15.90
  -1   6  -7    5.10    3.20
  -1   6  -7    3.60    2.60
  -1   6  -7    2.60    1.50
  -1   6  -7    4.10    1.60
  -1   6  -7    4.20    2.00
   1  -6   7    2.70    2.30
   1  -6   7    3.20    2.10
   1  -6   7    2.60    2.40
   1  -6   7    1.60    2.60
  -2   6  -7   74.09    6.00
  -2   6  -7   57.49    6.90
  -2   6  -7   58.79    5.50
  -2   6  -7   62.59    6.30
   2  -6   7   59.79    8.00
   2  -6   7   55.89    7.70
   2  -6   7   64.79    6.50
  -3   6  -7    2.70    1.60
  -3   6  -7    2.20    2.40
  -3   6  -7    1.10    2.60
  -3   6  -7    4.10    2.70
   3  -6   7    1.20    3.10
   3  -6   7    5.40    3.40
   3  -6   7    3.20    2.40
  -4   6  -7   12.70    2.20
  -4   6  -7   15.50    4.50
  -4   6  -7   10.10    4.00
   4  -6   7   22.10    4.90
   4  -6   7   22.00    4.30
   4  -6   7   11.70    5.20
  -5   6  -7   -0.70    1.20
  -5   6  -7   -0.30    0.90
  -5   6  -7   -1.00    3.30
   5  -6   7   -1.30    3.70
   5  -6   7   -1.10    2.70
  -6   6  -7   14.40    4.80
  -6   6  -7   18.00    2.40
  -6   6  -7   14.00    5.00
  -6   6  -7   12.40    2.70
   6  -6   7   20.50    5.80
   6  -6   7   18.10    6.40
   6   5  -7    2.00    7.60
  -6  -5   7    2.60    2.20
  -6  -5   7   -1.50    2.30
  -6  -5   7    0.40    1.30
   5   5  -7   84.89   17.10
  -5  -5   7   63.39    5.00
  -5  -5   7   53.59    6.30
  -5  -5   7   49.50    6.10
   4   5  -7   13.80   14.60
   4   5  -7    7.40    4.10
  -4  -5   7   10.50    2.60
  -4  -5   7    7.20    2.30
  -4  -5   7   10.20    2.00
   3   5  -7   33.40    7.00
  -3  -5   7   51.19    4.60
  -3  -5   7   53.69    4.80
   2   5  -7   -0.40    0.80
   2   5  -7    0.50    0.90
   2   5  -7   -5.10    2.40
  -2  -5   7    1.10    1.80
  -2  -5   7    0.00    0.80
  -2  -5   7    0.10    1.40
  -2  -5   7    0.10    1.10
  -2  -5   7   -2.10    1.60
  -2  -5   7    0.40    1.00
   1   5  -7   24.60    3.20
   1   5  -7   25.30    5.30
   1   5  -7   19.20    3.70
  -1  -5   7   22.90    4.10
  -1  -5   7   25.80    3.60
   0   5  -7    5.20    2.10
   0   5  -7    5.60    3.00
   0   5  -7    7.40    2.40
   0  -5   7    4.40    2.20
   0  -5   7    4.50    1.70
   0  -5   7    4.70    2.50
   0  -5   7    2.90    2.20
   0  -5   7    1.30    4.00
  -1   5  -7   26.70    3.70
  -1   5  -7   21.60    2.60
  -1   5  -7   21.50    3.90
  -1   5  -7   22.40    3.70
  -1   5  -7   20.10    2.80
   1  -5   7   12.20    3.30
   1  -5   7   18.10    4.00
   1  -5   7   21.20    4.20
   1  -5   7   21.20    7.60
   1  -5   7   22.30    3.50
  -2   5  -7   68.59    6.30
  -2   5  -7   68.79    5.80
  -2   5  -7   63.09    6.90
  -2   5  -7   68.09    6.00
   2  -5   7   67.89    7.20
   2  -5   7   63.59    7.40
   2  -5   7   66.79   12.00
   2  -5   7   61.69    6.30
   2  -5   7   56.09    7.30
  -3   5  -7   50.99    6.40
  -3   5  -7   64.09    5.40
  -3   5  -7   68.99    6.70
  -3   5  -7   61.89    7.10
   3  -5   7   48.30    7.00
   3  -5   7   53.39    7.40
   3  -5   7   66.99    6.50
  -4   5  -7  111.29    9.90
  -4   5  -7  103.09    6.50
  -4   5  -7   97.39    9.40
  -4   5  -7  106.19    7.70
  -4   5  -7   95.69   10.00
   4  -5   7   86.89   10.70
   4  -5   7   91.89    9.10
  -5   5  -7   21.90    2.80
  -5   5  -7   30.10    3.50
  -5   5  -7   30.30    5.70
  -5   5  -7   23.20    5.50
   5  -5   7   28.80    7.70
   5  -5   7   19.90    8.10
   5  -5   7   18.50    6.60
  -6   5  -7  100.59    9.40
  -6   5  -7   85.69    9.90
  -6   5  -7   88.99   11.70
   6  -5   7   94.29   11.50
   6  -5   7   71.09   10.00
  -7   5  -7    0.80    2.10
  -7   5  -7   -0.80    3.50
  -7   5  -7   -4.50    3.50
   7  -5   7    1.20    4.10
   7  -5   7    4.20    4.10
   7   4  -7    0.60    7.30
  -7  -4   7    3.20    4.80
  -7  -4   7    1.80    1.50
   6   4  -7   17.40    9.90
  -6  -4   7   19.20    3.00
  -6  -4   7   17.90    2.40
  -6  -4   7   13.40    4.00
   5   4  -7   32.90   11.20
  -5  -4   7   25.60    2.50
  -5  -4   7   18.70    3.80
  -5  -4   7   20.70    3.50
   4   4  -7   26.10    6.00
   4   4  -7   43.60   12.10
  -4  -4   7   28.90    4.20
  -4  -4   7   33.80    3.00
  -4  -4   7   35.90    3.70
   3   4  -7   33.40    6.50
  -3  -4   7   40.00    4.80
  -3  -4   7   44.70    4.30
  -3  -4   7   46.60    3.90
  -3  -4   7   43.10    4.30
   2   4  -7   59.19    6.30
   2   4  -7   53.99    8.80
   2   4  -7   58.39    4.00
   2   4  -7   56.79    3.90
  -2  -4   7   60.19    5.20
  -2  -4   7   47.10   13.70
  -2  -4   7   48.60    4.10
  -2  -4   7   52.19    5.60
  -2  -4   7   58.89    5.00
  -2  -4   7   57.79    4.50
   1   4  -7  295.87   20.10
   1   4  -7  296.17   18.90
   1   4  -7  304.67   21.40
  -1  -4   7  292.27   19.80
  -1  -4   7  285.57   19.30
  -1  -4   7  279.97   19.70
  -1  -4   7  276.27   27.60
  -1  -4   7  289.77   18.70
   0   4  -7    0.60    2.40
   0   4  -7   -0.40    1.20
   0   4  -7    0.90    1.40
   0   4  -7   -1.30    1.60
   0  -4   7    0.20    1.20
   0  -4   7   -0.10    1.70
   0  -4   7   -2.00    3.30
   0  -4   7    0.60    1.80
  -1   4  -7  464.75   28.80
  -1   4  -7  407.46   28.00
  -1   4  -7  418.26   27.00
  -1   4  -7  427.86   27.90
  -1   4  -7  438.46   26.90
  -1   4  -7  433.86   27.60
   1  -4   7  429.36   27.70
   1  -4   7  359.06   28.60
   1  -4   7  455.65   35.60
   1  -4   7  398.76   28.20
   1  -4   7  405.26   28.60
  -2   4  -7   11.60    2.60
  -2   4  -7    9.20    2.30
  -2   4  -7   13.40    3.40
  -2   4  -7   11.60    3.10
  -2   4  -7   13.00    3.30
   2  -4   7    5.80    3.00
   2  -4   7   16.20    3.10
   2  -4   7    5.10    2.80
   2  -4   7   11.60    3.30
  -3   4  -7  493.35   33.30
  -3   4  -7  466.95   32.70
  -3   4  -7  542.25   31.80
  -3   4  -7  506.05   33.50
  -3   4  -7  525.45   33.10
   3  -4   7  481.95   33.80
   3  -4   7  483.15   33.40
   3  -4   7  470.55   32.70
   3  -4   7  454.25   34.40
  -4   4  -7    0.30    2.50
  -4   4  -7    0.70    0.90
  -4   4  -7   -1.90    1.30
  -4   4  -7   -0.70    2.00
  -4   4  -7   -0.30    2.60
   4  -4   7   -1.90    2.40
   4  -4   7   -1.00    2.20
   4  -4   7   -5.10    1.80
  -5   4  -7  321.97   20.70
  -5   4  -7  336.97   23.50
  -5   4  -7  328.27   23.50
   5  -4   7  277.67   24.70
   5  -4   7  305.67   22.60
  -6   4  -7   12.20    4.20
  -6   4  -7    9.20    2.40
  -6   4  -7    8.00    4.00
   6  -4   7    2.30    3.70
   6  -4   7   10.60    4.60
  -7   4  -7  111.19   11.70
  -7   4  -7  120.39    9.60
  -7   4  -7  112.39   15.80
   7  -4   7   95.99   12.60
   7  -4   7  105.39   14.80
   7   3  -7   20.60   10.70
  -7  -3   7   16.80    4.80
  -7  -3   7   16.70    2.50
   6   3  -7  171.98   22.20
  -6  -3   7  135.39    9.50
  -6  -3   7  130.89   10.30
  -6  -3   7  143.89   12.20
   5   3  -7   34.70   11.50
  -5  -3   7   22.80    2.70
  -5  -3   7   26.00    2.20
  -5  -3   7   19.30    4.10
   4   3  -7  436.26   33.10
  -4  -3   7  463.55   31.20
  -4  -3   7  482.75   29.60
  -4  -3   7  486.25   29.20
   3   3  -7   12.50    4.50
   3   3  -7   17.80    4.80
  -3  -3   7   23.60    3.70
  -3  -3   7   19.80    2.20
  -3  -3   7   17.40    3.00
  -3  -3   7   17.90    3.90
  -3  -3   7   21.20    2.00
  -3  -3   7   14.80    7.70
   2   3  -7 1082.19   72.29
   2   3  -7 1195.28   71.19
  -2  -3   7  964.00   68.89
  -2  -3   7 1112.29   69.59
  -2  -3   7 1139.79   68.99
  -2  -3   7 1123.79   69.69
  -2  -3   7 1233.78   70.49
  -2  -3   7 1123.49   69.69
  -2  -3   7 1116.49   80.99
   1   3  -7    5.80    3.10
   1   3  -7   10.70    1.70
   1   3  -7   10.00    1.60
   1   3  -7    2.20    2.20
  -1  -3   7    5.10    1.60
  -1  -3   7    1.20    4.20
  -1  -3   7    7.00    2.00
  -1  -3   7    7.40    1.10
  -1  -3   7    5.40    1.40
  -1  -3   7    5.40    1.80
   0   3  -7  713.83   43.40
   0   3  -7  670.73   42.90
   0   3  -7  700.73   44.30
   0   3  -7  710.83   43.00
   0  -3   7  642.64   43.40
   0  -3   7  587.84   43.50
   0  -3   7  710.63   42.80
   0  -3   7  656.33   43.20
   0  -3   7  706.73   50.79
  -1   3  -7    8.40    2.40
  -1   3  -7    3.60    2.40
  -1   3  -7    7.00    2.20
  -1   3  -7    5.50    1.50
  -1   3  -7    5.80    2.00
  -1   3  -7    4.80    1.50
   1  -3   7    5.80    2.30
   1  -3   7    8.50    2.70
   1  -3   7    5.10    2.30
   1  -3   7    5.20    2.10
   1  -3   7    5.50    4.80
  -2   3  -7  623.74   40.90
  -2   3  -7  666.33   40.00
  -2   3  -7  650.93   40.40
  -2   3  -7  625.44   39.70
  -2   3  -7  694.13   40.20
   2  -3   7  605.54   40.80
   2  -3   7  590.64   40.00
   2  -3   7  518.65   41.00
   2  -3   7  592.84   40.50
  -3   3  -7  101.09    8.60
  -3   3  -7  102.29    6.20
  -3   3  -7   93.99    8.70
  -3   3  -7  100.49    8.90
  -3   3  -7   88.19    8.30
   3  -3   7  100.39    8.50
   3  -3   7  101.89    9.10
   3  -3   7   82.09    9.40
   3  -3   7   77.19    9.30
  -4   3  -7  201.18   15.20
  -4   3  -7  216.28   13.20
  -4   3  -7  225.18   16.40
  -4   3  -7  218.08   15.70
  -4   3  -7  183.58   18.30
   4  -3   7  176.28   15.40
   4  -3   7  193.68   15.00
   4  -3   7  175.58   15.50
   4  -3   7  179.28   16.50
  -5   3  -7    7.10    3.50
  -5   3  -7    9.40    3.80
  -5   3  -7    9.00    3.90
  -5   3  -7   10.20    2.10
   5  -3   7    8.40    4.30
   5  -3   7   10.60    3.50
   5  -3   7   10.90    3.90
  -6   3  -7   71.99    8.70
  -6   3  -7   84.79    8.90
  -6   3  -7   77.19    6.90
   6  -3   7   72.49   11.00
   6  -3   7   62.79   10.40
  -7   3  -7   32.10    6.50
  -7   3  -7   15.80    3.50
   7  -3   7   19.00    5.70
  -8   3  -7   31.60    5.40
  -8   3  -7   31.70    7.00
  -8   3  -7   28.20    6.80
   8  -3   7   25.10    6.60
   8  -3   7   37.70    8.90
   7   2  -7   92.59   17.40
  -7  -2   7   79.39    8.10
  -7  -2   7   98.29   10.20
  -7  -2   7   92.39    7.10
   6   2  -7    0.20    5.50
  -6  -2   7   -2.00    1.10
  -6  -2   7    1.50    2.80
  -6  -2   7    1.90    1.10
  -5  -2   7  183.68   11.90
  -5  -2   7  183.78   12.20
  -5  -2   7  189.38   14.50
   4   2  -7   19.70    4.40
   4   2  -7   16.10    4.70
   4   2  -7   23.70    8.80
  -4  -2   7   18.20    3.60
  -4  -2   7   22.50    4.90
  -4  -2   7   15.70    3.80
   3   2  -7   64.39    7.00
   3   2  -7   98.19   13.80
   3   2  -7   53.29    7.50
  -3  -2   7   69.39    6.40
  -3  -2   7   73.19    6.50
  -3  -2   7   65.79   13.00
  -3  -2   7   79.09    7.20
  -3  -2   7   69.59    4.70
  -3  -2   7   73.99    4.70
   2   2  -7   47.80    6.90
   2   2  -7   52.39    5.60
  -2  -2   7   51.59    4.10
  -2  -2   7   60.89    5.20
  -2  -2   7   48.90    4.00
  -2  -2   7   50.49    4.60
  -2  -2   7   45.70   10.40
   1   2  -7  103.19    7.00
   1   2  -7   99.99    8.90
   1   2  -7  103.79    9.30
   1   2  -7   95.99    6.90
  -1  -2   7   93.99    7.60
  -1  -2   7  105.99    7.60
  -1  -2   7  107.69    7.30
  -1  -2   7   99.69    7.10
  -1  -2   7  113.69   14.30
  -1  -2   7   93.19    7.40
   0   2  -7   42.30    5.20
   0   2  -7   42.80    4.00
   0   2  -7   39.60    3.90
   0   2  -7   42.90    4.40
   0  -2   7   38.30    3.90
   0  -2   7   42.90    4.60
   0  -2   7   40.00    4.10
   0  -2   7   40.70    2.70
   0  -2   7   41.30    2.80
   0  -2   7   45.70    8.60
   0  -2   7   32.40    4.20
  -1   2  -7  321.07   21.40
  -1   2  -7  328.37   22.20
  -1   2  -7  363.56   22.50
  -1   2  -7  338.67   21.60
  -1   2  -7  361.56   22.90
  -1   2  -7  362.06   22.10
   1  -2   7  343.17   22.20
   1  -2   7  290.67   22.90
   1  -2   7  331.67   22.50
   1  -2   7  305.57   22.40
  -2   2  -7    4.90    2.10
  -2   2  -7    8.00    2.30
  -2   2  -7    8.80    2.30
  -2   2  -7    4.60    2.20
   2  -2   7    6.80    2.50
   2  -2   7    3.60    2.40
   2  -2   7    6.10    2.40
   2  -2   7    6.30    2.50
  -3   2  -7   16.10    3.20
  -3   2  -7    8.20    3.00
  -3   2  -7   17.60    4.10
  -3   2  -7   17.60    1.80
  -3   2  -7   18.00    3.90
   3  -2   7    9.80    2.80
   3  -2   7   11.50    3.50
   3  -2   7   15.00    3.60
   3  -2   7   13.60    4.10
  -4   2  -7   11.50    3.60
  -4   2  -7    8.50    2.80
  -4   2  -7    8.80    3.00
  -4   2  -7    8.20    3.20
  -4   2  -7    9.50    1.80
   4  -2   7    5.70    2.80
   4  -2   7    6.10    3.10
   4  -2   7   10.10    3.60
   4  -2   7   11.60    3.20
  -5   2  -7   12.30    4.50
  -5   2  -7   16.60    4.00
  -5   2  -7   19.40    4.40
  -5   2  -7   11.70    2.50
   5  -2   7   16.30    5.00
   5  -2   7   10.00    3.80
  -6   2  -7   39.30    4.90
  -6   2  -7   33.30    6.40
  -6   2  -7   31.70    6.10
   6  -2   7   31.80    6.00
  -7   2  -7   12.40    3.10
   7  -2   7    6.50    4.70
   7  -2   7    5.60    3.70
  -8   2  -7   30.50    5.20
  -8   2  -7   20.60    5.90
  -8   2  -7   32.70    6.80
   8  -2   7   33.00    7.20
   8  -2   7   23.20    7.80
   8   1  -7   26.20   11.70
  -8  -1   7   32.10    4.30
  -8  -1   7   23.20    4.50
  -8  -1   7   26.40    6.20
   7   1  -7    1.10    6.10
  -7  -1   7   -0.30    2.80
  -7  -1   7    2.10    1.70
  -6  -1   7   33.30    3.30
  -6  -1   7   23.80    3.30
  -6  -1   7   26.50    5.30
   5   1  -7   14.40    7.80
  -5  -1   7   16.20    2.00
  -5  -1   7   21.50    4.30
  -5  -1   7   14.00    2.00
   4   1  -7   24.50    8.50
   4   1  -7   21.50    4.90
   4   1  -7   15.70    3.80
  -4  -1   7   17.20    3.50
  -4  -1   7   24.50    3.90
  -4  -1   7   24.00    4.30
   3   1  -7   -1.00    2.30
   3   1  -7   -0.40    4.30
   3   1  -7    3.10    2.20
  -3  -1   7   -1.40    1.30
  -3  -1   7   -4.10    2.70
   2   1  -7    2.50    2.00
   2   1  -7    1.30    2.20
  -2  -1   7    2.50    4.30
  -2  -1   7   -0.30    1.30
  -2  -1   7    0.10    1.70
  -2  -1   7    1.40    1.30
  -2  -1   7    2.10    0.80
  -2  -1   7    0.70    0.90
   1   1  -7   51.39    5.80
   1   1  -7   48.90    4.90
   1   1  -7   55.49    4.30
   1   1  -7   49.40    3.70
  -1  -1   7   58.39    5.20
  -1  -1   7   49.00    3.90
  -1  -1   7   40.30    4.30
  -1  -1   7   47.40    9.30
  -1  -1   7   47.70    4.00
   0   1  -7    2.80    1.60
   0   1  -7    0.50    1.10
   0   1  -7    1.50    2.00
   0   1  -7    0.00    1.00
   0  -1   7    1.00    1.20
   0  -1   7   -0.30    1.10
   0  -1   7    0.70    0.70
   0  -1   7    0.50    1.40
   0  -1   7    0.80    1.20
   0  -1   7    1.00    3.10
  -1   1  -7  325.87   20.20
  -1   1  -7  317.37   20.60
  -1   1  -7  337.07   20.80
  -1   1  -7  317.67   20.80
  -1   1  -7  332.97   21.20
  -1   1  -7  326.77   21.40
   1  -1   7  262.17   21.50
   1  -1   7  323.97   21.00
   1  -1   7  318.57   21.10
   1  -1   7  294.97   21.10
   1  -1   7  298.77   19.80
  -2   1  -7   43.00    5.00
  -2   1  -7   50.19    5.00
  -2   1  -7   44.70    5.00
  -2   1  -7   45.00    4.50
   2  -1   7   45.70    4.80
   2  -1   7   46.90    5.00
   2  -1   7   46.80    5.10
   2  -1   7   46.20    3.70
   2  -1   7   39.30    5.40
  -3   1  -7  906.21   54.59
  -3   1  -7  812.02   54.59
  -3   1  -7  926.81   52.49
  -3   1  -7  869.01   53.69
  -3   1  -7  888.61   54.09
   3  -1   7  790.12   52.69
   3  -1   7  835.52   54.29
   3  -1   7  849.52   53.99
   3  -1   7  829.52   54.39
   3  -1   7  705.73   54.89
  -4   1  -7   18.70    4.40
  -4   1  -7   37.60    5.50
  -4   1  -7   22.70    2.90
  -4   1  -7   27.80    4.50
  -4   1  -7   32.80    5.00
   4  -1   7   25.90    4.90
   4  -1   7   20.80    4.20
   4  -1   7   19.10    4.30
  -5   1  -7  748.23   45.90
  -5   1  -7  757.22   47.40
  -5   1  -7  709.13   47.30
  -5   1  -7  719.83   47.70
  -5   1  -7  707.53   48.60
   5  -1   7  671.33   46.00
   5  -1   7  735.93   50.19
   5  -1   7  655.13   47.50
   5  -1   7  758.12   47.80
   5  -1   7  715.03   47.10
  -6   1  -7   31.50    5.80
  -6   1  -7   42.40    6.60
  -6   1  -7   38.40    4.90
   6  -1   7   30.30    5.80
   6  -1   7   31.10    6.30
   6  -1   7   27.50    7.40
  -7   1  -7  194.58   16.10
  -7   1  -7  194.18   14.60
  -7   1  -7  186.88   15.90
   7  -1   7  165.78   16.90
   7  -1   7  199.68   18.80
  -8   1  -7   23.80    5.80
  -8   1  -7   36.00    5.70
  -8   1  -7   34.30    6.70
   8  -1   7   17.40    7.30
   8  -1   7   21.30    6.00
   8   0  -7   -0.10    6.20
  -8   0   7    3.70    2.20
  -8   0   7    1.70    3.50
   7   0  -7    5.20    8.50
  -7   0   7    3.00    1.90
  -7   0   7   -1.00    2.80
  -7   0   7    0.30    2.00
   6   0  -7   81.19   14.50
  -6   0   7   48.30    7.50
  -6   0   7   64.79    5.70
  -6   0   7   58.89    5.70
   5   0  -7   -1.50    4.10
   5   0  -7   -1.80    1.90
  -5   0   7    4.80    4.40
  -5   0   7    0.20    1.10
  -5   0   7    1.80    2.40
  -5   0   7   -0.30    1.20
   4   0  -7  204.98   15.60
  -4   0   7  202.68   14.00
  -4   0   7  203.58   13.50
  -4   0   7  219.48   15.90
  -4   0   7  206.88   14.90
  -4   0   7  234.08   16.00
   3   0  -7    8.20    3.30
   3   0  -7   12.00    5.90
   3   0  -7    7.20    2.90
  -3   0   7    9.00    1.20
  -3   0   7    5.40    5.20
  -3   0   7    7.50    2.30
  -3   0   7    8.80    2.60
  -3   0   7   10.00    1.70
   2   0  -7 1199.48   76.09
   2   0  -7 1211.18   73.19
   2   0  -7 1175.58   73.19
   2   0  -7 1151.58   74.99
  -2   0   7 1176.58   74.29
  -2   0   7 1223.18   84.29
  -2   0   7 1135.79   73.39
  -2   0   7 1184.98   73.49
  -2   0   7 1241.18   75.29
  -2   0   7 1227.98   73.49
   1   0  -7  156.78   10.80
   1   0  -7  160.58   11.30
   1   0  -7  154.98   12.00
  -1   0   7  156.48   10.30
  -1   0   7  152.08   10.30
  -1   0   7  147.99   10.20
  -1   0   7  141.09   16.30
   0   0  -7 1300.37   81.89
   0   0  -7 1288.47   82.19
   0   0  -7 1344.67   82.29
   0   0  -7 1255.67   80.89
   0   0  -7 1303.17   82.79
   0   0   7 1261.07   81.99
   0   0   7 1262.87   81.99
   0   0   7 1475.35   88.89
   0   0   7 1268.17   81.99
   0   0   7 1436.76   81.69
  -1   0  -7  262.87   17.30
  -1   0  -7  265.97   17.90
  -1   0  -7  251.97   17.90
  -1   0  -7  288.57   18.40
  -1   0  -7  293.67   18.40
   1   0   7  262.67   18.10
   1   0   7  265.97   18.00
   1   0   7  269.67   17.20
   1   0   7  246.68   18.00
  -2   0  -7 1045.20   64.89
  -2   0  -7  981.70   65.49
  -2   0  -7 1090.99   65.49
  -2   0  -7 1098.59   64.59
  -2   0  -7 1016.20   63.79
   2   0   7  989.20   63.99
   2   0   7 1024.10   65.09
   2   0   7  988.10   65.19
   2   0   7 1026.80   64.99
  -3   0  -7 1097.29   63.19
  -3   0  -7  956.70   65.29
  -3   0  -7 1011.40   64.09
  -3   0  -7 1052.69   64.49
  -3   0  -7 1070.49   64.99
   3   0   7  958.10   63.39
   3   0   7 1033.20   66.69
   3   0   7 1010.50   64.59
   3   0   7  978.70   64.39
   3   0   7  966.10   64.69
  -4   0  -7  559.54   38.60
  -4   0  -7  583.44   37.40
  -4   0  -7  621.04   36.20
  -4   0  -7  574.04   37.90
  -4   0  -7  564.14   37.20
   4   0   7  538.95   36.40
   4   0   7  543.85   37.50
   4   0   7  553.44   37.30
   4   0   7  538.95   37.60
   4   0   7  564.54   39.80
  -5   0  -7  629.54   46.90
  -5   0  -7  699.13   44.30
  -5   0  -7  673.03   44.60
  -5   0  -7  700.43   44.10
  -5   0  -7  712.43   42.90
   5   0   7  623.24   43.10
   5   0   7  652.43   46.70
   5   0   7  672.33   44.40
   5   0   7  645.14   44.50
   5   0   7  657.33   44.00
  -6   0  -7  246.98   18.90
  -6   0  -7  232.38   18.70
  -6   0  -7  262.87   17.80
   6   0   7  266.47   19.50
   6   0   7  247.98   21.60
   6   0   7  235.88   18.00
   6   0   7  252.27   18.80
  -7   0  -7  217.88   17.20
  -7   0  -7  207.58   17.00
  -7   0  -7  221.18   16.00
   7   0   7  195.68   16.10
   7   0   7  195.58   21.70
   7   0   7  222.68   17.60
  -8   0  -7   58.99    9.00
  -8   0  -7   60.99    8.50
  -8   0  -7   79.49    8.10
   8   0   7   71.09   12.00
   8   0   7   56.19    8.70
  -9   0  -7   72.89    9.60
  -9   0  -7   76.99    8.90
   9   0   7   77.39   13.10
   9   0   7   69.09   10.10
   8  -1  -7    3.00    6.70
  -8   1   7    3.40    2.40
  -8   1   7    6.10    1.80
  -8   1   7    1.20    2.70
  -8   1   7    5.20    4.00
  -8   1   7    3.40    1.50
  -7   1   7  247.88   18.50
  -7   1   7  255.87   18.60
  -7   1   7  261.87   20.80
  -7   1   7  262.57   17.10
  -7   1   7  271.97   17.00
   6  -1  -7    7.90    6.60
  -6   1   7   13.50    2.90
  -6   1   7    7.00    3.80
  -6   1   7    9.20    1.70
  -6   1   7   10.60    1.80
  -6   1   7    7.00    2.50
   5  -1  -7  740.73   51.49
   5  -1  -7  605.74   43.40
  -5   1   7  651.13   44.20
  -5   1   7  685.53   41.30
  -5   1   7  637.74   42.00
  -5   1   7  695.93   42.70
  -5   1   7  627.24   41.70
   4  -1  -7   40.10    5.50
   4  -1  -7   46.30    9.80
  -4   1   7   42.10   11.20
  -4   1   7   38.10    3.10
  -4   1   7   41.20    4.60
  -4   1   7   37.90    5.00
  -4   1   7   37.60    3.50
  -4   1   7   38.70    3.10
  -4   1   7   38.60    4.20
   3  -1  -7 1040.00   68.89
   3  -1  -7  929.91   69.49
   3  -1  -7 1107.99   67.19
   3  -1  -7 1073.19   67.09
  -3   1   7 1136.09   67.29
  -3   1   7 1066.09   67.19
  -3   1   7 1086.59   69.09
  -3   1   7 1236.68   67.49
  -3   1   7 1057.79   77.69
  -3   1   7 1177.58   68.59
  -3   1   7 1042.20   68.29
   2  -1  -7  170.18   11.10
   2  -1  -7  148.59   12.50
   2  -1  -7  169.88   10.70
   2  -1  -7  160.08   11.80
  -2   1   7  152.38   11.50
  -2   1   7  162.18   10.60
  -2   1   7  171.18   10.80
  -2   1   7  162.48   18.20
  -2   1   7  154.88   11.90
  -2   1   7  156.38   10.60
   1  -1  -7 1421.26   91.19
   1  -1  -7 1488.65   92.09
   1  -1  -7 1475.25   90.79
  -1   1   7 1425.16   97.79
  -1   1   7 1491.75   90.59
  -1   1   7 1450.15   90.69
  -1   1   7 1591.54   91.69
  -1   1   7 1360.06   91.59
  -1   1   7 1462.95   90.49
   0  -1  -7   59.59    5.40
   0  -1  -7   67.89    5.60
   0  -1  -7   60.89    6.10
   0  -1  -7   65.69    5.30
   0  -1  -7   65.89    4.70
   0   1   7   67.09    5.40
   0   1   7   57.19    6.30
   0   1   7   65.09    5.30
   0   1   7   73.69    5.30
   0   1   7   63.79    5.30
  -1  -1  -7  445.26   29.90
  -1  -1  -7  470.25   29.00
  -1  -1  -7  416.16   29.90
  -1  -1  -7  504.45   32.00
  -1  -1  -7  467.95   29.60
   1   1   7  471.35   29.20
   1   1   7  432.26   29.60
   1   1   7  464.15   31.30
   1   1   7  454.85   29.70
   1   1   7  450.65   29.60
  -2  -1  -7  349.07   21.70
  -2  -1  -7  358.36   22.20
  -2  -1  -7  309.57   23.30
  -2  -1  -7  345.57   23.00
  -2  -1  -7  340.07   22.50
   2   1   7  322.07   22.60
   2   1   7  340.97   26.00
   2   1   7  347.77   22.80
   2   1   7  321.87   22.70
   2   1   7  326.67   21.90
  -3  -1  -7   11.90    2.90
  -3  -1  -7    9.00    3.00
  -3  -1  -7   17.80    3.60
  -3  -1  -7   14.50    2.20
  -3  -1  -7   10.70    3.20
   3   1   7   10.20    2.80
   3   1   7    7.70    2.60
   3   1   7    9.90    2.20
   3   1   7   11.30    3.70
   3   1   7   12.70    3.10
  -4  -1  -7   24.70    5.90
  -4  -1  -7   23.00    4.50
  -4  -1  -7   26.00    4.50
  -4  -1  -7   19.80    3.90
   4   1   7   18.40    4.10
   4   1   7   21.00    4.00
   4   1   7   25.20    5.60
   4   1   7   22.30    3.50
   4   1   7   21.00    4.30
  -5  -1  -7   64.39    7.10
  -5  -1  -7   49.30    6.20
  -5  -1  -7   63.39    6.90
  -5  -1  -7   48.00    8.00
  -5  -1  -7   61.59    5.70
   5   1   7   52.19    5.80
   5   1   7   57.79    7.40
   5   1   7   53.79    6.50
   5   1   7   60.59    9.40
   5   1   7   54.09    7.10
  -6  -1  -7    3.40    3.10
  -6  -1  -7    9.20    3.00
  -6  -1  -7    8.70    2.90
  -6  -1  -7    4.90    3.10
   6   1   7    1.10    2.00
   6   1   7    1.00    3.60
   6   1   7    4.00    2.90
   6   1   7    2.00    2.90
  -7  -1  -7   18.70    5.80
  -7  -1  -7   16.00    3.90
  -7  -1  -7   19.70    5.00
   7   1   7    6.90    4.00
   7   1   7   13.00    6.10
  -8  -1  -7   21.90    5.80
  -8  -1  -7   18.00    4.90
   8   1   7   13.40    6.30
   8   1   7   14.50    5.30
  -9  -1  -7    9.60    4.00
  -9  -1  -7    8.40    4.90
  -9  -1  -7   11.50    4.90
   9   1   7   13.40    6.00
   9   1   7    3.80    4.00
   8  -2  -7   23.10    3.10
   8  -2  -7   19.90    9.50
  -8   2   7   23.10    4.50
  -8   2   7   12.50    5.00
  -8   2   7   21.30    3.50
  -8   2   7   21.10    4.50
  -8   2   7   15.60    4.30
   7  -2  -7    4.70    2.10
   7  -2  -7   13.50    2.40
   7  -2  -7   14.00    7.60
  -7   2   7   11.30    2.90
  -7   2   7   13.40    7.90
  -7   2   7    9.60    3.40
  -7   2   7   11.30    2.70
   6  -2  -7   35.70    3.80
   6  -2  -7   40.90    3.40
   6  -2  -7   40.80   10.70
  -6   2   7   39.30    4.10
  -6   2   7   38.80    4.70
  -6   2   7   38.50    6.80
   5  -2  -7   27.30    4.70
   5  -2  -7   26.40    2.60
   5  -2  -7   22.20    2.90
   5  -2  -7   27.90    8.20
  -5   2   7   25.90    4.20
  -5   2   7   25.90    3.20
  -5   2   7   24.70    4.00
  -5   2   7   24.30    3.40
   4  -2  -7   39.80    8.30
   4  -2  -7   28.10    3.00
   4  -2  -7   30.70    4.70
   4  -2  -7   30.80    2.80
  -4   2   7   36.40    5.40
  -4   2   7   28.30    8.50
  -4   2   7   28.00    3.20
  -4   2   7   25.80    4.20
  -4   2   7   29.00    4.30
  -4   2   7   27.90    3.00
  -4   2   7   31.80    4.30
   3  -2  -7   42.00    6.00
   3  -2  -7   49.30    4.30
   3  -2  -7   52.79    5.50
  -3   2   7   59.19    5.60
  -3   2   7   52.39    4.30
  -3   2   7   48.70    4.40
  -3   2   7   63.09    6.00
  -3   2   7   64.09    4.60
  -3   2   7   51.69   10.00
   2  -2  -7   10.70    3.00
   2  -2  -7   13.20    2.80
   2  -2  -7   14.60    2.20
   2  -2  -7   14.80    2.10
  -2   2   7   16.20    2.10
  -2   2   7   14.10    3.00
  -2   2   7   13.70    5.70
  -2   2   7   16.30    2.30
  -2   2   7   12.80    1.90
  -2   2   7   13.00    2.90
   1  -2  -7  145.79   10.10
   1  -2  -7  137.39   10.10
   1  -2  -7  126.49    9.20
   1  -2  -7  148.29   10.50
   1  -2  -7  136.19   11.10
   1  -2  -7  133.79    9.10
  -1   2   7  166.58   10.00
  -1   2   7  150.88    9.90
  -1   2   7  130.59   11.00
  -1   2   7  137.99   10.00
  -1   2   7  158.78   10.70
  -1   2   7  156.38   15.80
   0  -2  -7    7.60    2.00
   0  -2  -7    9.30    2.20
   0  -2  -7    9.50    2.30
   0  -2  -7   15.40    1.90
   0  -2  -7   10.30    2.20
   0   2   7   12.10    3.10
   0   2   7   10.20    2.00
   0   2   7    6.20    1.90
  -1  -2  -7   69.59    5.00
  -1  -2  -7   57.59    5.60
  -1  -2  -7   64.09    5.40
  -1  -2  -7   47.20    5.60
  -1  -2  -7   57.29    5.40
   1   2   7   62.59    5.50
   1   2   7   60.09    5.50
   1   2   7   62.19    5.50
   1   2   7   60.49    6.70
  -2  -2  -7    2.80    2.00
  -2  -2  -7   10.50    2.20
  -2  -2  -7    8.50    1.80
  -2  -2  -7    3.90    2.10
  -2  -2  -7    8.00    2.60
   2   2   7    6.10    2.20
   2   2   7    1.60    1.80
   2   2   7    4.40    2.20
   2   2   7    8.10    1.90
   2   2   7    7.00    3.10
  -3  -2  -7  135.09   12.50
  -3  -2  -7  172.68   11.10
  -3  -2  -7  163.68   12.20
  -3  -2  -7  165.18   11.90
  -3  -2  -7  154.68   11.40
   3   2   7  147.79   11.90
   3   2   7  153.48   11.90
   3   2   7  144.89   11.20
   3   2   7  145.59   13.60
   3   2   7  155.38   12.00
  -4  -2  -7    3.50    2.50
  -4  -2  -7    1.80    2.20
  -4  -2  -7    1.30    2.40
  -4  -2  -7    4.50    1.90
  -4  -2  -7    0.00    1.80
   4   2   7    0.50    1.70
   4   2   7    0.10    1.90
   4   2   7    3.00    3.10
   4   2   7    2.60    2.30
   4   2   7    2.80    2.00
  -5  -2  -7  562.54   35.20
  -5  -2  -7  448.66   36.20
  -5  -2  -7  568.34   34.20
  -5  -2  -7  551.34   34.90
  -5  -2  -7  528.25   35.60
   5   2   7  503.05   37.50
   5   2   7  476.35   34.40
   5   2   7  522.85   35.20
   5   2   7  546.05   35.30
   5   2   7  493.25   35.20
  -6  -2  -7   16.00    4.30
  -6  -2  -7   14.80    4.20
  -6  -2  -7   17.90    3.70
   6   2   7   29.20    5.40
   6   2   7   16.90    3.80
   6   2   7   21.10    6.30
   6   2   7   26.00    5.00
  -7  -2  -7  440.96   29.00
  -7  -2  -7  425.56   29.80
   7   2   7  382.96   32.30
   7   2   7  422.36   30.00
  -8  -2  -7   48.40    7.80
  -8  -2  -7   43.30    7.30
  -8  -2  -7   47.80    6.90
   8   2   7   33.00    9.60
   8   2   7   46.50    9.00
  -9  -2  -7  113.99   12.10
  -9  -2  -7  129.99   12.00
  -9  -2  -7  120.19   12.20
   9   2   7  107.69   14.00
   9   2   7  112.09   12.10
   8  -3  -7    0.60    5.30
  -8   3   7    2.40    2.70
  -8   3   7    0.50    3.60
  -8   3   7    3.00    2.10
  -8   3   7    2.90    2.50
   7  -3  -7   12.50    7.30
   7  -3  -7   10.10    2.70
   7  -3  -7   12.20    2.50
  -7   3   7   17.60    3.20
  -7   3   7   12.20    4.70
  -7   3   7   14.20    4.10
  -7   3   7   15.50    3.20
   6  -3  -7   -1.50    1.40
   6  -3  -7   -0.60    1.10
   6  -3  -7    2.30    2.40
   6  -3  -7   -4.40    3.70
  -6   3   7   -0.60    2.20
  -6   3   7   -0.90    1.80
  -6   3   7    0.90    1.70
  -6   3   7   -0.20    1.70
   5  -3  -7    4.50    4.30
   5  -3  -7    3.20    1.30
   5  -3  -7    2.60    1.60
   5  -3  -7    2.70    2.30
  -5   3   7    2.80    1.40
  -5   3   7    1.50    2.10
  -5   3   7    1.60    1.80
  -5   3   7    1.90    1.60
   4  -3  -7   11.00    5.30
   4  -3  -7   11.40    1.90
   4  -3  -7    8.00    2.80
   4  -3  -7    9.60    2.10
  -4   3   7   12.40    2.30
  -4   3   7   11.30    3.40
  -4   3   7   10.00    2.30
  -4   3   7    8.30    2.00
  -4   3   7    9.50    5.20
  -4   3   7   10.00    2.80
   3  -3  -7   37.90    4.60
   3  -3  -7   34.90    3.50
   3  -3  -7   38.40    3.80
  -3   3   7   30.10    7.90
  -3   3   7   34.10    4.70
  -3   3   7   33.80    3.70
  -3   3   7   42.70    3.80
  -3   3   7   34.30    3.60
  -3   3   7   32.60    4.60
   2  -3  -7  256.07   17.70
   2  -3  -7  253.77   17.80
   2  -3  -7  263.97   19.60
   2  -3  -7  299.97   18.50
   2  -3  -7  288.77   19.10
   2  -3  -7  279.97   18.60
  -2   3   7  296.97   18.50
  -2   3   7  301.37   19.30
  -2   3   7  285.97   20.00
  -2   3   7  290.37   24.80
  -2   3   7  277.37   18.50
   1  -3  -7   17.40    2.30
   1  -3  -7   12.00    2.90
   1  -3  -7   16.40    3.20
   1  -3  -7   14.70    2.60
   1  -3  -7   19.50    3.30
   1  -3  -7   19.00    3.10
  -1   3   7   15.20    2.50
  -1   3   7   15.70    3.50
  -1   3   7   17.20    2.80
  -1   3   7   16.40    2.60
  -1   3   7   18.00    6.10
  -1   3   7   20.50    2.60
  -1   3   7   23.80    3.20
   0  -3  -7  548.25   35.30
   0  -3  -7  541.95   35.40
   0  -3  -7  535.45   36.40
   0  -3  -7  519.65   35.40
   0  -3  -7  612.74   35.10
   0   3   7  491.65   36.70
   0   3   7  520.25   35.30
   0   3   7  538.05   35.20
   0   3   7  635.74   35.50
   0   3   7  545.55   35.10
  -1  -3  -7  192.88   15.20
  -1  -3  -7  212.38   13.50
  -1  -3  -7  191.88   13.80
  -1  -3  -7  213.98   13.30
  -1  -3  -7  174.08   13.80
   1   3   7  187.88   13.60
   1   3   7  185.18   13.60
   1   3   7  188.58   13.70
   1   3   7  192.18   13.80
   1   3   7  193.48   15.50
  -2  -3  -7 1288.17   77.99
  -2  -3  -7 1213.98   78.19
  -2  -3  -7 1216.28   77.19
  -2  -3  -7 1329.47   78.29
   2   3   7 1191.08   77.99
   2   3   7 1227.18   77.89
   2   3   7 1233.28   77.99
   2   3   7 1205.18   79.99
   2   3   7 1236.78   77.69
  -3  -3  -7  288.67   20.50
  -3  -3  -7  319.37   19.90
  -3  -3  -7  322.97   20.30
  -3  -3  -7  287.77   20.90
   3   3   7  311.07   20.70
   3   3   7  278.67   20.10
   3   3   7  285.47   20.70
   3   3   7  290.07   22.80
   3   3   7  276.77   20.50
  -4  -3  -7  819.82   49.80
  -4  -3  -7  815.72   50.09
  -4  -3  -7  773.02   50.49
  -4  -3  -7  835.82   49.30
  -4  -3  -7  650.13   51.09
   4   3   7  741.93   49.60
   4   3   7  735.53   50.19
   4   3   7  768.12   50.19
   4   3   7  773.92   52.69
   4   3   7  800.32   50.19
  -5  -3  -7  343.87   21.10
  -5  -3  -7  304.77   21.50
  -5  -3  -7  285.47   22.20
  -5  -3  -7  270.17   22.90
  -5  -3  -7  341.97   23.30
   5   3   7  284.87   22.70
   5   3   7  299.67   24.30
   5   3   7  329.97   22.60
   5   3   7  289.07   21.80
   5   3   7  287.37   21.30
  -6  -3  -7  117.19   10.20
  -6  -3  -7  115.39   10.40
  -6  -3  -7  119.79    9.70
  -6  -3  -7  108.49   10.60
   6   3   7  112.09   10.50
   6   3   7   89.19    9.50
   6   3   7  105.09   12.30
  -7  -3  -7  232.88   19.90
  -7  -3  -7  259.47   18.20
  -7  -3  -7  219.28   18.60
   7   3   7  253.17   19.00
   7   3   7  240.18   21.60
  -8  -3  -7   46.80    7.40
  -8  -3  -7   32.00    6.20
  -8  -3  -7   41.10    9.80
   8   3   7   48.40    7.80
  -9  -3  -7   65.39    9.00
  -9  -3  -7   66.19    9.90
  -9  -3  -7   81.39   10.00
   9   3   7   67.19   11.30
   9   3   7   64.29   12.20
   8  -4  -7   13.50    7.70
   8  -4  -7   14.20    3.20
  -8   4   7   10.60    4.90
  -8   4   7    5.80    3.00
  -8   4   7   12.00    4.30
  -8   4   7   14.80    3.50
   7  -4  -7   70.39    7.30
   7  -4  -7   90.99   14.10
  -7   4   7   78.29    8.00
  -7   4   7   83.39    7.40
  -7   4   7   72.59    9.90
  -7   4   7   82.59    9.10
  -7   4   7   66.79    7.40
   6  -4  -7   53.29    5.00
   6  -4  -7   55.89    6.60
   6  -4  -7   59.49    6.00
   6  -4  -7   74.19   11.60
  -6   4   7   55.59    5.90
  -6   4   7   56.89    6.20
  -6   4   7   63.29    6.50
  -6   4   7   60.99    7.50
   5  -4  -7  412.16   29.30
   5  -4  -7  419.06   29.90
   5  -4  -7  410.26   28.50
   5  -4  -7  518.95   35.60
  -5   4   7  466.75   29.60
  -5   4   7  398.46   29.10
  -5   4   7  458.95   29.30
  -5   4   7  455.15   31.10
  -5   4   7  472.05   29.60
  -5   4   7  452.85   31.10
   4  -4  -7  403.56   27.90
   4  -4  -7  398.26   28.40
   4  -4  -7  408.06   27.40
  -4   4   7  441.76   29.70
  -4   4   7  432.36   27.90
  -4   4   7  486.75   33.60
  -4   4   7  409.36   27.80
  -4   4   7  452.25   28.00
   3  -4  -7 1159.78   74.79
   3  -4  -7 1054.19   74.59
   3  -4  -7 1244.58   75.29
   3  -4  -7 1221.38   75.69
   3  -4  -7 1211.28   75.29
  -3   4   7 1367.16   75.19
  -3   4   7 1214.68   77.09
  -3   4   7 1308.97   75.29
  -3   4   7 1034.00   80.09
  -3   4   7 1210.98   75.19
  -3   4   7 1176.38   75.79
   2  -4  -7  496.35   31.60
   2  -4  -7  470.35   31.00
   2  -4  -7  456.25   30.90
   2  -4  -7  479.85   31.90
   2  -4  -7  461.85   31.30
  -2   4   7  506.65   31.10
  -2   4   7  476.35   36.10
  -2   4   7  488.85   31.50
  -2   4   7  515.85   31.40
  -2   4   7  471.05   32.80
   1  -4  -7 1217.68   80.39
   1  -4  -7 1313.57   80.69
   1  -4  -7 1249.57   81.59
   1  -4  -7 1134.09   80.29
   1  -4  -7 1178.08   80.69
   1  -4  -7 1240.08   80.49
  -1   4   7 1359.76   80.69
  -1   4   7 1370.16   80.59
  -1   4   7 1261.87   80.59
  -1   4   7 1229.18   82.19
  -1   4   7 1453.95   86.09
  -1   4   7 1347.57   80.39
  -1   4   7 1387.56   80.49
   0  -4  -7  860.81   55.49
   0  -4  -7  833.92   55.59
   0  -4  -7  991.70   55.49
   0  -4  -7  822.12   56.89
   0  -4  -7  845.02   55.69
   0   4   7  793.22   58.39
   0   4   7  864.81   55.29
   0   4   7  930.31   55.59
   0   4   7  832.62   55.59
   0   4   7  991.00   55.79
  -1  -4  -7  776.42   52.99
  -1  -4  -7  849.41   50.79
  -1  -4  -7  826.42   51.39
  -1  -4  -7  790.32   51.49
  -1  -4  -7  829.22   50.99
   1   4   7  793.32   51.49
   1   4   7  740.73   53.09
   1   4   7  798.62   51.29
   1   4   7  813.62   51.09
   1   4   7  820.32   51.39
  -2  -4  -7  618.44   39.00
  -2  -4  -7  579.94   39.80
  -2  -4  -7  632.74   39.70
  -2  -4  -7  564.24   46.50
  -2  -4  -7  654.73   38.70
  -2  -4  -7  677.03   39.30
   2   4   7  598.54   39.60
   2   4   7  601.64   39.50
   2   4   7  590.14   39.70
   2   4   7  588.34   39.70
   2   4   7  571.24   41.60
  -3  -4  -7  736.33   51.99
  -3  -4  -7  780.12   49.90
  -3  -4  -7  756.42   50.19
  -3  -4  -7  814.72   49.50
  -3  -4  -7  810.12   49.20
   3   4   7  788.72   50.09
   3   4   7  725.73   49.99
   3   4   7  738.33   52.19
   3   4   7  810.22   49.90
   3   4   7  757.12   49.70
  -4  -4  -7  258.57   17.80
  -4  -4  -7  221.88   20.10
  -4  -4  -7  266.87   17.50
  -4  -4  -7  239.78   18.50
   4   4   7  231.88   17.80
   4   4   7  262.77   18.30
   4   4   7  255.77   18.40
   4   4   7  254.47   20.70
  -5  -4  -7   98.29    9.40
  -5  -4  -7  109.99    9.30
  -5  -4  -7  104.49    9.80
   5   4   7  100.69    9.60
   5   4   7   97.59    9.50
   5   4   7   97.59    9.40
   5   4   7  100.59   11.60
   5   4   7   98.89    9.10
  -6  -4  -7  168.48   12.30
  -6  -4  -7  142.29   13.00
  -6  -4  -7  145.99   12.50
  -6  -4  -7  137.59   12.50
   6   4   7  163.38   13.30
   6   4   7  139.59   15.10
  -7  -4  -7   42.60    6.90
  -7  -4  -7   44.90    6.40
  -7  -4  -7   45.70    7.10
   7   4   7   31.20    8.00
   7   4   7   43.30    7.10
  -8  -4  -7   52.49    7.30
  -8  -4  -7   53.39    7.90
  -8  -4  -7   43.90    7.40
   8   4   7   44.30    7.80
  -9  -4  -7    3.20    3.80
  -9  -4  -7    9.40    4.40
  -9  -4  -7    5.30    4.00
   9   4   7    8.70    5.70
   8  -5  -7   96.49   15.10
   8  -5  -7   80.39    8.40
  -8   5   7   80.79    8.70
  -8   5   7   87.29   10.40
  -8   5   7   95.29   12.60
  -8   5   7   72.49   10.90
   7  -5  -7   10.20    3.20
   7  -5  -7    6.30    5.60
  -7   5   7    7.20    4.00
  -7   5   7    6.30    3.10
  -7   5   7    8.20    3.10
   6  -5  -7  187.18   17.90
   6  -5  -7  168.48   13.10
   6  -5  -7  145.89   13.10
  -6   5   7  154.78   13.00
  -6   5   7  170.08   13.00
  -6   5   7  174.78   15.00
  -6   5   7  178.38   13.40
   5  -5  -7   29.00    7.00
   5  -5  -7   23.20    4.10
   5  -5  -7   21.20    3.10
   5  -5  -7   22.90    3.60
   5  -5  -7   15.80    3.50
   5  -5  -7   21.20    3.00
  -5   5   7   26.30    5.50
  -5   5   7   26.80    4.00
  -5   5   7   26.50    4.30
  -5   5   7   24.50    4.80
  -5   5   7   22.70    4.10
   4  -5  -7  112.59    8.80
   4  -5  -7  111.49    9.60
   4  -5  -7  114.19    9.60
   4  -5  -7  104.89    9.00
   4  -5  -7  110.29    9.50
  -4   5   7  125.29   11.00
  -4   5   7  135.59    9.70
  -4   5   7  120.89   11.20
  -4   5   7  135.49    9.90
  -4   5   7  128.99    9.70
   3  -5  -7   41.20    5.00
   3  -5  -7   46.30    4.50
   3  -5  -7   41.20    5.50
   3  -5  -7   45.40    5.10
   3  -5  -7   43.10    4.70
  -3   5   7   47.10    5.20
  -3   5   7   42.30    6.80
  -3   5   7   49.40    5.20
  -3   5   7   44.70    7.30
  -3   5   7   52.89    5.00
  -3   5   7   53.09    5.40
   2  -5  -7  129.89    9.60
   2  -5  -7  123.99   10.00
   2  -5  -7  113.39    9.80
   2  -5  -7  119.79   10.70
   2  -5  -7  129.09   10.00
  -2   5   7  132.99   11.60
  -2   5   7  142.19   10.00
  -2   5   7  141.99   10.20
  -2   5   7  137.09    9.80
  -2   5   7  126.29   12.60
   1  -5  -7   19.70    3.20
   1  -5  -7   18.20    4.30
   1  -5  -7   21.00    3.50
   1  -5  -7   21.00    3.60
   1  -5  -7   21.40    3.50
  -1   5   7   22.20    3.00
  -1   5   7   23.90    3.80
  -1   5   7   26.80    3.60
  -1   5   7   23.40    3.20
  -1   5   7   21.10    5.40
  -1   5   7   27.60    3.70
  -1   5   7   18.20    4.50
   0  -5  -7   17.50    3.10
   0  -5  -7   19.80    4.50
   0  -5  -7   18.10    2.90
   0  -5  -7   26.30    4.00
   0   5   7   16.70    3.50
   0   5   7   28.20    3.70
   0   5   7   19.40    3.30
   0   5   7   18.80    4.70
   0   5   7   21.80    3.20
  -1  -5  -7    0.40    1.10
  -1  -5  -7    1.20    1.60
  -1  -5  -7    0.40    2.20
  -1  -5  -7   -1.60    1.40
  -1  -5  -7   -1.10    1.60
   1   5   7   -0.30    2.00
   1   5   7    0.30    1.40
   1   5   7   -1.40    1.40
   1   5   7   -0.30    1.40
   1   5   7   -1.30    1.70
  -2  -5  -7   43.50    4.60
  -2  -5  -7   43.40    5.60
  -2  -5  -7   37.80    4.40
  -2  -5  -7   47.70    6.60
  -2  -5  -7   45.10    5.10
  -2  -5  -7   41.60    3.80
   2   5   7   45.20    5.00
   2   5   7   41.30    7.10
   2   5   7   43.80    5.10
   2   5   7   38.70    4.90
   2   5   7   39.10    4.80
  -3  -5  -7   49.30    6.00
  -3  -5  -7   36.30    4.70
  -3  -5  -7   45.30    4.70
  -3  -5  -7   44.00    6.10
  -3  -5  -7   31.70    6.70
   3   5   7   36.50    4.90
   3   5   7   38.50    5.30
   3   5   7   43.90    5.70
   3   5   7   38.20    7.20
   3   5   7   51.39    6.20
  -4  -5  -7   -2.70    2.10
  -4  -5  -7    0.70    2.00
  -4  -5  -7    2.90    2.40
  -4  -5  -7    1.60    2.60
  -4  -5  -7   -0.30    1.80
   4   5   7    0.40    1.80
   4   5   7   -0.10    3.40
   4   5   7   -1.40    2.10
   4   5   7    0.50    2.10
   4   5   7   -2.20    2.30
  -5  -5  -7    3.70    2.40
  -5  -5  -7    5.80    3.10
  -5  -5  -7    3.40    4.10
  -5  -5  -7   -0.20    2.40
  -5  -5  -7    3.20    2.70
   5   5   7    7.50    2.90
   5   5   7    2.60    2.30
   5   5   7    1.60    2.70
   5   5   7    2.80    3.20
   5   5   7    0.20    3.70
  -6  -5  -7    1.90    2.90
  -6  -5  -7    3.90    2.90
  -6  -5  -7    1.90    3.00
  -6  -5  -7   -0.30    2.30
   6   5   7    0.80    2.80
  -7  -5  -7   32.20    6.70
  -7  -5  -7   34.00    5.70
  -7  -5  -7   39.60   10.10
   7   5   7   34.40    6.50
   7   5   7   25.80    8.80
  -8  -5  -7   15.60    4.80
  -8  -5  -7   12.20    4.30
  -8  -5  -7   13.00    6.10
   8   5   7   19.50    5.00
   8   5   7   14.10    6.30
   7  -6  -7    2.70    4.10
   7  -6  -7    4.70    3.10
   7  -6  -7    5.80    2.00
   7  -6  -7    7.00    2.10
  -7   6   7    8.00    3.40
  -7   6   7    1.80    2.60
   6  -6  -7    3.40    3.80
   6  -6  -7    7.10    2.80
   6  -6  -7    7.20    2.60
   6  -6  -7    6.30    4.40
   6  -6  -7    6.20    2.50
  -6   6   7    3.60    2.90
  -6   6   7    7.70    4.50
  -6   6   7    4.80    2.40
   5  -6  -7   10.40    3.10
   5  -6  -7    7.40    2.90
   5  -6  -7    5.10    2.40
   5  -6  -7   10.90    2.70
  -5   6   7    3.70    3.50
  -5   6   7    9.50    3.10
  -5   6   7    9.60    3.40
  -5   6   7   11.20    4.60
  -5   6   7    5.20    2.50
   4  -6  -7   17.10    3.90
   4  -6  -7   15.50    4.00
   4  -6  -7   23.10    3.80
   4  -6  -7   16.50    3.00
  -4   6   7   16.70    3.60
  -4   6   7   21.70    4.00
  -4   6   7   16.80    3.90
  -4   6   7   22.00    5.40
  -4   6   7   18.10    4.70
   3  -6  -7   60.19    7.00
   3  -6  -7   84.29    7.60
   3  -6  -7   72.59    6.90
   3  -6  -7   74.79    8.00
   3  -6  -7   79.29    6.60
  -3   6   7   86.69    7.60
  -3   6   7   82.29    7.00
  -3   6   7   80.89    7.10
  -3   6   7   82.69    7.40
  -3   6   7   67.59    8.60
   2  -6  -7   25.40    3.80
   2  -6  -7   25.30    4.30
   2  -6  -7   23.90    4.20
   2  -6  -7   33.70    4.50
   2  -6  -7   25.20    5.00
  -2   6   7   31.00    3.80
  -2   6   7   32.30    6.10
  -2   6   7   31.60    4.60
  -2   6   7   29.30    3.80
  -2   6   7   31.50    4.60
  -2   6   7   26.70    4.90
   1  -6  -7   -0.70    1.80
   1  -6  -7   -0.70    1.70
   1  -6  -7    2.60    2.20
   1  -6  -7   -0.50    1.50
  -1   6   7    0.70    2.60
  -1   6   7   -0.70    1.80
  -1   6   7    0.70    1.60
  -1   6   7    0.20    1.80
  -1   6   7   -0.80    1.60
  -1   6   7    1.40    1.50
  -1   6   7    0.00    1.50
   0  -6  -7   29.60    5.70
   0  -6  -7   24.30    4.20
   0  -6  -7   24.40    3.90
   0  -6  -7   28.00    3.70
   0   6   7   21.90    4.00
   0   6   7   27.10    4.10
   0   6   7   25.40    5.40
   0   6   7   18.80    3.30
   0   6   7   18.20    3.50
  -1  -6  -7   48.70    4.30
  -1  -6  -7   47.90    5.40
  -1  -6  -7   46.20    6.60
  -1  -6  -7   46.80    5.60
   1   6   7   53.49    5.70
   1   6   7   59.19    5.90
   1   6   7   59.59    5.80
   1   6   7   47.20    5.10
   1   6   7   46.90    7.60
  -2  -6  -7  396.36   30.10
  -2  -6  -7  394.36   27.30
  -2  -6  -7  406.26   28.10
  -2  -6  -7  423.16   27.50
  -2  -6  -7  417.26   28.10
  -2  -6  -7  425.66   26.40
   2   6   7  419.86   28.30
   2   6   7  417.76   30.50
   2   6   7  413.76   28.10
   2   6   7  434.16   27.70
   2   6   7  402.86   28.20
  -3  -6  -7  135.69   12.20
  -3  -6  -7  150.18   14.50
  -3  -6  -7  156.78   11.50
  -3  -6  -7  162.88   11.80
  -3  -6  -7  168.48   10.40
   3   6   7  152.08   12.00
   3   6   7  144.59   14.30
   3   6   7  137.89   12.10
   3   6   7  138.49   13.40
   3   6   7  143.99   12.30
  -4  -6  -7  171.78   16.00
  -4  -6  -7  192.88   13.60
  -4  -6  -7  153.68   13.90
  -4  -6  -7  192.68   14.20
  -4  -6  -7  173.58   13.20
   4   6   7  171.38   14.10
   4   6   7  157.78   13.70
   4   6   7  162.18   13.80
   4   6   7  176.58   16.40
   4   6   7  185.38   13.80
  -5  -6  -7  313.77   21.10
  -5  -6  -7  276.17   21.20
  -5  -6  -7  308.47   20.80
  -5  -6  -7  236.38   21.20
   5   6   7  294.17   21.30
   5   6   7  316.77   24.60
  -6  -6  -7  288.57   22.20
  -6  -6  -7  292.37   21.50
   6   6   7  296.67   24.90
   6   6   7  312.27   22.20
  -7  -6  -7  204.28   16.10
  -7  -6  -7  194.28   16.20
  -7  -6  -7  206.28   16.80
   7   6   7  194.08   19.60
   7   6   7  222.68   17.10
  -8  -6  -7   52.79    7.30
  -8  -6  -7   55.59    8.30
  -8  -6  -7   50.29    7.20
   8   6   7   55.59   10.30
   7  -7  -7    5.10    3.40
   7  -7  -7   -1.90    3.40
   7  -7  -7   -2.50    2.10
  -7   7   7    0.40    4.10
  -7   7   7    2.40    2.80
  -7   7   7   -1.20    2.60
   6  -7  -7   34.00    5.60
   6  -7  -7   36.30    5.80
   6  -7  -7   36.30    5.20
   6  -7  -7   25.60    5.30
  -6   7   7   45.80    6.10
  -6   7   7   35.70    6.10
   5  -7  -7    8.50    3.30
   5  -7  -7    8.80    3.50
   5  -7  -7    5.40    2.80
   5  -7  -7    5.80    2.40
  -5   7   7    8.90    4.20
  -5   7   7   10.20    3.30
   4  -7  -7  120.39   11.30
   4  -7  -7  122.29   11.40
   4  -7  -7  136.49   10.60
   4  -7  -7  129.19   12.00
  -4   7   7  134.39   11.60
  -4   7   7  141.29   14.80
  -4   7   7  127.79   11.10
  -4   7   7  154.68   13.70
  -4   7   7  146.89   11.20
   3  -7  -7   44.60    5.00
   3  -7  -7   43.30    5.00
   3  -7  -7   41.80    5.60
   3  -7  -7   41.70    5.90
   3  -7  -7   46.90    7.20
  -3   7   7   50.29    6.40
  -3   7   7   56.29    8.50
  -3   7   7   50.99    5.40
  -3   7   7   52.09    6.00
  -3   7   7   46.80    5.30
   2  -7  -7  190.28   14.00
   2  -7  -7  197.08   14.80
   2  -7  -7  205.28   16.20
   2  -7  -7  177.08   14.90
   2  -7  -7  159.68   13.70
  -2   7   7  186.78   14.50
  -2   7   7  209.48   14.60
  -2   7   7  218.18   17.20
  -2   7   7  208.78   14.70
  -2   7   7  195.08   13.80
  -2   7   7  206.18   14.30
   1  -7  -7  411.46   28.20
   1  -7  -7  377.06   29.60
   1  -7  -7  406.96   27.70
   1  -7  -7  437.16   28.60
  -1   7   7  389.36   27.60
  -1   7   7  415.86   28.20
  -1   7   7  446.66   28.00
  -1   7   7  434.56   27.80
  -1   7   7  415.96   26.80
  -1   7   7  437.36   30.70
   0  -7  -7  687.53   45.80
   0  -7  -7  624.64   47.40
   0  -7  -7  666.73   46.40
   0   7   7  727.83   48.50
   0   7   7  687.53   45.90
   0   7   7  803.92   46.60
   0   7   7  737.63   45.40
  -1  -7  -7  375.16   27.60
  -1  -7  -7  424.86   27.40
   1   7   7  366.96   27.60
   1   7   7  427.66   28.00
   1   7   7  430.76   28.20
   1   7   7  414.56   30.30
   1   7   7  412.56   27.20
  -2  -7  -7  781.52   51.09
  -2  -7  -7  730.63   49.50
  -2  -7  -7  865.01   52.09
  -2  -7  -7  756.02   52.69
  -2  -7  -7  709.33   53.79
  -2  -7  -7  846.62   51.39
   2   7   7  796.92   52.19
   2   7   7  803.22   51.99
   2   7   7  847.62   54.89
   2   7   7  805.52   52.09
   2   7   7  861.61   51.49
  -3  -7  -7   45.00    6.20
  -3  -7  -7   34.20    3.00
  -3  -7  -7   46.30    6.30
  -3  -7  -7   41.70    5.30
  -3  -7  -7   32.80    5.00
  -3  -7  -7   40.30    7.60
   3   7   7   38.10    6.00
   3   7   7   30.10    6.90
   3   7   7   42.60    5.60
   3   7   7   32.90    5.70
   3   7   7   28.60    5.30
  -4  -7  -7  691.93   45.10
  -4  -7  -7  702.53   44.50
  -4  -7  -7  729.63   44.40
  -4  -7  -7  620.04   45.20
   4   7   7  680.73   44.60
   4   7   7  624.94   47.00
   4   7   7  680.73   47.90
  -5  -7  -7    7.10    3.00
  -5  -7  -7    4.60    2.90
  -5  -7  -7    4.90    3.60
  -5  -7  -7    1.30    2.60
   5   7   7    4.90    3.20
   5   7   7    3.80    4.10
  -6  -7  -7  314.97   22.50
  -6  -7  -7  301.47   23.00
  -6  -7  -7  308.97   22.70
   6   7   7  343.17   23.20
   6   7   7  285.37   25.60
  -7  -7  -7    3.10    3.60
  -7  -7  -7    4.30    3.00
  -7  -7  -7    0.20    2.80
   7   7   7    1.30    4.20
   7   7   7    2.50    3.60
  -8  -7  -7   88.19    9.50
  -8  -7  -7   70.89   10.40
  -8  -7  -7   85.59    9.60
   8   7   7   79.19   12.80
   8   7   7   79.49    9.50
   6  -8  -7   79.99   10.10
   6  -8  -7  126.49   13.80
  -6   8   7  111.69   11.00
  -6   8   7  117.49   11.50
  -6   8   7  114.49   13.20
   5  -8  -7  146.19   12.70
   5  -8  -7  127.09   11.90
   5  -8  -7  126.09   10.40
   5  -8  -7  106.89   11.30
  -5   8   7  138.19   16.00
  -5   8   7  136.89   12.90
  -5   8   7  146.29   11.60
   4  -8  -7  214.28   17.50
   4  -8  -7  206.88   17.20
   4  -8  -7  211.18   15.70
  -4   8   7  247.58   17.10
  -4   8   7  229.88   19.30
   3  -8  -7  166.88   12.70
   3  -8  -7  180.58   15.60
   3  -8  -7  152.48   13.70
   3  -8  -7  159.38   14.20
  -3   8   7  181.98   13.00
  -3   8   7  188.68   16.50
  -3   8   7  179.18   14.30
  -3   8   7  184.98   13.80
   2  -8  -7  131.59   12.40
   2  -8  -7  124.39   10.80
   2  -8  -7  152.58   12.30
   2  -8  -7  135.99   13.40
  -2   8   7  155.98   12.30
  -2   8   7  147.89   14.30
  -2   8   7  167.68   12.40
  -2   8   7  156.58   12.60
  -2   8   7  156.28   10.90
   1  -8  -7  420.86   33.50
   1  -8  -7  437.76   31.40
   1  -8  -7  500.45   32.60
   1  -8  -7  475.75   32.10
  -1   8   7  489.55   30.20
  -1   8   7  488.45   34.70
  -1   8   7  487.65   31.70
  -1   8   7  480.15   31.70
  -1   8   7  475.65   32.10
   0  -8  -7   39.30    7.20
   0  -8  -7   35.30    5.40
   0  -8  -7   52.29    5.90
   0  -8  -7   37.30    5.80
   0   8   7   54.89    8.90
   0   8   7   43.80    5.50
   0   8   7   46.20    5.40
   0   8   7   47.00    6.40
   0   8   7   47.10    5.60
  -1  -8  -7  249.48   16.00
  -1  -8  -7  178.28   17.50
  -1  -8  -7  200.58   15.90
  -1  -8  -7  193.28   15.60
   1   8   7  223.28   18.70
   1   8   7  206.38   15.90
   1   8   7  231.98   15.70
   1   8   7  203.08   15.90
  -2  -8  -7  104.89    9.60
  -2  -8  -7  101.79    8.80
  -2  -8  -7  100.29    9.00
  -2  -8  -7  113.59    9.60
  -2  -8  -7   87.29   10.70
   2   8   7  108.79    9.70
   2   8   7   91.59    9.90
   2   8   7  115.49   10.20
   2   8   7  109.49   11.90
   2   8   7   98.19    9.40
  -3  -8  -7   53.59    7.30
  -3  -8  -7   48.40    5.70
  -3  -8  -7   49.00    6.00
  -3  -8  -7   53.69    7.10
   3   8   7   53.49    6.50
   3   8   7   30.20    7.60
   3   8   7   47.90    9.30
  -4  -8  -7    8.20    3.10
  -4  -8  -7   15.90    4.20
  -4  -8  -7   13.30    3.50
  -4  -8  -7    6.40    3.00
   4   8   7   12.00    5.50
   4   8   7    5.50    3.30
  -5  -8  -7   59.59    6.90
  -5  -8  -7   46.00    7.30
  -5  -8  -7   56.69    7.10
   5   8   7   49.70    7.20
   5   8   7   53.79    9.60
  -6  -8  -7    2.50    2.80
  -6  -8  -7    5.90    3.50
  -6  -8  -7    9.70    4.10
   6   8   7    0.80    4.60
   6   8   7   -2.70    3.10
  -7  -8  -7   19.50    5.70
  -7  -8  -7   28.20    5.60
  -7  -8  -7   24.20    5.30
   7   8   7   23.00    7.30
   7   8   7   25.10    5.40
   6  -9  -7    3.70    4.00
   6  -9  -7    1.20    3.30
  -6   9   7   15.30    5.20
  -6   9   7   14.60    5.60
   5  -9  -7   31.60    4.50
   5  -9  -7   21.90    5.40
   5  -9  -7   26.70    6.00
  -5   9   7   34.10    7.40
  -5   9   7   38.40    7.10
  -5   9   7   43.20    6.10
   4  -9  -7   -2.00    2.50
   4  -9  -7    6.30    3.40
   4  -9  -7    1.10    1.90
  -4   9   7    6.10    5.00
  -4   9   7    0.90    3.10
  -4   9   7    2.20    2.30
  -4   9   7    3.10    2.50
   3  -9  -7    3.20    3.30
   3  -9  -7    3.00    1.80
   3  -9  -7    6.30    3.80
  -3   9   7    1.90    3.20
  -3   9   7    8.60    2.40
  -3   9   7   10.10    4.70
  -3   9   7    6.80    3.00
   2  -9  -7   28.50    6.10
   2  -9  -7   28.80    4.20
   2  -9  -7   17.70    4.70
  -2   9   7   31.90    7.00
  -2   9   7   31.30    3.70
  -2   9   7   36.30    5.60
  -2   9   7   28.70    5.40
   1  -9  -7    7.30    3.40
   1  -9  -7    5.10    3.10
  -1   9   7    4.10    2.80
  -1   9   7    2.00    3.80
  -1   9   7    2.10    3.00
  -1   9   7    5.50    1.50
   0  -9  -7   22.20    4.60
   0  -9  -7   18.00    4.30
   0   9   7   15.90    3.70
   0   9   7   14.80    5.70
   0   9   7   14.80    4.00
  -1  -9  -7    4.40    2.70
  -1  -9  -7    6.00    2.80
   1   9   7    2.40    2.50
   1   9   7    0.90    2.20
   1   9   7    1.80    3.50
   1   9   7    3.10    2.60
  -2  -9  -7    5.00    2.80
  -2  -9  -7    6.10    2.90
  -2  -9  -7    8.40    3.30
   2   9   7    1.90    4.00
   2   9   7    3.50    2.80
  -3  -9  -7   44.90    6.20
  -3  -9  -7   51.89    7.50
  -3  -9  -7   59.69    6.60
   3   9   7   48.90    6.50
   3   9   7   53.89   10.10
  -4  -9  -7   68.19    7.50
  -4  -9  -7   74.39    9.10
  -4  -9  -7   57.19    7.30
   4   9   7   80.29   10.40
   4   9   7   67.09    7.50
  -5  -9  -7   21.60    4.80
  -5  -9  -7   20.00    5.40
  -5  -9  -7   31.90    5.60
   5   9   7   34.00    5.80
   5   9   7   35.40    8.30
  -6  -9  -7   75.39    9.30
  -6  -9  -7   89.39    9.10
  -6  -9  -7   80.59    6.10
  -6  -9  -7   88.99    9.20
   6   9   7  102.29   12.90
   6   9   7   96.09    9.50
  -7  -9  -7   44.20    7.80
  -7  -9  -7   58.49    8.20
  -7  -9  -7   63.29    8.40
  -7  -9  -7   72.69    7.00
   7   9   7   58.59   11.20
   7   9   7   69.39    8.90
   5 -10  -7   -4.10    2.70
   5 -10  -7    1.70    1.60
   5 -10  -7   -7.60    2.80
  -5  10   7    2.10    4.20
  -5  10   7   -1.00    3.50
   4 -10  -7   -2.60    3.00
   4 -10  -7    4.80    1.90
   4 -10  -7    0.10    3.90
  -4  10   7   -2.80    3.70
  -4  10   7    5.40    2.50
  -4  10   7    5.40    3.90
   3 -10  -7    0.10    1.60
   3 -10  -7   -4.80    2.50
   3 -10  -7   -1.60    2.70
  -3  10   7   -1.10    3.50
  -3  10   7    2.20    1.90
  -3  10   7   -5.10    2.60
   2 -10  -7   33.50    6.20
   2 -10  -7   37.40    4.50
   2 -10  -7   47.70    7.70
  -2  10   7   44.20    8.80
  -2  10   7   35.40    4.00
  -2  10   7   35.30    5.90
   1 -10  -7   15.10    4.80
   1 -10  -7   20.40    4.70
  -1  10   7   13.30    5.50
   0 -10  -7  119.99   10.50
   0 -10  -7   86.49    9.80
  -1 -10  -7   75.39    8.10
  -1 -10  -7   87.29   13.90
   1  10   7   63.39    6.90
   1  10   7   61.99    7.20
  -2 -10  -7  255.57   17.40
  -2 -10  -7  215.88   17.60
   2  10   7  228.08   16.90
   2  10   7  231.48   23.10
   2  10   7  195.78   19.40
  -3 -10  -7   39.50    8.60
  -3 -10  -7   59.59    7.80
   3  10   7   62.29   10.40
   3  10   7   46.10    9.50
   3  10   7   43.70    6.40
  -4 -10  -7  239.98   18.20
  -4 -10  -7  243.58   18.00
  -4 -10  -7  226.38   18.40
   4  10   7  268.37   18.30
   4  10   7  205.08   24.10
   4  10   7  244.68   23.90
  -5 -10  -7   23.30    4.80
  -5 -10  -7   31.60    6.20
  -5 -10  -7   26.40    5.40
   5  10   7    9.40    7.30
   5  10   7   24.70    6.80
   5  10   7   25.40    8.70
  -6 -10  -7  153.48   13.00
  -6 -10  -7  149.09   13.00
   6  10   7  112.89   20.80
   6  10   7  140.99   12.90
   6  10   7  153.58   16.40
   4 -11  -7    3.30    4.70
   4 -11  -7    3.90    4.10
   4 -11  -7    4.40    1.70
  -4  11   7    7.70    5.50
  -4  11   7    6.80    4.40
   3 -11  -7  131.29   14.50
   3 -11  -7  136.99   15.10
   3 -11  -7  142.49   11.10
  -3  11   7  173.18   14.60
  -3  11   7  178.98   17.10
  -3  11   7  160.68   11.50
   2 -11  -7   17.30    5.50
   2 -11  -7   16.80    3.10
   2 -11  -7   16.30    7.80
  -2  11   7   33.30    8.00
  -2  11   7   21.50    2.80
  -2  11   7   23.90    5.60
   1 -11  -7  236.88   18.70
   1 -11  -7  191.78   19.10
   1 -11  -7  218.78   15.60
  -1  11   7  254.57   21.40
   0 -11  -7   43.30    7.20
   0 -11  -7   45.80    7.20
   0  11   7   44.50    7.20
   0  11   7   54.29   10.10
  -1 -11  -7  156.38   15.40
  -1 -11  -7  212.88   16.00
   1  11   7  196.08   18.70
  -2 -11  -7   -5.20    2.20
  -2 -11  -7    2.20    3.00
   2  11   7   -0.80    2.60
   2  11   7    0.20    2.90
  -3 -11  -7  244.58   17.30
  -3 -11  -7  201.68   16.40
  -3 -11  -7  221.18   17.50
   3  11   7  213.48   16.60
   3  11   7  186.88   20.40
   3  11   7  213.38   20.10
  -4 -11  -7    3.20    3.70
  -4 -11  -7    3.30    3.40
  -4 -11  -7    0.10    3.10
   4  11   7    2.60    5.10
   4  11   7    0.50    3.40
   4  11   7   -0.20    4.40
  -5 -11  -7   98.49   10.00
  -5 -11  -7  102.99   10.30
  -5 -11  -7   99.39   10.60
   5  11   7   76.19   16.00
   5  11   7  107.19   13.10
   2 -12  -7   25.70    3.70
   2 -12  -7   26.20    6.20
   2 -12  -7   24.10    6.20
  -2  12   7   18.60    5.70
  -2  12   7   28.10    8.20
  -2  12   7   29.40    2.90
   1 -12  -7   12.50    4.70
   1 -12  -7   10.20    4.10
   1 -12  -7   12.30    2.50
  -1  12   7    5.40    5.40
  -1  12   7    7.10    3.90
   0 -12  -7    3.30    3.50
   0 -12  -7    2.90    3.90
   0  12   7    9.30    5.70
   0  12   7    2.30    3.80
  -1 -12  -7   -2.90    3.20
  -1 -12  -7    1.70    3.40
   1  12   7    1.40    3.60
  -2 -12  -7    4.60    3.80
  -2 -12  -7    8.50    4.50
   2  12   7    5.70    3.30
   2  12   7   10.00    6.00
  -3 -12  -7    2.30    3.60
  -3 -12  -7    2.40    3.80
   3  12   7   -0.60    4.10
   3  12   7    1.70    3.20
   1   8  -8    3.70    1.90
   1   8  -8   -3.50    3.10
  -1  -8   8    1.00    2.70
  -1  -8   8   -1.70    1.50
  -1  -8   8   -2.80    2.70
   0   8  -8   54.99    8.10
   0   8  -8   56.29    6.20
   0  -8   8   34.00    4.70
   0  -8   8   45.50    6.50
  -1   8  -8   -1.80    2.90
  -1   8  -8    6.50    3.10
   1  -8   8    4.20    3.20
  -2   8  -8   15.30    3.30
  -2   8  -8   16.20    4.50
  -2   8  -8   18.60    5.10
  -2   8  -8   16.00    3.00
   2  -8   8   11.30    4.50
   2  -8   8   19.20    5.20
   2  -8   8   15.20    3.80
   3   7  -8   52.39    8.90
  -3  -7   8   76.69    7.10
  -3  -7   8   58.19    4.30
  -3  -7   8   52.99    4.20
  -3  -7   8   57.79    4.50
  -3  -7   8   54.49    6.20
   2   7  -8    3.60    1.50
   2   7  -8   -3.60    3.00
   2   7  -8    2.10    1.50
  -2  -7   8    0.20    2.30
  -2  -7   8    0.10    1.20
  -2  -7   8    2.70    1.90
  -2  -7   8    4.40    2.60
   1   7  -8   50.59    6.10
  -1  -7   8   75.69    7.70
  -1  -7   8   67.19    7.40
  -1  -7   8   52.59    5.10
  -1  -7   8   67.49    6.60
   0   7  -8   10.10    2.90
   0   7  -8    9.30    6.80
   0  -7   8    9.20    3.10
   0  -7   8    9.70    3.80
  -1   7  -8   59.39   10.20
  -1   7  -8   71.79    7.30
   1  -7   8   62.09    8.30
   1  -7   8   58.89    6.30
  -2   7  -8    6.40    3.80
  -2   7  -8    4.70    3.00
  -2   7  -8    5.50    2.40
  -2   7  -8    1.20    1.70
  -2   7  -8    3.80    2.20
   2  -7   8    2.40    2.60
   2  -7   8    4.00    3.30
   2  -7   8    6.60    3.50
  -3   7  -8   82.09    8.80
  -3   7  -8   74.29    6.10
  -3   7  -8   82.89    7.80
   3  -7   8   69.99    9.50
   3  -7   8   56.69    8.60
   3  -7   8   66.99    8.90
  -4   7  -8    3.80    1.40
  -4   7  -8    5.60    3.10
  -4   7  -8    1.90    3.40
   4  -7   8    4.70    3.70
   4  -7   8    0.90    4.40
   4   6  -8   76.19   10.20
  -4  -6   8   94.49    7.30
  -4  -6   8   88.89    8.30
  -4  -6   8   86.69    7.50
   3   6  -8   -3.70    5.30
  -3  -6   8    4.80    2.30
  -3  -6   8   -1.60    1.70
  -3  -6   8   -0.40    1.00
   2   6  -8   83.69   10.20
   2   6  -8   87.29    6.40
   2   6  -8   91.09    6.50
  -2  -6   8   91.49    8.20
  -2  -6   8   73.59    6.50
  -2  -6   8   91.09    7.10
  -2  -6   8  115.19    8.90
   1   6  -8   17.10    2.80
  -1  -6   8   17.90    3.90
  -1  -6   8   13.70    2.30
  -1  -6   8   12.70    3.40
  -1  -6   8   15.70    3.20
   0   6  -8  119.59    9.70
   0   6  -8  122.39    9.50
   0   6  -8  123.09   12.60
   0  -6   8  112.19   10.40
   0  -6   8  113.69    8.90
   0  -6   8  107.69   10.40
   0  -6   8  116.59    9.90
  -1   6  -8   76.09    7.60
  -1   6  -8   80.99    5.40
  -1   6  -8   77.89    5.30
  -1   6  -8   79.79    7.20
   1  -6   8   72.69    7.80
   1  -6   8   84.49    8.70
   1  -6   8   76.69    7.10
   1  -6   8   70.29    8.60
  -2   6  -8   56.59    6.70
  -2   6  -8   51.29    5.30
  -2   6  -8   59.79    7.20
  -2   6  -8   50.89    5.20
   2  -6   8   49.10    7.00
   2  -6   8   61.49    6.40
   2  -6   8   43.00    7.60
  -3   6  -8   85.39    7.80
  -3   6  -8   71.19    8.50
   3  -6   8   67.49    9.30
   3  -6   8   70.19    7.50
   3  -6   8   89.19    9.00
  -4   6  -8   -0.30    2.80
  -4   6  -8    2.70    1.60
  -4   6  -8    4.60    3.10
   4  -6   8    0.60    3.10
   4  -6   8    0.20    2.40
   4  -6   8    3.60    4.00
  -5   6  -8   61.29    8.20
  -5   6  -8   62.89    9.00
  -5   6  -8   62.39    5.20
   5  -6   8   45.90    9.10
   5  -6   8   50.79    8.30
  -5  -5   8    7.70    2.60
  -5  -5   8    1.60    2.20
  -5  -5   8    7.80    1.90
   4   5  -8   69.39   11.90
  -4  -5   8   90.59    7.60
  -4  -5   8   95.79    7.10
  -4  -5   8   92.39    8.40
   3   5  -8    1.20    3.50
  -3  -5   8    3.10    1.50
  -3  -5   8    3.30    1.80
  -3  -5   8    3.50    2.10
   2   5  -8  151.28   10.10
   2   5  -8  153.58   10.10
   2   5  -8  155.78   12.60
   2   5  -8  155.38   14.10
  -2  -5   8  173.88   10.00
  -2  -5   8  129.09   10.30
  -2  -5   8  151.78   10.70
  -2  -5   8  169.48   11.90
  -2  -5   8  164.28   12.10
   1   5  -8   -3.40    2.80
   1   5  -8    0.60    1.20
   1   5  -8   -3.30    1.70
  -1  -5   8   -1.20    1.70
  -1  -5   8    1.10    1.90
  -1  -5   8   -0.20    1.50
   0   5  -8  220.38   14.90
   0   5  -8  216.68   15.60
   0   5  -8  205.68   15.10
   0   5  -8  224.28   16.90
   0  -5   8  217.48   16.20
   0  -5   8  214.68   14.70
   0  -5   8  196.28   16.10
   0  -5   8  214.08   15.60
  -1   5  -8   30.50    5.60
  -1   5  -8   32.00    2.70
  -1   5  -8   29.70    4.30
  -1   5  -8   31.00    4.70
  -1   5  -8   28.00    2.60
   1  -5   8   27.70    4.90
   1  -5   8   24.80    4.90
   1  -5   8   34.60    4.50
   1  -5   8   25.70    5.10
  -2   5  -8  190.58   15.90
  -2   5  -8  243.18   16.90
  -2   5  -8  242.48   15.20
  -2   5  -8  241.58   15.00
   2  -5   8  182.58   16.10
   2  -5   8  189.38   15.40
   2  -5   8  197.78   17.30
   2  -5   8  202.38   16.80
  -3   5  -8   15.20    2.80
  -3   5  -8   18.50    3.80
  -3   5  -8   10.70    3.50
  -3   5  -8    9.40    3.20
   3  -5   8    7.30    4.30
   3  -5   8   18.10    3.80
  -4   5  -8  121.79   10.90
  -4   5  -8  129.39   11.20
  -4   5  -8  140.39    9.30
  -4   5  -8  107.19   10.80
   4  -5   8   80.49   12.70
   4  -5   8  116.19   11.90
   4  -5   8  113.69   12.40
  -5   5  -8   13.40    2.50
  -5   5  -8    7.00    1.20
  -5   5  -8   12.40    4.40
  -5   5  -8    8.60    3.80
   5  -5   8    3.10    3.10
   5  -5   8   11.50    5.20
  -6   5  -8   78.59    6.30
  -6   5  -8   71.59   11.30
  -6   5  -8   68.89    9.00
  -6   5  -8   94.79    7.00
   6  -5   8   74.69   10.20
   6  -5   8   53.89   10.60
   6   4  -8   -1.40    7.00
  -6  -4   8   -2.40    0.90
  -6  -4   8   -3.80    2.10
   5   4  -8  161.38   21.70
  -5  -4   8   92.89    8.70
  -5  -4   8  130.59    8.00
  -5  -4   8  111.19   10.00
   4   4  -8   -2.80    2.80
  -4  -4   8    2.20    1.20
  -4  -4   8    0.70    1.60
  -4  -4   8    5.20    1.50
   3   4  -8  135.49   11.60
  -3  -4   8  133.49    9.80
  -3  -4   8  137.19    9.90
  -3  -4   8  131.99    9.60
   2   4  -8    2.20    2.80
   2   4  -8    1.50    3.20
  -2  -4   8   -1.10    1.40
  -2  -4   8    2.50    1.00
  -2  -4   8    1.20    0.80
  -2  -4   8    1.20    1.00
   1   4  -8  150.98    9.90
   1   4  -8  161.48   13.10
   1   4  -8  150.58   11.50
   1   4  -8  137.39    9.90
  -1  -4   8  140.89   10.30
  -1  -4   8  133.59   10.90
  -1  -4   8  133.49   10.90
  -1  -4   8  139.29    9.70
   0   4  -8   12.80    2.60
   0   4  -8   13.20    3.80
   0   4  -8   12.50    3.10
   0   4  -8   13.20    2.40
   0  -4   8   10.70    2.90
   0  -4   8    8.50    2.70
   0  -4   8   11.30    2.40
   0  -4   8   13.50    2.80
  -1   4  -8  249.18   16.80
  -1   4  -8  254.37   17.80
  -1   4  -8  253.27   16.70
  -1   4  -8  237.08   16.80
  -1   4  -8  237.38   15.20
  -1   4  -8  243.18   15.30
   1  -4   8  204.48   17.50
   1  -4   8  214.38   17.30
   1  -4   8  233.98   16.50
   1  -4   8  246.48   17.30
  -2   4  -8   18.70    3.20
  -2   4  -8   19.80    3.10
  -2   4  -8   14.70    3.20
  -2   4  -8   17.90    4.30
  -2   4  -8   17.20    4.00
   2  -4   8   18.30    4.30
   2  -4   8   26.30    4.20
   2  -4   8   14.30    4.20
   2  -4   8   28.40    4.80
  -3   4  -8  251.57   17.10
  -3   4  -8  240.18   16.80
  -3   4  -8  224.98   17.50
  -3   4  -8  268.17   16.20
   3  -4   8  214.98   17.50
   3  -4   8  184.08   18.10
   3  -4   8  222.78   17.00
  -4   4  -8   -0.40    2.20
  -4   4  -8    2.40    1.80
  -4   4  -8   -2.40    2.40
  -4   4  -8   -0.60    2.60
   4  -4   8    1.00    2.50
   4  -4   8   -1.10    2.40
  -5   4  -8  163.08   13.90
  -5   4  -8  158.28   13.60
  -5   4  -8  167.68   10.60
   5  -4   8  160.78   13.20
   5  -4   8  136.99   14.70
   5  -4   8  125.49   14.60
  -6   4  -8   12.40    8.10
  -6   4  -8   15.20    4.90
   6  -4   8    7.60    4.30
   6  -4   8    7.70    4.90
  -7   4  -8   47.80    7.90
  -7   4  -8   48.90    5.40
  -7   4  -8   43.10    7.80
   7  -4   8   41.10    7.90
   7  -4   8   46.00    9.40
   6   3  -8  132.49   20.40
  -6  -3   8  110.29   10.40
  -6  -3   8  103.19    7.30
   5   3  -8    5.70    7.80
  -5  -3   8    3.80    1.10
  -5  -3   8   -0.60    2.10
   4   3  -8  224.18   20.50
  -4  -3   8  256.57   16.60
  -4  -3   8  278.27   16.40
  -4  -3   8  253.67   18.30
   3   3  -8    7.90    4.10
   3   3  -8    7.60    3.10
  -3  -3   8    6.50    2.10
  -3  -3   8   10.90    1.80
  -3  -3   8    8.70    1.70
   2   3  -8  327.37   23.60
   2   3  -8  359.76   22.50
  -2  -3   8  315.67   19.60
  -2  -3   8  317.57   20.80
  -2  -3   8  329.07   20.80
  -2  -3   8  317.57   20.50
  -2  -3   8  266.87   19.60
   1   3  -8   -1.60    0.90
   1   3  -8    0.70    1.20
   1   3  -8    0.40    2.90
   1   3  -8   -0.50    1.90
  -1  -3   8    0.20    1.50
  -1  -3   8   -1.30    3.20
  -1  -3   8   -0.30    1.40
  -1  -3   8    0.20    0.50
  -1  -3   8    0.50    0.60
  -1  -3   8   -1.40    1.10
   0   3  -8  395.86   25.60
   0   3  -8  348.47   23.80
   0   3  -8  369.36   23.80
   0   3  -8  374.46   24.50
   0  -3   8  368.66   31.90
   0  -3   8  370.56   23.80
   0  -3   8  366.86   24.20
   0  -3   8  362.56   24.60
   0  -3   8  320.07   24.70
  -1   3  -8   51.69    5.10
  -1   3  -8   45.00    4.90
  -1   3  -8   43.10    3.70
  -1   3  -8   44.20    3.70
  -1   3  -8   44.20    5.70
  -1   3  -8   49.40    5.00
   1  -3   8   37.70    5.90
   1  -3   8   53.19   10.30
   1  -3   8   50.59    5.00
   1  -3   8   48.90    5.30
   1  -3   8   41.70    5.20
  -2   3  -8  165.98   13.10
  -2   3  -8  181.38   13.40
  -2   3  -8  188.98   12.60
  -2   3  -8  180.78   12.60
  -2   3  -8  177.28   12.50
   2  -3   8  164.78   13.40
   2  -3   8  155.38   14.10
   2  -3   8  170.68   13.80
  -3   3  -8  219.88   15.40
  -3   3  -8  195.88   14.70
  -3   3  -8  227.38   14.30
   3  -3   8  200.38   15.80
   3  -3   8  189.98   15.50
   3  -3   8  170.58   16.20
   3  -3   8  197.58   15.00
  -4   3  -8   70.69    5.00
  -4   3  -8   67.99    7.70
  -4   3  -8   68.39    7.70
  -4   3  -8   66.29    7.10
   4  -3   8   67.19    7.90
   4  -3   8   64.39    9.80
   4  -3   8   66.29    7.20
  -5   3  -8  216.58   16.90
  -5   3  -8  231.58   16.60
  -5   3  -8  222.68   14.10
   5  -3   8  171.38   18.90
   5  -3   8  166.68   17.70
   5  -3   8  196.18   16.10
  -6   3  -8   24.40    3.50
  -6   3  -8   30.70    6.20
  -6   3  -8   21.80    5.10
   6  -3   8   13.40    5.00
   6  -3   8   18.40    6.00
  -7   3  -8   91.39    8.20
  -7   3  -8   89.49   10.70
   7  -3   8   89.69   11.50
   7  -3   8   93.99   12.80
   7   2  -8   35.00   13.20
  -7  -2   8   27.30    2.90
  -7  -2   8   25.80    7.30
  -7  -2   8   18.00    3.20
   6   2  -8    0.70    6.80
  -6  -2   8    3.50    3.20
  -6  -2   8    0.70    0.90
  -6  -2   8   -1.70    1.00
   5   2  -8  114.19   17.30
  -5  -2   8   77.89    8.70
   4   2  -8    4.10    6.70
   4   2  -8    2.40    2.80
   4   2  -8    5.60    3.50
  -4  -2   8    3.90    2.30
   3   2  -8  144.69   11.50
   3   2  -8  138.79   12.90
  -3  -2   8  137.29    9.10
  -3  -2   8  138.89   10.60
  -3  -2   8  152.28   10.90
  -3  -2   8  130.79    9.20
   2   2  -8   58.99    7.50
   2   2  -8   71.49    7.60
  -2  -2   8   58.19    5.30
  -2  -2   8   62.49    5.20
  -2  -2   8   60.49    5.00
  -2  -2   8   66.39   12.70
   1   2  -8   13.10    1.90
   1   2  -8   13.20    4.00
   1   2  -8   11.00    1.70
   1   2  -8   11.20    3.00
  -1  -2   8    9.90    1.90
  -1  -2   8   10.30    1.70
  -1  -2   8   14.20    2.50
  -1  -2   8    8.90    5.80
  -1  -2   8    8.90    1.70
  -1  -2   8   12.20    1.60
  -1  -2   8   11.40    2.50
   0   2  -8  385.96   25.30
   0   2  -8  391.76   24.00
   0   2  -8  358.46   23.70
   0   2  -8  404.86   24.60
   0  -2   8  355.56   24.30
   0  -2   8  364.76   23.80
   0  -2   8  363.66   22.50
   0  -2   8  379.66   31.60
   0  -2   8  337.87   22.60
   0  -2   8  361.26   24.00
   0  -2   8  330.47   24.70
  -1   2  -8   57.89    5.70
  -1   2  -8   62.99    6.00
  -1   2  -8   65.89    6.60
  -1   2  -8   63.99    4.70
  -1   2  -8   69.19    5.90
  -1   2  -8   70.19    4.90
   1  -2   8   57.09    6.00
   1  -2   8   54.39    6.30
   1  -2   8   60.99    5.80
   1  -2   8   55.19    5.90
  -2   2  -8  270.77   16.60
  -2   2  -8  245.38   16.30
  -2   2  -8  253.47   16.90
  -2   2  -8  227.78   16.90
   2  -2   8  214.58   18.00
   2  -2   8  225.38   17.20
   2  -2   8  240.88   17.60
   2  -2   8  221.48   16.80
  -3   2  -8  163.98   12.90
  -3   2  -8  167.58   12.10
  -3   2  -8  170.78   12.90
  -3   2  -8  148.99   12.40
  -3   2  -8  156.58   10.30
   3  -2   8  160.18   12.90
   3  -2   8  156.98   12.40
   3  -2   8  141.99   13.50
  -4   2  -8   75.39    5.50
  -4   2  -8   69.59    7.20
  -4   2  -8   69.79    8.10
  -4   2  -8   75.19    7.60
   4  -2   8   57.89    9.20
   4  -2   8   79.39    7.60
   4  -2   8   66.99    7.60
   4  -2   8   66.29    7.80
  -5   2  -8   78.49    9.60
  -5   2  -8   64.59    5.50
  -5   2  -8   57.89    7.80
  -5   2  -8   66.79    7.60
   5  -2   8   46.30    8.60
   5  -2   8   55.19    6.80
   5  -2   8   60.39    8.20
  -6   2  -8   88.39    7.30
  -6   2  -8   77.39    9.00
  -6   2  -8   90.59    9.40
   6  -2   8   75.29   10.10
   6  -2   8   77.89   12.40
  -7   2  -8   15.80    4.90
  -7   2  -8   18.40    3.70
  -7   2  -8   21.00    5.20
   7  -2   8   22.70    6.70
  -8   2  -8   27.80    6.40
  -8   2  -8   29.10    5.10
   8  -2   8   40.80    9.60
   8  -2   8   18.90    5.90
   7   1  -8   84.69   16.80
  -7  -1   8   62.59    5.70
  -7  -1   8   55.89   10.70
  -6  -1   8    2.50    1.30
  -6  -1   8   -2.20    2.50
  -6  -1   8   -0.20    1.20
  -5  -1   8  129.29    8.70
  -5  -1   8  135.09    8.80
  -5  -1   8  123.29   11.30
   4   1  -8   38.60   11.00
   4   1  -8   34.70    5.40
   4   1  -8   34.60    6.60
  -4  -1   8   38.00    2.60
  -4  -1   8   35.60    2.90
  -4  -1   8   36.30    5.30
   3   1  -8  354.56   27.50
   3   1  -8  372.56   26.40
  -3  -1   8  336.77   24.30
  -3  -1   8  416.16   26.70
  -3  -1   8  407.06   25.90
  -3  -1   8  421.06   24.10
  -3  -1   8  366.16   36.40
  -3  -1   8  413.26   27.00
   2   1  -8  183.48   15.40
   2   1  -8  195.88   14.30
  -2  -1   8  205.68   14.60
  -2  -1   8  197.28   12.10
  -2  -1   8  168.68   13.00
  -2  -1   8  206.08   13.70
  -2  -1   8  195.88   12.70
  -2  -1   8  193.38   22.30
   1   1  -8  399.06   26.70
   1   1  -8  379.66   24.30
   1   1  -8  415.46   25.70
   1   1  -8  402.46   24.40
  -1  -1   8  398.26   24.50
  -1  -1   8  352.46   32.40
  -1  -1   8  373.56   24.70
  -1  -1   8  344.37   25.20
   0   1  -8   15.70    2.50
   0   1  -8   12.90    2.30
   0   1  -8   20.40    3.90
   0  -1   8   11.00    2.80
   0  -1   8   13.20    2.50
   0  -1   8   13.20    2.60
   0  -1   8   12.60    5.90
   0  -1   8   13.60    1.80
   0  -1   8   16.20    2.70
  -1   1  -8  540.55   34.00
  -1   1  -8  574.04   33.50
  -1   1  -8  530.15   33.30
  -1   1  -8  534.65   33.70
  -1   1  -8  542.35   32.30
  -1   1  -8  518.25   32.70
   1  -1   8  494.55   33.40
   1  -1   8  478.65   33.60
   1  -1   8  504.25   32.10
   1  -1   8  491.05   33.30
   1  -1   8  438.06   35.10
  -2   1  -8  112.69    9.00
  -2   1  -8  115.39    8.90
  -2   1  -8  120.69    8.40
  -2   1  -8  117.59    9.40
   2  -1   8   98.09    9.00
   2  -1   8   91.59    9.60
   2  -1   8  104.79    7.50
   2  -1   8  108.69    8.90
   2  -1   8  103.29    9.20
  -3   1  -8  465.95   30.70
  -3   1  -8  491.45   31.30
  -3   1  -8  478.95   30.20
  -3   1  -8  482.15   28.90
  -3   1  -8  481.45   31.40
   3  -1   8  459.95   30.70
   3  -1   8  437.06   29.20
   3  -1   8  425.36   30.90
   3  -1   8  383.56   31.60
   3  -1   8  463.35   31.00
  -4   1  -8   11.20    2.00
  -4   1  -8    8.40    3.40
  -4   1  -8    9.80    3.20
  -4   1  -8   13.70    3.70
  -4   1  -8    9.20    3.50
   4  -1   8   11.00    3.80
   4  -1   8    7.90    3.20
   4  -1   8   10.10    3.00
  -5   1  -8  366.56   25.60
  -5   1  -8  356.06   25.10
  -5   1  -8  353.16   26.50
  -5   1  -8  398.56   23.80
   5  -1   8  336.37   23.90
   5  -1   8  342.67   25.60
   5  -1   8  347.17   25.80
   5  -1   8  338.37   27.90
  -6   1  -8    2.00    3.10
  -6   1  -8    3.50    3.50
  -6   1  -8    4.90    2.10
   6  -1   8   11.30    4.40
  -7   1  -8   87.89    9.90
  -7   1  -8   84.69    9.60
  -7   1  -8   93.59    8.30
   7  -1   8   84.99   12.00
   7  -1   8   68.59   11.60
  -8   1  -8    4.50    4.30
  -8   1  -8    8.10    5.20
  -8   1  -8   12.90    4.00
   8  -1   8   18.40    5.30
   8  -1   8   20.60    7.20
   7   0  -8    1.00    6.70
  -7   0   8    2.00    2.00
  -7   0   8   -3.20    3.20
  -7   0   8    2.80    1.60
   6   0  -8  130.79   21.60
  -6   0   8  100.49    7.80
  -6   0   8  104.89   10.50
  -6   0   8   98.79    7.90
   5   0  -8    0.10    2.50
   5   0  -8    7.10    6.50
  -5   0   8    5.70    1.60
  -5   0   8    4.40    1.40
  -5   0   8    8.90    3.40
   4   0  -8  118.19   15.30
   4   0  -8   89.99    8.60
   4   0  -8   67.59    9.00
  -4   0   8   97.19    6.20
  -4   0   8   92.79    8.60
  -4   0   8   84.59    6.90
  -4   0   8   81.49   14.70
   3   0  -8   60.79    7.80
   3   0  -8   66.89    6.90
  -3   0   8   71.39    4.80
  -3   0   8   72.89    7.00
  -3   0   8   63.69    5.50
  -3   0   8   71.39    6.40
  -3   0   8   73.59   14.10
   2   0  -8  153.08   12.50
   2   0  -8  150.08   11.40
   2   0  -8  153.48    9.30
   2   0  -8  148.29    9.30
  -2   0   8  148.29    9.90
  -2   0   8  146.99   10.80
  -2   0   8  155.18    9.70
  -2   0   8  125.39    9.50
  -2   0   8  128.99   18.10
  -2   0   8  167.68   12.40
   1   0  -8  148.19   10.40
   1   0  -8  157.98   11.40
   1   0  -8  154.88   12.30
  -1   0   8  154.88   10.50
  -1   0   8  147.89   17.40
  -1   0   8  151.38   10.20
  -1   0   8  145.79   10.40
  -1   0   8  148.99   11.50
   0   0  -8  824.12   53.89
   0   0  -8  869.31   54.29
   0   0  -8  842.02   54.99
   0   0  -8  895.21   54.49
   0   0   8  908.51   61.19
   0   0   8  823.52   54.59
   0   0   8  805.42   53.99
   0   0   8  851.81   53.99
   0   0   8  912.31   53.69
  -1   0  -8   52.69    4.90
  -1   0  -8   48.40    5.10
  -1   0  -8   53.49    5.30
  -1   0  -8   45.10    4.50
  -1   0  -8   58.39    5.00
  -1   0  -8   45.90    4.00
   1   0   8   45.40    4.90
   1   0   8   51.79    5.00
   1   0   8   49.70    4.10
   1   0   8   48.80    5.00
  -2   0  -8  557.24   33.10
  -2   0  -8  512.25   34.10
  -2   0  -8  530.65   34.20
  -2   0  -8  523.15   33.60
   2   0   8  509.25   33.80
   2   0   8  511.75   35.80
   2   0   8  516.25   33.80
   2   0   8  470.75   33.80
   2   0   8  497.45   32.70
  -3   0  -8   14.10    3.70
  -3   0  -8   14.90    3.10
  -3   0  -8   13.30    3.30
  -3   0  -8    9.40    3.30
  -3   0  -8   13.90    2.00
   3   0   8   14.40    2.40
   3   0   8   14.80    5.00
   3   0   8   18.80    3.90
   3   0   8   12.50    3.40
   3   0   8   14.60    3.40
  -4   0  -8  429.46   25.70
  -4   0  -8  385.66   27.60
  -4   0  -8  425.36   27.40
  -4   0  -8  417.76   26.90
  -4   0  -8  390.06   28.30
   4   0   8  360.66   27.40
   4   0   8  393.66   27.40
   4   0   8  381.96   29.60
   4   0   8  405.16   27.20
   4   0   8  354.16   25.90
  -5   0  -8  168.58   15.80
  -5   0  -8  182.58   14.80
  -5   0  -8  207.68   13.60
  -5   0  -8  204.78   15.30
   5   0   8  203.88   15.50
   5   0   8  177.78   17.30
   5   0   8  175.98   13.80
  -6   0  -8   10.30    2.80
  -6   0  -8   11.50    4.30
  -6   0  -8    9.30    4.00
   6   0   8   14.80    3.20
   6   0   8   13.70    4.30
   6   0   8    6.10    4.40
  -7   0  -8  123.19   10.40
   7   0   8  118.29   10.70
   7   0   8  134.29   12.10
   7   0   8  103.09   13.80
  -8   0  -8    4.00    3.80
  -8   0  -8    5.70    4.10
  -8   0  -8    3.40    2.90
   8   0   8    4.60    5.00
   8   0   8    8.70    4.60
  -7   1   8  156.78   14.30
  -7   1   8  148.49   11.60
  -7   1   8  152.78   11.90
   6  -1  -8    1.60    5.90
  -6   1   8   -1.60    1.60
  -6   1   8    2.70    2.70
  -6   1   8   -1.50    1.50
   5  -1  -8  153.08   13.80
   5  -1  -8  223.48   22.00
  -5   1   8  186.18   13.00
  -5   1   8  127.89   21.90
  -5   1   8  178.38   12.10
  -5   1   8  187.58   14.90
   4  -1  -8    0.10    4.70
   4  -1  -8   -2.70    1.90
  -4   1   8    0.70    1.80
  -4   1   8    0.10    1.00
  -4   1   8    1.60    2.00
  -4   1   8   -1.50    3.40
  -4   1   8    0.00    1.50
  -4   1   8    0.60    0.50
   3  -1  -8  256.67   20.20
   3  -1  -8  272.07   19.30
  -3   1   8  276.07   17.20
  -3   1   8  289.67   17.40
  -3   1   8  288.87   17.60
  -3   1   8  260.97   18.60
  -3   1   8  258.37   27.60
  -3   1   8  263.47   19.30
   2  -1  -8  169.68   12.70
   2  -1  -8  171.38   11.30
   2  -1  -8  175.58   11.30
   2  -1  -8  158.48   13.40
  -2   1   8  163.08   12.40
  -2   1   8  180.28   11.40
  -2   1   8  188.58   13.00
  -2   1   8  150.98   11.10
  -2   1   8  153.88   19.30
  -2   1   8  178.08   11.40
   1  -1  -8  196.78   12.90
   1  -1  -8  153.28   12.40
   1  -1  -8  184.98   13.40
   1  -1  -8  194.48   14.30
  -1   1   8  186.98   12.70
  -1   1   8  192.58   14.00
  -1   1   8  198.38   12.80
  -1   1   8  197.58   19.80
   0  -1  -8  141.39   11.40
   0  -1  -8  145.29   11.40
   0  -1  -8  165.38   12.10
   0  -1  -8  161.88   10.30
   0  -1  -8  163.38   11.20
   0  -1  -8  146.49   10.40
   0   1   8  153.98   11.10
   0   1   8  148.79   11.20
   0   1   8  161.38   12.70
   0   1   8  179.38   11.10
   0   1   8  175.28   16.90
   0   1   8  160.98   11.30
  -1  -1  -8    2.80    2.20
  -1  -1  -8    2.40    1.70
  -1  -1  -8    4.70    1.90
  -1  -1  -8    3.30    1.30
  -1  -1  -8    2.80    2.00
   1   1   8    3.50    2.70
   1   1   8    3.10    1.90
   1   1   8    1.30    1.60
   1   1   8    4.70    2.10
   1   1   8    6.20    1.70
  -2  -1  -8  438.86   27.10
  -2  -1  -8  426.76   26.50
  -2  -1  -8  422.76   27.60
  -2  -1  -8  388.56   27.70
  -2  -1  -8  400.06   26.00
   2   1   8  396.36   26.40
   2   1   8  410.26   27.20
   2   1   8  409.66   27.20
   2   1   8  368.26   27.10
   2   1   8  404.46   29.10
  -3  -1  -8   10.10    3.10
  -3  -1  -8   11.70    2.80
  -3  -1  -8   10.20    2.00
  -3  -1  -8    4.90    2.50
  -3  -1  -8    8.90    3.10
   3   1   8    7.50    3.10
   3   1   8    8.30    2.80
   3   1   8    9.60    4.00
   3   1   8   10.50    3.10
   3   1   8    9.00    2.20
  -4  -1  -8  579.14   32.90
  -4  -1  -8  544.55   34.10
  -4  -1  -8  524.45   34.60
  -4  -1  -8  511.55   33.70
  -4  -1  -8  464.35   35.10
   4   1   8  503.65   34.20
   4   1   8  504.45   36.60
   4   1   8  490.45   34.00
   4   1   8  483.15   34.30
   4   1   8  462.05   33.00
  -5  -1  -8   31.50    5.50
  -5  -1  -8   31.70    5.20
  -5  -1  -8   24.50    5.70
  -5  -1  -8   30.70    4.10
  -5  -1  -8   39.80    6.10
   5   1   8   22.50    4.90
   5   1   8   29.60    4.50
   5   1   8   18.40    5.30
   5   1   8   33.90    7.60
  -6  -1  -8   77.19    6.90
  -6  -1  -8   62.79    7.60
  -6  -1  -8   73.49    8.20
   6   1   8   65.89   11.00
   6   1   8   68.99    8.90
   6   1   8   54.49    8.00
  -7  -1  -8   49.70    8.40
  -7  -1  -8   47.30    6.20
   7   1   8   30.10    9.30
  -8  -1  -8   58.09    8.60
  -8  -1  -8   62.19    8.10
  -8  -1  -8   50.29    7.50
   8   1   8   58.19    9.00
   8   1   8   44.30   12.40
   7  -2  -8   23.40    1.90
   7  -2  -8   19.10    9.00
  -7   2   8   15.90    3.60
  -7   2   8   18.00    4.00
  -7   2   8   18.10    5.30
  -7   2   8   20.40    2.80
  -7   2   8   16.70    2.70
   6  -2  -8   10.80    3.50
   6  -2  -8   13.90    1.80
   6  -2  -8   15.00    8.10
   6  -2  -8   12.10    1.60
  -6   2   8    5.60    3.90
  -6   2   8   12.10    2.30
  -6   2   8   15.20    3.00
  -6   2   8   16.80    2.30
   5  -2  -8   45.40    3.60
   5  -2  -8   45.80    6.40
   5  -2  -8   43.50    3.70
   5  -2  -8   56.79   10.90
  -5   2   8   45.70    4.00
  -5   2   8   45.60    5.40
  -5   2   8   32.50    9.90
  -5   2   8   47.60    4.10
  -5   2   8   45.20    4.50
   4  -2  -8   88.39   12.60
   4  -2  -8   58.79    4.90
   4  -2  -8   57.39    4.90
   4  -2  -8   62.79    7.00
  -4   2   8   62.79    6.30
  -4   2   8   63.99    5.10
  -4   2   8   67.69    6.60
  -4   2   8   70.79   12.80
  -4   2   8   62.79    6.90
  -4   2   8   68.79    5.30
  -4   2   8   79.19    5.60
   3  -2  -8  318.97   19.90
   3  -2  -8  301.37   21.30
   3  -2  -8  275.67   21.90
   3  -2  -8  289.57   19.70
  -3   2   8  334.17   19.90
  -3   2   8  326.37   21.40
  -3   2   8  277.67   28.50
  -3   2   8  312.27   19.80
   2  -2  -8  310.77   20.40
   2  -2  -8  319.37   21.40
   2  -2  -8  313.37   22.20
  -2   2   8  274.97   28.00
  -2   2   8  347.47   21.70
  -2   2   8  291.87   20.10
  -2   2   8  301.27   21.60
  -2   2   8  327.77   20.20
  -2   2   8  318.87   20.40
   1  -2  -8  168.98   11.90
   1  -2  -8  165.18   12.40
   1  -2  -8  166.48   12.00
   1  -2  -8  167.08   13.10
  -1   2   8  180.38   18.40
  -1   2   8  195.78   12.20
  -1   2   8  159.78   13.10
  -1   2   8  178.28   11.70
  -1   2   8  159.78   11.90
   0  -2  -8  335.97   21.50
   0  -2  -8  309.47   21.50
   0  -2  -8  316.97   21.20
   0  -2  -8  291.47   21.20
   0  -2  -8  318.97   21.80
   0   2   8  331.07   21.40
   0   2   8  315.37   21.40
   0   2   8  376.16   21.40
   0   2   8  311.07   21.10
   0   2   8  301.97   22.80
  -1  -2  -8  385.26   26.50
  -1  -2  -8  385.96   26.10
  -1  -2  -8  416.46   28.10
  -1  -2  -8  420.96   25.60
  -1  -2  -8  416.16   26.30
   1   2   8  397.26   26.30
   1   2   8  375.16   26.20
   1   2   8  377.96   26.10
   1   2   8  393.46   25.90
  -2  -2  -8  612.34   41.20
  -2  -2  -8  643.54   40.10
  -2  -2  -8  615.84   40.50
  -2  -2  -8  611.54   39.10
   2   2   8  598.74   40.10
   2   2   8  614.94   39.60
   2   2   8  636.64   40.20
   2   2   8  604.14   40.30
   2   2   8  627.74   42.40
  -3  -2  -8  170.48   14.50
  -3  -2  -8  197.18   13.20
  -3  -2  -8  180.38   13.80
   3   2   8  164.08   13.60
   3   2   8  174.68   13.50
   3   2   8  186.68   15.70
   3   2   8  187.98   13.60
   3   2   8  164.48   12.70
  -4  -2  -8  421.96   29.80
  -4  -2  -8  465.05   29.20
  -4  -2  -8  461.75   28.40
  -4  -2  -8  403.16   30.80
  -4  -2  -8  467.85   29.60
   4   2   8  421.46   29.80
   4   2   8  389.36   28.60
   4   2   8  438.66   32.10
   4   2   8  400.06   29.40
   4   2   8  453.85   29.70
  -5  -2  -8   68.39    8.60
  -5  -2  -8   76.79    7.70
  -5  -2  -8   74.99    7.90
  -5  -2  -8   67.69    7.80
  -5  -2  -8   84.89    7.00
   5   2   8   77.49    7.90
   5   2   8   66.69    8.40
   5   2   8   79.49    8.20
   5   2   8   71.49    7.20
   5   2   8   74.49   10.10
  -6  -2  -8  306.47   21.60
  -6  -2  -8  299.97   20.20
  -6  -2  -8  306.17   21.30
   6   2   8  308.87   21.80
   6   2   8  245.48   20.40
   6   2   8  250.67   23.50
  -7  -2  -8  156.38   12.60
  -7  -2  -8  140.79   16.40
  -7  -2  -8  160.08   14.60
   7   2   8  161.18   14.30
   7   2   8  138.79   15.90
  -8  -2  -8  104.19    9.90
  -8  -2  -8   95.29   10.50
  -8  -2  -8   95.69   10.60
   8   2   8  100.09   14.10
   8   2   8   95.39   12.90
   7  -3  -8   21.70    3.40
   7  -3  -8   23.70    2.90
   7  -3  -8   30.10    9.80
  -7   3   8   33.10    5.60
  -7   3   8   25.80    3.80
  -7   3   8   34.30    4.30
  -7   3   8   19.40    5.60
   6  -3  -8  155.48   18.00
   6  -3  -8  107.19    9.20
   6  -3  -8  120.59   10.00
  -6   3   8  137.59   11.60
  -6   3   8  123.29   10.00
  -6   3   8  136.69    9.60
  -6   3   8  119.09    9.60
   5  -3  -8  117.29    8.70
   5  -3  -8  149.79   16.50
   5  -3  -8  103.59   10.50
  -5   3   8  134.09   11.30
  -5   3   8  126.79    9.30
  -5   3   8  126.59    9.50
  -5   3   8  113.09    9.10
   4  -3  -8  296.67   21.40
   4  -3  -8  292.77   19.70
  -4   3   8  332.97   22.00
  -4   3   8  254.57   27.30
  -4   3   8  296.97   20.00
  -4   3   8  332.57   20.20
  -4   3   8  289.37   19.80
  -4   3   8  319.67   21.80
   3  -3  -8  136.79   11.20
   3  -3  -8  149.59   10.30
   3  -3  -8  140.09   10.10
  -3   3   8  145.99   10.30
  -3   3   8  120.39   16.40
  -3   3   8  147.19   10.40
  -3   3   8  160.88   10.40
  -3   3   8  134.99   11.70
  -3   3   8  151.48   11.50
   2  -3  -8  773.72   53.39
   2  -3  -8  868.01   53.49
   2  -3  -8  846.82   54.79
   2  -3  -8  832.62   54.09
  -2   3   8  815.82   61.39
  -2   3   8  855.81   53.29
  -2   3   8  886.11   54.19
  -2   3   8  830.02   54.99
  -2   3   8  894.71   53.49
  -2   3   8  870.81   53.19
   1  -3  -8    6.10    1.90
   1  -3  -8    3.60    2.50
   1  -3  -8    7.50    2.10
   1  -3  -8    5.00    2.20
   1  -3  -8    5.00    1.70
   1  -3  -8    5.20    1.30
  -1   3   8    5.70    2.20
  -1   3   8    4.10    1.90
  -1   3   8    7.40    1.80
  -1   3   8    5.20    1.80
  -1   3   8    6.20    2.50
  -1   3   8    4.00    1.60
  -1   3   8    4.60    4.00
   0  -3  -8 1155.38   74.99
   0  -3  -8 1213.48   75.19
   0  -3  -8 1172.78   74.79
   0  -3  -8  993.20   75.09
   0  -3  -8 1359.66   74.49
   0   3   8 1191.38   74.79
   0   3   8 1343.97   74.89
   0   3   8 1125.49   76.59
   0   3   8 1190.68   74.59
   0   3   8 1173.58   74.89
  -1  -3  -8  185.78   12.70
  -1  -3  -8  166.18   12.80
  -1  -3  -8  143.49   13.00
  -1  -3  -8  185.68   12.00
   1   3   8  156.78   14.10
   1   3   8  166.58   12.60
   1   3   8  188.08   12.50
   1   3   8  162.28   12.50
   1   3   8  179.38   12.50
  -2  -3  -8  620.74   48.00
  -2  -3  -8  740.43   47.60
  -2  -3  -8  705.03   46.30
  -2  -3  -8  803.52   46.80
  -2  -3  -8  797.12   47.30
  -2  -3  -8  788.32   46.60
   2   3   8  748.43   47.10
   2   3   8  692.53   47.20
   2   3   8  699.13   47.30
   2   3   8  700.83   49.40
   2   3   8  749.23   47.00
  -3  -3  -8  177.98   13.30
  -3  -3  -8  173.88   13.70
  -3  -3  -8  193.38   12.60
  -3  -3  -8  161.38   14.40
   3   3   8  177.28   13.00
   3   3   8  168.18   13.40
   3   3   8  160.88   15.20
   3   3   8  183.58   13.50
   3   3   8  168.28   13.40
  -4  -3  -8  543.35   37.40
  -4  -3  -8  598.84   36.10
  -4  -3  -8  606.24   36.70
  -4  -3  -8  588.74   37.10
   4   3   8  529.75   37.00
   4   3   8  516.45   37.20
   4   3   8  493.75   36.30
   4   3   8  579.84   37.20
   4   3   8  533.85   39.60
  -5  -3  -8   43.60    7.80
  -5  -3  -8   62.79    8.20
  -5  -3  -8   60.39    6.10
  -5  -3  -8   55.09    6.50
  -5  -3  -8   66.89    7.10
   5   3   8   67.69    8.10
   5   3   8   53.49    9.60
   5   3   8   57.19    7.60
  -6  -3  -8  130.69   10.10
  -6  -3  -8  133.39   11.20
  -6  -3  -8  113.89   10.60
   6   3   8   95.39    9.90
   6   3   8  125.89   11.10
   6   3   8  101.89   12.90
  -7  -3  -8  106.29   14.60
  -7  -3  -8   92.19   10.30
  -7  -3  -8   98.89    9.30
   7   3   8  103.29   13.00
   7   3   8  106.69   10.70
  -8  -3  -8   43.60    6.40
  -8  -3  -8   39.40    7.10
  -8  -3  -8   28.00    6.70
   8   3   8   31.80    8.10
   7  -4  -8   90.79   14.60
   7  -4  -8   65.19    6.80
  -7   4   8   64.99    7.00
  -7   4   8   81.99    7.20
  -7   4   8   82.19    9.20
  -7   4   8   77.59    7.70
  -7   4   8   69.29   10.10
   6  -4  -8   23.90    3.90
   6  -4  -8   19.20    3.10
   6  -4  -8   24.70    4.80
   6  -4  -8   30.90    8.70
  -6   4   8   30.00    5.80
  -6   4   8   24.10    4.00
  -6   4   8   22.40    3.80
  -6   4   8   29.00    6.50
   5  -4  -8  179.38   17.40
   5  -4  -8  127.19   10.00
   5  -4  -8  139.19   11.70
   5  -4  -8  136.29   10.70
  -5   4   8  150.68   12.80
  -5   4   8  149.69   10.80
  -5   4   8  141.79   10.80
  -5   4   8  125.59   10.50
   4  -4  -8  101.89    9.00
   4  -4  -8   98.19    8.10
   4  -4  -8   94.69    7.50
  -4   4   8  105.39    8.10
  -4   4   8   76.29   12.40
  -4   4   8  105.39    9.20
  -4   4   8  104.09    8.10
  -4   4   8  100.19    9.70
  -4   4   8  111.79    8.10
   3  -4  -8  500.25   33.10
   3  -4  -8  510.85   33.40
   3  -4  -8  493.25   34.00
  -3   4   8  528.45   33.40
  -3   4   8  516.05   34.10
  -3   4   8  557.84   33.30
  -3   4   8  559.14   33.50
  -3   4   8  503.55   35.20
  -3   4   8  459.15   39.50
   2  -4  -8  173.48   13.20
   2  -4  -8  165.58   12.20
   2  -4  -8  159.18   13.50
   2  -4  -8  155.38   12.80
   2  -4  -8  194.68   13.20
   2  -4  -8  184.28   12.80
  -2   4   8  193.98   12.70
  -2   4   8  190.38   13.00
  -2   4   8  184.08   18.60
  -2   4   8  187.88   12.80
  -2   4   8  191.88   13.30
   1  -4  -8  412.16   29.70
   1  -4  -8  464.95   30.30
   1  -4  -8  426.36   29.30
   1  -4  -8  453.15   29.40
   1  -4  -8  391.76   28.80
   1  -4  -8  432.46   29.40
  -1   4   8  453.95   29.00
  -1   4   8  501.35   35.50
  -1   4   8  478.65   29.20
  -1   4   8  413.36   31.10
  -1   4   8  450.55   29.40
  -1   4   8  464.35   29.30
  -1   4   8  484.75   29.40
   0  -4  -8  525.95   30.40
   0  -4  -8  430.46   30.70
   0  -4  -8  464.15   30.70
   0  -4  -8  431.06   30.60
   0  -4  -8  457.25   32.00
   0   4   8  472.25   30.60
   0   4   8  544.05   30.90
   0   4   8  471.55   30.30
   0   4   8  443.06   32.50
   0   4   8  434.66   30.60
  -1  -4  -8  190.88   13.60
  -1  -4  -8  190.18   13.00
  -1  -4  -8  176.88   13.70
  -1  -4  -8  187.28   13.10
  -1  -4  -8  166.38   14.80
   1   4   8  191.98   13.40
   1   4   8  189.78   13.60
   1   4   8  178.68   15.50
   1   4   8  180.28   13.50
   1   4   8  195.38   13.80
  -2  -4  -8  370.86   22.20
  -2  -4  -8  310.47   23.10
  -2  -4  -8  341.67   23.20
  -2  -4  -8  329.27   22.20
  -2  -4  -8  337.97   24.90
  -2  -4  -8  348.87   22.40
   2   4   8  330.17   23.10
   2   4   8  322.87   25.10
   2   4   8  328.97   22.90
   2   4   8  315.27   23.00
   2   4   8  332.87   22.80
  -3  -4  -8   89.19    9.70
  -3  -4  -8   83.19    7.00
  -3  -4  -8   81.69    7.80
  -3  -4  -8   94.89    7.50
  -3  -4  -8   74.79    7.90
   3   4   8   81.59    7.80
   3   4   8   78.69    7.70
   3   4   8   80.69    7.70
   3   4   8   74.89    7.30
   3   4   8   71.69    9.50
  -4  -4  -8  299.47   20.90
  -4  -4  -8  308.97   20.50
  -4  -4  -8  304.87   20.00
  -4  -4  -8  266.97   21.10
   4   4   8  317.57   21.10
   4   4   8  277.57   20.50
   4   4   8  277.07   23.40
   4   4   8  279.87   21.00
   4   4   8  269.77   20.80
  -5  -4  -8   38.90    5.80
  -5  -4  -8   39.00    6.00
  -5  -4  -8   38.40    6.40
  -5  -4  -8   42.60    5.40
   5   4   8   31.60    5.30
   5   4   8   34.00    7.80
   5   4   8   40.80    6.50
   5   4   8   35.90    6.80
  -6  -4  -8  375.76   26.80
  -6  -4  -8  381.26   27.20
  -6  -4  -8  393.56   26.40
   6   4   8  380.86   30.40
   6   4   8  377.06   27.30
  -7  -4  -8   41.90    7.10
  -7  -4  -8   46.20    7.20
  -7  -4  -8   37.10    6.80
   7   4   8   45.30    7.30
  -8  -4  -8  122.39   11.20
  -8  -4  -8  109.09   11.70
  -8  -4  -8  120.09   11.60
   8   4   8  119.39   15.90
   8   4   8  101.09   13.80
   7  -5  -8    7.00    5.90
   7  -5  -8    3.20    2.30
  -7   5   8    6.30    3.80
  -7   5   8    9.90    3.30
   6  -5  -8   82.99    7.70
   6  -5  -8  100.79   13.10
   6  -5  -8   80.29    8.40
  -6   5   8   89.09    8.00
  -6   5   8   79.29    7.90
  -6   5   8   79.09    9.60
  -6   5   8   75.19    7.80
   5  -5  -8    1.70    2.00
   5  -5  -8    4.40    2.60
  -5   5   8    8.70    4.00
  -5   5   8    6.20    2.50
  -5   5   8    4.60    2.40
   4  -5  -8   87.29    7.00
   4  -5  -8   74.69    6.50
   4  -5  -8   81.99    7.00
   4  -5  -8   92.89    8.40
   4  -5  -8  101.69    8.10
  -4   5   8   95.79    7.70
  -4   5   8   92.09    7.90
  -4   5   8   96.49    9.80
  -4   5   8   89.49    7.80
  -4   5   8   90.59    8.50
   3  -5  -8    1.80    2.00
   3  -5  -8   -1.00    1.30
   3  -5  -8    0.60    1.90
   3  -5  -8   -0.50    1.80
  -3   5   8    0.50    1.90
  -3   5   8   -1.00    2.40
  -3   5   8   -1.10    1.60
  -3   5   8    2.10    1.90
  -3   5   8    2.10    1.90
  -3   5   8    0.60    2.40
   2  -5  -8    4.10    1.80
   2  -5  -8    5.70    2.10
   2  -5  -8    6.10    2.40
   2  -5  -8    4.20    2.20
  -2   5   8    7.40    2.60
  -2   5   8    4.00    4.80
  -2   5   8    4.90    3.00
  -2   5   8    4.60    2.00
  -2   5   8    6.20    2.10
   1  -5  -8    9.40    2.50
   1  -5  -8    2.50    1.80
   1  -5  -8    5.80    2.20
   1  -5  -8    2.00    1.90
   1  -5  -8    2.80    2.30
  -1   5   8    5.90    2.00
  -1   5   8    5.20    1.80
  -1   5   8    8.10    3.70
  -1   5   8    3.10    1.80
  -1   5   8    6.20    2.50
  -1   5   8    5.50    2.00
   0  -5  -8  107.59    8.90
   0  -5  -8   96.19   10.20
   0  -5  -8   97.59    9.00
   0  -5  -8  103.09    9.10
   0  -5  -8  132.29    9.10
   0   5   8  123.89    8.90
   0   5   8   98.69    9.00
   0   5   8  120.29    9.20
   0   5   8  126.49    9.20
   0   5   8  121.39   11.20
  -1  -5  -8   39.10    5.10
  -1  -5  -8   42.50    4.10
  -1  -5  -8   28.60    3.70
  -1  -5  -8   34.20    6.20
  -1  -5  -8   28.40    4.70
   1   5   8   41.30    4.70
   1   5   8   30.90    4.30
   1   5   8   34.20    5.00
   1   5   8   32.40    4.30
   1   5   8   33.90    6.30
  -2  -5  -8  197.58   16.90
  -2  -5  -8  211.88   15.10
  -2  -5  -8  187.28   15.10
  -2  -5  -8  210.88   13.90
  -2  -5  -8  192.48   14.20
   2   5   8  200.28   15.10
   2   5   8  213.08   15.30
   2   5   8  199.98   14.70
   2   5   8  195.58   15.00
   2   5   8  203.68   17.30
  -3  -5  -8    8.30    3.90
  -3  -5  -8    8.00    2.70
  -3  -5  -8    9.40    2.50
  -3  -5  -8    5.80    2.60
  -3  -5  -8    4.60    2.90
   3   5   8   11.40    3.30
   3   5   8   10.20    3.20
   3   5   8    5.80    4.20
   3   5   8    8.10    3.00
   3   5   8   10.90    3.20
  -4  -5  -8  244.68   19.10
  -4  -5  -8  247.48   20.90
  -4  -5  -8  273.87   18.50
  -4  -5  -8  244.18   18.50
  -4  -5  -8  295.37   18.40
   4   5   8  236.88   21.10
   4   5   8  216.28   18.20
   4   5   8  233.68   18.70
   4   5   8  237.98   18.80
   4   5   8  277.17   18.80
  -5  -5  -8    0.60    3.00
  -5  -5  -8    0.90    2.30
  -5  -5  -8    3.80    2.50
  -5  -5  -8    3.20    3.10
   5   5   8   -0.40    2.70
   5   5   8    3.30    3.80
  -6  -5  -8  134.69   11.30
  -6  -5  -8  137.99   12.40
   6   5   8  127.79   14.60
   6   5   8  138.39   12.60
  -7  -5  -8    3.30    3.60
  -7  -5  -8    8.40    3.80
   7   5   8   10.70    4.70
  -8  -5  -8   56.89    8.70
  -8  -5  -8   63.69    8.60
  -8  -5  -8   53.99    7.70
   8   5   8   42.80    9.80
   7  -6  -8   17.80    6.50
   7  -6  -8   13.30    3.90
  -7   6   8   20.10    4.20
  -7   6   8   24.90    6.40
  -7   6   8   12.40    3.80
   6  -6  -8   29.10    5.20
   6  -6  -8   31.20    5.20
  -6   6   8   45.10    8.00
  -6   6   8   39.20    5.50
  -6   6   8   33.50    5.50
   5  -6  -8  166.08   12.50
   5  -6  -8  140.79   11.70
   5  -6  -8  158.88   12.90
   5  -6  -8  146.69   12.80
  -5   6   8  165.58   13.10
  -5   6   8  181.48   15.50
  -5   6   8  181.58   13.00
  -5   6   8  178.88   12.80
   4  -6  -8  223.78   16.90
   4  -6  -8  223.08   17.00
   4  -6  -8  253.97   20.20
   4  -6  -8  188.78   16.10
  -4   6   8  238.08   17.30
  -4   6   8  265.77   17.00
  -4   6   8  232.48   17.00
  -4   6   8  250.97   19.40
  -4   6   8  234.18   17.20
   3  -6  -8  246.78   18.20
   3  -6  -8  241.18   18.90
   3  -6  -8  229.98   18.50
   3  -6  -8  243.48   18.70
   3  -6  -8  263.97   19.70
  -3   6   8  287.17   21.30
  -3   6   8  276.27   18.90
  -3   6   8  312.07   19.40
  -3   6   8  290.37   18.80
  -3   6   8  289.87   19.10
   2  -6  -8  174.68   14.00
   2  -6  -8  179.18   13.90
   2  -6  -8  193.78   15.40
   2  -6  -8  180.18   13.60
   2  -6  -8  177.58   14.10
  -2   6   8  186.68   14.20
  -2   6   8  203.88   13.90
  -2   6   8  192.38   16.80
  -2   6   8  190.98   13.70
  -2   6   8  203.38   14.20
  -2   6   8  202.98   16.40
   1  -6  -8  741.03   46.80
   1  -6  -8  671.73   48.50
   1  -6  -8  719.83   47.20
   1  -6  -8  659.23   46.80
   1  -6  -8  725.93   47.20
  -1   6   8  761.92   46.40
  -1   6   8  711.03   47.20
  -1   6   8  790.72   50.69
  -1   6   8  750.42   48.30
  -1   6   8  740.03   49.70
  -1   6   8  734.63   46.80
  -1   6   8  745.63   46.90
   0  -6  -8  120.19   12.20
   0  -6  -8  112.59   10.00
   0  -6  -8  140.09   12.10
   0  -6  -8  152.98   10.90
   0   6   8  147.49   13.40
   0   6   8  154.78   11.10
   0   6   8  144.29   11.30
   0   6   8  139.39   10.60
   0   6   8  150.18   11.00
  -1  -6  -8  618.34   35.70
  -1  -6  -8  495.45   37.80
  -1  -6  -8  557.34   36.10
  -1  -6  -8  510.95   34.70
  -1  -6  -8  446.16   36.70
   1   6   8  567.34   35.60
   1   6   8  596.84   36.40
   1   6   8  536.35   38.50
   1   6   8  570.94   36.20
   1   6   8  523.25   36.00
  -2  -6  -8  359.66   23.20
  -2  -6  -8  323.77   23.80
  -2  -6  -8  362.56   23.90
  -2  -6  -8  340.47   23.00
  -2  -6  -8  341.97   22.20
  -2  -6  -8  321.27   25.70
   2   6   8  329.47   23.80
   2   6   8  347.77   23.30
   2   6   8  331.17   23.70
   2   6   8  340.97   26.30
  -3  -6  -8  227.88   14.60
  -3  -6  -8  236.88   16.00
  -3  -6  -8  181.88   18.00
  -3  -6  -8  205.98   16.60
  -3  -6  -8  224.38   15.70
  -3  -6  -8  217.18   16.50
   3   6   8  232.98   16.30
   3   6   8  227.48   16.70
   3   6   8  211.68   16.60
   3   6   8  211.88   16.50
   3   6   8  186.78   18.40
  -4  -6  -8  207.68   14.20
  -4  -6  -8  179.28   14.50
  -4  -6  -8  182.48   13.70
  -4  -6  -8  164.78   14.60
   4   6   8  173.58   14.50
   4   6   8  178.08   14.60
   4   6   8  170.28   17.00
  -5  -6  -8  272.07   19.60
  -5  -6  -8  284.97   20.00
   5   6   8  261.37   23.30
   5   6   8  271.57   20.30
  -6  -6  -8  208.48   16.50
  -6  -6  -8  210.08   17.30
  -6  -6  -8  203.28   16.20
   6   6   8  233.88   17.30
  -7  -6  -8  147.49   12.20
  -7  -6  -8  138.99   13.10
  -7  -6  -8  137.79   12.40
   7   6   8  125.49   15.40
  -8  -6  -8   48.80    7.90
  -8  -6  -8   63.79    8.30
  -8  -6  -8   52.19    8.60
   8   6   8   52.29    8.70
   8   6   8   53.59   10.30
   7  -7  -8    2.20    3.30
  -7   7   8    6.10    3.20
  -7   7   8    4.70    4.60
  -7   7   8    5.40    3.20
   6  -7  -8   50.89    5.60
   6  -7  -8   53.29    6.30
   6  -7  -8   52.29    7.10
  -6   7   8   64.29    7.20
  -6   7   8   35.10    6.40
  -6   7   8   62.89   11.60
   5  -7  -8   23.10    4.40
   5  -7  -8   36.00    5.30
   5  -7  -8   47.30    6.10
  -5   7   8   41.00    6.10
  -5   7   8   46.40    6.10
  -5   7   8   27.40    7.00
   4  -7  -8   47.80    7.50
   4  -7  -8   27.20    5.00
   4  -7  -8   45.30    6.20
   4  -7  -8   45.00    5.90
  -4   7   8   53.99    6.10
  -4   7   8   41.40    6.00
  -4   7   8   47.00    5.60
  -4   7   8   39.50    7.70
   3  -7  -8   52.69    6.90
   3  -7  -8   50.89    5.70
   3  -7  -8   41.20    5.80
  -3   7   8   50.29    6.70
  -3   7   8   54.59    5.70
  -3   7   8   50.19    6.40
  -3   7   8   56.89    8.70
  -3   7   8   48.40    5.60
   2  -7  -8   79.69    8.70
   2  -7  -8   63.19    6.70
   2  -7  -8   85.89    7.30
   2  -7  -8   73.29    7.60
   2  -7  -8   71.09    7.50
  -2   7   8   64.99    7.60
  -2   7   8   81.19    7.80
  -2   7   8   82.19    6.80
  -2   7   8   81.39    9.30
  -2   7   8   75.99    7.50
  -2   7   8   80.29    7.10
  -2   7   8   89.39   10.10
   1  -7  -8   52.79    6.00
   1  -7  -8   64.89    5.90
   1  -7  -8   65.89    6.60
   1  -7  -8   56.79    7.70
   1  -7  -8   54.69    6.60
  -1   7   8   62.69    8.60
  -1   7   8   66.89    6.30
  -1   7   8   58.19    7.30
  -1   7   8   65.69    6.40
  -1   7   8   64.79    5.50
  -1   7   8   68.39    6.50
  -1   7   8   56.19    6.60
   0  -7  -8   84.99    9.70
   0  -7  -8   83.69    8.40
   0  -7  -8   88.09    8.10
   0   7   8   90.29   10.50
   0   7   8  100.09    8.50
   0   7   8   90.99    8.50
   0   7   8  100.29    8.50
   0   7   8   92.29    8.00
  -1  -7  -8  130.69   11.70
  -1  -7  -8  149.39   12.20
  -1  -7  -8  165.48   11.80
   1   7   8  149.88   12.20
   1   7   8  151.88   11.60
   1   7   8  141.09   12.00
   1   7   8  145.69   14.50
   1   7   8  174.98   12.60
  -2  -7  -8  185.38   13.20
  -2  -7  -8  168.58   13.10
  -2  -7  -8  184.68   14.00
  -2  -7  -8  180.78   13.90
  -2  -7  -8  155.78   15.50
  -2  -7  -8  168.98   11.70
   2   7   8  175.28   13.90
   2   7   8  162.28   16.00
   2   7   8  206.58   13.60
   2   7   8  164.68   13.70
   2   7   8  164.18   13.90
  -3  -7  -8   10.70    2.00
  -3  -7  -8   13.80    4.00
  -3  -7  -8    8.60    3.10
  -3  -7  -8   10.80    4.10
  -3  -7  -8    8.80    3.00
  -3  -7  -8    6.70    3.20
   3   7   8   14.10    3.70
   3   7   8    6.70    3.10
   3   7   8    9.00    4.60
  -4  -7  -8  281.17   20.00
  -4  -7  -8  285.47   18.40
  -4  -7  -8  272.97   20.70
  -4  -7  -8  284.87   20.10
   4   7   8  271.57   20.30
   4   7   8  283.07   23.90
  -5  -7  -8   21.20    5.00
  -5  -7  -8    9.70    4.00
   5   7   8   17.10    4.80
   5   7   8   13.00    5.90
  -6  -7  -8  188.08   14.60
  -6  -7  -8  153.58   16.30
  -6  -7  -8  187.38   14.80
   6   7   8  170.38   17.70
   6   7   8  189.08   15.20
  -7  -7  -8    3.50    3.60
  -7  -7  -8    3.70    3.20
  -7  -7  -8    6.70    3.90
   7   7   8    1.40    3.50
   7   7   8    1.20    5.00
   6  -8  -8   48.70    7.20
   6  -8  -8   92.79    8.70
   6  -8  -8   74.79    7.40
   6  -8  -8   67.29    9.40
  -6   8   8   80.69    9.20
  -6   8   8   78.49    8.10
  -6   8   8   66.29   10.70
   5  -8  -8   33.80    6.20
   5  -8  -8   34.00    5.10
   5  -8  -8   40.70    6.60
  -5   8   8   37.30    6.90
  -5   8   8   39.50    8.00
  -5   8   8   38.40    6.20
   4  -8  -8  160.68   13.80
   4  -8  -8  140.79   13.00
   4  -8  -8  127.49   12.50
   4  -8  -8  148.49   11.90
  -4   8   8  156.68   13.20
  -4   8   8  137.19   12.40
  -4   8   8  163.58   15.20
  -4   8   8  169.98   12.40
   3  -8  -8    5.20    3.30
   3  -8  -8    2.30    2.60
   3  -8  -8    4.40    2.30
   3  -8  -8    3.60    3.10
  -3   8   8   12.60    4.90
  -3   8   8    8.80    3.70
  -3   8   8   11.20    3.50
  -3   8   8    7.80    2.60
   2  -8  -8   88.29   11.70
   2  -8  -8  105.19    9.70
   2  -8  -8  110.09    8.90
   2  -8  -8   84.49    9.40
  -2   8   8  121.19    8.60
  -2   8   8  100.99    9.70
  -2   8   8  105.39   12.00
  -2   8   8  114.49    9.80
   1  -8  -8   16.50    3.80
   1  -8  -8   14.60    3.80
   1  -8  -8   17.00    4.60
  -1   8   8   17.60    2.80
  -1   8   8   12.70    2.00
  -1   8   8   20.50    4.30
  -1   8   8   13.10    5.00
   0  -8  -8   54.39    9.10
   0  -8  -8   54.99    7.50
   0  -8  -8   70.39    7.00
   0   8   8   62.29    9.90
   0   8   8   57.79    7.10
   0   8   8   68.09    6.80
   0   8   8   73.39    7.40
  -1  -8  -8  121.89   10.00
  -1  -8  -8   95.59   11.20
  -1  -8  -8  126.69   10.30
   1   8   8  113.49    9.40
   1   8   8  108.49   12.30
   1   8   8   95.69    9.80
  -2  -8  -8    7.50    3.00
  -2  -8  -8    6.50    2.80
  -2  -8  -8   10.20    3.50
   2   8   8   10.70    3.30
   2   8   8    7.90    4.40
   2   8   8    8.50    3.20
  -3  -8  -8   86.59    8.10
  -3  -8  -8   76.19    7.80
  -3  -8  -8   91.19    8.90
   3   8   8   74.29   10.50
   3   8   8   76.89    8.00
  -4  -8  -8  133.79   11.80
  -4  -8  -8  133.19   11.40
  -4  -8  -8  108.69    7.90
  -4  -8  -8  118.99   11.10
   4   8   8  118.39   10.70
   4   8   8  104.39   13.20
  -5  -8  -8   78.49    9.10
   5   8   8   82.19    8.80
   5   8   8   76.39   12.30
  -6  -8  -8  111.39   10.50
  -6  -8  -8   99.39   11.00
  -6  -8  -8  117.49   10.80
   6   8   8  107.69   14.30
  -7  -8  -8    2.20    3.60
  -7  -8  -8    1.60    3.70
  -7  -8  -8    1.30    3.20
   7   8   8    5.40    4.90
   5  -9  -8   17.30    4.80
   5  -9  -8   15.40    3.40
   5  -9  -8   12.60    4.60
   5  -9  -8    6.10    3.50
  -5   9   8   19.00    6.60
  -5   9   8   13.70    3.80
  -5   9   8   10.60    4.60
   4  -9  -8    1.40    3.30
   4  -9  -8    4.40    2.30
   4  -9  -8    4.40    4.00
   4  -9  -8    7.10    3.40
  -4   9   8    1.00    3.40
  -4   9   8    5.60    2.80
  -4   9   8    8.30    2.70
   3  -9  -8  138.09   12.60
   3  -9  -8  123.49   11.00
   3  -9  -8  129.09   12.70
   3  -9  -8  145.49   14.80
  -3   9   8  160.78   11.30
  -3   9   8  138.59   14.00
  -3   9   8  153.58   15.40
  -3   9   8  151.68   12.40
   2  -9  -8   -0.80    2.40
   2  -9  -8    3.00    2.20
   2  -9  -8   -1.10    2.30
  -2   9   8    0.50    3.10
  -2   9   8    2.20    2.70
  -2   9   8    2.60    1.70
   1  -9  -8  412.66   27.80
   1  -9  -8  376.36   27.20
  -1   9   8  388.66   26.90
  -1   9   8  349.67   26.90
  -1   9   8  406.16   30.30
   0  -9  -8   19.30    4.30
   0  -9  -8   10.50    3.80
   0   9   8   18.20    5.90
   0   9   8   16.10    2.20
   0   9   8   13.30    3.80
   0   9   8   18.80    4.40
  -1  -9  -8  342.37   22.90
  -1  -9  -8  308.97   23.10
   1   9   8  310.77   25.80
   1   9   8  295.77   24.20
   1   9   8  333.77   22.60
  -2  -9  -8    0.20    2.90
  -2  -9  -8    3.00    2.70
   2   9   8    1.10    3.90
   2   9   8    3.00    2.80
  -3  -9  -8  311.47   23.40
  -3  -9  -8  321.17   24.80
  -3  -9  -8  348.17   24.30
   3   9   8  351.26   23.60
   4   9   8    5.50    3.10
   4   9   8    8.40    5.60
  -5  -9  -8  141.79   13.90
  -5  -9  -8  158.08   13.50
  -5  -9  -8  164.68   13.40
   5   9   8  183.28   17.80
  -6  -9  -8    1.40    2.90
  -6  -9  -8    6.50    3.90
  -6  -9  -8    1.50    3.70
  -6  -9  -8    0.50    1.10
  -6  -9  -8    5.10    1.30
   6   9   8   -0.10    3.30
   6   9   8    7.80    5.50
   5 -10  -8    3.00    3.70
   5 -10  -8    3.00    2.20
  -5  10   8    1.30    3.90
  -5  10   8    1.50    4.90
   4 -10  -8   52.79    6.00
   4 -10  -8   50.89    8.50
   4 -10  -8   49.10    9.60
  -4  10   8   59.19    8.90
  -4  10   8   74.19   11.60
  -4  10   8   76.79    7.00
   3 -10  -8    7.10    4.20
   3 -10  -8   13.40    3.30
   3 -10  -8   16.80    5.50
  -3  10   8   15.60    6.40
  -3  10   8   15.70    4.80
  -3  10   8   17.50    3.30
   2 -10  -8  177.78   13.90
   2 -10  -8  170.58   15.60
   2 -10  -8  192.68   16.50
  -2  10   8  222.28   19.40
  -2  10   8  193.38   15.60
  -2  10   8  194.98   13.30
   1 -10  -8   39.40    4.50
   1 -10  -8   31.40    5.90
   1 -10  -8   41.40    6.90
  -1  10   8   27.00    5.50
  -1  10   8   35.20    8.20
   0 -10  -8  235.68   22.10
   0 -10  -8  192.28   16.70
   0  10   8  223.68   20.00
  -1 -10  -8   69.69    7.40
  -1 -10  -8   61.39    8.00
   1  10   8   61.59   10.60
   1  10   8   49.30    6.60
  -2 -10  -8  212.28   15.20
   2  10   8  153.28   16.80
   2  10   8  199.88   20.00
  -3 -10  -8   57.99    7.40
  -3 -10  -8   57.49   10.00
  -3 -10  -8   71.19    7.90
   3  10   8   66.49   11.30
   3  10   8   69.49    9.20
  -4 -10  -8  106.59   10.10
  -4 -10  -8   94.09    9.60
  -4 -10  -8  110.39   11.50
   4  10   8  102.79   10.00
   4  10   8   93.19   13.00
  -5 -10  -8   27.60    5.40
  -5 -10  -8   35.00    6.10
  -5 -10  -8   22.30    5.90
   5  10   8   30.40    8.40
   4 -11  -8   14.10    5.40
   4 -11  -8   13.00    2.80
   4 -11  -8    9.60    4.70
  -4  11   8   11.00    6.20
  -4  11   8   20.30    5.70
  -4  11   8   19.40    3.40
   3 -11  -8   44.50    5.10
   3 -11  -8   35.50    7.80
  -3  11   8   55.69    5.40
  -3  11   8   48.60    8.00
  -3  11   8   59.29   10.70
   2 -11  -8   32.20    4.50
   2 -11  -8   32.40    6.90
  -2  11   8   32.70    6.30
  -2  11   8   34.80    8.60
   1 -11  -8  124.69   12.10
   1 -11  -8  102.39   15.30
   1 -11  -8   99.69    8.90
  -1  11   8  123.59   11.20
  -1  11   8  123.69   14.20
   0 -11  -8   43.60    7.10
   0 -11  -8   55.89    7.30
   0  11   8   44.10    7.90
   0  11   8   32.10    8.40
  -1 -11  -8  107.19   10.30
  -1 -11  -8  121.09   16.40
   1  11   8   89.09   12.40
   1  11   8   93.59    9.70
  -2 -11  -8    2.70    3.10
  -2 -11  -8    1.60    3.70
   2  11   8   -0.50    3.10
   2  11   8   -2.10    3.90
   2  11   8    1.00    2.80
  -3 -11  -8   84.59    9.50
  -3 -11  -8   93.59    9.30
   3  11   8   64.59   11.60
   3  11   8   98.39   12.40
   3  11   8   88.19    8.90
  -4 -11  -8    6.60    3.80
  -4 -11  -8   10.30    4.30
  -4 -11  -8    2.80    3.30
   4  11   8    5.10    3.70
   4  11   8    4.80    5.60
   4  11   8    4.10    5.30
   2 -12  -8    3.60    2.00
   2 -12  -8   -1.40    3.70
   2 -12  -8    4.60    3.70
  -2  12   8    6.70    4.30
  -2  12   8    0.90    5.00
   1 -12  -8    0.20    2.00
   1 -12  -8    0.70    3.40
   1 -12  -8   -3.90    3.20
  -1  12   8   -1.40    3.50
  -1  12   8   -1.30    4.60
   0 -12  -8   -0.10    3.40
   0 -12  -8    4.70    3.70
   0  12   8   -1.90    3.20
   0  12   8   -3.90    4.20
  -1 -12  -8   27.90    6.40
  -1 -12  -8   34.90    6.60
   1  12   8   34.10    8.70
  -2 -12  -8    4.00    3.70
  -2 -12  -8    0.00    3.30
   2  12   8   -0.30    3.20
   2  12   8   -3.00    4.20
   2  12   8   -2.90    2.10
  -3 -12  -8   38.80    6.80
  -3 -12  -8   31.70    6.40
   3  12   8   24.70    7.20
   3  12   8   33.20    6.10
   3  12   8   39.90    8.70
   1   7  -9    7.60    2.30
   1   7  -9    3.20    4.10
  -1  -7   9    2.20    2.90
  -1  -7   9    5.70    1.70
  -1  -7   9    7.30    3.20
   0   7  -9    9.80    2.70
   0   7  -9   13.60    4.80
   0  -7   9    4.90    3.50
   0  -7   9    4.90    2.10
   0  -7   9    7.50    3.40
  -1   7  -9   -0.60    3.10
  -1   7  -9    3.60    2.40
   1  -7   9   -3.30    2.20
   1  -7   9   -0.10    3.60
   1  -7   9   -1.20    2.20
  -2   7  -9    2.50    2.90
  -2   7  -9    3.00    3.10
  -2   7  -9    7.60    1.90
  -2   7  -9   10.70    2.60
  -2   7  -9    8.90    4.20
   2  -7   9    6.10    3.80
   2  -7   9    4.80    4.20
   2  -7   9    1.10    2.50
  -3   7  -9    3.20    2.90
  -3   7  -9    3.70    2.60
  -3   7  -9    0.50    1.60
  -3   7  -9    0.00    3.60
   3  -7   9   -1.30    4.00
   3  -7   9   -6.60    2.80
   3  -7   9   -1.30    3.30
   3   6  -9    9.20    4.70
  -3  -6   9   13.00    2.90
  -3  -6   9    5.70    1.00
  -3  -6   9    7.40    2.80
   2   6  -9   14.20    5.50
  -2  -6   9   21.50    2.70
  -2  -6   9   24.80    4.20
  -2  -6   9   18.90    3.90
  -2  -6   9   13.20    2.00
   1   6  -9   23.70    4.60
   1   6  -9   27.90    3.50
   1   6  -9   27.20    3.40
   1   6  -9   25.60    6.30
  -1  -6   9   26.20    4.80
  -1  -6   9   21.40    2.90
  -1  -6   9   26.00    5.00
  -1  -6   9   22.90    3.60
   0   6  -9    8.30    2.40
   0   6  -9    9.00    3.10
   0   6  -9    5.60    3.90
   0  -6   9    4.70    3.30
   0  -6   9    3.90    2.00
   0  -6   9    7.90    3.00
   0  -6   9   13.10    3.40
  -1   6  -9   49.90    5.50
  -1   6  -9   53.89    7.70
  -1   6  -9   44.80    5.90
   1  -6   9   38.50    5.20
   1  -6   9   38.50    6.00
   1  -6   9   40.20    7.00
  -2   6  -9   13.70    4.20
  -2   6  -9   14.00    3.10
  -2   6  -9   14.80    3.90
  -2   6  -9   13.60    2.60
   2  -6   9   11.10    4.20
   2  -6   9   14.90    3.70
  -3   6  -9   62.99    6.80
  -3   6  -9   81.29    6.70
  -3   6  -9   84.69    8.60
  -3   6  -9   75.19    7.10
   3  -6   9   69.69    9.10
   3  -6   9   54.09    9.60
   3  -6   9   64.89    7.50
  -4   6  -9    0.30    3.30
  -4   6  -9    2.10    2.70
  -4   6  -9   -2.80    1.50
   4  -6   9   -4.00    3.50
   4  -6   9   -2.30    2.50
   4  -6   9    1.80    3.40
   4   5  -9   92.49   12.80
  -4  -5   9  120.49    9.10
  -4  -5   9  128.99    9.60
  -4  -5   9  123.39    9.30
   3   5  -9   -4.00    3.60
  -3  -5   9    1.90    1.90
  -3  -5   9   -1.30    1.00
  -3  -5   9   -2.90    1.60
   2   5  -9  246.28   17.90
  -2  -5   9  199.68   14.90
  -2  -5   9  253.37   17.10
  -2  -5   9  240.88   16.90
  -2  -5   9  241.88   15.20
   1   5  -9    0.90    2.40
   1   5  -9    1.20    2.00
   1   5  -9    4.60    1.60
   1   5  -9    0.70    3.20
  -1  -5   9    3.10    2.40
  -1  -5   9    2.90    1.60
  -1  -5   9    1.50    2.10
   0   5  -9  298.87   20.90
   0   5  -9  322.97   22.50
   0   5  -9  289.37   20.10
   0   5  -9  303.07   20.90
   0  -5   9  291.47   21.70
   0  -5   9  294.57   19.70
   0  -5   9  271.67   20.40
  -1   5  -9   13.10    4.30
  -1   5  -9   10.60    3.10
  -1   5  -9   17.70    3.60
   1  -5   9   13.30    4.30
   1  -5   9   11.70    3.10
   1  -5   9   16.70    3.30
   1  -5   9   18.30    4.40
  -2   5  -9  279.07   20.40
  -2   5  -9  308.47   22.70
  -2   5  -9  300.37   19.70
  -2   5  -9  305.57   19.00
   2  -5   9  266.77   19.90
   2  -5   9  290.27   21.10
   2  -5   9  224.38   21.30
  -3   5  -9   36.00    4.90
  -3   5  -9   37.60    4.90
  -3   5  -9   39.80    4.90
  -3   5  -9   33.50    5.70
   3  -5   9   38.50    5.60
   3  -5   9   34.10    6.40
  -4   5  -9  110.79    8.40
  -4   5  -9  100.99   10.40
  -4   5  -9  117.29    9.80
  -4   5  -9  101.39    9.80
   4  -5   9   86.79   10.10
   4  -5   9   98.89    9.60
   4  -5   9   77.39   10.80
  -5   5  -9   33.40    6.70
   5  -5   9   23.40    6.00
   5  -5   9   20.80    6.10
  -5  -4   9   98.19    8.10
  -5  -4   9  118.59    7.70
  -5  -4   9  111.69    9.60
   4   4  -9   -1.20    3.60
  -4  -4   9    0.10    1.10
  -4  -4   9    0.80    1.30
  -4  -4   9   -1.70    1.40
   3   4  -9   68.09   15.80
  -3  -4   9   78.49    6.30
  -3  -4   9   83.59    6.70
  -3  -4   9   72.89    6.40
   2   4  -9    0.40    4.00
   2   4  -9    2.70    2.60
  -2  -4   9    5.80    2.10
  -2  -4   9    3.60    0.90
  -2  -4   9    1.70    0.80
  -2  -4   9    1.80    2.00
  -2  -4   9    2.60    0.70
   1   4  -9   97.89    8.90
   1   4  -9   94.29    6.90
   1   4  -9   99.09   10.20
   1   4  -9  101.29    7.00
  -1  -4   9   97.99    8.30
  -1  -4   9   80.99    8.20
  -1  -4   9   99.09    7.50
  -1  -4   9   85.69    7.30
   0   4  -9   56.99    7.50
   0   4  -9   65.49    6.60
   0   4  -9   63.99    5.30
   0   4  -9   62.59    5.50
   0  -4   9   46.10    6.40
   0  -4   9   57.29    5.30
   0  -4   9   53.19    6.20
   0  -4   9   56.69    5.90
  -1   4  -9   82.69    7.10
  -1   4  -9   79.59    7.00
  -1   4  -9   75.09    8.10
  -1   4  -9   63.39    7.20
   1  -4   9   71.89    6.70
   1  -4   9   57.79    7.50
   1  -4   9   72.29    7.30
  -2   4  -9   13.50    2.60
  -2   4  -9   12.10    3.30
  -2   4  -9   14.10    4.30
  -2   4  -9   16.10    3.20
  -2   4  -9   15.10    3.00
   2  -4   9   14.50    3.90
   2  -4   9   11.70    3.20
   2  -4   9   17.20    4.00
   2  -4   9   12.30    4.50
  -3   4  -9   -1.00    2.20
  -3   4  -9    4.70    2.30
  -3   4  -9    4.50    2.80
  -3   4  -9    1.10    2.20
   3  -4   9    0.00    3.40
   3  -4   9    3.30    3.00
   3  -4   9    3.00    2.60
  -4   4  -9   14.80    4.30
  -4   4  -9   23.30    4.90
  -4   4  -9   21.60    4.40
  -4   4  -9   18.30    3.40
   4  -4   9   15.90    5.30
   4  -4   9   19.20    5.10
   4  -4   9   18.40    4.80
  -5   4  -9    4.10    2.40
  -5   4  -9    4.60    3.60
  -5   4  -9    3.60    0.90
  -5   4  -9   -1.70    3.30
   5  -4   9    0.90    3.60
   5  -4   9    5.20    3.70
  -6   4  -9    9.10    4.20
  -6   4  -9   12.30    2.20
   6  -4   9   11.20    4.70
   6  -4   9    5.30    4.00
   6   3  -9   19.10   11.00
  -6  -3   9   16.40    4.10
  -5  -3   9   14.90    3.80
   4   3  -9    1.80    4.10
   4   3  -9    3.00    3.40
  -4  -3   9    8.30    1.50
  -4  -3   9    4.60    2.30
  -4  -3   9    6.50    1.30
   3   3  -9   21.20    7.30
   3   3  -9   23.20    4.80
  -3  -3   9   22.90    3.40
  -3  -3   9   25.40    2.90
  -3  -3   9   21.50    2.90
   2   3  -9   -2.10    2.70
   2   3  -9    0.30    2.20
  -2  -3   9   -1.10    1.40
  -2  -3   9   -1.30    1.30
  -2  -3   9    0.30    1.00
   1   3  -9   71.29    5.40
   1   3  -9   66.89    8.20
   1   3  -9   68.49    5.30
   1   3  -9   79.29    7.50
  -1  -3   9   66.49    6.40
  -1  -3   9   72.49    5.80
  -1  -3   9   73.49    5.40
  -1  -3   9   69.49    6.70
   0   3  -9    0.50    1.30
   0   3  -9    3.40    1.40
   0   3  -9    0.70    2.70
   0   3  -9    1.10    2.10
   0  -3   9   -0.20    1.90
   0  -3   9    0.50    1.40
   0  -3   9   -1.30    1.70
   0  -3   9    0.50    1.50
  -1   3  -9   75.39    6.80
  -1   3  -9   79.19    6.90
  -1   3  -9   82.49    7.10
  -1   3  -9   71.39    7.70
   1  -3   9   64.79    6.90
   1  -3   9   77.79    6.80
   1  -3   9   65.59    7.70
   1  -3   9   78.29    7.50
  -2   3  -9    4.00    2.80
  -2   3  -9    5.70    2.30
  -2   3  -9    1.60    1.70
  -2   3  -9    3.10    2.00
  -2   3  -9    7.20    2.70
   2  -3   9    8.80    2.90
   2  -3   9    2.00    2.50
   2  -3   9    5.50    2.50
   2  -3   9    1.70    2.70
  -3   3  -9  165.98   12.50
  -3   3  -9  180.28   13.00
  -3   3  -9  158.78   13.10
  -3   3  -9  183.98   12.40
   3  -3   9  134.39   14.20
   3  -3   9  160.48   13.60
   3  -3   9  157.08   12.90
  -4   3  -9    1.40    2.00
  -4   3  -9    1.20    2.80
  -4   3  -9    1.50    2.80
  -4   3  -9   -4.20    2.00
   4  -3   9   -1.70    3.00
   4  -3   9    3.70    2.40
   4  -3   9   -0.30    2.80
  -5   3  -9  260.47   15.70
  -5   3  -9  241.48   18.30
  -5   3  -9  250.67   18.90
   5  -3   9  188.48   25.70
   5  -3   9  234.08   19.10
   5  -3   9  208.88   17.80
  -6   3  -9    4.60    3.50
  -6   3  -9    1.20    2.40
  -6   3  -9   -3.60    5.20
   6  -3   9    1.80    3.40
  -7   3  -9  147.39   11.00
  -7   3  -9  149.09   13.60
  -7   3  -9  148.39   14.00
   7  -3   9  121.79   16.20
   7  -3   9  128.89   13.60
   6   2  -9   28.10   11.90
  -6  -2   9   22.60    1.90
  -6  -2   9   16.00    4.30
  -5  -2   9    1.80    2.30
   4   2  -9   78.59   10.30
   4   2  -9   88.19    9.00
  -4  -2   9   90.99    8.10
  -4  -2   9   94.69    5.80
  -4  -2   9   77.99    5.90
   3   2  -9   -2.40    2.50
   3   2  -9    1.30    2.60
  -3  -2   9   -0.30    1.00
  -3  -2   9   -0.10    1.10
   2   2  -9  171.88   13.30
   2   2  -9  160.28   14.50
  -2  -2   9  166.98   11.80
  -2  -2   9  171.88   11.70
  -2  -2   9  160.68   12.00
   1   2  -9    6.10    1.40
   1   2  -9    7.20    2.90
   1   2  -9    7.30    1.30
   1   2  -9    3.80    3.10
  -1  -2   9    5.40    2.10
  -1  -2   9    4.70    2.30
  -1  -2   9    3.80    1.50
  -1  -2   9    8.00    1.20
  -1  -2   9    3.50    1.20
  -1  -2   9    5.50    1.50
   0   2  -9  336.27   23.80
   0   2  -9  352.16   22.90
   0   2  -9  335.47   22.10
   0   2  -9  346.87   22.00
   0  -2   9  294.77   22.50
   0  -2   9  353.96   31.00
   0  -2   9  324.17   22.00
   0  -2   9  336.67   22.30
  -1   2  -9    8.90    1.30
  -1   2  -9    9.40    2.30
  -1   2  -9    8.90    1.20
  -1   2  -9    5.00    2.50
  -1   2  -9    6.40    3.10
   1  -2   9    8.90    2.60
   1  -2   9    8.30    2.70
   1  -2   9    5.50    5.20
   1  -2   9    8.00    2.50
   1  -2   9    7.90    3.10
  -2   2  -9  419.96   28.70
  -2   2  -9  438.76   29.10
  -2   2  -9  441.26   28.20
  -2   2  -9  481.65   29.60
  -2   2  -9  470.15   28.50
  -2   2  -9  430.96   27.80
   2  -2   9  347.07   29.70
   2  -2   9  423.96   29.80
   2  -2   9  434.66   29.20
   2  -2   9  398.16   29.30
  -3   2  -9   52.89    6.00
  -3   2  -9   54.69   10.40
  -3   2  -9   66.39    5.90
  -3   2  -9   48.00    5.50
   3  -2   9   49.50    6.80
   3  -2   9   50.89    6.70
   3  -2   9   48.00    8.00
   3  -2   9   51.69    6.40
  -4   2  -9  442.26   29.00
  -4   2  -9  409.46   28.00
  -4   2  -9  424.66   29.40
  -4   2  -9  447.86   26.20
   4  -2   9  332.77   29.70
   4  -2   9  416.96   29.10
   4  -2   9  393.06   28.30
  -5   2  -9   71.29    8.40
  -5   2  -9   63.09    7.70
  -5   2  -9   71.99    5.70
   5  -2   9   61.39    8.90
   5  -2   9   70.19    7.80
  -6   2  -9  167.08   11.80
  -6   2  -9  164.58   14.00
  -6   2  -9  155.78   14.20
   6  -2   9  142.29   14.10
   6  -2   9  168.58   17.70
  -7   2  -9   47.40    5.60
  -7   2  -9   51.49    8.30
  -7   2  -9   43.60    9.00
   7  -2   9   51.39   10.70
   7  -2   9   47.70    8.20
   6   1  -9    1.10    6.60
  -6  -1   9    1.90    2.90
  -6  -1   9   -2.10    1.00
  -6  -1   9    3.80    1.20
   5   1  -9  249.97   20.30
  -5  -1   9  253.27   20.10
  -5  -1   9  269.07   17.50
  -5  -1   9  294.27   17.10
   4   1  -9    2.50    2.80
   4   1  -9    2.10    6.10
  -4  -1   9    4.80    1.00
  -4  -1   9    7.40    1.50
  -4  -1   9    2.80    2.10
   3   1  -9  475.85   35.00
   3   1  -9  490.85   33.60
  -3  -1   9  501.65   32.90
  -3  -1   9  500.85   32.00
  -3  -1   9  511.35   31.30
   2   1  -9   18.20    3.90
   2   1  -9   16.30    4.90
  -2  -1   9   23.10    1.60
  -2  -1   9   19.60    3.20
  -2  -1   9   18.40    1.60
  -2  -1   9   17.80    2.50
  -2  -1   9   12.80    8.00
   1   1  -9 1020.40   64.59
   1   1  -9 1095.49   67.39
   1   1  -9 1067.39   66.29
   1   1  -9 1094.09   64.79
  -1  -1   9 1053.79   64.79
  -1  -1   9  981.60   74.69
  -1  -1   9 1122.59   64.79
  -1  -1   9  892.01   65.79
   0   1  -9   27.20    3.20
   0   1  -9   28.50    3.70
   0   1  -9   31.30    5.40
   0   1  -9   24.40    4.10
   0  -1   9   23.70    4.40
   0  -1   9   25.70    2.60
   0  -1   9   25.60    3.80
   0  -1   9   27.10    3.60
   0  -1   9   24.20    3.40
   0  -1   9   24.40    8.00
  -1   1  -9  529.35   31.70
  -1   1  -9  503.25   32.30
  -1   1  -9  488.45   30.10
  -1   1  -9  466.05   31.70
  -1   1  -9  496.65   30.40
  -1   1  -9  489.45   31.40
   1  -1   9  476.15   31.50
   1  -1   9  430.76   32.60
   1  -1   9  468.65   30.10
   1  -1   9  493.55   31.70
   1  -1   9  442.86   31.80
  -2   1  -9  254.87   17.00
  -2   1  -9  261.07   16.20
  -2   1  -9  226.48   16.20
  -2   1  -9  227.58   16.10
  -2   1  -9  233.68   16.70
  -2   1  -9  239.18   15.40
   2  -1   9  203.38   16.50
   2  -1   9  226.38   16.50
   2  -1   9  230.48   16.50
   2  -1   9  182.18   17.10
   2  -1   9  208.38   14.70
  -3   1  -9  157.38   12.10
  -3   1  -9  140.79   11.80
  -3   1  -9  154.68   11.80
  -3   1  -9  148.29   10.90
   3  -1   9  138.69   11.70
   3  -1   9  123.49   11.50
   3  -1   9  128.19    9.70
   3  -1   9  140.99   11.40
  -4   1  -9  213.18   16.50
  -4   1  -9  239.48   15.00
  -4   1  -9  247.28   17.30
   4  -1   9  220.68   17.40
   4  -1   9  212.48   16.80
   4  -1   9  209.68   19.50
  -5   1  -9   77.99    8.20
  -5   1  -9   76.99    8.50
  -5   1  -9   80.99    6.90
   5  -1   9   85.79   10.70
   5  -1   9   65.89    6.70
   5  -1   9   67.69    7.90
   5  -1   9   76.49   10.00
  -6   1  -9   18.10    3.30
  -6   1  -9    9.60    4.50
   6  -1   9   16.60    7.60
  -7   1  -9   19.00    6.00
  -7   1  -9   27.80    5.90
  -7   1  -9   13.30    3.30
   7  -1   9   14.70    4.50
   7  -1   9   19.80    6.80
  -8   1  -9   12.00    3.70
  -8   1  -9    8.70    4.60
  -8   1  -9   17.50    5.10
   8  -1   9   26.10    6.30
   8  -1   9   15.70    6.90
   7   0  -9   18.70    9.70
  -7   0   9    7.60    2.60
  -7   0   9   14.30    2.60
  -7   0   9   10.20    4.50
   6   0  -9   75.79   15.60
  -6   0   9   44.30    7.10
  -6   0   9   46.40    4.50
  -6   0   9   43.90    4.20
   5   0  -9    6.40    7.80
   5   0  -9    2.90    3.10
  -5   0   9    1.20    2.80
  -5   0   9    1.80    1.60
  -5   0   9    0.00    1.00
   4   0  -9   55.59    8.50
   4   0  -9   57.29    7.00
  -4   0   9   63.99    5.30
  -4   0   9   58.39    4.40
  -4   0   9   62.39    6.90
   3   0  -9    2.50    3.50
   3   0  -9    3.50    2.80
  -3   0   9    2.20    4.30
  -3   0   9    5.60    1.80
  -3   0   9    4.20    1.20
   2   0  -9    6.60    3.60
   2   0  -9    6.10    2.50
   2   0  -9    8.90    1.00
  -2   0   9    7.60    1.20
  -2   0   9    5.70    6.20
  -2   0   9    7.20    1.70
  -2   0   9   11.50    1.50
  -2   0   9   11.80    2.60
   1   0  -9   20.50    3.70
   1   0  -9   19.00    4.40
   1   0  -9   18.40    2.60
   1   0  -9   16.20    3.00
  -1   0   9   16.00    2.30
  -1   0   9   14.80    2.40
  -1   0   9   16.70    7.10
  -1   0   9   11.00    3.20
   0   0  -9    0.40    1.30
   0   0  -9    0.30    1.10
   0   0  -9    0.20    2.20
   0   0  -9   -0.60    1.70
   0   0   9    2.10    1.60
   0   0   9    0.50    1.40
   0   0   9    0.10    1.10
   0   0   9   -0.40    1.30
   0   0   9   -0.20    2.00
  -1   0  -9   44.90    5.00
  -1   0  -9   49.10    5.70
  -1   0  -9   49.40    5.30
  -1   0  -9   56.79    5.70
  -1   0  -9   50.89    4.10
  -1   0  -9   47.60    4.60
   1   0   9   44.70    5.20
   1   0   9   43.40    5.10
   1   0   9   47.90    6.40
   1   0   9   63.69    4.50
   1   0   9   58.29    5.40
  -2   0  -9   48.20    8.10
  -2   0  -9   51.29    4.70
  -2   0  -9   51.59    5.60
  -2   0  -9   52.89    5.80
  -2   0  -9   49.10    5.30
   2   0   9   45.10    4.20
   2   0   9   46.20    6.80
   2   0   9   57.59    7.30
   2   0   9   41.70    5.30
   2   0   9   33.00    5.30
  -3   0  -9   20.30    4.20
  -3   0  -9   15.30    3.60
  -3   0  -9   14.80    2.30
  -3   0  -9   13.30    3.80
  -3   0  -9   17.20    3.30
   3   0   9   16.50    3.80
   3   0   9   20.70    4.40
   3   0   9   19.90    5.30
   3   0   9   16.70    3.00
   3   0   9   24.00    4.40
  -4   0  -9   25.20    4.40
  -4   0  -9   23.50    4.60
  -4   0  -9   27.10    3.20
   4   0   9   19.30    3.40
   4   0   9   22.60    6.30
   4   0   9   18.90    4.70
   4   0   9   25.60    5.10
   4   0   9   18.30    4.00
  -5   0  -9    8.50    3.40
  -5   0  -9   13.40    3.80
  -5   0  -9   11.60    2.60
   5   0   9    9.60    3.40
   5   0   9    8.20    2.60
   5   0   9    7.30    4.50
   5   0   9    8.90    3.60
  -6   0  -9   23.10    5.40
  -6   0  -9   29.80    4.10
  -6   0  -9   22.30    5.50
   6   0   9   24.10    4.30
   6   0   9   29.00    5.90
   6   0   9   21.80    7.20
  -7   0  -9   47.50    7.40
  -7   0  -9   49.90    5.70
  -7   0  -9   54.69    8.20
   7   0   9   30.30    6.50
   7   0   9   26.90    5.20
   7   0   9   42.10    9.40
  -8   0  -9   28.70    6.50
  -8   0  -9   20.90    6.70
   8   0   9   19.50    7.90
   8   0   9   24.80    5.90
   7  -1  -9    4.60    7.20
  -7   1   9    1.20    2.30
  -7   1   9    8.50    2.60
  -7   1   9    7.90    4.00
   6  -1  -9    2.70    6.30
   6  -1  -9   -0.30    2.80
  -6   1   9    2.40    1.90
  -6   1   9   -0.60    1.60
   5  -1  -9    3.60    6.60
   5  -1  -9    4.30    2.90
  -5   1   9   -0.50    2.20
  -5   1   9    2.10    1.80
  -5   1   9    1.10    1.40
   4  -1  -9   29.40    6.10
   4  -1  -9   23.70    4.90
  -4   1   9   35.50    4.20
  -4   1   9   34.40    3.20
   3  -1  -9   64.19    7.90
   3  -1  -9   71.59    6.90
  -3   1   9   57.99   12.80
  -3   1   9   69.39    6.20
  -3   1   9   73.29    7.70
  -3   1   9   70.89    5.00
  -3   1   9   60.19    4.60
  -3   1   9   55.99    4.40
   2  -1  -9  160.98   10.00
   2  -1  -9  145.99   11.50
   2  -1  -9  127.89    9.70
   2  -1  -9  148.39   12.60
  -2   1   9  123.49   19.90
  -2   1   9  127.29    9.70
  -2   1   9  167.78   11.90
  -2   1   9  159.58   10.20
  -2   1   9  151.08   10.10
  -2   1   9  141.69   11.30
   1  -1  -9    4.00    2.20
   1  -1  -9    2.50    2.60
   1  -1  -9    4.30    1.70
  -1   1   9    2.80    1.50
  -1   1   9   -2.20    3.40
  -1   1   9    3.00    1.30
  -1   1   9    1.50    1.40
  -1   1   9    4.30    1.70
  -1   1   9   -0.90    1.80
   0  -1  -9  363.46   24.20
   0  -1  -9  346.57   23.50
   0  -1  -9  358.36   23.50
   0  -1  -9  330.27   22.90
   0   1   9  346.57   23.00
   0   1   9  335.67   24.80
   0   1   9  380.36   30.10
   0   1   9  370.96   22.90
   0   1   9  331.47   23.30
   0   1   9  342.37   23.20
  -1  -1  -9   63.99    6.20
  -1  -1  -9   62.69    4.90
  -1  -1  -9   56.69    6.20
  -1  -1  -9   61.09    5.70
  -1  -1  -9   63.09    5.70
   1   1   9   55.59    5.90
   1   1   9   61.89    5.90
   1   1   9   57.99    5.90
   1   1   9   64.79    7.40
  -2  -1  -9  460.05   31.90
  -2  -1  -9  479.95   31.20
  -2  -1  -9  473.75   32.50
  -2  -1  -9  532.35   31.50
  -2  -1  -9  492.15   31.10
   2   1   9  419.66   31.30
   2   1   9  449.36   31.40
   2   1   9  460.15   33.50
   2   1   9  475.55   31.40
   2   1   9  467.05   30.40
  -3  -1  -9    1.70    2.20
  -3  -1  -9    8.40    3.00
  -3  -1  -9    3.40    3.20
  -3  -1  -9    3.10    1.50
   3   1   9    5.30    3.90
   3   1   9    4.80    2.40
   3   1   9    4.30    1.80
  -4  -1  -9  679.63   42.40
  -4  -1  -9  691.23   45.30
  -4  -1  -9  708.53   41.40
  -4  -1  -9  661.13   42.90
   4   1   9  640.94   42.90
   4   1   9  590.54   41.80
   4   1   9  614.04   43.20
   4   1   9  647.84   45.80
   4   1   9  603.24   42.80
  -5  -1  -9   29.30    5.40
  -5  -1  -9   29.50    5.10
  -5  -1  -9   32.10    4.10
   5   1   9   35.30    7.80
   5   1   9   26.40    5.40
   5   1   9   36.30    4.80
   5   1   9   25.80    4.90
  -6  -1  -9  176.88   14.10
  -6  -1  -9  190.78   12.90
  -6  -1  -9  174.68   14.50
   6   1   9  128.89   12.80
   6   1   9  171.98   17.20
  -7  -1  -9  112.49   11.30
  -7  -1  -9  104.39   11.20
  -7  -1  -9  110.89    9.70
   7   1   9   95.19   11.00
   7   1   9  118.59   14.10
  -8  -1  -9   77.59   10.60
  -8  -1  -9   83.09    8.40
  -8  -1  -9   80.59    9.80
   8   1   9   76.69   13.40
   8   1   9   70.39   10.30
   7  -2  -9   46.70   12.80
  -7   2   9   45.90    5.50
  -7   2   9   38.20    5.10
  -7   2   9   40.60    7.60
   6  -2  -9    3.90    6.30
   6  -2  -9    6.10    3.20
  -6   2   9    3.80    2.90
  -6   2   9    5.60    2.20
  -6   2   9    5.30    1.10
  -6   2   9   -0.90    3.00
  -6   2   9    8.90    1.40
  -5   2   9  122.39    8.80
  -5   2   9  121.29   10.40
  -5   2   9  112.39    8.10
  -5   2   9  118.69    8.10
   4  -2  -9   56.99    4.40
   4  -2  -9   58.99    4.30
   4  -2  -9   69.49    7.10
  -4   2   9   50.89   11.50
  -4   2   9   64.19    5.10
  -4   2   9   54.59    4.70
  -4   2   9   63.69    6.60
  -4   2   9   63.39    4.70
   3  -2  -9  317.17   24.90
   3  -2  -9  367.96   22.40
   3  -2  -9  338.17   22.20
   3  -2  -9  336.77   24.10
  -3   2   9  388.76   25.20
  -3   2   9  348.27   22.30
  -3   2   9  373.06   22.60
  -3   2   9  338.87   24.00
  -3   2   9  312.07   32.80
   2  -2  -9  240.78   17.10
   2  -2  -9  248.58   16.10
   2  -2  -9  222.38   17.80
  -2   2   9  249.88   16.00
  -2   2   9  188.58   23.40
  -2   2   9  219.18   15.70
  -2   2   9  266.07   17.60
  -2   2   9  264.87   16.00
  -2   2   9  226.68   17.30
   1  -2  -9  503.65   34.20
   1  -2  -9  494.35   33.00
   1  -2  -9  501.35   32.70
   1  -2  -9  513.75   33.50
  -1   2   9  524.05   32.90
  -1   2   9  508.35   32.90
  -1   2   9  495.75   34.50
  -1   2   9  515.45   32.80
  -1   2   9  512.55   32.50
  -1   2   9  532.45   41.00
   0  -2  -9  945.31   64.79
   0  -2  -9 1091.19   66.09
   0  -2  -9  986.60   65.09
   0  -2  -9 1109.99   64.39
   0  -2  -9 1032.00   65.59
   0  -2  -9 1013.00   65.49
   0   2   9  996.60   65.39
   0   2   9 1022.30   64.99
   0   2   9 1169.18   65.29
   0   2   9  999.70   65.29
  -1  -2  -9  401.76   25.40
  -1  -2  -9  380.96   26.70
  -1  -2  -9  387.76   26.20
  -1  -2  -9  418.06   26.60
   1   2   9  365.56   26.30
   1   2   9  412.16   26.00
   1   2   9  384.66   26.40
   1   2   9  406.96   26.20
   1   2   9  387.36   28.30
  -2  -2  -9  640.04   40.70
  -2  -2  -9  667.33   40.00
  -2  -2  -9  644.04   41.50
  -2  -2  -9  706.93   40.70
  -2  -2  -9  582.34   41.50
   2   2   9  618.24   40.20
   2   2   9  608.54   40.70
   2   2   9  564.24   40.80
   2   2   9  613.84   43.10
   2   2   9  600.94   40.80
  -3  -2  -9  588.64   38.30
  -3  -2  -9  603.54   36.50
  -3  -2  -9  580.94   37.60
  -3  -2  -9  548.25   38.90
  -3  -2  -9  587.54   37.00
   3   2   9  550.24   37.00
   3   2   9  518.75   39.20
   3   2   9  541.65   40.10
   3   2   9  576.54   37.90
   3   2   9  591.44   37.90
  -4  -2  -9  296.37   25.20
  -4  -2  -9  379.26   23.00
  -4  -2  -9  360.96   23.80
  -4  -2  -9  353.76   24.90
  -4  -2  -9  383.16   24.50
   4   2   9  312.97   23.30
   4   2   9  323.27   24.50
   4   2   9  366.96   24.50
   4   2   9  327.17   26.80
   4   2   9  333.57   24.30
  -5  -2  -9   32.20    4.30
  -5  -2  -9   29.70    5.50
  -5  -2  -9   29.40    5.00
   5   2   9   30.80    5.90
   5   2   9   25.70    4.50
   5   2   9   31.60    7.40
   5   2   9   32.40    5.60
  -6  -2  -9  293.37   19.40
  -6  -2  -9  290.47   20.90
  -6  -2  -9  300.87   20.80
   6   2   9  236.88   19.60
   6   2   9  271.77   21.10
   6   2   9  230.68   23.20
  -7  -2  -9    8.10    4.20
  -7  -2  -9    6.70    3.90
  -7  -2  -9    9.90    3.10
   7   2   9    7.70    5.10
  -8  -2  -9  141.29   13.40
  -8  -2  -9  149.99   16.30
  -8  -2  -9  147.99   13.90
   8   2   9  128.99   13.50
   8   2   9  142.69   16.50
   7  -3  -9    8.90    1.90
   7  -3  -9    8.40    7.00
  -7   3   9    9.10    3.30
  -7   3   9   10.10    2.40
  -7   3   9    9.30    2.40
  -7   3   9    4.30    3.90
  -7   3   9    4.50    3.00
   6  -3  -9  186.58   15.50
   6  -3  -9  180.08   12.60
   6  -3  -9  237.08   23.30
   6  -3  -9  171.88   12.80
  -6   3   9  193.38   13.20
  -6   3   9  195.68   13.80
  -6   3   9  170.78   13.10
  -6   3   9  206.48   15.60
   5  -3  -9   11.00    2.10
   5  -3  -9    7.00    3.70
   5  -3  -9   12.10    2.00
  -5   3   9    7.80    2.20
  -5   3   9   13.20    3.70
  -5   3   9    9.20    2.60
  -5   3   9   11.50    2.30
   4  -3  -9  376.66   23.50
   4  -3  -9  375.56   25.50
   4  -3  -9  336.97   23.50
  -4   3   9  384.96   23.80
  -4   3   9  382.56   23.80
  -4   3   9  364.16   25.90
  -4   3   9  315.57   36.10
  -4   3   9  351.76   23.50
   3  -3  -9   86.79    6.60
   3  -3  -9   63.59    8.30
   3  -3  -9   73.79    7.70
  -3   3   9   91.19    8.10
  -3   3   9   71.49   13.10
  -3   3   9   86.79    6.60
  -3   3   9   86.29    8.40
  -3   3   9   85.49    6.70
  -3   3   9   83.39    6.60
   2  -3  -9  502.55   32.70
   2  -3  -9  446.06   33.10
   2  -3  -9  506.95   31.80
  -2   3   9  512.05   31.80
  -2   3   9  525.15   31.60
  -2   3   9  460.35   40.30
  -2   3   9  510.35   32.60
  -2   3   9  474.75   33.40
  -2   3   9  469.65   31.50
   1  -3  -9    4.70    1.10
   1  -3  -9    5.70    2.00
   1  -3  -9    7.40    2.00
   1  -3  -9    3.40    2.30
   1  -3  -9    7.80    3.10
   1  -3  -9    4.80    1.30
  -1   3   9    4.80    2.00
  -1   3   9    6.40    2.10
  -1   3   9    7.50    4.90
  -1   3   9    6.00    2.00
  -1   3   9    8.20    2.00
   0  -3  -9  186.28   14.90
   0  -3  -9  223.98   15.20
   0  -3  -9  201.28   15.20
   0  -3  -9  230.18   14.20
   0  -3  -9  196.18   14.80
   0  -3  -9  199.38   14.70
   0   3   9  215.58   14.90
   0   3   9  206.58   15.00
   0   3   9  234.68   14.90
   0   3   9  205.88   14.50
   0   3   9  203.48   16.60
  -1  -3  -9    5.20    1.80
  -1  -3  -9    6.30    2.50
  -1  -3  -9    3.50    2.20
  -1  -3  -9    4.30    2.20
  -1  -3  -9    5.40    2.20
   1   3   9    5.00    2.20
   1   3   9    2.70    1.80
   1   3   9    3.90    3.10
   1   3   9    3.30    2.20
   1   3   9    5.30    2.30
  -2  -3  -9   21.30    3.40
  -2  -3  -9   23.00    3.60
  -2  -3  -9   29.20    4.50
  -2  -3  -9   16.90    4.40
   2   3   9   22.90    3.80
   2   3   9   20.10    5.30
   2   3   9   28.40    4.60
   2   3   9   25.60    4.40
   2   3   9   23.90    4.10
  -3  -3  -9   59.99    6.70
  -3  -3  -9   60.59    6.00
  -3  -3  -9   41.20    7.10
  -3  -3  -9   56.49    6.30
  -3  -3  -9   67.99    5.60
   3   3   9   51.89    6.20
   3   3   9   54.39    5.80
   3   3   9   51.99    8.80
   3   3   9   50.59    6.20
   3   3   9   51.79    6.90
  -4  -3  -9    1.10    2.60
  -4  -3  -9    5.20    2.70
  -4  -3  -9    6.10    3.40
  -4  -3  -9    4.20    3.00
  -4  -3  -9    8.90    2.50
   4   3   9    8.40    4.50
   4   3   9    3.40    2.60
   4   3   9    9.10    3.40
   4   3   9    3.10    2.30
   4   3   9   12.10    3.10
  -5  -3  -9    4.60    2.30
  -5  -3  -9   -0.30    2.40
  -5  -3  -9    7.10    3.50
   5   3   9    4.70    4.10
   5   3   9    0.70    2.20
   5   3   9   -1.00    2.70
   5   3   9   11.40    3.80
  -6  -3  -9    2.50    5.30
  -6  -3  -9    6.20    2.70
  -6  -3  -9    2.20    3.00
   6   3   9   -2.60    2.70
   6   3   9    2.50    4.20
  -7  -3  -9   41.20   11.10
  -7  -3  -9   31.30    5.20
  -7  -3  -9   29.20    5.80
   7   3   9   27.70    7.40
   7   3   9   36.10    9.90
  -8  -3  -9    2.60    3.40
  -8  -3  -9    4.20    3.70
  -8  -3  -9    0.70    3.70
   8   3   9    5.10    4.90
   8   3   9   -3.00    3.10
   7  -4  -9    6.80    2.20
   7  -4  -9    5.90    6.70
  -7   4   9    5.70    4.40
  -7   4   9    5.10    3.60
  -7   4   9    4.10    2.00
  -7   4   9    2.10    2.80
   6  -4  -9    3.70    6.10
  -6   4   9    9.50    2.50
  -6   4   9    2.90    2.70
  -6   4   9    3.90    2.00
  -6   4   9    4.50    3.40
   5  -4  -9    5.00    3.10
   5  -4  -9    1.50    1.60
   5  -4  -9    0.40    1.30
  -5   4   9    2.00    2.10
  -5   4   9   -0.80    1.50
  -5   4   9    2.30    1.80
  -5   4   9   -1.00    2.30
   4  -4  -9   77.99    7.10
   4  -4  -9   75.89    8.20
   4  -4  -9   84.19    7.40
  -4   4   9   91.89    9.30
  -4   4   9   91.59    7.30
  -4   4   9   83.09    7.10
  -4   4   9   93.29    7.20
  -4   4   9   73.89   12.70
   3  -4  -9   33.30    3.90
   3  -4  -9   35.70    4.70
   3  -4  -9   44.20    5.80
  -3   4   9   48.90    5.50
  -3   4   9   32.80    4.50
  -3   4   9   36.90    4.30
  -3   4   9   37.00    6.20
  -3   4   9   37.30   10.00
  -3   4   9   41.50    4.30
   2  -4  -9   -2.10    1.70
   2  -4  -9    0.10    0.80
   2  -4  -9   -0.30    1.50
   2  -4  -9    0.40    0.90
   2  -4  -9   -0.20    2.20
   2  -4  -9   -2.20    1.30
  -2   4   9    6.20    3.00
  -2   4   9    0.80    1.90
  -2   4   9    1.20    3.90
  -2   4   9    1.40    1.70
  -2   4   9   -1.20    1.40
  -2   4   9    0.40    1.70
   1  -4  -9  101.89    8.50
   1  -4  -9  100.69    7.70
   1  -4  -9   94.19    8.90
   1  -4  -9   89.29    8.20
   1  -4  -9  104.19    8.40
   1  -4  -9  103.49    8.30
  -1   4   9  112.29   13.70
  -1   4   9  107.89    8.10
  -1   4   9  113.39    8.20
  -1   4   9  102.79    8.30
  -1   4   9   90.09    8.30
  -1   4   9   93.09    9.90
  -1   4   9  115.09    8.70
   0  -4  -9  111.19    9.40
   0  -4  -9  117.89    9.20
   0  -4  -9  123.09    8.70
   0   4   9  102.09    8.70
   0   4   9  106.59    9.20
   0   4   9  107.19    9.00
   0   4   9  111.49   11.10
   0   4   9  131.19    9.30
  -1  -4  -9  101.89    8.20
  -1  -4  -9   95.69    8.40
  -1  -4  -9   80.79    8.40
  -1  -4  -9  108.39    7.80
   1   4   9   99.19    8.40
   1   4   9  100.59    8.20
   1   4   9   85.69    8.30
   1   4   9  101.09    8.40
   1   4   9   93.39   10.40
  -2  -4  -9  246.98   16.10
  -2  -4  -9  221.18   15.90
  -2  -4  -9  238.08   17.00
  -2  -4  -9  245.48   16.00
  -2  -4  -9  226.48   17.00
   2   4   9  251.07   16.80
   2   4   9  216.58   16.50
   2   4   9  222.38   19.10
   2   4   9  208.98   16.70
   2   4   9  211.18   16.70
  -3  -4  -9   60.99    7.80
  -3  -4  -9   73.39    6.30
  -3  -4  -9   61.09    7.10
  -3  -4  -9   62.79    7.20
  -3  -4  -9   80.89    6.80
   3   4   9   57.09    9.60
   3   4   9   76.09    7.40
   3   4   9   68.09    6.80
   3   4   9   66.99    7.20
   3   4   9   54.39    7.50
  -4  -4  -9  175.78   11.60
  -4  -4  -9  145.59   12.30
  -4  -4  -9  118.99   13.00
  -4  -4  -9  179.88   15.10
  -4  -4  -9  137.09   13.50
   4   4   9  139.49   12.40
   4   4   9  153.38   12.40
   4   4   9  132.39   14.60
   4   4   9  135.89   15.60
  -5  -4  -9  387.06   23.90
  -5  -4  -9  368.86   24.40
  -5  -4  -9  354.76   24.80
   5   4   9  330.07   25.20
   5   4   9  326.77   24.60
   5   4   9  354.56   28.10
   5   4   9  287.97   24.00
  -6  -4  -9  325.97   23.60
  -6  -4  -9  308.37   22.90
  -6  -4  -9  329.07   22.40
   6   4   9  322.87   23.60
   6   4   9  293.67   26.20
  -7  -4  -9  220.48   18.50
  -7  -4  -9  246.08   18.40
  -7  -4  -9  234.98   17.60
   7   4   9  223.58   21.60
   7   4   9  218.58   20.10
  -8  -4  -9  108.29   10.60
  -8  -4  -9  127.89   12.20
  -8  -4  -9  103.59   11.30
   8   4   9   96.09   11.20
   8   4   9  105.19   13.80
   7  -5  -9    0.80    5.70
   7  -5  -9    3.30    2.30
  -7   5   9    0.30    2.20
  -7   5   9   -0.70    2.30
  -7   5   9   -1.50    3.00
   6  -5  -9    5.70    2.50
   6  -5  -9   10.80    4.00
  -6   5   9    7.20    3.50
  -6   5   9   10.50    3.00
  -6   5   9   14.30    4.60
  -6   5   9    6.00    3.00
   5  -5  -9    4.30    2.50
   5  -5  -9    1.50    2.20
  -5   5   9    2.60    2.40
  -5   5   9    5.80    2.60
  -5   5   9    6.50    2.70
  -5   5   9   12.20    4.00
   4  -5  -9   62.09    6.70
   4  -5  -9   50.09    5.10
   4  -5  -9   48.40    5.60
  -4   5   9   48.40    5.70
  -4   5   9   59.29    7.50
  -4   5   9   49.40    9.60
  -4   5   9   52.59    5.80
  -4   5   9   62.19    5.60
   3  -5  -9   21.00    2.60
   3  -5  -9   24.30    4.40
   3  -5  -9   23.10    3.50
   3  -5  -9   21.80    3.90
  -3   5   9   24.70    3.90
  -3   5   9   20.70    3.90
  -3   5   9   22.70    4.10
  -3   5   9   25.20    5.70
  -3   5   9   22.30    3.70
  -3   5   9   17.80    6.70
   2  -5  -9   37.00    5.20
   2  -5  -9   32.20    4.40
   2  -5  -9   28.80    4.70
   2  -5  -9   27.90    3.70
   2  -5  -9   38.10    5.10
  -2   5   9   35.80    8.90
  -2   5   9   39.60    4.30
  -2   5   9   37.50    4.70
  -2   5   9   48.00    7.20
  -2   5   9   38.30    5.00
  -2   5   9   41.00    4.70
   1  -5  -9  215.28   14.90
   1  -5  -9  194.28   14.70
   1  -5  -9  188.98   15.70
   1  -5  -9  201.48   14.40
   1  -5  -9  186.68   14.70
   1  -5  -9  173.28   14.80
  -1   5   9  194.28   16.80
  -1   5   9  218.08   14.70
  -1   5   9  201.78   14.60
  -1   5   9  231.58   20.30
  -1   5   9  223.08   14.90
  -1   5   9  215.38   14.50
  -1   5   9  205.18   14.80
   0  -5  -9  212.98   15.90
   0  -5  -9  231.08   16.10
   0  -5  -9  213.88   17.40
   0  -5  -9  259.87   15.80
   0  -5  -9  194.08   16.00
   0   5   9  232.28   16.00
   0   5   9  223.78   15.90
   0   5   9  231.08   15.70
   0   5   9  212.48   18.10
   0   5   9  204.98   16.00
  -1  -5  -9  298.47   21.60
  -1  -5  -9  286.07   23.00
  -1  -5  -9  324.47   20.80
  -1  -5  -9  307.57   21.60
   1   5   9  283.37   21.30
   1   5   9  295.37   23.70
   1   5   9  340.07   21.60
   1   5   9  301.57   20.90
   1   5   9  311.77   21.40
  -2  -5  -9  287.17   22.90
  -2  -5  -9  306.67   20.20
  -2  -5  -9  298.77   20.90
  -2  -5  -9  311.87   20.70
  -2  -5  -9  298.07   20.10
  -2  -5  -9  300.57   21.30
   2   5   9  294.07   21.10
   2   5   9  269.77   20.80
   2   5   9  311.97   20.70
   2   5   9  284.97   23.40
   2   5   9  267.27   20.70
  -3  -5  -9  222.98   16.60
  -3  -5  -9  223.08   15.80
  -3  -5  -9  198.08   18.40
  -3  -5  -9  241.08   15.30
  -3  -5  -9  225.88   15.60
  -3  -5  -9  224.58   17.00
   3   5   9  194.58   16.40
   3   5   9  209.18   16.60
   3   5   9  217.88   16.30
   3   5   9  211.38   16.40
   3   5   9  219.18   19.30
  -4  -5  -9  469.25   29.10
  -4  -5  -9  474.25   29.50
  -4  -5  -9  436.36   30.00
  -4  -5  -9  411.16   32.80
   4   5   9  439.56   33.30
   4   5   9  367.96   29.70
   4   5   9  462.55   30.00
   4   5   9  394.66   29.70
  -5  -5  -9  106.19    9.50
  -5  -5  -9   96.99   10.00
  -5  -5  -9   97.39    9.00
   5   5   9   95.49   12.50
  -6  -5  -9  234.38   18.60
  -6  -5  -9  261.07   18.40
   6   5   9  230.08   22.30
   6   5   9  258.37   20.50
  -7  -5  -9   11.00    3.90
  -7  -5  -9    9.80    4.10
  -7  -5  -9   23.90    5.50
  -8  -5  -9   62.19    9.40
  -8  -5  -9   84.69    9.20
  -8  -5  -9   88.79   10.10
   8   5   9   77.89   10.40
   8   5   9   78.79   13.30
   6  -6  -9   89.89    9.10
   6  -6  -9  102.49   10.10
  -6   6   9  110.39   11.80
  -6   6   9   86.69    9.90
  -6   6   9  111.49    9.50
   5  -6  -9  121.59   10.50
   5  -6  -9  124.19   11.10
  -5   6   9  144.49   13.50
  -5   6   9  135.19   10.80
  -5   6   9   97.79   11.20
   4  -6  -9  280.37   21.90
   4  -6  -9  326.57   22.70
   4  -6  -9  328.47   23.40
   4  -6  -9  313.77   23.50
  -4   6   9  327.57   23.40
  -4   6   9  357.56   23.60
  -4   6   9  358.16   26.10
  -4   6   9  369.46   23.20
  -4   6   9  394.26   27.60
   3  -6  -9  177.88   14.40
   3  -6  -9  160.98   14.10
   3  -6  -9  169.68   13.60
  -3   6   9  186.18   18.40
  -3   6   9  185.78   14.40
  -3   6   9  204.78   14.00
  -3   6   9  217.38   17.10
  -3   6   9  199.18   15.60
  -3   6   9  237.48   16.10
   2  -6  -9  415.56   28.50
   2  -6  -9  400.76   27.00
   2  -6  -9  351.36   27.00
   2  -6  -9  383.06   27.30
  -2   6   9  418.86   27.40
  -2   6   9  405.46   31.70
  -2   6   9  416.76   29.80
  -2   6   9  433.16   27.10
  -2   6   9  405.66   27.40
   1  -6  -9  614.64   41.20
   1  -6  -9  586.74   41.00
   1  -6  -9  612.04   41.00
   1  -6  -9  612.04   40.90
   1  -6  -9  591.84   42.60
  -1   6   9  607.84   43.60
  -1   6   9  653.33   40.80
  -1   6   9  685.63   40.70
  -1   6   9  671.93   41.30
  -1   6   9  609.64   41.30
  -1   6   9  685.23   46.00
   0  -6  -9  412.76   29.80
   0  -6  -9  412.96   31.50
   0  -6  -9  499.25   29.70
   0  -6  -9  405.66   29.30
   0   6   9  469.35   29.50
   0   6   9  506.15   30.10
   0   6   9  412.96   32.10
   0   6   9  422.06   29.90
   0   6   9  457.05   29.80
  -1  -6  -9  654.83   41.80
  -1  -6  -9  597.84   43.70
  -1  -6  -9  611.34   41.80
  -1  -6  -9  661.83   41.10
  -1  -6  -9  604.64   40.70
   1   6   9  634.74   41.80
   1   6   9  601.74   44.20
   1   6   9  714.13   42.20
   1   6   9  612.94   41.80
   1   6   9  661.13   41.30
  -2  -6  -9  361.06   23.30
  -2  -6  -9  366.56   23.90
  -2  -6  -9  353.06   24.90
  -2  -6  -9  317.97   26.80
  -2  -6  -9  363.66   24.80
   2   6   9  351.26   24.80
   2   6   9  368.16   24.30
   2   6   9  330.57   24.70
   2   6   9  346.07   27.30
   2   6   9  350.16   24.70
  -3  -6  -9  328.37   20.90
  -3  -6  -9  327.57   22.70
  -3  -6  -9  318.97   22.00
  -3  -6  -9  324.97   22.80
  -3  -6  -9  298.97   24.80
   3   6   9  290.77   25.20
   3   6   9  314.27   22.90
   3   6   9  289.97   22.60
   3   6   9  329.17   22.40
  -4  -6  -9   26.60    4.70
  -4  -6  -9   29.60    5.40
  -4  -6  -9   28.00    5.50
   4   6   9   28.70    5.70
   4   6   9   43.20    6.20
   4   6   9   20.30    6.50
  -5  -6  -9  219.88   15.70
  -5  -6  -9  225.08   20.20
  -5  -6  -9  191.18   16.20
   5   6   9  183.78   15.90
  -6  -6  -9    9.90    3.70
  -6  -6  -9    9.40    3.80
  -6  -6  -9    7.70    3.80
   6   6   9    9.30    6.20
   6   6   9    5.30    4.60
  -7  -6  -9   68.09    9.60
  -7  -6  -9   82.69    8.80
  -7  -6  -9   67.99    8.20
   7   6   9   64.69    9.20
   7   6   9   68.39   12.30
   6  -7  -9   20.60    4.40
   6  -7  -9    5.70    3.70
  -6   7   9   12.80    4.20
  -6   7   9   10.70    5.30
  -6   7   9    8.50    3.50
   5  -7  -9   31.70    5.70
   5  -7  -9   24.00    4.00
   5  -7  -9   32.70    5.50
  -5   7   9   29.50    8.60
  -5   7   9   47.40    8.70
  -5   7   9   41.10    5.80
   4  -7  -9    3.10    2.80
   4  -7  -9    1.30    2.30
   4  -7  -9   -1.50    2.20
  -4   7   9    2.00    3.40
  -4   7   9    1.30    2.20
  -4   7   9    6.30    2.90
   3  -7  -9    6.60    3.00
   3  -7  -9    6.00    3.00
   3  -7  -9   13.60    3.80
   3  -7  -9    5.70    2.60
  -3   7   9    1.10    2.50
  -3   7   9    6.60    3.10
  -3   7   9   11.90    4.70
   2  -7  -9    3.20    2.80
   2  -7  -9    2.80    2.30
   2  -7  -9    0.20    2.40
   2  -7  -9    1.80    2.30
  -2   7   9    2.00    2.20
  -2   7   9    5.30    2.80
  -2   7   9    2.00    2.70
  -2   7   9    6.20    4.30
  -2   7   9    4.30    2.20
  -2   7   9    1.80    2.70
   1  -7  -9    8.40    3.60
   1  -7  -9    8.90    2.70
   1  -7  -9    8.30    2.40
   1  -7  -9   10.50    3.10
  -1   7   9    2.20    2.70
  -1   7   9    7.30    3.00
  -1   7   9    7.30    2.30
  -1   7   9    4.20    3.40
  -1   7   9    5.20    2.50
  -1   7   9    5.30    3.90
   0  -7  -9    8.60    2.90
   0  -7  -9    8.20    3.00
   0  -7  -9    5.10    3.10
   0   7   9    6.30    3.00
   0   7   9    7.00    2.60
   0   7   9    3.80    2.50
   0   7   9    6.50    4.10
   0   7   9    3.60    2.40
  -1  -7  -9   38.40    4.70
  -1  -7  -9   35.70    7.00
  -1  -7  -9   34.20    5.30
  -1  -7  -9   28.60    3.80
   1   7   9   30.90    7.20
   1   7   9   34.60    5.20
   1   7   9   29.10    4.90
   1   7   9   34.40    5.20
   1   7   9   38.70    5.10
  -2  -7  -9    5.70    1.80
  -2  -7  -9    0.90    3.30
  -2  -7  -9    8.20    2.70
  -2  -7  -9    9.50    3.30
   2   7   9    4.80    3.20
   2   7   9    4.80    4.10
   2   7   9    5.20    2.80
  -3  -7  -9  123.99   10.00
  -3  -7  -9  110.59    8.60
  -3  -7  -9  132.49   10.20
  -3  -7  -9  115.09   10.80
   3   7   9  104.59   10.50
   3   7   9  112.99   10.10
   3   7   9  129.69   13.60
  -4  -7  -9    8.20    3.20
  -4  -7  -9    4.40    2.70
  -4  -7  -9    5.60    3.30
  -4  -7  -9    6.30    1.90
   4   7   9    5.60    3.10
   4   7   9    0.70    3.90
  -5  -7  -9   18.90    4.30
  -5  -7  -9   19.90    4.80
   5   7   9   15.20    4.90
   5   7   9   14.20    6.50
  -6  -7  -9   14.10    3.80
  -6  -7  -9   12.60    4.30
  -6  -7  -9   20.20    5.40
   6   7   9   14.60    5.00
  -7  -7  -9   17.20    4.80
  -7  -7  -9   17.40    6.40
   7   7   9   14.60    5.00
   7   7   9    8.20    6.10
   6  -8  -9    0.00    3.40
   6  -8  -9    7.40    3.00
  -6   8   9   -5.30    2.50
  -6   8   9    2.30    4.90
  -6   8   9    3.70    3.00
   5  -8  -9    2.90    2.70
   5  -8  -9   -3.10    1.90
   5  -8  -9    3.40    2.60
   5  -8  -9    2.10    3.40
  -5   8   9    4.40    2.90
  -5   8   9    2.50    3.80
   4  -8  -9    1.10    2.30
   4  -8  -9    0.50    2.40
   4  -8  -9   -0.80    3.00
   4  -8  -9    4.80    2.90
  -4   8   9   -0.20    3.10
  -4   8   9    3.90    2.60
  -4   8   9    8.60    3.20
   3  -8  -9   -4.10    2.10
   3  -8  -9   -0.80    2.40
   3  -8  -9   -2.20    2.20
   3  -8  -9    4.30    3.50
  -3   8   9   -0.60    2.60
  -3   8   9    0.40    2.20
  -3   8   9    2.20    2.10
  -3   8   9    5.60    4.20
   2  -8  -9   43.70    6.30
   2  -8  -9   36.60    5.20
   2  -8  -9   28.80    5.30
  -2   8   9   36.60    4.30
  -2   8   9   47.90    8.40
  -2   8   9   25.70    5.20
  -2   8   9   34.80    5.60
   1  -8  -9   24.70    4.80
   1  -8  -9   32.00    4.20
   1  -8  -9   18.70    4.90
   1  -8  -9   23.40    4.60
  -1   8   9   17.10    4.10
  -1   8   9   22.00    4.50
  -1   8   9   19.10    6.10
  -1   8   9   18.40    4.20
   0  -8  -9   61.49    8.50
   0  -8  -9   82.79    7.80
   0  -8  -9   65.49    7.60
   0   8   9   67.39    7.80
   0   8   9   86.99    9.20
   0   8   9   75.49    7.30
   0   8   9   70.49   10.00
  -1  -8  -9   78.09    7.40
  -1  -8  -9   69.89    9.10
  -1  -8  -9   69.69    7.70
   1   8   9   64.89    7.80
   1   8   9   73.99   10.20
   1   8   9   75.29    7.30
  -2  -8  -9  130.69   10.40
  -2  -8  -9  111.59   10.70
   2   8   9  110.99   10.50
   2   8   9   96.19   12.70
   2   8   9  119.59   10.10
  -3  -8  -9   82.59    8.10
  -3  -8  -9   82.19    8.10
  -3  -8  -9   86.49    9.20
  -3  -8  -9   74.49    6.10
   3   8   9  107.29   12.60
   3   8   9   97.09    8.80
  -4  -8  -9  164.08   10.90
  -4  -8  -9  153.78   13.90
  -4  -8  -9  167.68   13.10
  -4  -8  -9  161.78   13.20
   4   8   9  150.98   16.30
   4   8   9  151.18   13.40
  -5  -8  -9  103.39    9.60
  -5  -8  -9  106.49    9.90
  -5  -8  -9   99.89    7.50
   5   8   9   97.19   10.20
   5   8   9   87.79   14.30
  -6  -8  -9  148.39   12.90
  -6  -8  -9  145.09   13.60
  -6  -8  -9  145.49   12.60
   6   8   9  139.19   13.20
   6   8   9  132.09   16.00
  -7  -8  -9   15.80    4.80
   7   8   9   17.20    5.30
   5  -9  -9   55.79    7.40
   5  -9  -9   85.09    8.40
   5  -9  -9   34.90    7.30
   5  -9  -9   55.19    6.70
  -5   9   9   64.39   11.50
  -5   9   9   71.89    7.90
  -5   9   9   55.59    8.80
   4  -9  -9   17.20    4.80
   4  -9  -9   20.40    4.30
   4  -9  -9   15.60    4.90
   4  -9  -9   23.20    5.40
  -4   9   9   23.70    5.00
  -4   9   9   10.60    4.50
  -4   9   9   25.40    4.60
  -4   9   9   15.70    5.90
   3  -9  -9  214.18   17.70
   3  -9  -9  182.98   16.50
   3  -9  -9  197.18   16.50
   3  -9  -9  179.58   15.30
  -3   9   9  218.98   16.90
  -3   9   9  215.48   19.70
  -3   9   9  225.08   15.30
  -3   9   9  233.88   16.60
   2  -9  -9   35.20    6.00
   2  -9  -9   53.99    9.00
   2  -9  -9   32.80    6.10
   2  -9  -9   44.30    5.60
  -2   9   9   51.39    9.20
  -2   9   9   34.60    6.80
  -2   9   9   45.30    4.90
  -2   9   9   39.40    6.40
   1  -9  -9  286.27   22.80
   1  -9  -9  331.97   21.80
   1  -9  -9  342.67   23.40
  -1   9   9  299.17   22.90
   0  -9  -9   84.79    8.50
   0  -9  -9   77.69    8.50
   0   9   9   79.09    8.60
   0   9   9   82.99    8.00
   0   9   9   87.89   18.60
  -1  -9  -9  296.07   23.10
  -1  -9  -9  336.97   22.90
   1   9   9  326.77   23.70
  -2  -9  -9    7.30    3.70
  -2  -9  -9    9.30    3.90
   2   9   9   -0.80    3.80
   2   9   9    2.30    4.60
  -3  -9  -9  351.66   26.50
  -3  -9  -9  386.86   25.50
  -3  -9  -9  344.37   26.00
   3   9   9  365.86   31.80
   3   9   9  341.27   26.20
  -4  -9  -9    3.40    3.20
  -4  -9  -9    5.80    5.30
  -4  -9  -9    5.60    3.20
   4   9   9    8.70    5.60
   4   9   9    7.80    3.80
  -5  -9  -9  184.68   17.10
  -5  -9  -9  216.08   16.80
  -5  -9  -9  213.98   16.60
   5   9   9  222.18   20.70
   5   9   9  216.88   17.10
  -6  -9  -9    7.50    4.00
  -6  -9  -9    5.30    1.50
  -6  -9  -9    7.50    3.70
  -6  -9  -9   10.50    5.50
   6   9   9    4.60    5.10
   6   9   9    5.40    4.10
   4 -10  -9   67.39   10.10
   4 -10  -9   79.09    9.70
   4 -10  -9   75.19    8.00
  -4  10   9   98.89    8.30
  -4  10   9   94.79   12.30
  -4  10   9   80.69   10.60
   3 -10  -9   28.40    6.30
   3 -10  -9   18.70    5.30
   3 -10  -9   28.50    4.80
  -3  10   9   33.20    4.50
  -3  10   9   31.10    7.90
  -3  10   9   26.80    6.00
   2 -10  -9   70.49    7.30
   2 -10  -9   85.19    9.10
  -2  10   9   75.49    6.60
  -2  10   9   74.09    8.60
  -2  10   9   69.79   11.50
   1 -10  -9   30.00    5.90
   1 -10  -9   35.00    4.90
  -1  10   9   39.50    8.40
  -1  10   9   36.90    6.30
   0 -10  -9   18.70    4.80
   0 -10  -9   21.20    4.90
   0  10   9   19.50    4.90
   0  10   9   17.90    6.60
  -1 -10  -9    2.30    3.20
  -1 -10  -9    1.90    3.00
   1  10   9    5.30    4.90
   1  10   9    4.30    2.50
  -2 -10  -9   12.10    4.70
  -2 -10  -9   14.30    4.30
   2  10   9    9.20    5.60
  -3 -10  -9    0.40    3.50
  -3 -10  -9    2.70    3.00
   3  10   9    1.40    4.10
   3  10   9    1.60    3.30
  -4 -10  -9   11.00    3.90
  -4 -10  -9   12.90    4.50
  -4 -10  -9   10.70    4.10
   4  10   9   10.80    4.10
   4  10   9    2.30    6.50
  -5 -10  -9    3.30    3.30
  -5 -10  -9    2.40    3.40
  -5 -10  -9    0.40    3.10
   5  10   9   -0.10    5.30
   5  10   9    5.70    3.70
   3 -11  -9    0.50    3.60
   3 -11  -9    0.00    2.10
   3 -11  -9   -4.80    5.00
  -3  11   9    2.30    2.10
  -3  11   9   -0.80    3.60
  -3  11   9    1.70    4.80
   2 -11  -9    6.90    2.70
   2 -11  -9   10.40    4.50
  -2  11   9    4.30    2.00
  -2  11   9   11.90    5.50
  -2  11   9    4.00    3.70
   1 -11  -9   -4.20    3.00
   1 -11  -9   -0.60    3.10
   1 -11  -9   -1.30    1.90
  -1  11   9    1.10    5.00
  -1  11   9   -0.70    3.40
   0 -11  -9   22.00    5.10
   0 -11  -9   17.80    4.70
   0  11   9   24.90    7.80
  -1 -11  -9   -3.10    4.90
  -1 -11  -9    1.60    3.10
   1  11   9   -2.90    3.80
   1  11   9   -1.40    2.60
  -2 -11  -9   50.49    7.70
  -2 -11  -9   53.79    7.10
   2  11   9   43.00    9.80
   2  11   9   57.79    7.30
   2  11   9   36.50    7.30
  -3 -11  -9    3.70    3.50
  -3 -11  -9    7.30    4.30
   3  11   9    5.00    4.50
   3  11   9   10.60    4.00
   3  11   9   11.90    6.20
  -4 -11  -9   56.69    8.40
  -4 -11  -9   46.70    7.30
  -4 -11  -9   72.89    8.60
   4  11   9   55.79   11.00
   4  11   9   58.99    8.10
   4  11   9   45.00   11.80
   1 -12  -9   21.00    6.20
   1 -12  -9   31.80    4.60
   1 -12  -9   22.00    5.60
  -1  12   9   18.30    5.50
  -1  12   9   29.10    8.40
   0 -12  -9    5.00    4.00
   0 -12  -9    6.60    4.10
   0  12   9    7.80    5.50
   0  12   9    6.30    4.40
  -1 -12  -9  158.38   13.70
  -1 -12  -9  131.19   13.20
   1  12   9  137.59   16.40
  -2 -12  -9   -1.20    3.40
  -2 -12  -9    6.70    4.10
   2  12   9    3.60    2.90
   2  12   9    1.00    3.50
   2  12   9    9.50    6.20
   1   6 -10   52.19    4.60
   1   6 -10   48.70    8.10
  -1  -6  10   36.10    4.10
  -1  -6  10   55.79    5.30
  -1  -6  10   62.39    6.80
  -1  -6  10   49.70    6.60
   0   6 -10    1.40    3.80
   0   6 -10    2.20    2.70
   0   6 -10    1.40    2.00
   0  -6  10   -2.60    2.70
   0  -6  10   -2.50    1.80
  -1   6 -10   68.79    6.90
  -1   6 -10   69.09    8.40
  -1   6 -10   66.79    6.70
   1  -6  10   45.40    6.60
   1  -6  10   55.99    8.70
   1  -6  10   49.30    6.20
  -2   6 -10    2.80    3.50
  -2   6 -10    7.90    3.30
  -2   6 -10    4.90    2.30
   2  -6  10    1.60    2.80
   2  -6  10   -0.50    2.70
  -3   6 -10   28.80    5.60
  -3   6 -10   24.10    4.20
  -3   6 -10   40.70    7.10
  -3   6 -10   37.70    4.80
   3  -6  10   32.70    7.10
   3  -6  10   27.80    5.60
   3  -6  10   27.20    5.30
   3   5 -10    0.20    4.10
  -3  -5  10    2.80    0.90
  -3  -5  10    6.30    2.30
   2   5 -10   44.30    6.70
   2   5 -10   54.59    8.90
  -2  -5  10   40.50    5.30
  -2  -5  10   39.20    5.40
   1   5 -10   -0.20    1.20
   1   5 -10    0.10    2.50
   1   5 -10   -2.60    3.10
   1   5 -10    0.40    1.20
  -1  -5  10    0.80    2.40
  -1  -5  10   -1.00    1.50
  -1  -5  10   -0.60    2.00
  -1  -5  10    0.20    1.00
   0   5 -10   51.79    5.20
   0   5 -10   46.30    6.40
   0   5 -10   55.79    8.00
   0  -5  10   46.30    4.90
   0  -5  10   50.89    6.80
   0  -5  10   55.99    6.40
   0  -5  10   47.10    5.60
  -1   5 -10    3.90    2.10
  -1   5 -10    3.40    2.70
  -1   5 -10    2.70    3.50
   1  -5  10    0.90    2.90
   1  -5  10    3.20    2.20
   1  -5  10    5.20    2.60
  -2   5 -10   46.30    3.80
  -2   5 -10   55.29    7.90
  -2   5 -10   48.20    5.60
  -2   5 -10   43.20    6.20
  -2   5 -10   40.00    3.60
   2  -5  10   51.09    6.90
   2  -5  10   52.39    8.20
   2  -5  10   47.00    6.10
  -3   5 -10   35.10    4.60
  -3   5 -10   33.20    4.50
  -3   5 -10   26.20    5.50
  -3   5 -10   28.40    5.90
  -3   5 -10   29.90    4.40
   3  -5  10   21.20    5.20
   3  -5  10   29.50    4.90
  -4   5 -10   18.00    3.30
  -4   5 -10   14.30    4.10
  -4   5 -10   11.60    3.70
  -4   5 -10    2.50    3.70
   4  -5  10    6.00    3.60
   4  -5  10    6.60    3.80
   4  -5  10    8.80    5.10
   4   4 -10    1.30    4.50
  -4  -4  10   -0.80    1.60
  -4  -4  10    1.20    1.40
   3   4 -10   33.00    7.40
   3   4 -10   32.50    6.00
  -3  -4  10   34.50    4.30
  -3  -4  10   33.90    4.60
  -3  -4  10   30.60    3.40
   2   4 -10   32.00    6.50
   2   4 -10   44.00    7.90
  -2  -4  10   46.50    5.10
   1   4 -10    3.80    3.00
   1   4 -10    6.30    1.50
   1   4 -10    6.80    4.50
   1   4 -10    5.30    1.50
  -1  -4  10    6.60    2.10
  -1  -4  10    4.10    2.50
  -1  -4  10    7.80    2.80
   0   4 -10  121.59    8.80
   0   4 -10  114.79   10.00
   0   4 -10  115.59    8.70
   0  -4  10  110.09    9.20
   0  -4  10  108.69   10.00
   0  -4  10  112.19    8.60
   0  -4  10   97.79   10.20
  -1   4 -10   17.20    3.30
  -1   4 -10   19.80    4.10
   1  -4  10   16.90    3.50
   1  -4  10   19.00    4.00
   1  -4  10   11.80    3.90
   1  -4  10   18.90    4.30
  -2   4 -10   92.29    9.10
  -2   4 -10  115.49    9.20
  -2   4 -10  106.59    7.50
  -2   4 -10  121.09   10.80
  -2   4 -10   96.39    7.40
   2  -4  10  100.89    9.20
   2  -4  10   89.69   10.70
   2  -4  10  102.09    9.80
  -3   4 -10   17.40    4.90
  -3   4 -10   15.60    3.60
  -3   4 -10    7.70    3.30
  -3   4 -10   15.80    3.30
  -3   4 -10   17.10    3.60
   3  -4  10    7.40    3.60
   3  -4  10   15.80    3.80
  -4   4 -10   68.89    6.30
  -4   4 -10   57.49    6.80
  -4   4 -10   69.89    8.60
  -4   4 -10   49.40    7.00
   4  -4  10   55.69    8.20
   4  -4  10   66.59    7.50
   4  -4  10   33.40    7.80
  -5   4 -10   18.00    5.00
  -5   4 -10   23.70    4.00
  -5   4 -10   12.70    4.30
   5  -4  10   10.80    4.80
   5  -4  10   12.50    5.00
  -5  -3  10   67.29    7.30
   4   3 -10    3.30    4.30
   4   3 -10    6.40    3.80
  -4  -3  10    7.20    1.70
  -4  -3  10    6.70    1.50
  -4  -3  10    2.20    2.20
   3   3 -10  129.29   13.50
   3   3 -10  187.48   18.40
  -3  -3  10  134.39    9.70
  -3  -3  10  130.19   10.00
  -3  -3  10  124.69    9.80
   2   3 -10   41.00   10.70
   2   3 -10   42.90    6.20
  -2  -3  10   36.90    3.30
  -2  -3  10   32.60    4.50
  -2  -3  10   37.40    4.30
  -2  -3  10   37.30    3.10
   1   3 -10  313.67   19.50
   1   3 -10  329.27   23.30
   1   3 -10  313.47   21.90
   1   3 -10  285.67   19.50
  -1  -3  10  289.37   19.60
  -1  -3  10  326.07   20.00
  -1  -3  10  270.67   21.40
  -1  -3  10  315.87   21.20
   0   3 -10   38.20    5.30
   0   3 -10   29.60    3.90
   0   3 -10   38.60    4.00
   0  -3  10   25.90    4.00
   0  -3  10   26.30    5.00
   0  -3  10   34.30    3.90
   0  -3  10   33.90    4.70
  -1   3 -10  370.66   24.20
  -1   3 -10  372.36   24.60
   1  -3  10  377.16   24.70
   1  -3  10  339.57   25.90
   1  -3  10  341.97   24.10
   1  -3  10  341.97   26.00
  -2   3 -10   57.99    5.30
  -2   3 -10   67.09    7.80
  -2   3 -10   56.49    6.50
  -2   3 -10   66.19    5.10
  -2   3 -10   62.79    6.60
   2  -3  10   59.59    6.80
   2  -3  10   63.79    7.00
   2  -3  10   44.80    7.80
   2  -3  10   62.39    6.70
  -3   3 -10  272.47   17.30
  -3   3 -10  248.88   16.90
  -3   3 -10  238.28   17.90
  -3   3 -10  271.77   17.50
   3  -3  10  204.58   17.30
   3  -3  10  193.18   19.00
   3  -3  10  216.48   18.00
  -4   3 -10   14.10    3.40
  -4   3 -10    8.70    3.70
  -4   3 -10    6.20    3.80
  -4   3 -10    9.40    3.30
   4  -3  10   13.60    3.70
   4  -3  10    5.70    3.90
   4  -3  10   13.00    4.10
  -5   3 -10  165.28   13.90
  -5   3 -10  161.68   13.00
  -5   3 -10  152.68   10.00
   5  -3  10  135.49   13.40
   5  -3  10  131.59   14.80
  -6   3 -10    6.80    7.00
  -6   3 -10    7.20    3.80
  -6   3 -10    6.20    1.90
   6  -3  10    8.20    4.50
  -5  -2  10    0.90    2.50
   4   2 -10   54.39    7.70
   4   2 -10   51.99    9.40
  -4  -2  10   51.29    6.00
  -4  -2  10   57.89    4.30
  -4  -2  10   61.39    4.80
   3   2 -10    7.70    3.30
  -3  -2  10    3.40    1.50
  -3  -2  10    2.60    1.80
  -3  -2  10    1.90    1.40
   2   2 -10  118.39   14.00
   2   2 -10  155.88   11.80
  -2  -2  10  132.89    9.60
  -2  -2  10  118.49   10.00
   1   2 -10   26.10    2.50
   1   2 -10   26.10    4.70
   1   2 -10   19.30    2.30
   1   2 -10   22.20    5.30
  -1  -2  10   25.90    2.30
  -1  -2  10   24.60    2.80
  -1  -2  10   25.00    3.00
  -1  -2  10   18.80    2.30
  -1  -2  10   21.50    3.60
  -1  -2  10   19.80    3.90
   0   2 -10  168.38   12.80
   0   2 -10  171.58   12.40
   0   2 -10  151.58   13.00
   0   2 -10  149.49   10.90
   0  -2  10  153.18   11.30
   0  -2  10  153.68   11.90
   0  -2  10  129.59   12.20
   0  -2  10  152.08   11.10
  -1   2 -10    0.80    2.60
  -1   2 -10    1.80    1.80
  -1   2 -10    2.40    2.30
  -1   2 -10    4.20    2.00
   1  -2  10    2.60    2.10
   1  -2  10   -0.80    1.80
   1  -2  10    2.10    2.10
   1  -2  10    1.70    2.30
  -2   2 -10   84.49    6.30
  -2   2 -10   80.49    7.40
  -2   2 -10   96.09    7.80
  -2   2 -10   80.39    8.30
   2  -2  10   67.29    8.40
   2  -2  10   76.49    7.90
   2  -2  10   71.39    7.50
   2  -2  10   71.29    7.70
  -3   2 -10   27.10    4.10
  -3   2 -10   26.70    4.50
  -3   2 -10   34.40    5.50
  -3   2 -10   24.10    4.20
   3  -2  10   23.10    4.90
   3  -2  10   27.30    6.10
   3  -2  10   19.20    4.60
  -4   2 -10  103.39    9.80
  -4   2 -10  100.89    9.00
   4  -2  10  103.69    9.50
   4  -2  10   77.09    9.60
  -5   2 -10   49.50    6.50
  -5   2 -10   56.49    7.90
  -5   2 -10   50.99    4.50
   5  -2  10   42.90    7.60
   5  -2  10   53.49   10.00
   5  -2  10   61.39    8.00
  -6   2 -10   34.20    6.00
  -6   2 -10   21.20    3.20
   6  -2  10   15.70    4.70
   6  -2  10   19.60    6.60
  -6  -1  10   -3.20    3.30
   5   1 -10   82.29    9.20
  -5  -1  10   71.89    8.60
  -5  -1  10   84.89    5.60
  -5  -1  10   85.29    6.10
   4   1 -10   -2.20    2.80
   4   1 -10   -0.60    2.80
  -4  -1  10    2.70    1.20
  -4  -1  10    2.30    0.90
  -4  -1  10    0.20    2.30
   3   1 -10  131.29   13.30
  -3  -1  10  133.59    9.20
  -3  -1  10  130.39   10.60
  -3  -1  10  131.29   10.00
   2   1 -10   81.49    8.90
   2   1 -10   75.19    7.70
  -2  -1  10   78.79    7.00
  -2  -1  10   63.69    4.70
  -2  -1  10   75.09    6.00
  -2  -1  10   68.79    4.70
  -2  -1  10   77.89    6.50
   1   1 -10  151.18   10.30
   1   1 -10  161.08   13.40
   1   1 -10  150.28   10.40
   1   1 -10  152.88   12.10
  -1  -1  10  148.09   10.80
  -1  -1  10  143.59   10.40
  -1  -1  10  153.08   10.80
  -1  -1  10  169.48   10.50
  -1  -1  10  138.89   11.10
   0   1 -10   25.70    5.00
   0   1 -10   29.80    3.80
   0   1 -10   24.60    3.20
   0   1 -10   26.90    4.40
   0  -1  10   23.60    3.40
   0  -1  10   18.70    2.40
   0  -1  10   22.70    3.90
   0  -1  10   21.10    3.50
  -1   1 -10   68.29    7.20
  -1   1 -10   74.19    6.50
  -1   1 -10   65.89    6.10
  -1   1 -10   61.59    4.20
  -1   1 -10   71.19    6.50
   1  -1  10   66.09    6.60
   1  -1  10   57.29    6.20
   1  -1  10   62.89    6.20
   1  -1  10   58.89    4.60
  -2   1 -10   78.09    6.50
  -2   1 -10   94.69    7.80
  -2   1 -10   85.89    7.30
  -2   1 -10   87.69    7.70
  -2   1 -10   91.29    9.20
  -2   1 -10   86.89    8.40
   2  -1  10   73.79    7.90
   2  -1  10   86.59    8.00
   2  -1  10   80.49    8.00
   2  -1  10   79.89    6.00
  -3   1 -10   -3.20    1.90
  -3   1 -10    5.10    2.80
  -3   1 -10    1.80    2.10
   3  -1  10    4.50    3.80
   3  -1  10   -1.50    2.20
   3  -1  10   -1.50    2.00
   3  -1  10    0.70    2.30
   3  -1  10    2.30    1.20
  -4   1 -10  138.49   11.70
  -4   1 -10  152.58   13.20
  -4   1 -10  155.08   10.30
  -4   1 -10  148.89   12.70
   4  -1  10  144.79   12.50
   4  -1  10  149.69   15.20
  -5   1 -10   -3.10    2.50
  -5   1 -10    0.10    2.70
   5  -1  10    1.80    3.90
   5  -1  10    1.70    3.10
   5  -1  10    1.10    3.50
  -6   1 -10   87.79   10.00
  -6   1 -10   97.89    7.60
  -6   1 -10   82.19    9.30
   6  -1  10   75.49   12.90
   6  -1  10   82.39   10.90
  -7   1 -10   24.50    5.90
  -7   1 -10   11.40    4.60
  -7   1 -10   17.90    3.60
   7  -1  10   21.20    7.80
   7  -1  10   21.40    6.00
  -6   0  10    9.60    1.90
  -6   0  10    5.00    3.60
  -6   0  10    3.90    1.70
   5   0 -10   38.80    6.70
  -5   0  10   43.40    4.50
  -5   0  10   39.40    3.40
  -5   0  10   38.10    6.30
   4   0 -10   -5.40    2.60
   4   0 -10   -2.50    2.20
  -4   0  10    1.60    2.10
  -4   0  10    4.90    1.70
  -4   0  10    0.70    1.00
   3   0 -10  162.78   15.40
   3   0 -10  190.68   14.50
  -3   0  10  184.98   12.10
  -3   0  10  179.28   13.80
  -3   0  10  172.88   13.10
   2   0 -10    2.80    2.60
   2   0 -10   -0.80    2.80
  -2   0  10    1.10    0.80
  -2   0  10    3.20    1.80
  -2   0  10    1.60    2.10
  -2   0  10    0.40    0.90
   1   0 -10  209.38   15.30
   1   0 -10  212.58   16.30
   1   0 -10  211.08   13.90
   1   0 -10  200.68   13.60
  -1   0  10  196.88   13.60
  -1   0  10  195.08   13.90
  -1   0  10  201.28   23.60
  -1   0  10  193.08   15.60
  -1   0  10  217.78   13.90
  -1   0  10  202.98   14.30
   0   0 -10   56.59    5.10
   0   0 -10   55.09    6.20
   0   0 -10   55.89    5.40
   0   0 -10   62.39    7.10
   0   0  10   58.49    6.90
   0   0  10   53.99    5.30
   0   0  10   49.90   10.40
   0   0  10   56.79    5.40
   0   0  10   54.89    5.60
   0   0  10   58.99    4.90
  -1   0 -10  249.38   17.30
  -1   0 -10  247.68   16.30
  -1   0 -10  239.28   16.50
  -1   0 -10  234.28   16.70
  -1   0 -10  223.78   15.10
  -1   0 -10  228.98   14.80
   1   0  10  225.48   15.30
   1   0  10  222.08   16.30
   1   0  10  236.38   16.40
   1   0  10  205.08   16.50
   1   0  10  221.28   18.20
  -2   0 -10  188.68   13.60
  -2   0 -10  169.08   13.00
  -2   0 -10  176.88   13.60
  -2   0 -10  164.68   12.90
  -2   0 -10  184.48   12.10
  -2   0 -10  195.08   13.10
   2   0  10  152.58   14.90
   2   0  10  154.68   13.10
   2   0  10  159.28   13.10
   2   0  10  159.68   11.80
  -3   0 -10  234.88   17.40
  -3   0 -10  250.17   17.10
  -3   0 -10  256.37   16.20
   3   0  10  211.58   19.10
   3   0  10  205.58   17.10
   3   0  10  221.28   17.00
   3   0  10  223.78   16.90
   3   0  10  190.08   16.90
  -4   0 -10  108.09   10.20
  -4   0 -10  116.89    8.40
  -4   0 -10  116.69   11.30
  -4   0 -10  129.19    9.90
   4   0  10  104.69    8.80
   4   0  10  113.89   10.70
   4   0  10  105.19   10.20
   4   0  10   97.69   12.40
  -5   0 -10  111.89    8.10
  -5   0 -10   93.49    9.90
  -5   0 -10  110.79    9.80
   5   0  10   96.59   10.40
   5   0  10   90.29   12.10
   5   0  10   97.69    8.50
   5   0  10   89.09    9.60
  -6   0 -10  100.19    8.00
  -6   0 -10  104.79   10.30
  -6   0 -10   92.09    9.50
   6   0  10   73.19    8.20
   6   0  10   97.69   12.90
   6   0  10   95.69   10.30
  -7   0 -10   49.80    7.90
  -7   0 -10   74.99    6.80
  -7   0 -10   53.39    8.60
   7   0  10   46.40   10.40
   7   0  10   54.79    8.60
   6  -1 -10   78.39   10.00
  -6   1  10   99.29   11.20
  -6   1  10  100.89    7.40
  -6   1  10   93.89    8.00
   5  -1 -10   56.99    8.20
  -5   1  10   71.29    6.60
  -5   1  10   58.49    5.30
  -5   1  10   55.69    8.00
   4  -1 -10   90.09   11.30
   4  -1 -10  119.59   10.60
  -4   1  10  119.69    8.10
  -4   1  10  109.39    9.30
   3  -1 -10   82.79    9.90
   3  -1 -10   98.09    9.20
  -3   1  10   91.19    8.20
  -3   1  10  100.49    7.10
  -3   1  10   94.19    6.40
   2  -1 -10  294.97   17.60
   2  -1 -10  254.07   17.40
   2  -1 -10  266.37   19.30
   2  -1 -10  288.17   20.80
  -2   1  10  269.47   17.40
  -2   1  10  277.27   18.00
  -2   1  10  268.77   19.40
  -2   1  10  269.87   17.70
  -2   1  10  225.38   27.10
   1  -1 -10   14.30    4.20
   1  -1 -10   10.20    2.30
   1  -1 -10   13.60    3.30
  -1   1  10    9.20    2.30
  -1   1  10   10.70    3.30
  -1   1  10    9.30    2.10
  -1   1  10    8.20    5.60
  -1   1  10    8.70    1.90
  -1   1  10    6.30    1.90
   0  -1 -10  250.47   17.70
   0  -1 -10  251.17   17.20
   0  -1 -10  259.57   18.70
   0  -1 -10  262.37   18.00
   0   1  10  247.48   17.70
   0   1  10  243.68   17.20
   0   1  10  247.18   19.40
   0   1  10  237.08   17.40
   0   1  10  267.57   17.10
   0   1  10  263.87   24.40
  -1  -1 -10   66.69    6.00
  -1  -1 -10   54.59    6.10
  -1  -1 -10   60.49    6.50
  -1  -1 -10   66.19    6.10
  -1  -1 -10   57.29    4.70
  -1  -1 -10   52.39    5.20
   1   1  10   55.59    6.10
   1   1  10   64.99    6.10
   1   1  10   58.29    5.30
   1   1  10   59.29    7.70
   1   1  10   57.69    6.00
  -2  -1 -10  353.36   22.90
  -2  -1 -10  328.97   23.10
  -2  -1 -10  339.37   22.70
  -2  -1 -10  323.27   23.10
   2   1  10  317.07   21.70
   2   1  10  313.07   25.00
   2   1  10  326.97   24.10
   2   1  10  316.67   22.80
   2   1  10  326.67   22.80
  -3  -1 -10  160.88   12.60
  -3  -1 -10  145.49   13.20
  -3  -1 -10  178.58   12.00
   3   1  10  141.29   11.40
   3   1  10  167.48   13.00
   3   1  10  144.69   14.70
   3   1  10  170.68   12.90
   3   1  10  147.29   12.90
  -4  -1 -10  199.58   15.50
  -4  -1 -10  226.18   15.30
  -4  -1 -10  180.98   16.40
  -4  -1 -10  213.98   14.10
   4   1  10  202.88   15.70
   4   1  10  191.98   18.30
   4   1  10  191.28   15.70
   4   1  10  181.88   14.40
  -5  -1 -10   69.09    6.20
  -5  -1 -10   69.59    7.50
  -5  -1 -10   74.69    8.10
   5   1  10   51.49    6.30
   5   1  10   68.89    9.70
   5   1  10   68.99    7.70
  -6  -1 -10   46.90    5.50
  -6  -1 -10   61.79    8.30
  -6  -1 -10   53.59    7.00
   6   1  10   50.09    7.80
   6   1  10   48.10    6.40
   6   1  10   40.20    9.10
  -7  -1 -10   60.09    7.90
  -7  -1 -10   54.39    9.50
  -7  -1 -10   60.49    6.70
   7   1  10   49.40   10.90
   6  -2 -10    2.60    3.20
  -6   2  10    1.80    3.10
  -6   2  10    0.20    2.30
  -6   2  10   -2.60    1.90
   5  -2 -10   77.59    8.70
  -5   2  10   69.89    6.20
  -5   2  10   86.99    8.20
   4  -2 -10    7.60    4.20
  -4   2  10    8.10    1.60
  -4   2  10   10.30    1.50
  -4   2  10    8.70    2.10
  -4   2  10    9.10    3.30
   3  -2 -10  185.68   11.80
   3  -2 -10  157.28   14.70
   3  -2 -10  174.08   14.10
   3  -2 -10  180.78   11.60
  -3   2  10  174.98   11.80
  -3   2  10  183.88   12.20
  -3   2  10  135.89   21.00
  -3   2  10  184.68   12.10
  -3   2  10  182.48   13.80
   2  -2 -10    6.10    1.70
   2  -2 -10    3.40    3.10
   2  -2 -10    2.40    2.50
  -2   2  10    4.60    2.50
  -2   2  10    1.90    2.20
  -2   2  10    5.50    1.80
  -2   2  10    2.50    1.30
  -2   2  10   -0.50    4.00
  -2   2  10    3.80    1.80
   1  -2 -10   99.59    9.70
   1  -2 -10  104.69    8.40
   1  -2 -10   97.59    9.10
   1  -2 -10  111.19    8.20
  -1   2  10  106.19    8.40
  -1   2  10  116.89    8.40
  -1   2  10  109.09    7.90
  -1   2  10  102.59    8.30
   0  -2 -10   16.60    3.70
   0  -2 -10   13.90    3.10
   0  -2 -10   18.30    3.20
   0  -2 -10   13.00    1.80
   0  -2 -10   18.70    3.10
   0  -2 -10   11.60    1.70
   0   2  10   16.90    3.00
   0   2  10   16.00    3.20
   0   2  10   17.70    3.30
   0   2  10   18.60    2.90
   0   2  10    7.20    3.50
  -1  -2 -10   45.30    5.40
  -1  -2 -10   56.59    6.50
  -1  -2 -10   42.40    4.00
  -1  -2 -10   44.80    5.00
   1   2  10   41.60    7.30
   1   2  10   42.40    4.60
   1   2  10   38.50    4.90
   1   2  10   43.40    5.60
   1   2  10   43.30    5.40
  -2  -2 -10   89.39    7.20
  -2  -2 -10  102.89    8.30
  -2  -2 -10   86.49    8.30
  -2  -2 -10   79.89    8.60
  -2  -2 -10  103.89    8.40
   2   2  10   81.89    7.40
   2   2  10   78.99   10.00
   2   2  10   85.29    8.00
   2   2  10   83.39    8.30
  -3  -2 -10   36.20    4.80
  -3  -2 -10   35.70    4.20
  -3  -2 -10   35.40    6.20
  -3  -2 -10   47.50    6.10
   3   2  10   37.00    5.20
   3   2  10   41.20    8.10
   3   2  10   48.20    6.40
   3   2  10   30.50    4.50
   3   2  10   43.70    6.30
  -4  -2 -10   73.19    7.40
  -4  -2 -10   64.89    6.00
  -4  -2 -10   64.49    6.90
  -4  -2 -10   64.69    8.00
   4   2  10   62.89    7.10
   4   2  10   72.49    9.90
   4   2  10   52.09    6.10
   4   2  10   66.39    7.60
  -5  -2 -10    8.00    2.70
  -5  -2 -10    4.40    3.00
  -5  -2 -10   12.60    4.10
   5   2  10    9.80    5.80
   5   2  10   10.90    6.40
   5   2  10    6.10    3.60
  -6  -2 -10  153.48   11.30
  -6  -2 -10  134.09   12.50
  -6  -2 -10  157.68   12.60
   6   2  10  124.29   14.90
   6   2  10  128.59   19.10
   6   2  10  108.09   11.20
  -7  -2 -10   34.00    6.70
  -7  -2 -10   30.20    5.00
  -7  -2 -10   28.00    5.80
   7   2  10   30.10    6.60
   7   2  10   34.90    8.60
   6  -3 -10   57.29    8.20
  -6   3  10   73.09    7.70
  -6   3  10   68.59    5.20
  -6   3  10   57.79    5.20
  -6   3  10   53.89    6.00
   5  -3 -10    0.20    1.10
   5  -3 -10    0.20    3.20
   5  -3 -10    1.30    0.90
  -5   3  10   -2.10    1.60
  -5   3  10   -0.10    2.70
  -5   3  10   -0.90    1.30
  -5   3  10    0.50    1.30
   4  -3 -10   31.90    3.30
   4  -3 -10   34.40    7.90
   4  -3 -10   32.80    3.30
  -4   3  10   36.60   11.40
  -4   3  10   28.00    3.70
  -4   3  10   35.20    3.50
  -4   3  10   34.10    5.60
  -4   3  10   32.20    3.60
   3  -3 -10   16.70    3.90
   3  -3 -10    8.40    3.90
   3  -3 -10   14.20    2.60
  -3   3  10   16.50    2.80
  -3   3  10    8.80    6.20
  -3   3  10   15.90    4.70
  -3   3  10   14.80    2.80
  -3   3  10   10.30    2.30
   2  -3 -10   14.50    4.20
   2  -3 -10   13.60    2.50
   2  -3 -10   12.00    3.60
   2  -3 -10   15.40    2.80
  -2   3  10   12.10    7.10
  -2   3  10    9.90    3.20
  -2   3  10   10.90    2.50
  -2   3  10    9.00    2.20
  -2   3  10   14.70    2.80
  -2   3  10   12.40    2.80
  -2   3  10    9.60    3.40
   1  -3 -10  228.28   18.50
   1  -3 -10  267.27   17.50
   1  -3 -10  262.67   17.70
   1  -3 -10  240.28   18.00
  -1   3  10  265.57   17.50
  -1   3  10  243.88   17.60
  -1   3  10  272.97   25.10
  -1   3  10  251.57   17.40
  -1   3  10  248.38   17.00
  -1   3  10  251.27   19.40
   0  -3 -10   88.29    7.70
   0  -3 -10   81.79    8.00
   0  -3 -10   91.59    6.60
   0  -3 -10   77.39    7.10
   0  -3 -10   88.39    7.40
   0   3  10   79.99    7.60
   0   3  10   80.19    7.10
   0   3  10   91.89   12.50
   0   3  10   77.29    9.20
   0   3  10   92.39    7.40
   0   3  10   88.59    7.60
  -1  -3 -10  334.87   20.70
  -1  -3 -10  298.07   22.00
  -1  -3 -10  335.97   21.70
  -1  -3 -10  291.57   22.10
  -1  -3 -10  326.27   21.80
   1   3  10  278.27   23.70
   1   3  10  328.87   21.50
   1   3  10  320.37   21.40
   1   3  10  299.57   21.80
   1   3  10  306.07   22.80
  -2  -3 -10   82.09    7.40
  -2  -3 -10   76.79    8.50
  -2  -3 -10   96.59    7.10
  -2  -3 -10   82.29    7.80
  -2  -3 -10   71.79    7.70
   2   3  10   78.69    7.20
   2   3  10   75.79    7.90
   2   3  10   72.59    7.60
   2   3  10   63.79    9.20
   2   3  10   83.69    7.90
  -3  -3 -10  226.88   16.60
  -3  -3 -10  228.08   15.60
  -3  -3 -10  252.37   16.40
  -3  -3 -10  234.08   16.00
  -3  -3 -10  204.68   17.70
   3   3  10  206.28   16.60
   3   3  10  200.78   16.80
   3   3  10  215.48   16.20
   3   3  10  226.98   16.80
   3   3  10  225.98   19.50
  -4  -3 -10   99.29    9.50
  -4  -3 -10  110.79    8.50
  -4  -3 -10  105.29    9.20
  -4  -3 -10   90.29   10.60
   4   3  10   86.39   11.60
   4   3  10  108.99   11.20
   4   3  10  103.09    9.80
   4   3  10   97.69    8.90
  -5  -3 -10   94.09    9.20
  -5  -3 -10   95.49    9.50
  -5  -3 -10   99.39    8.30
   5   3  10   88.99   10.00
   5   3  10   91.29    8.80
   5   3  10   89.79   10.50
  -6  -3 -10   60.89    7.50
  -6  -3 -10   67.19    6.80
  -6  -3 -10   48.90    8.00
   6   3  10   62.39   13.30
   6   3  10   57.19   10.80
  -7  -3 -10   37.80    7.30
  -7  -3 -10   54.59    7.40
  -7  -3 -10   46.50    6.50
   7   3  10   43.70    9.80
   7   3  10   45.10    7.60
   6  -4 -10    9.90    2.30
   6  -4 -10   12.20    4.40
  -6   4  10   15.80    2.90
  -6   4  10   20.20    5.00
  -6   4  10   18.00    3.90
   5  -4 -10   74.49    7.10
   5  -4 -10   93.79    6.70
  -5   4  10   89.29    7.40
  -5   4  10   85.09    9.70
  -5   4  10   64.79    6.70
  -5   4  10   84.29    7.10
   4  -4 -10   65.19    5.80
   4  -4 -10   70.59    7.80
  -4   4  10   71.49    6.20
  -4   4  10   65.19    6.00
  -4   4  10   50.19   12.70
  -4   4  10   72.09    6.30
  -4   4  10   69.49    8.20
   3  -4 -10  105.59    9.00
   3  -4 -10  125.49    9.10
   3  -4 -10  124.29   10.50
  -3   4  10  116.79   16.70
  -3   4  10  126.99    9.20
  -3   4  10  124.99   11.40
  -3   4  10   90.39    8.90
  -3   4  10  125.69    9.40
   2  -4 -10   33.40    5.90
   2  -4 -10   42.90    5.30
   2  -4 -10   46.00    4.90
   2  -4 -10   45.80    5.60
  -2   4  10   50.39    5.70
  -2   4  10   45.00    5.10
  -2   4  10   36.20    4.60
  -2   4  10   43.40    6.90
  -2   4  10   40.20   10.50
  -2   4  10   48.00    5.20
  -2   4  10   50.29    4.90
   1  -4 -10  743.93   47.90
   1  -4 -10  680.93   46.90
   1  -4 -10  687.53   47.40
   1  -4 -10  719.53   48.20
   1  -4 -10  721.53   48.80
   1  -4 -10  734.53   48.10
  -1   4  10  782.32   47.90
  -1   4  10  752.42   50.29
  -1   4  10  735.53   48.10
  -1   4  10  813.22   48.10
  -1   4  10  763.62   47.50
  -1   4  10  859.81   56.59
   0  -4 -10   57.99    5.70
   0  -4 -10   51.09    5.70
   0  -4 -10   44.10    5.80
   0  -4 -10   62.49    5.10
   0  -4 -10   51.49    5.50
   0  -4 -10   44.10    5.70
   0   4  10   50.99    5.60
   0   4  10   47.40    5.20
   0   4  10   63.19   10.30
   0   4  10   45.20    6.00
   0   4  10   51.39    5.60
   0   4  10   51.99    8.00
  -1  -4 -10  837.02   57.29
  -1  -4 -10  999.70   56.29
  -1  -4 -10  884.81   56.99
  -1  -4 -10  926.81   56.99
  -1  -4 -10  777.52   57.69
   1   4  10  844.22   57.09
   1   4  10  873.61   58.09
   1   4  10  923.81   56.79
   1   4  10  973.20   57.09
   1   4  10  827.82   59.49
  -2  -4 -10  282.67   21.10
  -2  -4 -10  258.37   21.60
  -2  -4 -10  316.47   19.90
  -2  -4 -10  309.57   20.30
  -2  -4 -10  318.87   20.90
   2   4  10  295.17   20.60
   2   4  10  276.37   20.90
   2   4  10  267.07   20.70
   2   4  10  303.67   20.70
   2   4  10  274.47   23.40
  -3  -4 -10  642.54   37.80
  -3  -4 -10  637.64   37.70
  -3  -4 -10  561.94   38.30
  -3  -4 -10  474.05   39.50
  -3  -4 -10  569.54   37.30
   3   4  10  545.75   38.50
   3   4  10  588.84   38.40
   3   4  10  551.04   38.20
   3   4  10  571.24   40.20
   3   4  10  592.14   41.80
  -4  -4 -10   60.09    6.70
  -4  -4 -10   47.30    8.20
  -4  -4 -10   53.99    7.40
  -4  -4 -10   57.59    6.00
   4   4  10   58.19    7.90
   4   4  10   54.89    6.50
   4   4  10   60.59   10.20
   4   4  10   58.69    6.90
  -5  -4 -10  374.36   25.30
  -5  -4 -10  373.46   26.50
  -5  -4 -10  391.86   26.10
   5   4  10  366.96   30.40
   5   4  10  329.07   29.70
  -6  -4 -10   79.99    7.90
   6   4  10   75.29   12.50
  -7  -4 -10  172.28   14.70
  -7  -4 -10  153.38   13.80
   7   4  10  153.98   17.70
   7   4  10  136.59   14.00
   6  -5 -10   38.20    6.50
   6  -5 -10   26.80    4.30
  -6   5  10   38.60    5.00
  -6   5  10   47.50    8.40
  -6   5  10   30.70    4.60
   5  -5 -10   70.79   10.30
   5  -5 -10   65.19    6.50
  -5   5  10   71.99    9.40
  -5   5  10   58.39    6.50
  -5   5  10   82.19    7.10
  -5   5  10   74.59    7.00
   4  -5 -10   83.59    7.50
   4  -5 -10   82.99    8.80
  -4   5  10   93.89    8.40
  -4   5  10   94.29    7.80
  -4   5  10   69.29   12.30
  -4   5  10   67.89    7.30
  -4   5  10   96.99   10.20
   3  -5 -10  118.49   11.10
   3  -5 -10  126.09    9.90
   3  -5 -10  101.59    9.90
  -3   5  10  125.69   16.40
  -3   5  10  134.39   10.40
  -3   5  10  153.78   11.20
  -3   5  10  132.39   10.10
  -3   5  10  111.89   10.10
  -3   5  10  159.88   13.00
   2  -5 -10   98.89    8.20
   2  -5 -10   86.49    7.70
   2  -5 -10   93.49    7.30
   2  -5 -10   83.09    8.70
   2  -5 -10   97.09    8.50
   2  -5 -10   81.59    8.90
  -2   5  10  102.89    8.30
  -2   5  10  104.19    8.70
  -2   5  10  105.29   14.10
  -2   5  10   97.69   10.40
  -2   5  10  112.99    8.50
  -2   5  10  110.79    8.80
  -2   5  10  108.39    8.80
   1  -5 -10  248.58   18.70
   1  -5 -10  300.67   19.80
   1  -5 -10  253.27   19.80
   1  -5 -10  290.07   19.60
   1  -5 -10  247.58   19.40
  -1   5  10  291.67   19.10
  -1   5  10  312.17   19.70
  -1   5  10  255.47   21.50
  -1   5  10  326.57   26.40
  -1   5  10  275.37   19.30
  -1   5  10  277.57   19.80
   0  -5 -10   37.30    5.10
   0  -5 -10   31.30    5.00
   0  -5 -10   35.00    4.30
   0  -5 -10   41.00    5.50
   0   5  10   40.80    4.70
   0   5  10   35.70    4.90
   0   5  10   42.40    8.50
   0   5  10   33.50    6.80
   0   5  10   37.20    5.50
  -1  -5 -10  259.67   20.50
  -1  -5 -10  285.67   21.60
  -1  -5 -10  277.57   19.90
  -1  -5 -10  287.77   22.20
  -1  -5 -10  329.07   19.80
   1   5  10  306.77   21.80
   1   5  10  271.57   20.40
   1   5  10  308.87   20.20
   1   5  10  281.57   23.20
   1   5  10  266.87   20.50
  -2  -5 -10   18.50    3.50
  -2  -5 -10   20.70    4.30
  -2  -5 -10   19.80    3.70
   2   5  10   11.60    5.00
   2   5  10   13.50    3.60
   2   5  10   24.70    4.50
   2   5  10   17.00    3.90
   2   5  10   20.70    4.10
  -3  -5 -10   49.50    5.50
  -3  -5 -10   41.30    4.90
  -3  -5 -10   38.90    6.10
  -3  -5 -10   39.30    5.20
   3   5  10   41.10    8.10
   3   5  10   41.70    6.10
   3   5  10   42.90    6.10
   3   5  10   46.10    6.80
  -4  -5 -10   38.10    6.50
  -4  -5 -10   46.90    5.60
  -4  -5 -10   45.40    6.00
   4   5  10   48.00    6.70
   4   5  10   38.30    8.90
   4   5  10   42.70    6.80
  -5  -5 -10   48.00    6.10
  -5  -5 -10   45.50    7.30
   5   5  10   46.00    8.70
   5   5  10   42.10    9.30
  -6  -5 -10   75.99    8.50
  -6  -5 -10   74.09    9.60
  -6  -5 -10   73.89    7.80
   6   5  10   64.99   12.00
   6   5  10   77.79   10.90
  -7  -5 -10    2.50    3.40
  -7  -5 -10    1.40    2.60
  -7  -5 -10    0.70    3.60
   7   5  10    3.50    3.80
   7   5  10    8.40    5.50
   6  -6 -10   31.00    5.90
   6  -6 -10   27.50    4.60
  -6   6  10   45.40    8.90
  -6   6  10   55.99    6.00
  -6   6  10   30.30    5.20
   5  -6 -10   33.10    5.20
   5  -6 -10   39.60    6.50
  -5   6  10   27.50    5.00
  -5   6  10   43.70    5.90
  -5   6  10   41.40    7.70
   4  -6 -10   56.59    7.90
   4  -6 -10   62.39    6.90
  -4   6  10   69.89    9.00
  -4   6  10   67.59    7.00
  -4   6  10   68.69    7.10
  -4   6  10   65.29    6.70
   3  -6 -10   39.70    6.00
   3  -6 -10   44.10    5.30
   3  -6 -10   23.80    4.70
   3  -6 -10   33.90    3.90
  -3   6  10   42.10    6.70
  -3   6  10   40.10    4.70
  -3   6  10   51.39    7.90
  -3   6  10   29.40    5.10
  -3   6  10   38.70    9.30
  -3   6  10   44.50    5.40
   2  -6 -10   40.10    5.90
   2  -6 -10   38.50    5.50
   2  -6 -10   36.90    5.30
   2  -6 -10   34.70    4.30
  -2   6  10   29.10    8.20
  -2   6  10   26.20    6.50
  -2   6  10   36.10    5.10
  -2   6  10   39.20    5.40
  -2   6  10   47.80    6.30
   1  -6 -10  143.99   11.70
   1  -6 -10  143.89   11.60
   1  -6 -10  129.99   12.50
   1  -6 -10  125.89   11.50
   1  -6 -10  145.49   11.40
  -1   6  10  152.38   12.00
  -1   6  10  164.28   11.50
  -1   6  10  159.88   12.40
  -1   6  10  145.29   11.50
  -1   6  10  167.58   16.90
  -1   6  10  151.48   14.30
   0  -6 -10   12.50    4.10
   0  -6 -10    7.80    2.70
   0  -6 -10   10.40    2.80
   0  -6 -10    8.70    3.10
   0   6  10   14.00    3.50
   0   6  10   14.80    3.50
   0   6  10   10.40    2.70
   0   6  10   18.50    4.00
   0   6  10   13.30    5.40
   0   6  10    9.10    4.50
  -1  -6 -10  218.18   18.60
  -1  -6 -10  217.78   16.60
  -1  -6 -10  207.38   15.90
  -1  -6 -10  243.88   16.10
   1   6  10  214.18   16.60
   1   6  10  233.68   16.30
   1   6  10  252.97   17.00
   1   6  10  205.48   16.60
   1   6  10  228.58   19.50
  -2  -6 -10   18.10    4.00
  -2  -6 -10   11.10    2.90
  -2  -6 -10    7.80    4.00
  -2  -6 -10   10.50    2.70
   2   6  10    7.70    3.00
   2   6  10   10.90    4.90
   2   6  10    7.30    3.10
   2   6  10   16.10    4.10
  -3  -6 -10  185.18   13.60
  -3  -6 -10  178.58   14.20
  -3  -6 -10  194.48   14.40
  -3  -6 -10  197.88   15.30
   3   6  10  212.88   15.20
   3   6  10  204.78   18.60
   3   6  10  173.78   15.00
  -4  -6 -10   25.30    4.60
  -4  -6 -10   20.90    5.20
  -4  -6 -10   18.40    4.00
  -4  -6 -10   24.00    3.60
   4   6  10   31.60    5.70
  -5  -6 -10  229.78   16.90
  -5  -6 -10  204.18   17.30
   5   6  10  211.08   18.50
  -6  -6 -10  107.39    9.80
  -6  -6 -10  105.89   10.20
  -6  -6 -10   99.89   11.10
   6   6  10   95.79   10.70
   6   6  10  111.59   14.00
  -7  -6 -10   69.29    9.60
  -7  -6 -10   63.59    8.10
  -7  -6 -10   59.49    7.80
   7   6  10   55.39    8.80
   5  -7 -10   -0.80    2.50
   5  -7 -10    2.80    3.10
  -5   7  10    2.00    6.40
  -5   7  10    1.90    2.90
  -5   7  10   -4.60    1.90
   4  -7 -10    0.20    3.80
   4  -7 -10   -1.80    2.30
   4  -7 -10   -6.10    2.10
   4  -7 -10   -2.00    1.40
  -4   7  10   -0.60    2.60
  -4   7  10   -0.90    3.40
  -4   7  10   -2.40    2.40
   3  -7 -10   52.69    6.80
   3  -7 -10   36.70    6.10
   3  -7 -10   27.40    5.30
  -3   7  10   40.00    5.90
  -3   7  10   56.79    5.90
  -3   7  10   45.60    8.00
  -3   7  10   41.70    8.10
   2  -7 -10   26.30    5.30
   2  -7 -10   18.90    3.90
   2  -7 -10   22.50    5.40
   2  -7 -10   19.20    4.10
  -2   7  10   25.50    4.80
  -2   7  10   21.00    6.00
  -2   7  10   17.30    5.60
  -2   7  10   23.40    3.90
   1  -7 -10  184.38   13.90
   1  -7 -10  179.48   15.70
   1  -7 -10  203.48   14.50
   1  -7 -10  168.98   14.20
  -1   7  10  190.58   17.20
  -1   7  10  169.78   14.30
  -1   7  10  195.18   18.00
  -1   7  10  186.38   13.90
   0  -7 -10   20.10    3.60
   0  -7 -10   24.10    5.20
   0  -7 -10   27.40    4.30
   0  -7 -10   26.30    4.60
   0   7  10   23.00    4.00
   0   7  10   24.60    6.50
   0   7  10   25.60    4.80
   0   7  10   27.50    6.80
  -1  -7 -10  152.78   12.00
  -1  -7 -10  162.98   13.20
  -1  -7 -10  143.89   14.50
  -1  -7 -10  194.98   12.80
   1   7  10  149.19   15.50
   1   7  10  164.28   13.30
   1   7  10  164.98   12.70
  -2  -7 -10    3.80    3.30
  -2  -7 -10    3.60    3.00
  -2  -7 -10    6.20    2.70
  -2  -7 -10    7.00    2.10
   2   7  10    2.30    2.70
   2   7  10   -2.30    2.50
   2   7  10    4.90    4.40
  -3  -7 -10  354.16   25.80
  -3  -7 -10  393.36   25.10
  -3  -7 -10  357.46   25.00
  -3  -7 -10  373.96   23.80
   3   7  10  333.87   29.00
   3   7  10  359.36   25.30
   3   7  10  320.37   25.70
  -4  -7 -10    7.80    3.80
   4   7  10    9.90    5.40
   4   7  10    9.60    4.00
  -5  -7 -10  195.68   15.60
  -5  -7 -10  205.28   14.00
  -5  -7 -10  172.18   16.00
   5   7  10  201.88   20.10
  -6  -7 -10    1.10    3.50
  -6  -7 -10   -1.00    2.70
  -6  -7 -10   -1.20    3.10
   6   7  10   -3.30    4.00
   6   7  10   -1.10    3.20
  -7  -7 -10   67.39    9.10
  -7  -7 -10   67.19    9.60
  -7  -7 -10   66.39    8.20
   7   7  10   72.99   12.70
   7   7  10   60.19    8.80
   5  -8 -10   13.20    3.70
   5  -8 -10    1.20    3.20
   5  -8 -10    7.60    2.70
   5  -8 -10   10.00    3.70
  -5   8  10   13.90    4.30
  -5   8  10    3.90    3.30
  -5   8  10   19.00    6.30
   4  -8 -10   85.29    9.10
   4  -8 -10   73.99    9.20
  -4   8  10  120.19    9.60
  -4   8  10   89.19    9.80
   3  -8 -10   15.50    4.20
   3  -8 -10   16.50    4.20
   3  -8 -10   11.70    3.50
  -3   8  10   25.40    4.20
  -3   8  10   17.60    5.40
  -3   8  10   16.10    4.20
   2  -8 -10  202.28   16.70
   2  -8 -10  187.68   14.30
   2  -8 -10  176.78   14.80
   2  -8 -10  180.48   14.60
  -2   8  10  211.08   13.90
  -2   8  10  185.48   14.60
  -2   8  10  160.88   15.40
  -2   8  10  188.08   17.40
  -2   8  10  184.68   14.90
   1  -8 -10   46.40    6.20
   1  -8 -10   71.19    8.20
   1  -8 -10   63.69    6.20
   1  -8 -10   40.80    6.50
  -1   8  10   57.09    9.70
  -1   8  10   62.09   10.20
  -1   8  10   63.09    6.90
  -1   8  10   47.60    7.60
   0  -8 -10  187.68   17.70
   0  -8 -10  196.28   15.80
   0  -8 -10  212.88   15.80
   0   8  10  202.68   16.50
   0   8  10  195.38   18.70
   0   8  10  223.78   18.40
  -1  -8 -10  104.99   10.20
  -1  -8 -10  127.99   10.00
   1   8  10  108.99   10.50
   1   8  10  111.59   12.90
   1   8  10  105.99   10.30
  -2  -8 -10  206.38   14.80
  -2  -8 -10  196.48   15.50
  -2  -8 -10  180.08   13.20
   2   8  10  183.58   16.70
  -3  -8 -10   91.09    8.50
  -3  -8 -10  100.49    9.60
  -3  -8 -10   80.39    6.60
   3   8  10   76.59    8.40
   3   8  10   90.09   11.90
  -4  -8 -10   86.49   10.30
  -4  -8 -10   87.39   10.10
  -4  -8 -10   97.89    7.30
  -4  -8 -10   91.29   15.90
   4   8  10   92.09   12.70
   4   8  10  121.49   16.20
  -5  -8 -10   35.30    6.10
  -5  -8 -10   35.60    6.90
  -5  -8 -10   38.70    4.20
  -5  -8 -10   39.00    6.00
   5   8  10   35.60    6.40
   5   8  10   26.30    8.10
  -6  -8 -10   48.00    7.90
  -6  -8 -10   52.99    7.40
   6   8  10   44.90   11.70
   6   8  10   55.79    8.20
   4  -9 -10   25.50    5.30
   4  -9 -10   18.90    4.50
   4  -9 -10   24.10    5.30
   4  -9 -10   23.80    6.10
  -4   9  10   33.70    5.80
  -4   9  10   16.40    5.20
  -4   9  10   37.40    8.40
   3  -9 -10   14.50    4.10
   3  -9 -10    9.10    4.00
   3  -9 -10   19.30    5.00
   3  -9 -10   14.90    4.40
  -3   9  10   20.80    4.70
  -3   9  10   17.20    4.60
  -3   9  10   19.00    3.50
  -3   9  10   25.00    7.10
   2  -9 -10   85.49    8.20
   2  -9 -10   69.59    8.70
   2  -9 -10   79.09    9.00
  -2   9  10   91.69    9.30
  -2   9  10   92.49    8.90
  -2   9  10   84.19    7.50
   1  -9 -10   44.90    5.30
   1  -9 -10   47.20    6.90
   1  -9 -10   45.00    6.70
  -1   9  10   35.40    4.60
  -1   9  10   49.10    9.40
  -1   9  10   49.40    7.00
   0  -9 -10   87.89    8.40
   0  -9 -10   82.39    8.70
   0   9  10   69.09   11.50
   0   9  10   78.49    9.00
   0   9  10   71.89    8.20
  -1  -9 -10   44.90    6.00
  -1  -9 -10   46.70    7.00
   1   9  10   41.80   10.30
   1   9  10   52.49    7.40
  -2  -9 -10    3.40    3.30
  -2  -9 -10    0.00    3.20
   2   9  10   -0.50    4.00
  -3  -9 -10   60.79    7.30
   3   9  10   59.99   11.20
  -4  -9 -10    2.90    3.00
  -4  -9 -10    9.80    3.90
  -4  -9 -10    5.10    1.10
  -4  -9 -10    5.10    3.60
   4   9  10    1.40    3.40
   4   9  10    9.00    5.40
  -5  -9 -10   52.29    4.10
  -5  -9 -10   48.60    7.90
  -5  -9 -10   54.79    7.30
  -5  -9 -10   47.70    7.00
   5   9  10   59.29   12.00
   5   9  10   36.80    6.90
   3 -10 -10   -0.10    2.40
   3 -10 -10    7.60    4.50
   3 -10 -10    0.80    3.30
  -3  10  10    4.80    4.90
  -3  10  10    5.50    2.50
  -3  10  10    4.50    3.70
   2 -10 -10    9.60    3.20
   2 -10 -10   11.40    4.40
   2 -10 -10   14.30    4.70
  -2  10  10   13.60    2.90
  -2  10  10   15.70    4.60
  -2  10  10    5.80    4.90
   1 -10 -10   -0.10    1.90
   1 -10 -10    3.20    3.20
  -1  10  10    2.80    3.10
  -1  10  10    4.10    4.40
   0 -10 -10    5.40    3.30
   0 -10 -10    8.90    3.80
   0  10  10    6.10    3.30
   0  10  10    1.60    4.20
  -1 -10 -10   50.89    7.50
   1  10  10   50.69    6.80
   1  10  10   48.90   10.00
  -2 -10 -10    7.40    3.80
  -2 -10 -10    4.40    2.90
   2  10  10    5.20    3.40
   2  10  10    4.80    5.20
  -3 -10 -10   74.49    9.80
   3  10  10   61.79   11.50
   3  10  10   85.19    8.70
  -4 -10 -10   -2.50    2.90
  -4 -10 -10    5.10    3.70
  -4 -10 -10    0.70    3.70
   4  10  10    4.90    5.40
   4  10  10    3.00    3.70
   2 -11 -10  107.29   11.30
   2 -11 -10   97.69    9.40
  -2  11  10  104.79   11.20
  -2  11  10  140.29   15.70
   1 -11 -10    3.60    2.60
   1 -11 -10    3.60    3.70
   1 -11 -10    2.60    3.50
  -1  11  10   10.00    4.30
  -1  11  10    8.00    5.10
   0 -11 -10  135.09   12.50
   0 -11 -10  126.19   12.80
   0  11  10  155.58   16.50
  -1 -11 -10   10.00    4.40
  -1 -11 -10   16.60    4.60
   1  11  10   14.60    4.50
   1  11  10   10.90    2.60
   1  11  10   13.60    6.40
   1  11  10    8.50    2.30
  -2 -11 -10  112.69   10.20
  -2 -11 -10   98.79   10.30
   2  11  10   99.59   13.30
   2  11  10   78.19   11.00
   2  11  10   99.69   10.10
  -3 -11 -10    8.40    4.80
  -3 -11 -10    6.20    3.90
   3  11  10    5.30    6.00
   3  11  10    1.40    3.60
   1   5 -11   15.20    4.30
   1   5 -11   15.50    2.60
   1   5 -11   14.30    3.20
   1   5 -11   20.10    5.80
  -1  -5  11   21.20    3.70
  -1  -5  11   13.70    4.30
  -1  -5  11   12.40    2.00
  -1  -5  11   14.80    2.70
   0   5 -11   -2.00    3.20
   0   5 -11   -0.40    3.20
   0  -5  11    0.40    2.00
   0  -5  11   -3.30    1.50
   0  -5  11   -2.40    2.60
  -1   5 -11   18.80    5.60
  -1   5 -11   13.70    3.80
  -1   5 -11   22.80    3.80
   1  -5  11   20.20    3.60
   1  -5  11   21.30    4.50
   1  -5  11   17.70    5.30
  -2   5 -11    4.10    2.60
  -2   5 -11    0.40    3.50
  -2   5 -11   -0.90    2.40
   2  -5  11   -4.30    2.40
   2  -5  11   -0.30    2.70
   3   4 -11    3.00    3.00
   3   4 -11   -0.50    4.10
  -3  -4  11   -0.70    1.00
  -3  -4  11    9.00    2.30
  -3  -4  11    1.00    2.00
  -3  -4  11   -0.20    1.00
   2   4 -11   30.70    5.90
   2   4 -11   43.20    8.30
  -2  -4  11   32.00    5.30
  -2  -4  11   47.50    5.20
   1   4 -11   -0.80    3.30
   1   4 -11    1.80    1.20
   1   4 -11    0.80    1.30
   1   4 -11    0.60    2.70
  -1  -4  11    2.40    1.50
  -1  -4  11   -4.40    1.90
  -1  -4  11    1.30    2.00
   0   4 -11  123.49   10.50
   0   4 -11  125.19   11.80
   0  -4  11  112.89   10.20
   0  -4  11  116.29    8.60
   0  -4  11   98.89    8.90
   0  -4  11   91.99   10.50
  -1   4 -11    2.70    1.90
  -1   4 -11    3.60    2.80
  -1   4 -11    7.00    3.90
   1  -4  11    3.50    3.50
   1  -4  11    4.60    2.70
   1  -4  11    4.90    2.90
  -2   4 -11  100.49    9.40
  -2   4 -11  113.59   11.10
  -2   4 -11  106.39    9.50
   2  -4  11   86.69   11.00
   2  -4  11  103.29    9.80
   2  -4  11  107.89    9.50
  -3   4 -11    3.40    3.80
  -3   4 -11   -1.70    2.10
  -3   4 -11    0.70    2.00
  -3   4 -11    2.70    2.90
   3  -4  11    1.00    3.50
   3  -4  11   -4.40    2.40
   3  -4  11    1.00    2.50
  -4   4 -11  118.19    9.20
  -4   4 -11   91.19    9.90
  -4   4 -11  110.79    9.10
  -4   4 -11   89.59    9.50
   4  -4  11   85.59   10.30
   4  -4  11   79.79   11.10
   4  -4  11   93.99    9.80
   4   3 -11   -4.90    3.40
   4   3 -11   -2.70    2.80
  -4  -3  11    1.30    1.30
  -4  -3  11   -1.30    1.60
   3   3 -11  136.39   12.10
   3   3 -11  142.99   14.20
  -3  -3  11  123.49    9.20
  -3  -3  11  110.99    9.60
  -3  -3  11  125.49    9.50
   2   3 -11   30.60    5.40
   2   3 -11   36.90    7.30
  -2  -3  11   34.00    4.30
  -2  -3  11   27.00    2.50
  -2  -3  11   29.50    2.50
   1   3 -11  175.58   11.60
   1   3 -11  180.18   11.70
   1   3 -11  174.38   14.60
   1   3 -11  198.18   16.00
  -1  -3  11  190.58   12.20
  -1  -3  11  173.78   13.50
  -1  -3  11  172.28   11.80
  -1  -3  11  152.38   13.80
   0   3 -11   12.50    3.80
   0   3 -11   13.40    2.60
   0   3 -11   11.50    4.50
   0  -3  11    8.40    3.20
   0  -3  11   10.00    2.70
   0  -3  11   11.60    2.60
  -1   3 -11  116.79    9.90
  -1   3 -11  114.09   10.80
  -1   3 -11  104.49    8.90
   1  -3  11  117.39    9.30
   1  -3  11   93.79   10.50
   1  -3  11   89.39    9.10
   1  -3  11  117.69   10.10
  -2   3 -11   78.09    9.10
  -2   3 -11   86.79    8.10
  -2   3 -11   79.29    5.60
  -2   3 -11   78.59    7.70
  -2   3 -11   83.29    5.60
   2  -3  11   73.89    8.20
   2  -3  11   78.69    7.90
   2  -3  11   56.89    9.30
  -3   3 -11   41.70    6.10
  -3   3 -11   56.79    6.20
  -3   3 -11   46.40    5.10
  -3   3 -11   51.99    7.40
  -3   3 -11   40.50    5.20
   3  -3  11   40.60    7.60
   3  -3  11   37.40    6.40
   3  -3  11   45.30    6.30
  -4   3 -11  108.39   10.20
  -4   3 -11  103.09   10.00
  -4   3 -11  105.59    9.10
  -4   3 -11  120.99    9.50
   4  -3  11   80.19    9.30
   4  -3  11   97.29   10.40
   4  -3  11   82.09   11.00
  -5   3 -11   15.30    4.30
  -5   3 -11   17.90    4.80
  -5   3 -11   22.50    4.50
   5  -3  11   14.10    5.00
   4   2 -11   36.10    8.40
   4   2 -11   45.30    7.30
  -4  -2  11   47.30    4.30
  -4  -2  11   47.90    4.00
  -4  -2  11   41.30    5.60
   3   2 -11   26.80    5.50
   3   2 -11   29.80    6.90
  -3  -2  11   35.80    3.80
  -3  -2  11   30.00    4.30
  -3  -2  11   39.20    4.40
   2   2 -11   15.70    5.20
   2   2 -11   16.50    4.60
  -2  -2  11   22.40    3.40
  -2  -2  11   11.20    2.20
  -2  -2  11   15.60    2.20
   1   2 -11   35.50    3.30
   1   2 -11   35.50    3.10
   1   2 -11   32.90    7.40
   1   2 -11   37.70    6.00
  -1  -2  11   36.30    3.60
  -1  -2  11   36.50    3.50
  -1  -2  11   38.50    4.70
  -1  -2  11   33.00    2.90
  -1  -2  11   34.30    5.40
  -1  -2  11   38.20    2.90
   0   2 -11   43.80    4.40
   0   2 -11   25.90    4.00
   0   2 -11   41.40    6.70
   0   2 -11   45.80    6.10
   0  -2  11   31.50    5.80
   0  -2  11   40.00    4.50
   0  -2  11   39.00    5.10
   0  -2  11   44.90    4.70
  -1   2 -11   53.09    6.50
  -1   2 -11   51.39    7.50
  -1   2 -11   48.20    5.30
   1  -2  11   37.00    6.70
   1  -2  11   54.29    6.20
   1  -2  11   50.99    5.60
   1  -2  11   43.00    5.70
  -2   2 -11   -1.00    1.40
  -2   2 -11   -0.20    1.30
  -2   2 -11   -6.20    2.00
  -2   2 -11    2.30    2.30
   2  -2  11    1.10    2.90
   2  -2  11    0.90    3.30
   2  -2  11   -1.20    2.30
  -3   2 -11   17.40    3.30
  -3   2 -11   21.60    5.20
  -3   2 -11   19.10    4.00
  -3   2 -11   19.10    4.10
  -3   2 -11   28.00    4.70
   3  -2  11   13.70    5.30
   3  -2  11   19.80    4.20
  -4   2 -11   -1.70    3.00
  -4   2 -11    2.20    2.60
  -4   2 -11    0.40    2.70
  -4   2 -11    6.80    3.60
   4  -2  11    0.30    2.70
   4  -2  11    2.60    4.10
  -5   2 -11   21.50    4.70
  -5   2 -11   19.50    4.60
   5  -2  11   18.30    5.10
   5  -2  11   18.30    6.20
  -6   2 -11   -0.10    4.10
  -6   2 -11    5.00    3.70
   6  -2  11   14.20    6.90
   6  -2  11    4.30    3.80
   5   1 -11   -0.40    3.10
  -5  -1  11   -0.80    2.70
  -5  -1  11    1.70    1.10
  -5  -1  11    2.90    0.90
   4   1 -11    4.60    4.40
   4   1 -11    9.00    4.20
  -4  -1  11   10.30    1.70
  -4  -1  11    5.90    2.70
  -4  -1  11    9.10    1.90
   3   1 -11   13.40    5.30
   3   1 -11   13.20    4.30
  -3  -1  11   13.20    3.20
  -3  -1  11   20.50    2.70
  -3  -1  11   15.80    3.10
   2   1 -11   47.40    6.80
  -2  -1  11   47.40    4.40
  -2  -1  11   50.29    5.10
  -2  -1  11   44.30    5.70
  -2  -1  11   43.50    4.70
   1   1 -11    5.10    2.80
   1   1 -11    5.10    1.40
   1   1 -11    3.90    1.50
   1   1 -11    8.90    4.10
  -1  -1  11    7.70    2.40
  -1  -1  11    5.40    1.70
  -1  -1  11    5.50    1.70
  -1  -1  11    7.10    2.80
  -1  -1  11    4.90    1.50
  -1  -1  11    4.00    1.50
   0   1 -11  109.59    8.40
   0   1 -11  109.59    8.70
   0   1 -11  118.29    9.90
   0  -1  11  104.39    9.20
   0  -1  11   98.79    8.50
   0  -1  11  107.69    7.60
   0  -1  11  107.99   10.70
   0  -1  11  114.49    8.70
  -1   1 -11   52.39    5.50
  -1   1 -11   59.49    6.50
  -1   1 -11   75.89   11.90
   1  -1  11   56.69    8.50
   1  -1  11   47.90    5.60
   1  -1  11   47.90    3.90
   1  -1  11   51.79    5.60
  -2   1 -11  251.37   16.10
  -2   1 -11  226.18   20.40
  -2   1 -11  227.48   14.20
  -2   1 -11  206.98   15.50
   2  -1  11  197.18   15.70
   2  -1  11  203.18   15.70
   2  -1  11  207.28   18.40
   2  -1  11  197.78   16.30
   2  -1  11  191.88   13.60
  -3   1 -11   10.70    3.30
  -3   1 -11    8.70    3.40
  -3   1 -11   11.00    3.90
  -3   1 -11   11.10    2.90
  -3   1 -11   10.30    3.20
   3  -1  11    9.60    5.00
   3  -1  11    8.20    1.70
   3  -1  11    8.70    3.50
   3  -1  11   11.10    3.50
  -4   1 -11  328.27   23.20
  -4   1 -11  317.37   22.50
   4  -1  11  289.77   20.20
   4  -1  11  332.37   23.10
   4  -1  11  303.47   25.90
   4  -1  11  277.27   22.00
  -5   1 -11    4.70    3.40
  -5   1 -11    8.50    2.20
  -5   1 -11   16.00    4.30
   5  -1  11   11.80    5.80
   5  -1  11    8.20    4.00
  -6   1 -11  100.39   10.60
  -6   1 -11  121.19   13.10
  -6   1 -11  108.69    8.60
   6  -1  11  111.79   14.10
   5   0 -11    5.60    3.80
  -5   0  11   15.70    2.20
  -5   0  11   15.60    2.80
  -5   0  11    9.40    3.60
   4   0 -11    1.80    2.80
   4   0 -11   -3.50    3.30
  -4   0  11   -1.10    2.10
  -4   0  11    2.70    1.50
  -4   0  11    2.80    1.30
   3   0 -11  159.38   16.60
  -3   0  11  168.78   13.10
  -3   0  11  187.78   13.80
   2   0 -11    7.20    3.90
  -2   0  11    7.30    2.10
  -2   0  11   11.80    2.40
  -2   0  11    6.20    1.20
  -2   0  11    5.10    1.30
  -2   0  11   10.70    3.30
   1   0 -11  213.08   14.30
   1   0 -11  221.48   16.00
   1   0 -11  193.08   14.00
   1   0 -11  213.78   16.90
  -1   0  11  204.58   14.40
  -1   0  11  202.68   16.40
  -1   0  11  230.88   14.30
  -1   0  11  207.68   15.00
  -1   0  11  203.38   14.00
   0   0 -11   47.90    5.20
   0   0 -11   51.69    6.20
   0   0 -11   53.99    5.00
   0   0 -11   55.29    7.40
   0   0  11   42.80    4.90
   0   0  11   54.59    5.60
   0   0  11   38.90    5.10
   0   0  11   47.20    7.40
  -1   0 -11  204.28   14.70
  -1   0 -11  214.58   15.60
  -1   0 -11  187.98   14.10
  -1   0 -11  213.68   14.80
   1   0  11  169.18   14.70
   1   0  11  186.48   14.40
   1   0  11  201.88   14.50
   1   0  11  185.08   16.50
   1   0  11  197.58   13.30
  -2   0 -11  101.29    9.20
  -2   0 -11  123.49    9.70
  -2   0 -11  116.49   10.30
  -2   0 -11  105.49    8.90
  -2   0 -11  117.39    8.20
   2   0  11  105.29    9.50
   2   0  11   94.29    7.90
   2   0  11  103.69   10.00
   2   0  11  110.39   12.00
   2   0  11  111.29    9.70
  -3   0 -11  233.68   15.50
  -3   0 -11  193.28   15.10
  -3   0 -11  179.38   14.40
   3   0  11  166.78   17.10
   3   0  11  193.58   15.10
   3   0  11  175.48   13.20
   3   0  11  166.28   14.40
  -4   0 -11  137.59   11.10
  -4   0 -11  116.99   11.40
  -4   0 -11  122.59   10.20
   4   0  11  119.19   11.60
   4   0  11  121.19   10.70
   4   0  11   98.79    9.00
  -5   0 -11   28.90    3.90
  -5   0 -11   33.90    5.60
  -5   0 -11   40.70    6.40
   5   0  11   17.30    5.00
   5   0  11   22.90    7.50
   5   0  11   27.20    4.20
   5   0  11   31.70    8.20
  -6   0 -11  128.79   12.20
  -6   0 -11  122.99   11.70
  -6   0 -11  145.99   10.10
   6   0  11   91.49   11.50
   6   0  11  133.29   12.50
   6   0  11  125.99   15.00
   5  -1 -11   15.50    4.30
  -5   1  11   10.60    4.30
  -5   1  11   12.90    2.40
  -5   1  11   12.60    3.20
   4  -1 -11  200.68   18.50
   4  -1 -11  204.58   17.30
  -4   1  11  218.88   16.30
  -4   1  11  240.28   14.90
  -4   1  11  221.18   17.40
   3  -1 -11  112.89   11.80
   3  -1 -11  115.99   10.90
  -3   1  11  124.69    8.80
  -3   1  11  112.99   10.00
   2  -1 -11  279.57   19.00
   2  -1 -11  297.97   19.10
   2  -1 -11  302.07   22.60
   2  -1 -11  302.67   21.60
  -2   1  11  301.67   19.50
  -2   1  11  290.37   21.50
  -2   1  11  303.87   20.00
  -2   1  11  303.87   20.00
  -2   1  11  291.87   19.10
   1  -1 -11  120.39   10.00
   1  -1 -11   95.39   10.40
   1  -1 -11  110.59    8.60
  -1   1  11  112.89    8.90
  -1   1  11  103.99   10.10
  -1   1  11  107.79    8.10
  -1   1  11  108.89    8.40
  -1   1  11  116.39    8.70
   0  -1 -11  186.98   14.60
   0  -1 -11  177.18   12.90
   0  -1 -11  191.98   13.50
   0  -1 -11  194.18   14.00
   0   1  11  187.38   12.70
   0   1  11  172.88   15.10
   0   1  11  167.88   13.40
   0   1  11  172.08   12.80
   0   1  11  172.88   13.20
  -1  -1 -11  208.08   14.70
  -1  -1 -11  212.78   15.10
  -1  -1 -11  211.08   15.70
  -1  -1 -11  198.88   13.10
  -1  -1 -11  196.88   13.60
  -1  -1 -11  210.28   15.20
   1   1  11  220.18   14.90
   1   1  11  184.88   14.80
   1   1  11  192.38   15.10
   1   1  11  198.88   14.00
   1   1  11  182.08   16.90
  -2  -1 -11   22.80    4.20
  -2  -1 -11   22.40    4.60
  -2  -1 -11   20.70    4.00
   2   1  11   19.60    4.10
   2   1  11   23.10    4.60
   2   1  11   17.30    5.50
   2   1  11   18.90    4.10
   2   1  11   16.50    3.00
  -3  -1 -11  133.69    9.70
  -3  -1 -11  123.69   10.40
  -3  -1 -11  129.19   10.90
  -3  -1 -11  103.59   10.70
   3   1  11  118.49   10.50
   3   1  11  126.89   10.70
   3   1  11  122.99   13.50
   3   1  11  100.99    9.10
  -4  -1 -11    0.60    1.70
  -4  -1 -11    1.40    2.60
  -4  -1 -11    5.10    3.40
  -4  -1 -11    1.10    2.60
   4   1  11    1.40    3.40
   4   1  11    2.70    2.70
   4   1  11   -0.80    2.50
  -5  -1 -11   33.90    5.70
  -5  -1 -11   30.00    5.80
  -5  -1 -11   33.90    4.30
   5   1  11   31.60    4.70
   5   1  11   24.30    9.10
   5   1  11   22.20    5.70
  -6  -1 -11    2.60    3.70
  -6  -1 -11    0.40    2.80
  -6  -1 -11    1.10    2.10
   6   1  11    6.80    5.20
   6   1  11   -4.30    2.10
   6   1  11    1.60    3.00
  -7  -1 -11   53.09    6.30
  -7  -1 -11   58.19    7.80
  -7  -1 -11   57.89    8.70
   7   1  11   47.50    8.50
   7   1  11   42.70   10.10
   6  -2 -11    2.70    3.30
  -6   2  11   -3.30    1.70
  -6   2  11    3.80    3.70
  -6   2  11    2.50    2.40
   5  -2 -11    3.70    3.30
  -5   2  11    5.80    2.10
   4  -2 -11   25.30    5.50
  -4   2  11   31.30    3.70
  -4   2  11   27.60    2.40
  -4   2  11   28.40    2.30
  -4   2  11   32.80    5.10
   3  -2 -11    6.50    3.60
   3  -2 -11    8.40    6.80
   3  -2 -11    7.70    1.40
   3  -2 -11    8.90    1.50
  -3   2  11    9.10    1.80
  -3   2  11   12.90    3.80
  -3   2  11   10.60    2.40
  -3   2  11    9.90    1.80
   2  -2 -11    5.10    2.90
   2  -2 -11    1.40    1.40
   2  -2 -11    3.10    3.50
   2  -2 -11    3.00    1.50
  -2   2  11    4.30    2.00
  -2   2  11    3.00    1.60
  -2   2  11    3.00    1.90
  -2   2  11    2.40    2.60
  -2   2  11    2.20    1.40
   1  -2 -11   30.60    5.00
   1  -2 -11   33.60    3.80
   1  -2 -11   25.70    5.40
  -1   2  11   35.20    4.50
  -1   2  11   36.20    6.00
  -1   2  11   30.90    3.60
  -1   2  11   36.00    4.10
  -1   2  11   30.60    4.00
  -1   2  11   45.10   11.20
   0  -2 -11    1.10    2.60
   0  -2 -11    3.30    2.10
   0  -2 -11    3.70    2.50
   0  -2 -11    4.40    1.90
   0   2  11    3.70    3.00
   0   2  11   -0.30    4.00
   0   2  11    2.00    1.60
   0   2  11    3.40    2.00
   0   2  11    5.20    2.30
   0   2  11    6.00    2.40
  -1  -2 -11   33.80    4.50
  -1  -2 -11   43.90    5.80
  -1  -2 -11   42.40    3.80
  -1  -2 -11   26.60    4.50
  -1  -2 -11   39.90    5.30
  -1  -2 -11   34.30    5.70
   1   2  11   30.70    5.10
   1   2  11   47.60    8.00
   1   2  11   36.50    5.10
   1   2  11   37.90    4.40
  -2  -2 -11   14.30    3.40
  -2  -2 -11    9.60    3.50
  -2  -2 -11   10.30    2.60
  -2  -2 -11    9.10    3.30
   2   2  11   13.30    4.90
   2   2  11    8.60    2.90
   2   2  11    8.60    3.00
   2   2  11   16.40    3.90
   2   2  11   11.90    2.80
  -3  -2 -11   20.70    4.70
  -3  -2 -11   18.00    3.40
  -3  -2 -11   21.40    4.50
  -3  -2 -11   19.70    4.40
   3   2  11   22.40    6.30
   3   2  11   16.30    3.30
   3   2  11   17.40    4.30
   3   2  11   18.00    4.40
  -4  -2 -11   28.60    4.10
  -4  -2 -11   40.60    5.30
  -4  -2 -11   25.50    6.10
  -4  -2 -11   36.30    5.90
   4   2  11   28.60    5.90
   4   2  11   36.90    8.30
   4   2  11   21.00    4.00
  -5  -2 -11   95.49    8.90
  -5  -2 -11   83.79    9.20
  -5  -2 -11   95.29    7.70
   5   2  11   66.49    7.80
   5   2  11   83.89    9.10
  -6  -2 -11  106.09    9.00
  -6  -2 -11  100.59   10.00
  -6  -2 -11  118.39   12.00
   6   2  11  106.69   10.90
   6   2  11   79.79   13.70
  -7  -2 -11   35.10    7.20
  -7  -2 -11   42.70    7.20
  -7  -2 -11   53.79    7.40
   7   2  11   42.70   10.10
   7   2  11   52.19    9.60
   6  -3 -11   18.90    5.40
  -6   3  11   10.50    3.60
  -6   3  11    1.30    3.90
  -6   3  11    1.60    2.40
   5  -3 -11   10.40    3.90
  -5   3  11   14.60    2.00
  -5   3  11    6.40    2.40
  -5   3  11    7.60    1.70
  -5   3  11   12.50    4.00
   4  -3 -11   11.90    2.00
   4  -3 -11   14.90    2.00
   4  -3 -11   13.00    3.80
  -4   3  11   15.00    2.40
  -4   3  11    8.90    2.00
  -4   3  11   16.80    4.20
  -4   3  11   15.80    2.90
   3  -3 -11   49.30    4.60
   3  -3 -11   57.79    4.90
   3  -3 -11   50.69    7.90
   3  -3 -11   59.19    6.90
  -3   3  11   59.19    5.10
  -3   3  11   44.20   14.50
  -3   3  11   51.79    5.00
  -3   3  11   46.80    6.50
  -3   3  11   37.80    4.50
   2  -3 -11   32.90    4.70
   2  -3 -11   34.80    5.50
   2  -3 -11   34.70    4.20
   2  -3 -11   27.90    5.70
  -2   3  11   22.50    4.90
  -2   3  11   27.70    3.60
  -2   3  11   35.20    4.00
  -2   3  11   21.10    8.90
  -2   3  11   29.60    4.20
  -2   3  11   28.00    4.00
   1  -3 -11  105.79    9.00
   1  -3 -11  112.09   10.40
   1  -3 -11  117.79    9.90
   1  -3 -11  112.49    8.80
  -1   3  11  111.39   15.70
  -1   3  11  102.19    9.00
  -1   3  11  104.99    8.90
  -1   3  11  115.49   11.00
  -1   3  11  113.49    8.50
  -1   3  11  120.59    9.00
   0  -3 -11   61.29    6.20
   0  -3 -11   50.29    4.80
   0  -3 -11   64.59    6.10
   0  -3 -11   48.20    6.30
   0  -3 -11   61.09    5.70
   0  -3 -11   53.29    4.30
   0   3  11   57.59   10.60
   0   3  11   51.69    5.50
   0   3  11   47.20    5.50
   0   3  11   63.29    7.80
   0   3  11   47.50    5.70
   0   3  11   54.49    5.40
  -1  -3 -11  355.86   23.90
  -1  -3 -11  352.96   23.60
  -1  -3 -11  381.06   22.50
  -1  -3 -11  337.77   25.10
  -1  -3 -11  316.77   23.70
   1   3  11  367.96   23.50
   1   3  11  312.27   23.60
   1   3  11  318.27   23.70
   1   3  11  340.57   23.20
   1   3  11  322.27   26.10
  -2  -3 -11   83.19    6.50
  -2  -3 -11   61.69    7.70
  -2  -3 -11   74.79    7.40
   2   3  11   66.99    7.60
   2   3  11   72.09    7.50
   2   3  11   62.39    6.60
   2   3  11   59.09    9.70
   2   3  11   75.99    7.50
  -3  -3 -11  397.66   23.70
  -3  -3 -11  367.66   24.10
  -3  -3 -11  356.66   24.40
   3   3  11  326.97   24.20
   3   3  11  332.17   24.50
   3   3  11  296.37   23.50
   3   3  11  324.17   27.20
  -4  -3 -11  165.68   12.00
  -4  -3 -11  152.88   11.40
  -4  -3 -11  139.99   15.20
  -4  -3 -11  141.29   12.60
   4   3  11  163.08   13.10
   4   3  11  136.59   12.70
   4   3  11  134.99   14.90
   4   3  11  129.49   11.70
  -5  -3 -11  226.18   14.60
  -5  -3 -11  183.68   15.60
  -5  -3 -11  204.88   15.10
   5   3  11  151.38   20.10
   5   3  11  174.68   16.00
   5   3  11  179.48   14.90
  -6  -3 -11  152.28   11.50
  -6  -3 -11  121.89   13.80
  -6  -3 -11  139.89   12.40
   6   3  11  136.89   12.90
   6   3  11  119.69   15.20
  -7  -3 -11   56.59    7.80
  -7  -3 -11   49.20    6.70
  -7  -3 -11   53.59    8.90
   7   3  11   51.29   11.10
   7   3  11   60.09    9.00
   6  -4 -11   26.50    3.50
   6  -4 -11   19.10    5.40
  -6   4  11   28.70    6.20
  -6   4  11   23.50    4.40
  -6   4  11   24.80    3.50
  -6   4  11   37.10    3.90
   5  -4 -11   79.79    6.00
   5  -4 -11   70.99    8.60
   5  -4 -11   73.49    6.10
  -5   4  11   70.09    7.30
  -5   4  11   88.99    9.50
  -5   4  11   64.29    6.20
   4  -4 -11  177.68   12.20
   4  -4 -11  152.88   13.90
   4  -4 -11  169.18   14.60
  -4   4  11  188.38   12.60
  -4   4  11  154.28   12.10
  -4   4  11  170.38   12.50
  -4   4  11  184.18   15.30
  -4   4  11  161.18   22.10
   3  -4 -11   98.99    9.30
   3  -4 -11   84.89    7.50
   3  -4 -11  104.19    7.80
  -3   4  11  103.19    8.00
  -3   4  11   88.49   15.60
  -3   4  11   99.49    7.80
  -3   4  11   96.69    9.80
  -3   4  11   68.19    7.40
   2  -4 -11  151.18   14.10
   2  -4 -11  171.38   13.80
   2  -4 -11  168.98   12.70
   2  -4 -11  171.78   12.90
  -2   4  11  178.38   12.80
  -2   4  11  175.18   12.50
  -2   4  11  191.48   22.10
  -2   4  11  168.58   12.90
  -2   4  11  184.28   13.20
  -2   4  11  170.48   14.90
   1  -4 -11  236.28   17.50
   1  -4 -11  277.27   17.50
   1  -4 -11  218.58   15.50
   1  -4 -11  246.48   17.90
   1  -4 -11  246.98   18.60
   1  -4 -11  214.38   15.70
  -1   4  11  258.77   17.80
  -1   4  11  241.08   19.70
  -1   4  11  279.27   17.60
  -1   4  11  262.87   17.00
  -1   4  11  269.27   17.60
   0  -4 -11  116.59    9.80
   0  -4 -11  103.09    9.00
   0  -4 -11  102.29    9.20
   0  -4 -11  117.99    8.30
   0  -4 -11  101.89    9.80
   0   4  11  117.99    8.90
   0   4  11  102.29   10.30
   0   4  11  100.59   11.10
   0   4  11  107.19   10.10
  -1  -4 -11  499.15   29.50
  -1  -4 -11  455.25   30.50
  -1  -4 -11  413.76   31.00
  -1  -4 -11  448.86   30.40
   1   4  11  417.06   30.50
   1   4  11  449.26   30.70
   1   4  11  465.65   30.20
   1   4  11  433.96   33.20
   1   4  11  475.35   30.50
  -2  -4 -11   43.60    7.20
  -2  -4 -11   53.19    6.80
  -2  -4 -11   37.20    5.60
  -2  -4 -11   58.69    5.40
   2   4  11   41.00    8.30
   2   4  11   53.19    6.90
   2   4  11   46.50    6.20
  -3  -4 -11  249.48   21.90
  -3  -4 -11  322.37   20.10
  -3  -4 -11  279.07   20.70
  -3  -4 -11  302.57   20.20
   3   4  11  286.17   20.70
   3   4  11  249.48   20.70
   3   4  11  277.37   24.10
   3   4  11  287.67   20.50
  -4  -4 -11    6.00    3.60
  -4  -4 -11    1.20    2.20
  -4  -4 -11   -1.30    2.20
  -4  -4 -11    0.50    2.40
   4   4  11    2.60    2.50
   4   4  11   -0.10    2.20
   4   4  11   -0.10    2.80
  -5  -4 -11  191.38   14.00
  -5  -4 -11  187.08   16.20
  -5  -4 -11  201.48   15.60
   5   4  11  166.18   15.60
   5   4  11  158.68   18.40
  -6  -4 -11    6.10    4.00
  -6  -4 -11    7.20    3.70
   6   4  11    3.40    4.80
   6   4  11    3.50    3.70
  -7  -4 -11   70.39    9.50
  -7  -4 -11   52.59    7.30
  -7  -4 -11   65.99    8.20
   7   4  11   72.59    9.80
   7   4  11   43.00    9.80
   5  -5 -11   76.09    8.50
   5  -5 -11   39.80    6.50
  -5   5  11   55.69    6.80
  -5   5  11   66.19    7.00
  -5   5  11   67.69   10.20
  -5   5  11   81.89    6.90
   4  -5 -11    0.80    1.80
   4  -5 -11   -3.80    2.80
  -4   5  11    3.80    2.00
  -4   5  11    3.90    2.20
  -4   5  11    5.80    3.90
  -4   5  11   -1.70    3.50
  -4   5  11    1.90    2.20
   3  -5 -11   28.60    5.60
   3  -5 -11   26.50    4.60
  -3   5  11   42.60    4.90
  -3   5  11   51.09    6.80
  -3   5  11   40.80    5.40
  -3   5  11   44.80   11.20
  -3   5  11   25.70    4.60
   2  -5 -11   21.90    5.00
   2  -5 -11   22.10    3.90
   2  -5 -11   25.80    4.90
  -2   5  11   28.50    4.40
  -2   5  11   26.50    4.70
  -2   5  11   23.60    5.50
  -2   5  11   21.30    3.80
  -2   5  11   26.10    4.00
  -2   5  11   20.30    7.80
   1  -5 -11    6.20    3.00
   1  -5 -11    4.00    2.30
   1  -5 -11    9.60    2.80
   1  -5 -11    5.00    1.80
   1  -5 -11    6.50    2.30
  -1   5  11    5.00    2.20
  -1   5  11   11.70    3.10
  -1   5  11   10.90    3.50
  -1   5  11    6.50    2.40
  -1   5  11    6.80    3.80
  -1   5  11   10.70    5.90
   0  -5 -11   30.80    5.60
   0  -5 -11   47.90    5.70
   0  -5 -11   53.19    5.60
   0  -5 -11   46.40    6.40
   0  -5 -11   47.90    5.00
   0   5  11   51.89    5.90
   0   5  11   48.60    5.40
   0   5  11   48.70    8.10
   0   5  11   47.70    5.40
   0   5  11   44.40    5.40
   0   5  11   54.79    9.90
  -1  -5 -11    3.20    2.40
  -1  -5 -11    5.20    2.20
  -1  -5 -11    3.30    2.50
  -1  -5 -11    0.20    2.30
   1   5  11    1.70    2.40
   1   5  11    1.30    3.80
   1   5  11    1.00    2.60
   1   5  11    3.30    2.20
   1   5  11    2.80    2.30
  -2  -5 -11   21.80    3.90
  -2  -5 -11   26.20    4.80
  -2  -5 -11   21.10    3.90
   2   5  11   22.60    4.40
   2   5  11   32.40    5.10
   2   5  11   18.30    4.20
   2   5  11   15.90    5.70
  -3  -5 -11   31.70    5.70
  -3  -5 -11   26.40    4.30
  -3  -5 -11   26.20    4.10
  -3  -5 -11   31.70    5.90
   3   5  11   23.50    4.90
   3   5  11   28.40    5.70
   3   5  11   19.90    4.50
   3   5  11   20.80    6.50
  -4  -5 -11   14.50    3.40
  -4  -5 -11    9.70    3.30
  -4  -5 -11   15.50    3.90
  -4  -5 -11   12.60    4.00
   4   5  11   16.10    4.40
   4   5  11   11.70    5.50
   4   5  11    8.50    4.20
  -5  -5 -11    4.50    3.30
  -5  -5 -11    3.00    3.50
  -5  -5 -11    0.80    2.30
   5   5  11   -1.40    4.50
   5   5  11   -1.50    3.10
  -6  -5 -11   13.40    5.40
  -6  -5 -11    6.40    3.70
   6   5  11    0.30    4.80
   6   5  11    5.90    3.80
  -7  -5 -11    0.80    3.60
  -7  -5 -11    2.60    3.50
  -7  -5 -11    0.60    3.00
   7   5  11    8.30    4.60
   7   5  11    3.40    5.70
   5  -6 -11    2.20    2.40
   5  -6 -11    2.00    3.00
  -5   6  11    1.10    2.30
  -5   6  11    0.30    2.60
  -5   6  11    6.40    4.60
   4  -6 -11   11.10    5.50
   4  -6 -11    8.10    3.00
  -4   6  11   12.60    3.50
  -4   6  11   20.70    5.90
  -4   6  11   14.50    6.50
  -4   6  11   19.20    3.90
   3  -6 -11   -0.20    2.20
   3  -6 -11   -4.30    2.10
  -3   6  11   -1.80    3.40
  -3   6  11    3.50    2.60
  -3   6  11   -0.60    2.70
  -3   6  11   -0.20    2.40
   2  -6 -11   73.49    7.10
   2  -6 -11   64.89    7.30
   2  -6 -11   54.89    5.60
  -2   6  11   66.19    6.80
  -2   6  11   73.39    7.20
  -2   6  11   69.19   11.60
  -2   6  11   69.49    9.10
  -2   6  11   62.19    7.00
   1  -6 -11    0.40    2.40
   1  -6 -11    1.60    2.00
   1  -6 -11    0.20    2.10
   1  -6 -11    2.20    2.10
  -1   6  11    4.20    2.80
  -1   6  11   -0.10    3.80
  -1   6  11    0.70    3.10
  -1   6  11   -0.20    2.10
  -1   6  11    0.80    2.40
   0  -6 -11  124.09   10.20
   0  -6 -11  119.19   11.40
   0  -6 -11  124.89    9.70
   0  -6 -11  108.39    9.60
   0  -6 -11  108.59    9.90
   0   6  11  120.49    9.60
   0   6  11  102.59   10.10
   0   6  11  109.19   12.20
   0   6  11  128.79   14.70
  -1  -6 -11   69.29    8.50
  -1  -6 -11   65.39    7.30
  -1  -6 -11   55.69    6.40
  -1  -6 -11   69.79    6.20
   1   6  11   61.39   10.00
   1   6  11   55.19    6.50
   1   6  11   55.89    7.40
  -2  -6 -11  254.37   17.20
  -2  -6 -11  238.38   17.10
  -2  -6 -11  249.08   18.20
  -2  -6 -11  246.78   20.40
   2   6  11  263.67   18.00
   2   6  11  218.28   20.80
   2   6  11  201.08   17.80
  -3  -6 -11   78.39    7.20
  -3  -6 -11   73.29    8.40
  -3  -6 -11   89.09    7.90
   3   6  11   63.99    7.80
   3   6  11   70.39    8.00
  -4  -6 -11  219.48   18.80
  -4  -6 -11  247.38   17.40
  -4  -6 -11  239.58   18.00
  -4  -6 -11  278.57   19.70
  -5  -6 -11  112.19   10.10
  -5  -6 -11   88.49   13.20
  -5  -6 -11  123.49   10.60
   5   6  11  105.29   11.00
   5   6  11  118.39   14.20
  -6  -6 -11  233.98   17.80
  -6  -6 -11  234.28   17.30
  -6  -6 -11  220.28   18.50
   6   6  11  229.58   18.50
   6   6  11  207.38   21.70
   5  -7 -11    5.70    3.20
   5  -7 -11    6.50    3.80
  -5   7  11    8.00    3.30
  -5   7  11   12.90    6.30
  -5   7  11   10.80    3.80
   4  -7 -11   15.70    4.20
   4  -7 -11   15.50    4.70
  -4   7  11   17.50    4.20
  -4   7  11    9.70    3.50
  -4   7  11   16.00    5.90
   3  -7 -11   58.69    7.60
   3  -7 -11   72.79    6.60
   3  -7 -11   76.79    8.40
  -3   7  11   67.29    9.40
  -3   7  11   68.09   11.10
  -3   7  11  105.49   11.30
  -3   7  11   93.19    8.40
   2  -7 -11   88.69    8.50
   2  -7 -11  126.69   10.70
   2  -7 -11  106.69   10.10
  -2   7  11  109.09    9.80
  -2   7  11  103.19   11.80
  -2   7  11   88.49   13.00
  -2   7  11  113.29    9.40
   1  -7 -11  185.18   14.60
   1  -7 -11  185.28   15.90
   1  -7 -11  189.78   14.50
  -1   7  11  201.08   19.40
  -1   7  11  188.78   16.00
  -1   7  11  190.08   17.50
  -1   7  11  184.88   14.80
   0  -7 -11  196.28   14.00
   0  -7 -11  179.28   14.20
   0  -7 -11  152.28   13.50
   0  -7 -11  180.28   17.20
   0   7  11  211.38   18.80
   0   7  11  192.18   17.40
   0   7  11  165.58   14.40
  -1  -7 -11  182.18   13.00
  -1  -7 -11  197.98   16.30
  -1  -7 -11  188.08   14.10
  -1  -7 -11  152.38   12.70
   1   7  11  160.88   16.50
   1   7  11  166.68   13.80
   1   7  11  143.39   13.90
  -2  -7 -11   28.80    4.20
  -2  -7 -11   25.40    4.40
  -2  -7 -11   38.50    6.10
   2   7  11   20.00    4.70
   2   7  11   31.40    5.10
  -3  -7 -11  142.19   11.00
  -3  -7 -11  157.88   13.10
  -3  -7 -11  149.69   11.90
   3   7  11  139.59   16.00
   3   7  11  136.49   13.00
  -4  -7 -11   14.50    4.50
  -4  -7 -11   12.30    3.90
  -4  -7 -11   10.80    2.70
  -4  -7 -11   15.40    4.20
   4   7  11   11.30    6.10
   4   7  11   16.40    4.70
  -5  -7 -11  142.99   12.60
  -5  -7 -11  152.18   13.00
  -5  -7 -11  159.38   11.60
   5   7  11  141.09   16.70
   5   7  11  155.08   13.60
  -6  -7 -11    5.30    4.20
  -6  -7 -11   -1.90    2.90
  -6  -7 -11    9.60    5.20
   6   7  11   -0.10    3.60
   6   7  11    5.90    5.30
   4  -8 -11   57.69    8.10
   4  -8 -11   70.89    8.30
   4  -8 -11   70.19    6.90
  -4   8  11   56.79    8.20
   3  -8 -11   66.69    8.40
   3  -8 -11   79.29    8.50
   3  -8 -11   95.49    9.00
   3  -8 -11   72.69    7.70
  -3   8  11   88.79   11.40
  -3   8  11   82.19    8.90
  -3   8  11   99.79    8.80
   2  -8 -11  173.38   14.50
   2  -8 -11  190.38   15.30
   2  -8 -11  189.68   16.20
  -2   8  11  201.18   18.60
  -2   8  11  205.28   15.30
  -2   8  11  175.58   19.40
  -2   8  11  201.98   15.40
  -2   8  11  202.98   14.50
   1  -8 -11   31.50    5.30
   1  -8 -11   39.00    6.90
   1  -8 -11   29.50    4.80
   1  -8 -11   22.90    4.60
  -1   8  11   32.60    5.40
  -1   8  11   30.50    9.30
  -1   8  11   23.40    6.30
  -1   8  11   25.20    5.80
   0  -8 -11  163.18   15.20
   0  -8 -11  151.38   13.30
   0  -8 -11  165.68   13.20
   0   8  11  154.38   16.60
   0   8  11  182.48   16.90
   0   8  11  155.88   13.70
   0   8  11  157.98   15.60
  -1  -8 -11    4.80    2.40
  -1  -8 -11    3.40    3.10
  -1  -8 -11    4.90    2.60
   1   8  11    2.50    4.20
   1   8  11    5.70    3.40
  -2  -8 -11  133.69   10.80
  -2  -8 -11  127.29   11.60
  -2  -8 -11  116.79    9.60
   2   8  11  129.09   12.00
  -3  -8 -11    3.40    2.80
  -3  -8 -11    1.80    1.80
  -3  -8 -11    3.00    3.30
   3   8  11    5.60    3.50
   3   8  11    6.90    5.30
  -4  -8 -11   63.39    7.40
  -4  -8 -11   69.99    7.60
  -4  -8 -11   82.09   10.30
   4   8  11   55.89   11.20
   4   8  11   58.69    8.10
  -5  -8 -11    5.50    3.10
  -5  -8 -11    5.10    3.50
  -5  -8 -11    7.60    4.40
  -5  -8 -11    3.80    2.00
   5   8  11    1.60    3.70
   5   8  11    3.80    4.80
   3  -9 -11   -0.80    2.50
   3  -9 -11    4.40    3.20
   3  -9 -11    4.60    3.40
  -3   9  11    6.40    3.60
  -3   9  11    0.00    3.60
  -3   9  11   -1.20    3.20
   2  -9 -11   15.80    4.40
   2  -9 -11    9.70    3.70
   2  -9 -11    5.30    3.30
   2  -9 -11   10.60    3.60
  -2   9  11   14.50    5.60
  -2   9  11   14.60    4.20
  -2   9  11    5.40    3.00
   1  -9 -11   11.60    4.20
   1  -9 -11   10.90    4.00
   1  -9 -11   14.70    3.80
  -1   9  11   10.10    3.70
  -1   9  11   20.70    4.70
  -1   9  11   20.50    6.30
   0  -9 -11    5.20    2.80
   0  -9 -11    3.50    3.10
   0   9  11    7.60    4.90
   0   9  11    2.70    4.70
   0   9  11    5.70    3.00
  -1  -9 -11   14.20    6.90
  -1  -9 -11   12.30    4.20
   1   9  11    9.30    3.70
   1   9  11    7.10    4.90
  -2  -9 -11   35.10    6.40
  -2  -9 -11   44.00    7.00
   2   9  11   32.20    5.60
   2   9  11   22.00    7.60
  -3  -9 -11   -0.30    1.00
  -3  -9 -11    4.10    3.20
  -3  -9 -11   -1.80    3.00
   3   9  11    2.70    4.50
   3   9  11   -1.80    3.10
  -4  -9 -11   56.49    7.10
  -4  -9 -11   50.19    4.30
  -4  -9 -11   41.80    7.30
  -4  -9 -11   46.20    6.90
   4   9  11   55.79    7.70
   4   9  11   47.40   10.70
  -5  -9 -11    2.50    1.30
  -5  -9 -11   -0.50    3.00
   5   9  11   -1.80    4.90
   5   9  11    3.60    3.90
   2 -10 -11    2.70    3.50
   2 -10 -11    0.20    3.00
   2 -10 -11   -1.10    2.30
  -2  10  11    1.20    4.60
  -2  10  11    1.60    3.30
   1 -10 -11   32.90    6.00
   1 -10 -11   30.10    4.90
   1 -10 -11   37.00    6.30
  -1  10  11   40.90    9.10
   0 -10 -11   15.10    4.50
   0 -10 -11   18.70    4.60
   0  10  11    7.40    4.80
   0  10  11    7.40    3.60
   0  10  11    7.90    3.10
  -1 -10 -11  150.88   12.50
   1  10  11  149.49   16.20
   1  10  11  128.89   12.20
  -2 -10 -11   35.20    8.10
  -2 -10 -11   37.00    6.10
   2  10  11   38.00    9.00
   2  10  11   32.30    5.90
  -3 -10 -11  158.78   13.30
  -3 -10 -11  141.99   13.70
   3  10  11  150.28   17.00
   3  10  11  147.09   13.20
  -4 -10 -11   16.80    5.30
  -4 -10 -11   19.10    4.90
  -4 -10 -11   14.60    4.50
   4  10  11   13.20    4.80
   4  10  11   21.20    7.40
   0  11  11  118.99   14.60
  -1 -11 -11    1.70    3.20
  -1 -11 -11    3.70    3.50
   1  11  11   -1.30    3.20
   1  11  11   -3.70    2.20
   1  11  11    3.30    5.20
   1  11  11    0.00    2.00
  -2 -11 -11   68.39    9.30
  -2 -11 -11   78.49    8.90
   0   4 -12   38.80    6.10
   0   4 -12   34.00    7.00
   0  -4  12   28.40    3.80
   0  -4  12   42.90    4.70
   0  -4  12   20.20    5.40
  -1   4 -12   -0.70    1.90
  -1   4 -12    2.00    2.80
  -1   4 -12    2.00    3.50
   1  -4  12   -1.90    2.10
   1  -4  12   -5.30    2.10
   1  -4  12    4.60    3.80
   2   3 -12    1.70    3.00
   2   3 -12   -1.10    3.70
  -2  -3  12   -0.90    1.60
   1   3 -12   42.50    6.70
   1   3 -12   53.19    8.30
  -1  -3  12   36.80    6.10
  -1  -3  12   43.80    3.80
  -1  -3  12   44.40    8.50
  -1  -3  12   39.10    3.60
   0   3 -12    4.00    2.90
   0   3 -12    2.60    4.00
   0  -3  12   10.90    3.80
   0  -3  12    0.30    1.80
   0  -3  12    8.10    2.40
  -1   3 -12   17.70    5.10
  -1   3 -12   14.40    4.20
  -1   3 -12   10.20    2.80
   1  -3  12   11.30    3.30
   1  -3  12   14.60    3.90
   1  -3  12   12.70    4.70
  -2   3 -12   36.80    6.80
  -2   3 -12   43.80    6.00
   2  -3  12   32.90   10.50
   2  -3  12   42.30    5.90
   2  -3  12   44.20    6.40
  -3   3 -12    2.20    3.90
  -3   3 -12    4.40    2.90
  -3   3 -12   -1.40    2.30
   3  -3  12    0.80    2.90
   3  -3  12   -1.60    2.40
   3   2 -12   25.70    5.80
   3   2 -12   25.20    6.90
  -3  -2  12   32.80    4.20
  -3  -2  12   17.30    3.00
  -3  -2  12   32.30    3.80
  -3  -2  12   22.90    4.20
   2   2 -12    1.80    3.30
   2   2 -12    1.70    3.40
  -2  -2  12    5.00    2.30
  -2  -2  12    3.00    2.10
  -2  -2  12   -1.10    1.20
  -2  -2  12   -1.20    1.20
   1   2 -12   83.49    8.60
   1   2 -12   89.09    9.80
   1   2 -12   71.69    5.20
   1   2 -12   65.79    5.10
  -1  -2  12   70.39    5.60
  -1  -2  12   70.99    5.60
  -1  -2  12   73.19    7.20
   0   2 -12   19.90    4.40
   0   2 -12    9.40    4.30
   0  -2  12   21.10    3.80
   0  -2  12   10.50    2.70
   0  -2  12    9.70    2.80
  -1   2 -12   85.69    7.40
  -1   2 -12   82.09    8.60
  -1   2 -12   77.19    9.10
   1  -2  12   72.29    7.50
  -2   2 -12   36.20    6.60
  -2   2 -12   30.10    4.90
   2  -2  12   39.00    5.50
   2  -2  12   27.10    5.00
  -3   2 -12   74.59    7.20
  -3   2 -12   75.29    9.10
  -3   2 -12   76.59    8.10
  -3   2 -12   75.39    6.60
   3  -2  12   68.09   13.00
   3  -2  12   78.39    8.50
   3  -2  12   76.39    8.10
  -4   2 -12   42.50    5.40
  -4   2 -12   23.50    5.50
  -4   2 -12   32.60    6.30
  -4   2 -12   32.20    6.00
  -4   2 -12   48.30    7.60
   4  -2  12   31.00    6.20
   4  -2  12   44.80    9.20
   4  -2  12   41.50    6.40
   4   1 -12   96.79   10.40
   4   1 -12   88.49   11.70
  -4  -1  12  104.09    7.40
  -4  -1  12   89.99    9.10
  -4  -1  12   95.69    7.80
   3   1 -12  100.49   11.80
   3   1 -12   83.59   12.80
  -3  -1  12   92.89    7.80
  -3  -1  12  108.59    8.80
  -3  -1  12   98.79    7.90
  -3  -1  12   99.39    8.70
   2   1 -12  164.88   14.60
   2   1 -12  155.88   13.00
  -2  -1  12  149.49   11.60
  -2  -1  12  146.89   12.80
  -2  -1  12  142.89   10.50
  -2  -1  12  146.69   11.30
   1   1 -12   59.79    8.70
   1   1 -12   58.09    4.80
   1   1 -12   68.99   11.70
   1   1 -12   65.19    4.90
  -1  -1  12   64.09    6.40
  -1  -1  12   66.19    7.80
  -1  -1  12   56.39    5.30
  -1  -1  12   58.49    5.00
  -1  -1  12   63.99    5.00
  -1  -1  12   65.79    5.40
   0   1 -12   88.89   10.20
   0   1 -12  105.99    9.00
   0   1 -12  107.69    9.70
   0   1 -12   83.09    7.60
   0  -1  12  107.69    8.10
   0  -1  12  111.89   10.80
   0  -1  12   94.39    6.80
   0  -1  12   95.79    6.90
   0  -1  12   91.19    8.10
  -1   1 -12  111.29    8.40
  -1   1 -12  101.19   10.30
   1  -1  12   94.19    9.00
   1  -1  12   90.69   10.80
   1  -1  12   84.79    6.10
   1  -1  12   97.69    8.50
   1  -1  12  101.19    8.60
  -2   1 -12   98.29   10.80
  -2   1 -12   98.49   10.00
  -2   1 -12   99.49    7.00
  -2   1 -12   94.89    6.70
  -2   1 -12  102.79    8.90
   2  -1  12   80.49    8.80
   2  -1  12   88.09   11.40
   2  -1  12   97.09    9.10
  -3   1 -12   76.39    7.90
  -3   1 -12   77.49    6.70
  -3   1 -12   66.69    7.40
  -3   1 -12   81.49    9.10
   3  -1  12   64.29    8.00
   3  -1  12   66.59   13.30
   3  -1  12   85.89    8.30
  -4   1 -12   95.49    8.50
  -4   1 -12  101.89    9.20
  -4   1 -12   80.89    9.50
  -4   1 -12  100.99    9.70
   4  -1  12   69.99   11.80
   4  -1  12   90.19    9.80
   4  -1  12   84.19    9.20
  -5   1 -12   41.20    6.70
  -5   1 -12   29.30    5.20
   5  -1  12   18.90    6.30
   5  -1  12   47.30    7.60
   4   0 -12    4.80    4.80
   4   0 -12   16.00    4.80
  -4   0  12   12.80    4.00
  -4   0  12   27.00    3.10
  -4   0  12   18.40    2.90
   3   0 -12   20.50    6.20
   3   0 -12   21.20    4.90
  -3   0  12   16.40    3.90
  -3   0  12   23.90    3.20
  -3   0  12   20.70    4.00
   2   0 -12    3.30    3.40
   2   0 -12    1.10    3.30
  -2   0  12   -0.20    2.10
  -2   0  12   -0.80    0.80
  -2   0  12    2.20    1.80
  -2   0  12   -0.80    1.40
   1   0 -12   29.60    3.20
   1   0 -12   33.70    6.20
  -1   0  12   29.10    3.60
  -1   0  12   30.40    4.20
  -1   0  12   25.80    5.80
  -1   0  12   29.50    3.30
   0   0 -12   23.30    3.40
   0   0 -12   22.70    3.60
   0   0 -12   20.60    5.90
   0   0 -12   25.10    5.00
   0   0  12   19.30    3.40
   0   0  12   20.40    5.10
   0   0  12   25.70    4.40
   0   0  12   21.90    3.50
   0   0  12   23.90    3.80
  -1   0 -12   42.70    5.40
  -1   0 -12   34.10    6.30
   1   0  12   45.50    5.30
   1   0  12   53.39    6.10
   1   0  12   44.10    5.70
   1   0  12   33.30    3.90
   1   0  12   45.80    7.80
  -2   0 -12   34.30    6.70
  -2   0 -12   32.10    4.90
  -2   0 -12   38.80    6.10
  -2   0 -12   31.70    3.30
   2   0  12   26.60    3.50
   2   0  12   23.20    6.80
   2   0  12   29.30    5.10
   2   0  12   38.60    6.80
  -3   0 -12   91.99    9.00
  -3   0 -12   86.99    7.60
  -3   0 -12   85.19    8.70
  -3   0 -12   90.49    9.60
   3   0  12   94.09   11.80
   3   0  12   81.69   11.10
   3   0  12   95.99    9.00
   3   0  12   89.09    8.70
  -4   0 -12   38.90    5.40
  -4   0 -12   42.80    6.60
  -4   0 -12   26.80    6.20
   4   0  12   25.40    3.90
   4   0  12   41.20    6.60
   4   0  12   37.80    6.00
   4   0  12   32.00    7.90
  -5   0 -12    0.30    2.90
  -5   0 -12    3.80    2.10
  -5   0 -12    6.60    3.40
   5   0  12   -2.40    3.10
   5   0  12    1.90    2.10
   5   0  12    3.10    4.70
  -6   0 -12   52.09    5.40
  -6   0 -12   46.90    7.20
   6   0  12   37.10    7.70
   4  -1 -12   25.50    6.70
   4  -1 -12   29.10    6.00
  -4   1  12   29.20    3.60
  -4   1  12   35.20    4.70
  -4   1  12   28.10    5.80
   3  -1 -12    3.60    3.30
   3  -1 -12    1.40    3.90
  -3   1  12    8.30    2.30
  -3   1  12    8.70    3.70
   2  -1 -12   39.80    3.40
   2  -1 -12   43.60    6.50
   2  -1 -12   40.80    3.40
   2  -1 -12   41.50    8.30
  -2   1  12   43.10    4.80
  -2   1  12   45.70    6.30
  -2   1  12   39.60    3.60
  -2   1  12   44.00    4.10
  -2   1  12   46.00    4.70
   1  -1 -12   73.79    8.90
   1  -1 -12   63.09    7.60
   1  -1 -12   79.49    6.50
  -1   1  12   78.09    6.50
  -1   1  12   77.69    8.80
  -1   1  12   83.29    6.70
  -1   1  12   71.79    6.90
  -1   1  12   67.69    5.90
   0  -1 -12    2.10    1.90
   0  -1 -12    1.80    1.70
   0  -1 -12    2.90    3.30
   0   1  12   -1.50    1.80
   0   1  12   -0.40    2.70
   0   1  12    1.10    2.10
   0   1  12   -0.40    1.50
   0   1  12    1.90    2.00
  -1  -1 -12  176.18   14.50
  -1  -1 -12  169.78   12.40
   1   1  12  148.59   11.60
   1   1  12  147.09   14.90
   1   1  12  170.18   12.60
   1   1  12  155.38   13.00
   1   1  12  170.68   13.00
  -2  -1 -12   15.20    4.30
  -2  -1 -12   15.30    2.50
  -2  -1 -12   17.20    4.00
  -2  -1 -12    9.00    3.00
   2   1  12   18.80    5.80
   2   1  12   13.00    2.70
   2   1  12   10.80    4.10
   2   1  12   12.90    3.70
  -3  -1 -12  288.67   19.90
  -3  -1 -12  282.07   18.10
  -3  -1 -12  266.97   19.10
   3   1  12  227.28   17.80
   3   1  12  252.67   19.80
   3   1  12  247.48   19.30
   3   1  12  248.38   22.40
  -4  -1 -12   73.09    6.90
  -4  -1 -12   56.79    7.70
  -4  -1 -12   60.69    8.10
   4   1  12   55.29    6.00
   4   1  12   51.79    7.80
   4   1  12   54.79    7.80
  -5  -1 -12  120.89    9.50
  -5  -1 -12  139.99   12.20
  -5  -1 -12  146.99   12.30
   5   1  12   96.99    9.90
   5   1  12  109.99   11.50
   5   1  12  130.89   15.20
  -6  -1 -12   42.50    6.70
  -6  -1 -12   39.20    5.00
  -6  -1 -12   50.89    8.10
   6   1  12   23.90    5.90
   6   1  12   46.70   10.30
   6   1  12   29.90    5.20
   5  -2 -12    9.10    4.30
  -5   2  12    5.60    2.40
  -5   2  12    3.50    2.40
   4  -2 -12   57.89    8.50
  -4   2  12   64.89    6.10
  -4   2  12   86.69    8.00
   3  -2 -12   45.70    6.90
   3  -2 -12   44.10    7.90
  -3   2  12   44.00    3.90
  -3   2  12   45.70    4.70
  -3   2  12   53.29    6.20
  -3   2  12   35.90    3.50
   2  -2 -12   79.29    9.70
   2  -2 -12   83.19    9.60
   2  -2 -12   73.29    6.40
  -2   2  12   86.29    7.40
  -2   2  12   82.59    6.40
  -2   2  12   88.59    7.30
  -2   2  12   83.59    9.00
   1  -2 -12  181.58   13.20
   1  -2 -12  157.58   16.00
   1  -2 -12  189.38   14.30
   1  -2 -12  182.58   12.70
  -1   2  12  188.08   13.00
  -1   2  12  180.28   13.40
  -1   2  12  179.38   15.30
  -1   2  12  171.68   13.10
  -1   2  12  169.28   12.40
   0  -2 -12  154.88   14.70
   0  -2 -12  149.19   11.40
   0  -2 -12  152.78   13.30
   0   2  12  152.08   11.40
   0   2  12  153.28   12.10
   0   2  12  153.68   11.40
   0   2  12  157.28   15.30
   0   2  12  161.58   14.40
  -1  -2 -12  226.08   16.60
  -1  -2 -12  215.88   15.60
  -1  -2 -12  227.48   17.60
  -1  -2 -12  250.77   19.20
  -1  -2 -12  247.48   15.10
   1   2  12  228.28   16.70
   1   2  12  228.88   17.30
   1   2  12  232.78   16.20
   1   2  12  226.18   18.30
   1   2  12  218.78   19.40
  -2  -2 -12  130.09   10.20
  -2  -2 -12  117.29   10.50
  -2  -2 -12  107.19   10.10
  -2  -2 -12  117.69    8.70
   2   2  12  104.59    9.20
   2   2  12  123.59   12.90
   2   2  12  105.89   10.20
   2   2  12  116.19   10.30
  -3  -2 -12  143.89   12.70
  -3  -2 -12  171.58   13.30
  -3  -2 -12  174.98   12.10
  -3  -2 -12  144.59   13.50
   3   2  12  160.08   13.10
   3   2  12  162.08   16.00
   3   2  12  160.48   13.20
   3   2  12  132.59   11.70
  -4  -2 -12    2.80    3.00
  -4  -2 -12    0.80    3.00
  -4  -2 -12    4.70    3.00
   4   2  12    4.90    3.20
   4   2  12    0.10    4.20
   4   2  12    6.80    2.80
   4   2  12   -5.40    1.70
  -5  -2 -12  143.19   12.30
  -5  -2 -12  125.39   10.10
   5   2  12  117.69   11.90
   5   2  12  120.79   10.90
   5   2  12  125.59   15.10
  -6  -2 -12   18.00    5.10
  -6  -2 -12   10.90    3.10
  -6  -2 -12   12.40    4.00
   6   2  12    6.80    5.50
   6   2  12    0.40    3.80
   5  -3 -12   52.49    8.70
  -5   3  12   73.79    8.50
  -5   3  12   74.49    6.50
   4  -3 -12   68.09    8.80
  -4   3  12   91.69    7.30
  -4   3  12   84.69    6.50
  -4   3  12   73.59    6.20
  -4   3  12  108.19    9.60
   3  -3 -12   96.79    9.90
   3  -3 -12   89.89    7.10
   3  -3 -12   73.09   12.00
   3  -3 -12  128.29    9.80
  -3   3  12  102.59    7.80
  -3   3  12   77.89    7.10
  -3   3  12  107.89    8.20
  -3   3  12  100.39    9.80
   2  -3 -12   47.00   12.30
   2  -3 -12   69.79    6.30
  -2   3  12   77.69    8.40
  -2   3  12   73.19    6.90
  -2   3  12   69.09    6.00
  -2   3  12   75.29    6.60
  -2   3  12   69.09    6.60
   1  -3 -12  206.28   14.90
   1  -3 -12  201.88   16.80
   1  -3 -12  201.48   15.40
   1  -3 -12  220.38   16.20
  -1   3  12  209.08   15.20
  -1   3  12  210.28   14.60
  -1   3  12  211.48   15.50
  -1   3  12  218.58   17.70
  -1   3  12  217.78   15.50
   0  -3 -12   61.99    6.30
   0  -3 -12   67.19    8.00
   0  -3 -12   70.79    8.40
   0   3  12   74.09    9.10
   0   3  12   72.89    6.50
   0   3  12   65.19    6.50
   0   3  12   69.69    6.90
   0   3  12   67.49    7.10
  -1  -3 -12  192.88   14.90
  -1  -3 -12  221.08   13.80
  -1  -3 -12  198.48   15.00
  -1  -3 -12  204.88   15.70
   1   3  12  180.98   15.20
   1   3  12  211.08   18.40
   1   3  12  204.48   15.60
   1   3  12  190.08   14.70
   1   3  12  206.78   15.00
  -2  -3 -12   26.40    5.00
  -2  -3 -12   33.60    4.10
  -2  -3 -12   23.50    4.70
  -2  -3 -12   27.70    5.40
   2   3  12   38.10    5.90
   2   3  12   29.70    4.60
   2   3  12   36.40    6.10
   2   3  12   25.70    6.80
  -3  -3 -12   85.09   10.40
  -3  -3 -12  113.69    9.20
  -3  -3 -12  108.79   10.10
  -3  -3 -12  122.09   10.20
   3   3  12  113.89   10.40
   3   3  12   87.19   12.50
   3   3  12  120.89   10.30
  -4  -3 -12   33.60    5.10
  -4  -3 -12   32.00    5.50
  -4  -3 -12   44.80    6.70
  -4  -3 -12   30.50    4.60
   4   3  12   40.20   14.70
   4   3  12   42.60    6.20
   4   3  12   34.50    6.30
   4   3  12   31.30    5.00
  -5  -3 -12   73.69    8.80
  -5  -3 -12   78.09    8.10
  -5  -3 -12   72.09    7.30
   5   3  12   68.39    9.30
   5   3  12   94.49   12.60
  -6  -3 -12   41.60    6.40
  -6  -3 -12   41.00    5.50
  -6  -3 -12   45.00    9.10
   6   3  12   39.70    7.60
   6   3  12   36.10    9.80
   5  -4 -12    7.00    2.20
   5  -4 -12   13.70    2.30
   5  -4 -12    6.40    4.10
  -5   4  12   11.30    4.60
  -5   4  12    4.90    2.00
  -5   4  12    1.20    2.50
  -5   4  12    6.00    2.00
   4  -4 -12   12.30    4.10
   4  -4 -12   12.10    2.40
  -4   4  12   10.80    2.50
  -4   4  12   15.50    3.40
  -4   4  12   20.10    4.70
   3  -4 -12   11.90    4.00
  -3   4  12   10.70    2.80
  -3   4  12   16.30    3.90
  -3   4  12   17.50    4.40
  -3   4  12   11.30    2.80
   2  -4 -12   20.60    3.40
   2  -4 -12   18.00    5.00
  -2   4  12   16.50    9.60
  -2   4  12   13.00    4.50
  -2   4  12   20.60    3.90
  -2   4  12   15.10    3.50
  -2   4  12   17.60    3.20
   1  -4 -12   32.40    5.90
   1  -4 -12   35.00    5.40
   1  -4 -12   40.40    5.10
  -1   4  12   37.00    4.80
  -1   4  12   40.60    5.10
  -1   4  12   38.20    4.30
  -1   4  12   38.10    5.40
  -1   4  12   35.50    7.00
  -1   4  12   31.70    9.70
   0  -4 -12    3.90    2.00
   0  -4 -12    0.20    2.80
   0  -4 -12    4.50    1.70
   0  -4 -12    3.70    3.10
   0  -4 -12    9.50    2.60
   0   4  12    5.40    2.40
   0   4  12    4.90    2.50
   0   4  12    4.30    2.00
   0   4  12    4.10    5.20
   0   4  12   11.70    4.20
   0   4  12    0.50    3.70
  -1  -4 -12   20.70    3.20
  -1  -4 -12   10.20    3.70
  -1  -4 -12   18.40    4.00
  -1  -4 -12   17.10    4.10
  -1  -4 -12   17.50    4.50
   1   4  12   17.90    3.70
   1   4  12   19.90    6.20
   1   4  12   18.90    3.70
   1   4  12   11.70    3.60
  -2  -4 -12   -1.70    1.80
  -2  -4 -12   -0.10    2.50
  -2  -4 -12   -2.40    3.00
  -2  -4 -12    2.40    2.70
   2   4  12    0.30    4.30
   2   4  12    3.60    2.40
   2   4  12   -0.70    1.80
  -3  -4 -12   37.20    5.30
  -3  -4 -12   37.80    6.10
  -3  -4 -12   44.40    5.80
   3   4  12   33.20    7.00
   3   4  12   30.00    5.40
   3   4  12   37.70    6.10
  -4  -4 -12   38.10    6.50
  -4  -4 -12   27.10    4.60
  -4  -4 -12   35.90    5.50
  -4  -4 -12   34.80    5.50
   4   4  12   35.90    6.20
   4   4  12   32.50    9.00
   4   4  12   35.20    6.10
  -5  -4 -12  102.39   10.40
  -5  -4 -12   93.39    8.60
  -5  -4 -12   93.29   10.20
   5   4  12   89.09    9.80
   5   4  12   92.09   12.90
  -6  -4 -12   98.89    9.10
  -6  -4 -12  109.69   10.10
  -6  -4 -12   98.39   10.80
   6   4  12   90.79   10.50
   6   4  12   65.79   13.10
   5  -5 -12   15.00    5.10
  -5   5  12   11.40    2.90
   4  -5 -12    6.00    2.40
   4  -5 -12    2.50    3.10
  -4   5  12    5.70    2.70
  -4   5  12    9.80    4.40
   3  -5 -12   -3.00    2.50
   3  -5 -12   -0.90    1.60
  -3   5  12   -2.70    4.30
  -3   5  12    3.00    3.00
  -3   5  12   -2.60    1.90
  -3   5  12    5.60    2.60
  -3   5  12    2.00    2.20
   2  -5 -12   28.10    5.60
   2  -5 -12   21.80    4.00
  -2   5  12   21.20    3.80
  -2   5  12   33.70    4.70
  -2   5  12   26.80    6.00
  -2   5  12   20.40    8.00
  -2   5  12   29.60    4.80
   1  -5 -12   25.50    3.00
   1  -5 -12   32.20    4.50
   1  -5 -12   35.80    6.00
   1  -5 -12   25.70    3.30
   1  -5 -12   41.60    5.60
  -1   5  12   27.60    6.60
  -1   5  12   34.50    9.60
  -1   5  12   32.50    4.40
  -1   5  12   26.70    4.70
   0  -5 -12   35.20    5.10
   0  -5 -12   28.50    5.10
   0  -5 -12   47.10    6.00
   0  -5 -12   44.60    6.50
   0   5  12   44.90   10.30
   0   5  12   40.00    7.80
   0   5  12   42.50    6.00
   0   5  12   45.50    5.00
  -1  -5 -12   85.89    9.40
  -1  -5 -12   99.49    9.10
  -1  -5 -12  110.29    8.30
  -1  -5 -12   93.69    9.20
   1   5  12   91.59    9.30
   1   5  12  103.99   11.80
   1   5  12   96.39   11.30
  -2  -5 -12    8.60    4.30
  -2  -5 -12   18.00    4.20
  -2  -5 -12   16.10    3.40
  -2  -5 -12   18.20    4.10
   2   5  12   14.30    3.80
   2   5  12   17.90    6.10
   2   5  12   18.30    4.40
  -3  -5 -12  195.68   13.90
  -3  -5 -12  175.18   14.90
  -3  -5 -12  187.48   14.20
   3   5  12  159.18   17.60
  -4  -5 -12   32.60    6.20
  -4  -5 -12   26.40    5.00
  -4  -5 -12   25.30    4.60
  -4  -5 -12   23.00    4.40
   4   5  12   14.30    6.50
   4   5  12   28.90    5.60
  -5  -5 -12  108.79    9.70
  -5  -5 -12  111.79    9.90
  -5  -5 -12   98.89    9.90
   5   5  12  111.89   10.90
   5   5  12   95.99   13.50
  -6  -5 -12    9.60    4.30
  -6  -5 -12    6.40    4.10
  -6  -5 -12    5.20    3.30
   6   5  12    5.30    4.30
   6   5  12    0.60    4.90
   4  -6 -12  119.89   12.00
   4  -6 -12  120.09   10.60
  -4   6  12  114.69   10.50
  -4   6  12  124.09   17.10
  -4   6  12  152.88   11.30
   3  -6 -12   26.90    5.60
   3  -6 -12   36.10    5.40
  -3   6  12   28.50    4.80
  -3   6  12   37.20    5.60
  -3   6  12   32.50    9.60
   2  -6 -12  230.08   15.40
   2  -6 -12  186.28   17.60
   2  -6 -12  170.98   12.70
  -2   6  12  209.28   22.70
  -2   6  12  208.58   15.30
  -2   6  12  214.68   18.10
   1  -6 -12   26.80    5.20
   1  -6 -12   23.40    3.60
   1  -6 -12   40.50    5.70
   1  -6 -12   16.00    4.00
   1  -6 -12   34.70    4.90
  -1   6  12   38.70    5.70
  -1   6  12   33.80    9.20
  -1   6  12   30.40    6.70
  -1   6  12   31.00    4.60
   0  -6 -12  217.78   18.90
   0  -6 -12  254.97   18.60
   0  -6 -12  272.07   17.90
   0  -6 -12  278.47   18.70
   0  -6 -12  235.78   18.70
   0   6  12  262.37   18.10
   0   6  12  257.07   21.80
   0   6  12  257.67   19.10
  -1  -6 -12   27.80    5.10
  -1  -6 -12   19.60    4.70
  -1  -6 -12   36.70    4.60
  -1  -6 -12   26.70    4.70
   1   6  12   35.70    5.90
   1   6  12   34.00    4.90
   1   6  12   30.80    7.10
  -2  -6 -12  335.67   22.90
  -2  -6 -12  296.77   21.80
  -2  -6 -12  358.46   21.90
   2   6  12  272.67   25.90
   2   6  12  279.27   23.00
  -3  -6 -12   22.90    4.30
  -3  -6 -12   21.90    4.30
  -3  -6 -12   23.10    5.40
   3   6  12   17.40    7.90
   3   6  12   24.60    5.10
   3   6  12   25.40    5.20
  -4  -6 -12  223.58   18.10
  -4  -6 -12  252.47   17.40
  -4  -6 -12  235.28   17.20
  -4  -6 -12  215.08   16.50
   4   6  12  227.58   17.80
   4   6  12  201.08   21.00
  -5  -6 -12    3.30    2.90
  -5  -6 -12    4.40    3.00
  -5  -6 -12    8.00    4.20
  -5  -6 -12    3.50    3.30
   5   6  12    5.60    5.40
   5   6  12    4.60    4.10
  -6  -6 -12  111.69   10.50
  -6  -6 -12  107.09   11.00
  -6  -6 -12  132.89   12.40
   6   6  12  101.09   11.70
   6   6  12  123.29   15.50
   4  -7 -12    9.00    3.60
   4  -7 -12   12.60    4.60
  -4   7  12   22.60    6.60
  -4   7  12   22.20    4.70
  -4   7  12    6.30    3.20
   3  -7 -12    2.90    3.00
   3  -7 -12    7.30    2.90
  -3   7  12   11.20    3.50
  -3   7  12    5.60    5.50
  -3   7  12    9.30    3.70
   2  -7 -12    8.20    2.60
   2  -7 -12   17.20    4.30
   2  -7 -12   12.50    4.00
  -2   7  12   16.10    5.70
  -2   7  12   11.50    6.10
  -2   7  12    5.80    3.20
   1  -7 -12    3.70    2.50
   1  -7 -12    5.70    2.90
  -1   7  12    1.90    4.20
  -1   7  12    3.40    3.00
  -1   7  12    4.00    5.00
  -1   7  12    3.40    2.60
   0  -7 -12   36.70    4.90
   0  -7 -12   37.70    5.70
   0  -7 -12   44.70    8.10
   0  -7 -12   40.90    7.30
   0  -7 -12   29.20    4.90
   0   7  12   32.70    8.40
   0   7  12   33.40    6.00
   0   7  12   37.50    5.70
  -1  -7 -12   13.00    3.50
  -1  -7 -12   13.80    3.60
  -1  -7 -12    8.90    3.40
  -1  -7 -12   25.00    6.10
   1   7  12    9.50    3.30
   1   7  12   16.40    4.80
   1   7  12    7.50    4.90
  -2  -7 -12    9.70    3.40
  -2  -7 -12   13.10    3.90
  -2  -7 -12    5.90    2.60
   2   7  12   17.70    3.90
   2   7  12    3.80    3.10
  -3  -7 -12   34.10    6.50
  -3  -7 -12   40.10    5.00
  -3  -7 -12   33.90    6.50
   3   7  12   36.00    9.00
   3   7  12   37.90    6.10
  -4  -7 -12   -0.50    2.20
  -4  -7 -12    0.60    3.00
  -4  -7 -12    2.20    3.00
   4   7  12   -2.90    2.70
   4   7  12    9.30    5.70
  -5  -7 -12   56.59    8.60
  -5  -7 -12   36.40    6.20
  -5  -7 -12   44.00    5.60
  -5  -7 -12   57.89    7.20
   5   7  12   52.19    7.90
   5   7  12   30.90    8.70
   3  -8 -12   12.20    3.70
   3  -8 -12   10.00    3.70
  -3   8  12   13.50    3.90
  -3   8  12   12.80    3.90
  -3   8  12   10.40    4.80
   2  -8 -12   16.20    4.10
   2  -8 -12    3.70    3.00
   2  -8 -12    3.40    2.60
   2  -8 -12    6.10    3.20
  -2   8  12   11.00    3.40
  -2   8  12    6.60    4.50
  -2   8  12    1.40    3.20
   1  -8 -12    1.10    2.50
   1  -8 -12    3.10    2.70
   1  -8 -12    2.70    2.90
  -1   8  12   -0.50    3.70
  -1   8  12    3.40    2.50
  -1   8  12    3.50    3.10
   0  -8 -12   39.60    6.80
   0  -8 -12   41.10    6.00
   0  -8 -12   37.50    5.40
   0  -8 -12   42.20    5.60
   0   8  12   43.90    5.90
   0   8  12   32.40    8.20
   0   8  12   26.30    5.20
   0   8  12   37.50    8.60
  -1  -8 -12   51.09    6.10
  -1  -8 -12   41.50    6.60
  -1  -8 -12   42.10    5.10
   1   8  12   36.80    6.10
   1   8  12   43.00    6.10
   1   8  12   46.80   10.00
  -2  -8 -12   56.09    7.60
  -2  -8 -12   44.80    5.20
   2   8  12   39.40    9.00
   2   8  12   45.90    6.40
  -3  -8 -12   81.39    7.60
  -3  -8 -12  110.29   10.50
  -3  -8 -12   89.49    9.00
   3   8  12   97.89    9.50
   3   8  12   91.49   12.70
  -4  -8 -12   25.90    7.70
  -4  -8 -12   44.40    4.80
  -4  -8 -12   41.00    6.40
  -4  -8 -12   38.00    6.30
   4   8  12   32.50    9.40
   4   8  12   40.00    6.60
  -5  -8 -12  129.59   12.80
  -5  -8 -12  125.79   10.10
  -5  -8 -12  130.09   11.90
  -5  -8 -12  130.89   11.90
   5   8  12  116.69   15.50
   5   8  12  131.09   12.90
   2  -9 -12   98.09    9.80
   2  -9 -12  109.39    9.70
   2  -9 -12   97.59    9.50
  -2   9  12  111.69   10.30
  -2   9  12   75.39   10.00
  -2   9  12  108.69   10.30
  -2   9  12  116.59   13.30
   1  -9 -12    2.40    3.30
   1  -9 -12    6.50    3.30
   1  -9 -12    5.90    3.20
  -1   9  12   12.70    5.90
  -1   9  12    4.90    4.00
   0  -9 -12  232.68   17.50
   0  -9 -12  206.18   17.70
   0  -9 -12  231.28   17.20
   0   9  12  235.98   17.50
   0   9  12  241.78   21.10
   0   9  12  248.38   21.90
  -1  -9 -12    3.30    3.70
  -1  -9 -12    0.90    3.10
   1   9  12    2.10    4.80
   1   9  12   -2.70    2.30
  -2  -9 -12  147.99   14.20
  -2  -9 -12  165.28   13.00
   2   9  12  148.69   13.00
   2   9  12  149.39   16.60
  -3  -9 -12    3.80    1.60
  -3  -9 -12    2.40    3.20
   3   9  12   -2.20    4.70
   3   9  12    2.20    3.30
  -4  -9 -12  111.09    8.60
  -4  -9 -12  121.79   12.20
  -4  -9 -12  126.39   11.30
   4   9  12  112.29   12.90
   4   9  12  108.89   15.10
   1 -10 -12   79.09    9.10
   1 -10 -12   96.99    9.90
   1 -10 -12   81.09    8.40
  -1  10  12   89.09   12.30
   0 -10 -12    6.10    3.00
   0 -10 -12    8.40    3.80
   0  10  12   10.30    5.90
   0  10  12    2.70    3.40
  -1 -10 -12   90.39    9.30
  -1 -10 -12   94.49    9.80
   1  10  12   84.09    8.80
   1  10  12   74.09   10.80
   1  10  12   76.79   13.20
  -2 -10 -12   16.10    4.70
  -2 -10 -12   25.60    5.80
   2  10  12   19.00    7.80
   2  10  12   16.80    4.60
   1   2 -13   35.20    7.30
   1   2 -13   47.20    7.10
  -1  -2  13   35.50    3.60
  -1  -2  13   51.99    7.00
  -1  -2  13   41.90    3.60
   0   2 -13    4.20    3.80
   0   2 -13    4.10    3.50
   0   2 -13   -0.30    1.40
   0  -2  13   -4.00    1.60
   0  -2  13    1.40    2.80
   0  -2  13    1.50    2.80
  -1   2 -13  100.19   11.10
  -1   2 -13   93.39    8.40
  -1   2 -13  101.89   10.00
   1  -2  13   99.49   11.60
   1  -2  13   99.59    9.00
   1  -2  13   98.99    8.90
  -2   2 -13    3.10    4.00
  -2   2 -13   11.60    4.30
  -2   2 -13   12.90    3.50
   2  -2  13   16.50    4.00
   2  -2  13   10.30    5.10
   2  -2  13    7.80    3.50
   2   1 -13   97.89   10.00
   2   1 -13   91.39   11.10
  -2  -1  13   99.29    9.50
  -2  -1  13  106.79    8.20
  -2  -1  13   80.49    7.00
  -2  -1  13   78.69    8.20
   1   1 -13   29.60    5.90
   1   1 -13   35.80    3.40
   1   1 -13   36.50    7.10
  -1  -1  13   33.60    3.20
  -1  -1  13   24.60    3.20
  -1  -1  13   30.20    3.50
  -1  -1  13   26.00    3.10
  -1  -1  13   36.00    6.30
   0   1 -13   50.69    7.10
   0   1 -13   50.99    7.90
   0  -1  13   39.30    5.20
   0  -1  13   52.59    5.10
   0  -1  13   65.39    6.40
   0  -1  13   43.20    3.40
   0  -1  13   53.89    8.70
   0  -1  13   45.60    3.40
  -1   1 -13   92.09    8.20
  -1   1 -13   97.49    9.60
  -1   1 -13   99.89   10.50
   1  -1  13   90.39    8.70
   1  -1  13   92.39   11.10
   1  -1  13   97.09   12.50
  -2   1 -13   12.90    3.80
  -2   1 -13   18.30    3.70
  -2   1 -13   11.60    4.50
   2  -1  13   11.70    4.00
   2  -1  13    9.80    3.40
   2  -1  13   10.80    8.50
  -3   1 -13  112.29   10.60
  -3   1 -13  142.59   12.20
  -3   1 -13  123.29   10.70
  -3   1 -13  105.69    9.30
  -3   1 -13  113.69   10.70
   3  -1  13  102.39   10.60
   3  -1  13  127.19   10.90
   3  -1  13   92.39   13.20
  -4   1 -13    1.00    2.40
  -4   1 -13    1.20    4.30
  -4   1 -13    0.90    3.40
   4  -1  13    1.80    3.50
   4  -1  13   -0.80    3.40
   3   0 -13    0.90    3.10
   3   0 -13    2.50    4.00
  -3   0  13    3.10    2.50
  -3   0  13    7.20    2.00
  -3   0  13   -0.20    2.10
  -3   0  13    8.50    2.60
   2   0 -13   32.00    7.00
  -2   0  13   33.40    4.30
  -2   0  13   56.09    6.40
  -2   0  13   50.19    5.10
  -2   0  13   38.60    2.90
  -2   0  13   28.50    4.70
   1   0 -13   12.90    2.30
   1   0 -13   17.30    4.90
   1   0 -13   14.10    2.10
   1   0 -13   13.50    4.00
  -1   0  13   14.80    2.70
  -1   0  13   10.10    4.20
  -1   0  13   10.30    2.00
  -1   0  13    7.60    2.20
   0   0 -13   26.70    5.60
   0   0 -13   35.40    4.10
   0   0 -13   37.40    6.90
   0   0  13   30.80    4.20
   0   0  13   49.99    5.40
   0   0  13   41.20    7.40
   0   0  13   28.00    4.30
   0   0  13   32.00    3.90
  -1   0 -13   26.80    4.10
  -1   0 -13   38.70    6.70
  -1   0 -13   32.30    5.60
   1   0  13   27.80    3.40
   1   0  13   25.20    4.50
   1   0  13   28.70    4.50
   1   0  13   29.90    6.50
  -2   0 -13   27.50    5.70
  -2   0 -13   14.80    2.10
  -2   0 -13   17.30    2.00
  -2   0 -13   19.90    4.10
  -2   0 -13   22.40    4.80
   2   0  13   18.00    6.80
   2   0  13   15.50    3.90
   2   0  13   14.70    2.50
   2   0  13   15.50    4.10
  -3   0 -13   17.00    3.90
  -3   0 -13   20.50    3.40
  -3   0 -13   21.40    4.60
  -3   0 -13   17.80    5.00
  -3   0 -13   16.70    4.40
   3   0  13   19.40    4.60
   3   0  13   16.30    7.30
  -4   0 -13    1.40    3.20
  -4   0 -13    2.90    2.90
  -4   0 -13    3.80    3.70
  -4   0 -13   -0.40    3.70
  -4   0 -13    7.40    3.40
   4   0  13    4.10    4.90
   4   0  13    8.90    4.00
   4   0  13   -1.60    1.70
   4   0  13   -0.10    3.20
   3  -1 -13   24.80    6.30
   3  -1 -13   27.00    5.90
  -3   1  13   40.70    5.20
  -3   1  13   25.00    4.10
   2  -1 -13   40.20    7.60
   2  -1 -13   46.80    7.20
  -2   1  13   45.60    5.10
  -2   1  13   51.09    5.30
  -2   1  13   45.30    4.30
  -2   1  13   48.30    6.30
   1  -1 -13   58.59    8.70
   1  -1 -13   55.79    7.80
   1  -1 -13   63.69    5.70
   1  -1 -13   70.09    5.50
  -1   1  13   63.09    5.30
  -1   1  13   57.89    5.70
  -1   1  13   64.89    8.30
  -1   1  13   63.89    6.00
   0  -1 -13   43.70    4.60
   0  -1 -13   46.30    7.50
   0   1  13   41.70    4.70
   0   1  13   44.70    5.40
   0   1  13   37.00    5.10
   0   1  13   32.50    4.30
   0   1  13   36.10    6.90
  -1  -1 -13  123.79   10.60
  -1  -1 -13  117.69    9.70
  -1  -1 -13  112.29   11.20
   1   1  13  108.19   12.60
   1   1  13  115.99    8.90
   1   1  13   98.99    9.90
   1   1  13  111.19    9.60
  -2  -1 -13   19.50    4.00
  -2  -1 -13   22.50    5.40
  -2  -1 -13   17.80    4.30
  -2  -1 -13   20.70    2.80
   2   1  13   17.90    4.30
   2   1  13   14.50    3.10
   2   1  13   18.90    6.30
   2   1  13   21.70    4.70
  -3  -1 -13  184.88   14.30
  -3  -1 -13  171.38   11.90
  -3  -1 -13  174.88   13.40
  -3  -1 -13  154.48   13.10
   3   1  13  144.49   13.30
   3   1  13  138.69   11.80
   3   1  13  146.69   13.30
  -4  -1 -13   23.20    6.50
  -4  -1 -13   44.10    7.20
  -4  -1 -13   38.70    6.30
  -4  -1 -13   30.30    4.90
   4   1  13   29.30    5.50
   4   1  13   23.90    4.10
   4   1  13   33.70    8.20
   4   1  13   26.00    5.50
  -5  -1 -13  140.89   13.20
  -5  -1 -13  138.09   11.90
   5   1  13  135.99   16.80
   5   1  13  154.28   13.70
   3  -2 -13    1.40    3.10
   3  -2 -13    0.00    3.60
  -3   2  13    1.10    1.00
  -3   2  13    6.10    2.70
  -3   2  13   -1.60    0.70
  -3   2  13    0.50    1.70
   2  -2 -13   63.49    7.90
   2  -2 -13   67.19    5.60
   2  -2 -13   80.19    5.90
   2  -2 -13   57.39    9.20
  -2   2  13   65.99    5.60
  -2   2  13   75.39    8.50
  -2   2  13   70.19    6.20
  -2   2  13   73.59    6.80
  -2   2  13   78.59    7.00
   1  -2 -13   31.00    5.90
   1  -2 -13   37.10    6.70
  -1   2  13   31.40    5.10
  -1   2  13   40.90    4.90
  -1   2  13   38.90    4.10
  -1   2  13   41.60    7.10
  -1   2  13   39.00    5.00
   0  -2 -13   75.19    7.50
   0  -2 -13   69.29    6.10
   0   2  13   68.89    8.90
   0   2  13   61.09    6.70
   0   2  13   56.79    6.60
   0   2  13   53.89    5.90
   0   2  13   59.09    6.00
  -1  -2 -13  118.19    9.40
  -1  -2 -13  112.29   10.00
  -1  -2 -13  109.49   11.60
   1   2  13  108.89   10.40
   1   2  13   92.69    8.60
   1   2  13   99.49    9.10
   1   2  13  107.69   12.10
  -2  -2 -13  105.69   11.60
  -2  -2 -13   97.89    9.20
  -2  -2 -13  115.99   10.00
   2   2  13  104.49   10.00
   2   2  13  100.29   12.20
   2   2  13  103.49   10.60
   2   2  13   96.29    8.60
  -3  -2 -13  149.39   12.10
  -3  -2 -13  147.59   13.00
  -3  -2 -13  135.49   12.40
  -3  -2 -13  133.89   10.60
   3   2  13  124.09   10.80
   3   2  13  145.79   12.30
   3   2  13  121.19   16.30
   3   2  13  137.09   12.20
  -4  -2 -13   17.50    4.70
  -4  -2 -13   12.70    3.70
  -4  -2 -13   11.80    4.40
   4   2  13   13.10    4.50
   4   2  13   12.90    5.40
   4   2  13   17.00    4.40
  -5  -2 -13  115.99   10.10
  -5  -2 -13  105.59   10.90
   5   2  13  104.89   13.80
   5   2  13   87.19    9.40
   5   2  13  110.19   11.40
   4  -3 -13   16.00    4.90
  -4   3  13   23.90    5.00
  -4   3  13   18.70    2.20
  -4   3  13   16.30    2.10
   3  -3 -13   69.99    5.50
   3  -3 -13   84.69    9.30
   3  -3 -13   69.19    9.10
   3  -3 -13   89.79    6.50
  -3   3  13   52.39    5.60
  -3   3  13   74.39    6.20
  -3   3  13   77.69    8.40
   2  -3 -13   60.79    8.00
   2  -3 -13   49.99    8.20
   2  -3 -13   50.09    6.70
  -2   3  13   57.89    5.70
  -2   3  13   54.49    7.40
  -2   3  13   57.99    6.00
  -2   3  13   54.29    5.00
   1  -3 -13   29.50    9.70
   1  -3 -13   38.90    4.30
   1  -3 -13   31.20    5.70
  -1   3  13   26.20    4.30
  -1   3  13   41.70    5.00
  -1   3  13   29.40    4.80
  -1   3  13   32.20    6.50
  -1   3  13   33.40    4.20
   0  -3 -13   55.59    5.70
   0  -3 -13   46.30    7.50
   0  -3 -13   54.39    6.70
   0   3  13   53.99    6.30
   0   3  13   62.09    6.50
   0   3  13   52.99    8.80
   0   3  13   50.79    5.80
  -1  -3 -13    0.20    1.90
  -1  -3 -13    4.70    3.00
  -1  -3 -13    0.30    3.20
  -1  -3 -13    1.80    1.40
  -1  -3 -13    1.90    2.40
   1   3  13   -2.30    2.20
   1   3  13    1.50    2.90
   1   3  13    0.00    2.40
   1   3  13    3.30    4.50
  -2  -3 -13   59.09    6.90
  -2  -3 -13   50.89   10.40
  -2  -3 -13   53.29    7.00
  -2  -3 -13   67.49    5.90
   2   3  13   72.49    7.60
   2   3  13   63.69    8.10
   2   3  13   59.79   10.40
   2   3  13   50.89    6.30
  -3  -3 -13   42.60    6.60
  -3  -3 -13   53.69    5.60
  -3  -3 -13   40.00    7.20
  -3  -3 -13   50.19    7.10
   3   3  13   39.20    5.60
   3   3  13   38.40    6.70
   3   3  13   41.90    6.50
  -4  -3 -13   37.10    6.20
  -4  -3 -13   35.20    5.40
   4   3  13   38.50    9.30
   4   3  13   28.40    5.90
   4   3  13   22.40    4.40
   4   3  13   30.40    8.20
  -5  -3 -13   19.50    5.00
  -5  -3 -13   11.30    3.20
  -5  -3 -13   13.80    4.10
   5   3  13    7.90    4.40
   5   3  13   19.00    7.40
   4  -4 -13   13.20    5.10
   4  -4 -13   33.50    3.20
  -4   4  13   18.70    3.10
  -4   4  13   30.10    4.40
  -4   4  13   20.40    3.20
  -4   4  13   23.80    5.40
   3  -4 -13    1.10    3.10
   3  -4 -13   -1.30    2.70
   3  -4 -13   -0.40    1.70
  -3   4  13    4.40    3.30
  -3   4  13    1.20    1.70
  -3   4  13    1.40    2.10
  -3   4  13    1.20    1.90
   2  -4 -13   56.59    8.10
   2  -4 -13   64.09    6.50
   2  -4 -13   63.29   10.10
  -2   4  13   75.09    9.00
  -2   4  13   79.39    7.00
  -2   4  13   70.19    6.70
  -2   4  13   58.99    6.00
   1  -4 -13    2.10    2.80
   1  -4 -13    5.10    2.30
   1  -4 -13    1.80    3.30
  -1   4  13    5.40    3.60
  -1   4  13    3.80    2.80
   0  -4 -13   77.99    7.90
   0  -4 -13   72.39    8.60
   0  -4 -13   70.19    7.10
   0   4  13   76.59    7.80
   0   4  13   76.19    7.00
   0   4  13   79.19   10.40
   0   4  13   67.29    7.10
  -1  -4 -13   33.10    5.80
  -1  -4 -13   38.40    5.50
  -1  -4 -13   35.50    5.50
  -1  -4 -13   22.00    4.70
   1   4  13   37.40    7.90
   1   4  13   27.00    4.50
   1   4  13   29.20    5.40
   1   4  13   29.80    5.30
  -2  -4 -13   53.29    7.90
  -2  -4 -13   69.39    7.60
  -2  -4 -13   58.99    7.70
  -2  -4 -13   71.09    6.10
   2   4  13   45.90   11.40
   2   4  13   55.99    6.70
   2   4  13   64.59    7.50
   2   4  13   52.29    7.10
  -3  -4 -13   21.80    4.90
  -3  -4 -13    9.70    4.40
  -3  -4 -13   17.10    4.50
  -3  -4 -13   18.30    3.90
   3   4  13    8.10    5.90
   3   4  13   18.30    4.20
   3   4  13   20.70    4.80
  -4  -4 -13   58.39    7.80
  -4  -4 -13   66.79    8.90
  -4  -4 -13   63.69    7.00
   4   4  13   61.29    8.40
   4   4  13   57.49   11.20
  -5  -4 -13   21.70    5.00
   5   4  13   10.30    6.00
   5   4  13   22.90    5.80
   3  -5 -13   20.00    5.10
   3  -5 -13   14.90    3.30
  -3   5  13   27.50    6.00
  -3   5  13   25.30    4.20
  -3   5  13   18.40    3.60
   2  -5 -13   41.40    6.80
   2  -5 -13   34.10    6.80
   2  -5 -13   61.29    5.90
  -2   5  13   47.00    6.00
  -2   5  13   47.00    8.40
   1  -5 -13   50.29    8.10
   1  -5 -13   52.39    7.00
   1  -5 -13   54.29    5.80
  -1   5  13   46.90    5.40
  -1   5  13   50.89    8.80
   0  -5 -13  113.29    9.20
   0  -5 -13   93.59    7.70
   0  -5 -13   99.39    9.40
   0  -5 -13  107.09   10.30
   0   5  13   97.69   11.90
   0   5  13  100.39    9.60
  -1  -5 -13   45.50    6.50
  -1  -5 -13   54.39    6.40
  -1  -5 -13   54.99    5.40
  -1  -5 -13   43.80    6.90
  -1  -5 -13   57.49    7.10
   1   5  13   46.80    7.00
   1   5  13   58.19    6.40
  -2  -5 -13   86.79    8.70
  -2  -5 -13   94.59    7.70
  -2  -5 -13   82.49    8.60
  -2  -5 -13   65.09    9.30
   2   5  13   71.79    8.50
   2   5  13   70.69   11.70
   2   5  13   87.99    8.50
  -3  -5 -13   75.69    8.70
  -3  -5 -13   64.69    8.10
  -3  -5 -13   80.99    7.80
   3   5  13   82.79    8.80
   3   5  13   91.39    8.90
   3   5  13   97.49   12.30
  -4  -5 -13   75.19    7.70
  -4  -5 -13   62.49    8.90
  -4  -5 -13   72.89    7.90
   4   5  13   77.19    8.80
   4   5  13   68.39   12.40
  -5  -5 -13  101.99   10.70
  -5  -5 -13  100.99   10.00
  -5  -5 -13   81.09   12.70
  -5  -5 -13  105.19   10.20
   5   5  13   76.69   13.90
   5   5  13   88.79   10.00
   3  -6 -13   53.19    6.50
   3  -6 -13   48.40    7.90
  -3   6  13   72.69    9.60
  -3   6  13   79.59    7.40
  -3   6  13   55.39    6.60
   2  -6 -13   78.89    8.80
   2  -6 -13   80.29    7.90
  -2   6  13   81.89    8.40
  -2   6  13   65.99   13.60
  -2   6  13   90.09   10.70
   1  -6 -13   31.60    3.60
   1  -6 -13   36.80    5.80
   1  -6 -13   35.90    5.20
   1  -6 -13   29.30    4.20
   1  -6 -13   32.00    5.90
  -1   6  13   40.30    6.10
  -1   6  13   36.00    7.70
  -1   6  13   36.70   10.10
  -1   6  13   31.70    4.50
   0  -6 -13  148.39   11.50
   0  -6 -13  151.48   11.90
   0  -6 -13  117.29   11.50
   0  -6 -13  131.89   10.40
   0  -6 -13  121.89   11.80
   0   6  13  147.09   11.10
   0   6  13  138.79   17.40
   0   6  13  132.99   11.70
  -1  -6 -13    4.60    2.90
  -1  -6 -13   -0.30    3.10
  -1  -6 -13    3.00    2.40
  -1  -6 -13    5.00    2.50
   1   6  13    1.80    2.70
   1   6  13    7.90    2.90
   1   6  13    8.10    5.40
  -2  -6 -13  130.79   11.50
  -2  -6 -13  133.69   11.20
  -2  -6 -13  143.09   10.60
  -2  -6 -13  111.99   12.40
   2   6  13  110.09   14.10
   2   6  13  133.19   11.10
   2   6  13  109.49   11.40
  -3  -6 -13    6.00    3.70
  -3  -6 -13    2.80    3.00
  -3  -6 -13    5.80    3.00
   3   6  13    7.10    4.00
   3   6  13   13.20    5.70
  -4  -6 -13   63.49    8.70
  -4  -6 -13   49.60    6.60
  -4  -6 -13   62.19    7.40
   4   6  13   66.39    8.40
   4   6  13   44.30   10.20
  -5  -6 -13   34.60    5.70
  -5  -6 -13   40.50    5.90
  -5  -6 -13   35.50    7.40
  -5  -6 -13   39.30    6.70
   5   6  13   34.20    6.80
   5   6  13   33.10    9.00
   3  -7 -13    4.90    3.50
   3  -7 -13    7.10    3.40
  -3   7  13    0.40    4.80
  -3   7  13    7.90    3.50
  -3   7  13    7.90    3.10
   2  -7 -13    1.60    1.40
   2  -7 -13    4.50    2.90
   2  -7 -13   -2.60    2.60
   2  -7 -13   -1.20    1.50
  -2   7  13    3.60    4.40
  -2   7  13    0.90    5.10
  -2   7  13   10.20    3.60
   1  -7 -13    5.40    2.60
   1  -7 -13   -1.10    1.90
   1  -7 -13   -1.30    2.60
   1  -7 -13   -0.20    2.80
  -1   7  13   -3.50    2.30
  -1   7  13    4.50    8.60
  -1   7  13    4.40    2.50
  -1   7  13    1.50    4.40
   0  -7 -13   35.50    5.40
   0  -7 -13   16.00    4.70
   0  -7 -13   29.20    5.00
   0  -7 -13   28.10    5.10
   0  -7 -13   24.00    4.20
   0   7  13   28.60    8.50
   0   7  13   27.20    5.40
   0   7  13   28.60    4.80
  -1  -7 -13    2.30    3.20
  -1  -7 -13    0.40    2.50
  -1  -7 -13   -1.50    2.30
  -1  -7 -13    2.30    2.70
   1   7  13    0.90    2.60
   1   7  13    4.60    4.40
   1   7  13    3.70    2.80
  -2  -7 -13   78.59    7.20
  -2  -7 -13   56.19    6.90
  -2  -7 -13   51.59    7.50
   2   7  13   52.89    7.30
   2   7  13   48.50   10.40
  -3  -7 -13    1.70    2.50
  -3  -7 -13   -0.90    3.10
  -3  -7 -13   -0.70    2.40
   3   7  13   -2.10    2.90
   3   7  13    0.70    4.20
  -4  -7 -13   59.89    7.70
  -4  -7 -13   53.59    8.30
  -4  -7 -13   61.89    6.80
   4   7  13   59.79    8.30
   4   7  13   63.49   12.00
   2  -8 -13   -0.10    2.70
   2  -8 -13    0.20    2.30
   2  -8 -13   -1.20    2.40
  -2   8  13    6.10    3.30
  -2   8  13   -2.20    3.90
  -2   8  13    6.70    3.20
  -2   8  13    0.60    3.30
   1  -8 -13   65.29    7.20
   1  -8 -13   82.49    8.10
   1  -8 -13   73.09    7.90
  -1   8  13   66.09   11.40
  -1   8  13   82.09   10.70
  -1   8  13   96.19   11.80
  -1   8  13   61.49    7.30
   0  -8 -13    1.40    2.60
   0  -8 -13   -0.50    2.50
   0  -8 -13   -1.30    2.40
   0   8  13    1.20    3.00
   0   8  13   -3.70    4.10
   0   8  13    0.90    3.80
   0   8  13    3.70    2.70
  -1  -8 -13  103.19    8.80
  -1  -8 -13   77.49    8.00
  -1  -8 -13   82.99    9.30
   1   8  13   83.99   13.50
   1   8  13   91.69   12.70
   1   8  13   80.19    8.70
  -2  -8 -13   20.60    3.70
  -2  -8 -13   14.30    4.20
  -2  -8 -13   31.00    5.70
   2   8  13   16.80    7.60
   2   8  13   22.90    5.10
  -3  -8 -13   97.49    9.00
  -3  -8 -13  119.89   10.60
   3   8  13  103.89   14.20
   3   8  13  111.59   10.60
   0  -9 -13   82.19    7.90
   0  -9 -13   77.49    8.60
   0  -9 -13   76.59    8.10
   0   9  13   76.59    8.00
   0   9  13   63.19   10.90
   0   9  13   70.69   12.20
  -1  -9 -13   25.40    5.20
  -1  -9 -13   31.00    5.90
   1   9  13   16.60    6.60
   1   9  13   18.40    4.60
   1   9  13   19.30    8.50
  -2  -9 -13   72.49    6.70
  -2  -9 -13   81.09    9.00
  -2  -9 -13   74.49    8.10
   2   9  13   66.99    8.70
   2   9  13   69.99   12.90
   0   0 -14   70.79    9.70
   0   0 -14   76.89    9.00
   0   0  14   82.09    7.30
   0   0  14   64.59   10.40
   0   0  14   75.49    7.10
  -1   0 -14   22.20    3.80
  -1   0 -14   22.00    5.80
  -1   0 -14   19.10    5.00
   1   0  14   14.10    2.40
   1   0  14   25.30    4.60
   1   0  14   22.70    4.10
  -2   0 -14   78.49    8.70
  -2   0 -14   85.99    8.00
  -2   0 -14   84.49    9.90
   2   0  14   79.79    8.20
   2   0  14   62.19    5.60
   2   0  14   72.49   11.70
   2   0  14   73.19    8.00
   1  -1 -14   47.20    8.10
   1  -1 -14   35.00    7.30
  -1   1  14   56.59    6.40
  -1   1  14   56.79    7.50
  -1   1  14   37.10    4.80
  -1   1  14   40.80    4.10
   0  -1 -14   95.99   10.30
   0  -1 -14  106.99    8.50
   0  -1 -14  108.19   11.30
   0   1  14   99.79    8.30
   0   1  14   94.39    9.00
   0   1  14  108.09    8.70
   0   1  14  113.39   12.30
  -1  -1 -14   22.60    5.60
  -1  -1 -14   24.60    5.10
  -1  -1 -14   23.50    4.10
   1   1  14   20.90    3.90
   1   1  14   17.90    6.70
   1   1  14   14.00    3.90
   1   1  14   15.50    3.20
  -2  -1 -14   83.99    8.50
  -2  -1 -14   94.49   10.10
  -2  -1 -14   90.59    9.20
   2   1  14   73.39    8.70
   2   1  14   76.59    7.20
   2   1  14   95.89    8.90
  -3  -1 -14    1.80    2.10
  -3  -1 -14   -2.70    2.90
  -3  -1 -14    3.60    2.90
  -3  -1 -14   -1.20    3.10
  -3  -1 -14    3.70    3.90
   3   1  14   -4.90    1.70
   3   1  14    4.80    3.60
   3   1  14    3.20    2.90
   3   1  14    0.70    5.00
   2  -2 -14    3.60    4.10
   2  -2 -14    4.60    1.60
   2  -2 -14    0.20    1.60
   2  -2 -14    1.90    3.10
  -2   2  14   12.20    2.60
  -2   2  14    9.30    2.20
  -2   2  14    5.00    3.60
   1  -2 -14   -1.60    2.80
   1  -2 -14    1.80    3.40
  -1   2  14   -1.40    3.50
  -1   2  14   -2.00    1.90
   0  -2 -14   -0.10    3.30
   0  -2 -14    0.50    1.90
   0  -2 -14    3.00    3.40
   0   2  14   -2.20    1.80
   0   2  14    2.50    2.50
   0   2  14    6.30    3.70
  -1  -2 -14    4.30    3.60
  -1  -2 -14    3.80    2.50
   1   2  14    0.30    2.50
   1   2  14    1.60    5.40
   1   2  14   -0.50    2.00
   1   2  14    2.70    3.30
  -2  -2 -14   -1.40    2.60
  -2  -2 -14    0.60    2.80
  -2  -2 -14   -2.10    3.30
  -2  -2 -14   -0.20    1.50
   2   2  14   -4.60    1.80
   2   2  14   -1.10    2.40
   2   2  14    6.20    3.40
  -3  -2 -14    3.00    3.40
  -3  -2 -14   -2.80    3.40
  -3  -2 -14    6.30    3.90
  -3  -2 -14   11.10    3.60
  -3  -2 -14    3.60    2.50
   3   2  14   15.40    5.60
   3   2  14   -1.40    1.90
   3   2  14    6.10    4.00
   3   2  14    4.90    3.40
   2  -3 -14   42.60    7.80
   2  -3 -14   31.00    6.20
  -2   3  14   43.10    7.20
  -2   3  14   40.40    4.80
   1  -3 -14    6.00    2.10
   1  -3 -14    7.40    3.80
   1  -3 -14    1.00    3.60
  -1   3  14    4.20    2.10
  -1   3  14    1.60    2.40
  -1   3  14   10.50    4.50
   0  -3 -14   95.09   10.30
   0  -3 -14  104.19    9.90
   0  -3 -14   95.99    8.30
   0   3  14   87.59    8.20
   0   3  14   90.69    9.20
   0   3  14   90.39    8.00
   0   3  14   95.19   11.50
  -1  -3 -14   21.10    5.20
  -1  -3 -14   22.80    5.00
  -1  -3 -14   22.50    4.20
   1   3  14   21.50    7.90
   1   3  14   22.60    4.20
   1   3  14   18.40    3.90
   1   3  14   21.70    4.70
  -2  -3 -14  134.09   10.90
  -2  -3 -14  114.49   10.50
  -2  -3 -14  115.99    8.60
  -2  -3 -14  113.29   11.10
  -2  -3 -14   93.69    9.70
   2   3  14  110.79   10.70
   2   3  14  120.79   10.40
   2   3  14   92.49    9.40
   2   3  14  119.59   16.20
  -3  -3 -14   62.99    8.40
  -3  -3 -14   61.79    6.20
  -3  -3 -14   53.49    7.70
   3   3  14   72.19    8.10
   3   3  14   50.89    7.40
   3   3  14   50.89   10.30
   3   3  14   51.99    6.40
  -4  -3 -14  136.69   12.30
  -4  -3 -14  120.29   10.60
   4   3  14  121.09   11.90
   2  -4 -14   43.80    6.60
   2  -4 -14   49.50    7.40
   2  -4 -14   44.00    7.50
  -2   4  14   50.39    5.80
   1  -4 -14    6.80    2.70
   1  -4 -14    6.60    4.00
   1  -4 -14   10.80    3.90
  -1   4  14    8.50    3.80
  -1   4  14    4.90    3.10
  -1   4  14    3.60    2.00
   0  -4 -14  146.99   11.70
   0  -4 -14  151.18   13.40
   0  -4 -14  162.48   13.00
   0   4  14  137.69   12.60
   0   4  14  145.59   16.20
  -1  -4 -14    6.00    1.90
  -1  -4 -14    8.20    3.30
  -1  -4 -14    8.10    5.20
  -1  -4 -14   21.60    7.10
   1   4  14   15.00    6.00
   1   4  14    9.10    4.00
   1   4  14    7.30    2.90
  -2  -4 -14  241.28   17.70
  -2  -4 -14  210.48   17.30
   2   4  14  212.68   20.70
   2   4  14  245.28   17.50
   2   4  14  228.78   18.00
  -3  -4 -14    4.10    2.80
  -3  -4 -14    1.50    3.40
  -3  -4 -14   -6.90    3.40
  -3  -4 -14    3.00    3.50
   3   4  14    7.90    4.00
   3   4  14    7.40    5.30
   3   4  14    1.80    3.20
  -4  -4 -14  139.39   13.00
  -4  -4 -14  143.89   12.70
  -4  -4 -14  150.08   13.20
   4   4  14  133.29   16.20
   4   4  14  125.49   12.60
   2  -5 -14   14.70    5.00
   2  -5 -14   14.60    4.40
   2  -5 -14   14.90    3.20
  -2   5  14   12.30    3.60
  -2   5  14   15.00    5.20
   1  -5 -14   17.80    3.70
   1  -5 -14   26.00    5.80
   1  -5 -14   24.30    5.20
  -1   5  14   21.20    3.70
   0  -5 -14   22.50    5.90
   0  -5 -14   28.10    2.70
   0  -5 -14   36.10    5.20
   0  -5 -14   33.70    5.90
   0   5  14   38.80    7.90
   0   5  14   33.80    4.70
   0   5  14   34.90    5.80
  -1  -5 -14   16.50    4.00
  -1  -5 -14   11.30    2.90
  -1  -5 -14   15.30    4.20
  -1  -5 -14    7.10    3.60
  -1  -5 -14   12.90    4.20
   1   5  14   15.90    6.30
   1   5  14   20.20    4.30
   1   5  14   15.20    3.80
  -2  -5 -14   18.10    4.60
  -2  -5 -14   12.50    4.40
  -2  -5 -14    7.00    4.20
  -2  -5 -14   15.50    3.40
   2   5  14   22.80    4.90
   2   5  14   12.10    4.10
   2   5  14   22.40    6.40
  -3  -5 -14    3.20    3.60
  -3  -5 -14    6.20    3.80
  -3  -5 -14    8.10    3.20
   3   5  14   -1.30    4.30
   3   5  14    8.90    4.20
   1  -6 -14    7.90    2.90
   1  -6 -14    5.10    3.30
  -1   6  14    9.50    3.80
  -1   6  14    6.00    2.60
   0  -6 -14   19.00    4.30
   0  -6 -14   12.30    4.30
   0  -6 -14    6.40    3.10
   0  -6 -14   13.50    3.50
   0   6  14   19.00    4.20
   0   6  14   14.60    3.50
   0   6  14   10.20    5.30
  -1  -6 -14   20.30    4.40
  -1  -6 -14    8.80    3.70
  -1  -6 -14    8.00    4.40
  -1  -6 -14   12.90    3.50
  -1  -6 -14    7.00    2.80
   1   6  14   15.40    4.00
   1   6  14   12.20    3.60
   1   6  14   15.80    6.20
  -2  -6 -14   21.10    9.50
  -2  -6 -14   42.30    6.50
  -2  -6 -14   57.59    7.60
  -2  -6 -14   45.10    5.60
   2   6  14   43.40    6.50
   2   6  14   41.60    6.90
   2   6  14   34.40    8.90
  -3  -6 -14   13.40    4.00
  -3  -6 -14    6.10    4.10
   3   6  14    8.40    4.20
   3   6  14    0.80    4.20
   1  -7 -14   26.60    4.60
   1  -7 -14   29.50    5.50
   1  -7 -14   17.20    3.00
   1  -7 -14   10.60    5.90
  -1   7  14   22.70    4.30
  -1   7  14   32.50    7.50
  -1   7  14   26.70    4.80
   0  -7 -14   80.09    8.50
   0  -7 -14   75.99    8.40
   0  -7 -14   80.49    8.10
   0  -7 -14   70.49    7.10
   0   7  14   68.99   11.90
   0   7  14   71.29    8.60
   0   7  14   84.49    7.90
  -1  -7 -14   36.00    5.70
  -1  -7 -14   27.00    5.00
  -1  -7 -14   16.20    5.10
  -1  -7 -14   23.90    4.30
  -1  -7 -14   19.30    4.60
   1   7  14   28.00    5.70
   1   7  14   27.10    5.00
   1   7  14   26.50    7.60
  -2  -7 -14   79.29    8.90
  -2  -7 -14   99.39    8.90
   2   7  14   97.19    9.50
   2   7  14   95.19   13.20
   0   0   0    0.00    0.00

_computing_structure_solution     'SHELXT 2014/5 (Sheldrick, 2014)'
;
_shelx_hkl_checksum              11504
loop_
_space_group_symop_operation_xyz
'x, y, z'
'-x, -y, -z'
loop_
_atom_site_type_symbol
_atom_site_label
_atom_site_fract_x
_atom_site_fract_y
_atom_site_fract_z
_atom_site_U_iso_or_equiv
_atom_site_adp_type
_atom_site_calc_flag
_atom_site_refinement_flags_adp
_atom_site_refinement_flags_posn
_atom_site_occupancy
C C1 0.5602(4) 0.2443(3) 0.5315(3) 0.0363(6) Uani d . . 1
H H1 0.46302 0.229174 0.582145 0.044 Uiso calc U R 1
C C2 0.5648(3) 0.2088(3) 0.4342(3) 0.0337(6) Uani d . . 1
C C3 0.7047(4) 0.2162(3) 0.3428(3) 0.0460(7) Uani d . . 1
H H3A 0.80731 0.235993 0.372019 0.055 Uiso calc U R 1
H H3B 0.685273 0.289055 0.272226 0.055 Uiso calc U R 1
C C10 0.2933(6) 0.3137(6) 0.2224(4) 0.0781(13) Uani d . . 1
C C11 0.7570(4) 0.1995(3) 0.7484(3) 0.0373(6) Uani d . . 1
C C12 0.8576(5) 0.0888(3) 0.7690(3) 0.0505(8) Uani d . . 1
H H12 0.925873 0.071353 0.708092 0.061 Uiso calc U R 1
C C13 0.8536(6) 0.0046(4) 0.8834(4) 0.0648(10) Uani d . . 1
H H13 0.920503 -0.071269 0.900486 0.078 Uiso calc U R 1
C C14 0.7533(6) 0.0308(4) 0.9716(4) 0.0676(11) Uani d . . 1
H H14 0.752314 -0.02714 1.048377 0.081 Uiso calc U R 1
C C15 0.6543(6) 0.1408(5) 0.9488(3) 0.0725(12) Uani d . . 1
H H15 0.585517 0.157035 1.010101 0.087 Uiso calc U R 1
C C16 0.6547(5) 0.2293(4) 0.8349(3) 0.0564(9) Uani d . . 1
H H16 0.588342 0.305482 0.818329 0.068 Uiso calc U R 1
C C20 0.8366(4) 0.6096(4) 0.1355(3) 0.0472(8) Uani d . . 1
O O11 0.4176(3) 0.1527(2) 0.40958(19) 0.0421(5) Uani d . . 1
O O12 0.2379(4) 0.3374(4) 0.4352(3) 0.0811(10) Uani d . . 1
O O13 0.1277(4) 0.1377(4) 0.3946(3) 0.0945(11) Uani d . . 1
O O21 0.9642(3) 0.5703(3) 0.3348(2) 0.0551(6) Uani d . . 1
O O22 0.6719(3) 0.5250(3) 0.3397(2) 0.0536(6) Uani d . . 1
O O23 0.7713(4) 0.7551(2) 0.2738(2) 0.0610(7) Uani d . . 1
F F11 0.3549(4) 0.2268(4) 0.1711(2) 0.1066(11) Uani d . . 1
F F12 0.1599(5) 0.3603(6) 0.1788(3) 0.156(2) Uani d . . 1
F F13 0.4060(6) 0.4085(4) 0.2030(3) 0.1362(15) Uani d . . 1
F F21 0.7034(3) 0.6552(3) 0.0787(2) 0.0908(9) Uani d . . 1
F F22 0.8602(4) 0.4860(2) 0.1312(2) 0.0751(7) Uani d . . 1
F F23 0.9648(3) 0.6822(3) 0.0764(2) 0.0839(8) Uani d . . 1
S S1 0.25291(11) 0.23477(11) 0.38153(9) 0.0552(2) Uani d . . 1
S S2 0.80804(9) 0.61668(7) 0.28786(6) 0.03668(17) Uani d . . 1
Br Br1 0.72972(5) 0.05007(4) 0.30204(4) 0.05738(12) Uani d . . 1
I I1 0.76469(2) 0.33383(2) 0.57594(2) 0.03906(10) Uani d . . 1
loop_
_atom_site_aniso_label
_atom_site_aniso_U_11
_atom_site_aniso_U_22
_atom_site_aniso_U_33
_atom_site_aniso_U_12
_atom_site_aniso_U_13
_atom_site_aniso_U_23
C1 0.0292(14) 0.0415(15) 0.0398(15) -0.0045(12) -0.0045(12) -0.0139(12)
C2 0.0290(13) 0.0330(14) 0.0402(15) -0.0013(11) -0.0066(11) -0.0116(11)
C3 0.0433(17) 0.0476(18) 0.0519(18) -0.0081(14) 0.0032(14) -0.0237(15)
C10 0.076(3) 0.105(4) 0.061(3) 0.026(3) -0.026(2) -0.032(3)
C11 0.0334(15) 0.0407(15) 0.0367(14) -0.0031(12) -0.0075(12) -0.0084(12)
C12 0.052(2) 0.0479(18) 0.0506(19) 0.0080(15) -0.0063(15) -0.0136(15)
C13 0.073(3) 0.049(2) 0.066(2) 0.0068(19) -0.019(2) -0.0029(18)
C14 0.076(3) 0.068(3) 0.047(2) -0.014(2) -0.014(2) 0.0033(18)
C15 0.074(3) 0.092(3) 0.046(2) 0.000(2) 0.011(2) -0.016(2)
C16 0.052(2) 0.065(2) 0.0491(19) 0.0128(17) -0.0002(16) -0.0144(17)
C20 0.0472(18) 0.0539(19) 0.0369(16) 0.0061(15) -0.0033(14) -0.0083(14)
O11 0.0346(11) 0.0464(12) 0.0514(12) -0.0041(9) -0.0070(9) -0.0227(10)
O12 0.0711(19) 0.111(3) 0.091(2) 0.0480(18) -0.0380(16) -0.069(2)
O13 0.0399(15) 0.145(3) 0.112(3) -0.0214(18) -0.0121(16) -0.056(2)
O21 0.0475(14) 0.0670(16) 0.0536(14) 0.0022(12) -0.0199(11) -0.0178(12)
O22 0.0513(14) 0.0605(15) 0.0454(13) -0.0190(12) 0.0024(11) -0.0112(11)
O23 0.0765(18) 0.0408(13) 0.0652(16) 0.0051(12) 0.0039(14) -0.0182(12)
F11 0.121(3) 0.150(3) 0.0640(16) 0.038(2) -0.0158(16) -0.0543(18)
F12 0.126(3) 0.259(5) 0.090(2) 0.108(3) -0.066(2) -0.051(3)
F13 0.181(4) 0.109(3) 0.094(2) -0.027(3) -0.028(3) 0.012(2)
F21 0.0813(18) 0.147(3) 0.0493(13) 0.0418(18) -0.0303(12) -0.0318(15)
F22 0.1025(19) 0.0662(15) 0.0644(14) 0.0062(13) 0.0025(13) -0.0341(12)
F23 0.0879(18) 0.0972(19) 0.0555(13) -0.0237(15) 0.0252(13) -0.0130(13)
S1 0.0352(4) 0.0859(7) 0.0586(5) 0.0090(4) -0.0146(4) -0.0407(5)
S2 0.0389(4) 0.0373(4) 0.0333(3) -0.0026(3) -0.0044(3) -0.0092(3)
Br1 0.0581(2) 0.0581(2) 0.0637(2) 0.00725(17) 0.00365(18) -0.03275(18)
I1 0.03985(13) 0.04178(13) 0.03611(12) -0.00694(8) -0.00985(8) -0.01027(8)
loop_
_atom_type_symbol
_atom_type_description
_atom_type_scat_dispersion_real
_atom_type_scat_dispersion_imag
_atom_type_scat_source
C C 0.0033 0.0016 'International Tables Vol C Tables 4.2.6.8 and 6.1.1.4'
H H 0.0000 0.0000 'International Tables Vol C Tables 4.2.6.8 and 6.1.1.4'
O O 0.0106 0.0060 'International Tables Vol C Tables 4.2.6.8 and 6.1.1.4'
F F 0.0171 0.0103 'International Tables Vol C Tables 4.2.6.8 and 6.1.1.4'
S S 0.1246 0.1234 'International Tables Vol C Tables 4.2.6.8 and 6.1.1.4'
Br Br -0.2901 2.4595 'International Tables Vol C Tables 4.2.6.8 and 6.1.1.4'
I I -0.4742 1.8119 'International Tables Vol C Tables 4.2.6.8 and 6.1.1.4'
loop_
_geom_angle_atom_site_label_1
_geom_angle_atom_site_label_2
_geom_angle_atom_site_label_3
_geom_angle
C2 C1 I1 121.9(2)
C2 C1 H1 119.1
I1 C1 H1 119.1
C1 C2 O11 117.8(3)
C1 C2 C3 129.6(3)
O11 C2 C3 112.7(2)
C2 C3 Br1 111.9(2)
C2 C3 H3A 109.2
Br1 C3 H3A 109.2
C2 C3 H3B 109.2
Br1 C3 H3B 109.2
H3A C3 H3B 107.9
F12 C10 F11 109.7(4)
F12 C10 F13 111.0(6)
F11 C10 F13 106.5(5)
F12 C10 S1 109.7(4)
F11 C10 S1 110.4(4)
F13 C10 S1 109.4(3)
C16 C11 C12 123.4(3)
C16 C11 I1 118.0(2)
C12 C11 I1 118.6(2)
C11 C12 C13 117.4(3)
C11 C12 H12 121.3
C13 C12 H12 121.3
C14 C13 C12 120.8(4)
C14 C13 H13 119.6
C12 C13 H13 119.6
C13 C14 C15 120.7(4)
C13 C14 H14 119.7
C15 C14 H14 119.7
C14 C15 C16 120.7(4)
C14 C15 H15 119.7
C16 C15 H15 119.7
C11 C16 C15 117.0(4)
C11 C16 H16 121.5
C15 C16 H16 121.5
F23 C20 F22 107.6(3)
F23 C20 F21 107.8(3)
F22 C20 F21 107.2(3)
F23 C20 S2 111.7(3)
F22 C20 S2 111.8(2)
F21 C20 S2 110.6(2)
C2 O11 S1 123.00(19)
O12 S1 O13 123.2(2)
O12 S1 O11 112.08(15)
O13 S1 O11 105.18(19)
O12 S1 C10 107.5(2)
O13 S1 C10 105.8(2)
O11 S1 C10 100.64(18)
O23 S2 O22 114.91(17)
O23 S2 O21 115.90(17)
O22 S2 O21 113.37(16)
O23 S2 C20 103.28(16)
O22 S2 C20 103.52(16)
O21 S2 C20 103.67(16)
C1 I1 C11 93.47(11)
loop_
_geom_bond_atom_site_label_1
_geom_bond_atom_site_label_2
_geom_bond_distance
C1 C2 1.310(4)
C1 I1 2.085(3)
C1 H1 0.93
C2 O11 1.419(3)
C2 C3 1.481(4)
C3 Br1 1.935(3)
C3 H3A 0.97
C3 H3B 0.97
C10 F12 1.258(5)
C10 F11 1.303(6)
C10 F13 1.307(7)
C10 S1 1.823(5)
C11 C16 1.366(5)
C11 C12 1.371(5)
C11 I1 2.102(3)
C12 C13 1.377(5)
C12 H12 0.93
C13 C14 1.356(6)
C13 H13 0.93
C14 C15 1.357(6)
C14 H14 0.93
C15 C16 1.390(5)
C15 H15 0.93
C16 H16 0.93
C20 F23 1.309(4)
C20 F22 1.314(4)
C20 F21 1.320(4)
C20 S2 1.826(3)
O11 S1 1.570(2)
O12 S1 1.398(3)
O13 S1 1.405(3)
O21 S2 1.436(2)
O22 S2 1.435(2)
O23 S2 1.430(3)
loop_
_geom_hbond_atom_site_label_D
_geom_hbond_atom_site_label_H
_geom_hbond_atom_site_label_A
_geom_hbond_site_symmetry_A
_geom_hbond_distance_DH
_geom_hbond_distance_HA
_geom_hbond_distance_DA
_geom_hbond_angle_DHA
C1 H1 O23 2_666 0.93 2.47 3.377(4) 164.6
C3 H3A I1 . 0.97 2.89 3.413(3) 115.2
C3 H3B F13 . 0.97 2.62 3.329(6) 129.7
C3 H3B F22 . 0.97 2.58 3.337(4) 135.4
C12 H12 Br1 2_756 0.93 3.04 3.732(4) 133.0
C16 H16 F21 2_666 0.93 2.64 3.305(4) 129.4
loop_
_geom_torsion_atom_site_label_1
_geom_torsion_atom_site_label_2
_geom_torsion_atom_site_label_3
_geom_torsion_atom_site_label_4
_geom_torsion
I1 C1 C2 O11 -177.93(19)
I1 C1 C2 C3 3.0(5)
C1 C2 C3 Br1 132.7(3)
O11 C2 C3 Br1 -46.4(3)
C16 C11 C12 C13 0.0(6)
I1 C11 C12 C13 178.2(3)
C11 C12 C13 C14 0.1(6)
C12 C13 C14 C15 0.1(7)
C13 C14 C15 C16 -0.5(7)
C12 C11 C16 C15 -0.4(6)
I1 C11 C16 C15 -178.6(3)
C14 C15 C16 C11 0.7(7)
C1 C2 O11 S1 65.9(3)
C3 C2 O11 S1 -114.9(3)
C2 O11 S1 O12 -28.1(3)
C2 O11 S1 O13 -164.3(3)
C2 O11 S1 C10 85.9(3)
F12 C10 S1 O12 -77.1(5)
F11 C10 S1 O12 161.9(4)
F13 C10 S1 O12 44.9(4)
F12 C10 S1 O13 56.2(5)
F11 C10 S1 O13 -64.8(4)
F13 C10 S1 O13 178.3(4)
F12 C10 S1 O11 165.5(4)
F11 C10 S1 O11 44.5(4)
F13 C10 S1 O11 -72.5(4)
F23 C20 S2 O23 63.9(3)
F22 C20 S2 O23 -175.5(3)
F21 C20 S2 O23 -56.1(3)
F23 C20 S2 O22 -176.0(3)
F22 C20 S2 O22 -55.4(3)
F21 C20 S2 O22 64.0(3)
F23 C20 S2 O21 -57.4(3)
F22 C20 S2 O21 63.2(3)
F21 C20 S2 O21 -177.4(3)
