#------------------------------------------------------------------------------
#$Date: 2019-11-10 07:21:16 +0200 (Sun, 10 Nov 2019) $
#$Revision: 225835 $
#$URL: file:///home/coder/svn-repositories/cod/cif/4/51/57/4515701.cif $
#------------------------------------------------------------------------------
#
# This file is available in the Crystallography Open Database (COD),
# http://www.crystallography.net/
#
# All data on this site have been placed in the public domain by the
# contributors.
#
data_4515701
loop_
_publ_author_name
'Tamang, Sem Raj'
'Singh, Arpita'
'Unruh, Daniel K.'
'Findlater, Michael'
_publ_section_title
;
 Nickel-Catalyzed Regioselective 1,4-Hydroboration of N-Heteroarenes
;
_journal_issue                   7
_journal_name_full               'ACS Catalysis'
_journal_page_first              6186
_journal_paper_doi               10.1021/acscatal.8b01166
_journal_volume                  8
_journal_year                    2018
_chemical_formula_moiety         'C22 H22 F6 N2 Ni O4'
_chemical_formula_sum            'C22 H22 F6 N2 Ni O4'
_chemical_formula_weight         551.12
_space_group_crystal_system      triclinic
_space_group_IT_number           2
_space_group_name_Hall           '-P 1'
_space_group_name_H-M_alt        'P -1'
_atom_sites_solution_hydrogens   geom
_audit_creation_method           SHELXL-2013
_cell_angle_alpha                86.398(4)
_cell_angle_beta                 79.115(5)
_cell_angle_gamma                86.957(5)
_cell_formula_units_Z            1
_cell_length_a                   6.3927(15)
_cell_length_b                   8.606(2)
_cell_length_c                   10.965(2)
_cell_measurement_reflns_used    3494
_cell_measurement_temperature    200(2)
_cell_measurement_theta_max      26.55
_cell_measurement_theta_min      2.38
_cell_volume                     590.7(2)
_computing_cell_refinement       'Bruker SAINT'
_computing_data_collection       'Bruker APEX2'
_computing_data_reduction        'Bruker SAINT'
_computing_molecular_graphics    'Bruker SHELXTL'
_computing_publication_material  'Bruker SHELXTL'
_computing_structure_refinement  'SHELXL-2014 (Sheldrick 2014)'
_computing_structure_solution    'SHELXS-97 (Sheldrick 2008)'
_diffrn_ambient_temperature      200(2)
_diffrn_measured_fraction_theta_full 0.999
_diffrn_measured_fraction_theta_max 0.995
_diffrn_measurement_device_type  'Bruker APEX-II CCD'
_diffrn_measurement_method       '\f and \w scans'
_diffrn_radiation_type           MoK\a
_diffrn_radiation_wavelength     0.71073
_diffrn_reflns_av_R_equivalents  0.0216
_diffrn_reflns_av_unetI/netI     0.0243
_diffrn_reflns_Laue_measured_fraction_full 0.999
_diffrn_reflns_Laue_measured_fraction_max 0.995
_diffrn_reflns_limit_h_max       8
_diffrn_reflns_limit_h_min       -8
_diffrn_reflns_limit_k_max       11
_diffrn_reflns_limit_k_min       -11
_diffrn_reflns_limit_l_max       14
_diffrn_reflns_limit_l_min       -14
_diffrn_reflns_number            8026
_diffrn_reflns_point_group_measured_fraction_full 0.999
_diffrn_reflns_point_group_measured_fraction_max 0.995
_diffrn_reflns_theta_full        25.242
_diffrn_reflns_theta_max         27.104
_diffrn_reflns_theta_min         1.894
_exptl_absorpt_coefficient_mu    0.900
_exptl_absorpt_correction_T_max  0.969
_exptl_absorpt_correction_T_min  0.759
_exptl_absorpt_correction_type   multi-scan
_exptl_absorpt_process_details   SADABS
_exptl_crystal_colour            purple
_exptl_crystal_density_diffrn    1.549
_exptl_crystal_description       blade
_exptl_crystal_F_000             282
_exptl_crystal_size_max          0.480
_exptl_crystal_size_mid          0.255
_exptl_crystal_size_min          0.035
_refine_diff_density_max         0.244
_refine_diff_density_min         -0.183
_refine_diff_density_rms         0.046
_refine_ls_extinction_method     none
_refine_ls_goodness_of_fit_ref   1.052
_refine_ls_hydrogen_treatment    constr
_refine_ls_matrix_type           full
_refine_ls_number_parameters     190
_refine_ls_number_reflns         2593
_refine_ls_number_restraints     0
_refine_ls_restrained_S_all      1.052
_refine_ls_R_factor_all          0.0347
_refine_ls_R_factor_gt           0.0305
_refine_ls_shift/su_max          0.000
_refine_ls_shift/su_mean         0.000
_refine_ls_structure_factor_coef Fsqd
_refine_ls_weighting_details
'w=1/[\s^2^(Fo^2^)+(0.0350P)^2^+0.1792P] where P=(Fo^2^+2Fc^2^)/3'
_refine_ls_weighting_scheme      calc
_refine_ls_wR_factor_gt          0.0720
_refine_ls_wR_factor_ref         0.0740
_reflns_Friedel_coverage         0.000
_reflns_number_gt                2370
_reflns_number_total             2593
_reflns_threshold_expression     'I > 2\s(I)'
_cod_data_source_file            cs8b01166_si_003.cif
_cod_data_source_block           shelx
_cod_database_code               4515701
_shelx_space_group_comment
;
The symmetry employed for this shelxl refinement is uniquely defined
by the following loop, which should always be used as a source of
symmetry information in preference to the above space-group names.
They are only intended as comments.
;
_shelx_estimated_absorpt_t_min   0.672
_shelx_estimated_absorpt_t_max   0.969
_shelxl_version_number           2013-4
_shelx_res_file
;
TITL fin18_11_a.res in P-1
CELL  0.71073   6.3927   8.6055  10.9655   86.398   79.115   86.957
ZERR     1.00   0.0015   0.0020   0.0024    0.004    0.005    0.005
LATT   1
SFAC  C    H    F    N    NI   O
UNIT  22 22 6 2 1 4
MERG   2
FMAP   2
PLAN   20
SIZE     0.035   0.255   0.480
ACTA
BOND   $H
LIST   4
L.S.  10
TEMP   -73.15
WGHT    0.035000    0.179200
FVAR       0.76052   0.42714
NI1   5    0.000000    0.500000    0.500000    10.50000    0.03140    0.02887 =
         0.02550    0.00237   -0.01283   -0.00696
PART    1
F1A   3    0.663502    0.177864   -0.022594    21.00000    0.05633    0.17865 =
         0.05324   -0.06558   -0.01179    0.00986
F2A   3    0.869849    0.126098    0.106803    21.00000    0.12006    0.06947 =
         0.05959    0.02206    0.01535    0.06406
F3A   3    0.851111    0.348520    0.023229    21.00000    0.06821    0.07285 =
         0.06515   -0.00339    0.02822   -0.01326
PART    2
F1B   3    0.895693    0.157779    0.107978   -21.00000    0.04612    0.12374 =
         0.06110   -0.02767   -0.01651    0.02528
F2B   3    0.660882    0.107912    0.010500   -21.00000    0.07885    0.10286 =
         0.10043   -0.06789   -0.00414   -0.00680
F3B   3    0.792819    0.329328   -0.014916   -21.00000    0.13333    0.07415 =
         0.05874    0.02725    0.04055    0.02862
PART    0
O1    6   -0.170669    0.572906    0.369735    11.00000    0.03514    0.03619 =
         0.02859    0.00359   -0.01398   -0.00626
O2    6    0.154396    0.702773    0.476668    11.00000    0.03706    0.03272 =
         0.03393    0.00221   -0.01390   -0.00876
N1    4    0.243292    0.399599    0.357976    11.00000    0.03474    0.03150 =
         0.02871    0.00085   -0.01141   -0.00772
C1    1   -0.149571    0.699144    0.303777    11.00000    0.03428    0.03616 =
         0.02239   -0.00176   -0.00571    0.00535
C2    1   -0.010444    0.815307    0.313594    11.00000    0.05142    0.03129 =
         0.03243    0.00757   -0.01200   -0.00259
AFIX  43
H2    2   -0.011122    0.904787    0.258305    11.00000   -1.20000
AFIX   0
C3    1    0.130653    0.812079    0.397802    11.00000    0.03664    0.02848 =
         0.03069   -0.00149   -0.00238   -0.00462
C4    1   -0.287600    0.718855    0.205455    11.00000    0.05368    0.04820 =
         0.03640    0.00413   -0.02094    0.00398
AFIX 137
H4A   2   -0.274116    0.824004    0.165746    11.00000   -1.50000
H4B   2   -0.436729    0.703520    0.244257    11.00000   -1.50000
H4C   2   -0.241339    0.641806    0.142692    11.00000   -1.50000
AFIX   0
C5    1    0.266621    0.951209    0.395689    11.00000    0.05289    0.03583 =
         0.05407    0.00113   -0.00836   -0.01446
AFIX 137
H5A   2    0.414304    0.915192    0.396818    11.00000   -1.50000
H5B   2    0.212253    1.011417    0.468835    11.00000   -1.50000
H5C   2    0.261380    1.017140    0.320045    11.00000   -1.50000
AFIX   0
C6    1    0.208221    0.385300    0.242355    11.00000    0.03856    0.04893 =
         0.03341   -0.00371   -0.01634    0.00251
AFIX  43
H6    2    0.072115    0.417643    0.224785    11.00000   -1.20000
AFIX   0
C7    1    0.358255    0.326528    0.148249    11.00000    0.04665    0.05307 =
         0.02864   -0.00439   -0.01614    0.00267
AFIX  43
H7    2    0.326183    0.318370    0.067814    11.00000   -1.20000
AFIX   0
C8    1    0.557935    0.279168    0.172754    11.00000    0.03774    0.03302 =
         0.03130    0.00068   -0.00698   -0.00532
C9    1    0.596123    0.290823    0.291208    11.00000    0.03166    0.03831 =
         0.03610    0.00092   -0.01245   -0.00620
AFIX  43
H9    2    0.730146    0.257465    0.311333    11.00000   -1.20000
AFIX   0
C10   1    0.435629    0.352039    0.380416    11.00000    0.03356    0.03783 =
         0.02901    0.00037   -0.01259   -0.00944
AFIX  43
H10   2    0.463530    0.360713    0.461742    11.00000   -1.20000
AFIX   0
C11   1    0.728801    0.223239    0.070380    11.00000    0.04807    0.05048 =
         0.03750   -0.00238   -0.00862    0.00279
HKLF    4

REM  fin18_11_a.res in P-1
REM R1 =  0.0305 for    2370 Fo > 4sig(Fo)  and  0.0347 for all    2593 data
REM    190 parameters refined using      0 restraints

END

WGHT      0.0350      0.1792

REM Highest difference peak  0.244,  deepest hole -0.183,  1-sigma level  0.046
Q1    1   0.9265  0.2694  0.0744  11.00000  0.05    0.24
Q2    1   0.6201  0.2385  0.1377  11.00000  0.05    0.23
Q3    1   0.2017  0.4510  0.4228  11.00000  0.05    0.23
Q4    1   0.0863  0.7937  0.3446  11.00000  0.05    0.23
Q5    1   0.5693  0.2471  0.2318  11.00000  0.05    0.23
Q6    1  -0.1020  0.5065  0.4019  11.00000  0.05    0.21
Q7    1  -0.0010  0.4159  0.5761  11.00000  0.05    0.21
Q8    1   0.4647  0.2817  0.1697  11.00000  0.05    0.21
Q9    1  -0.1345  0.7802  0.3307  11.00000  0.05    0.21
Q10   1  -0.1736  0.5640  0.4655  11.00000  0.05    0.21
Q11   1  -0.1352  0.5412  0.4243  11.00000  0.05    0.21
Q12   1  -0.1814  0.6415  0.3586  11.00000  0.05    0.20
Q13   1   0.3657  0.9775  0.3146  11.00000  0.05    0.20
Q14   1  -0.0379  0.7373  0.2916  11.00000  0.05    0.19
Q15   1   0.5679  0.3141  0.2162  11.00000  0.05    0.19
Q16   1  -0.2244  0.5182  0.3425  11.00000  0.05    0.19
Q17   1  -0.0012  0.8254  0.3932  11.00000  0.05    0.19
Q18   1   0.2198  0.3545  0.3091  11.00000  0.05    0.18
Q19   1   0.1669  1.0526  0.3922  11.00000  0.05    0.18
Q20   1   0.1044  0.7574  0.4564  11.00000  0.05    0.18
;
_shelx_res_checksum              10330
_shelx_hkl_file
;
   1   0   0  861.31    9.50
   1   0   0  854.51    9.70
   1   0   0  864.71    9.70
   1   0   0  863.91    9.80
   2   0   0  298.87    5.00
   2   0   0  293.57    4.90
   2   0   0  297.27    4.60
   2   0   0  301.97    4.90
   3   0   0    0.50    0.60
   3   0   0    0.60    0.50
   3   0   0    0.60    0.60
   3   0   0    0.60    0.60
   4   0   0   16.70    1.90
   4   0   0   11.70    1.70
   4   0   0   12.30    1.50
   4   0   0   15.80    2.00
   5   0   0  127.89    4.60
   5   0   0  126.49    4.80
   5   0   0  123.59    4.60
   5   0   0  127.79    4.10
  -6   0   0   49.10    3.50
  -6   0   0   44.40    5.20
   6   0   0   44.60    3.20
   6   0   0   47.80    3.30
  -7   0   0  112.99    5.70
   7   0   0  103.89    5.10
  -8   0   0   10.40    3.40
   7  -1   0    4.60    2.00
   6  -1   0   10.20    1.90
   6  -1   0    7.60    1.90
  -6   1   0    7.20    1.70
   5  -1   0  129.49    4.90
   5  -1   0  123.89    4.60
   5  -1   0  124.29    4.20
   5  -1   0  133.89    4.50
   4  -1   0  107.69    3.50
   4  -1   0  111.29    3.60
   4  -1   0  106.89    3.70
   4  -1   0  110.19    4.00
   3  -1   0   72.49    2.60
   3  -1   0   75.79    2.50
   3  -1   0   71.29    2.80
   3  -1   0   67.69    2.50
   2  -1   0  275.07    4.90
   2  -1   0  278.97    4.40
   2  -1   0  270.67    4.70
   2  -1   0  276.07    4.70
   1  -1   0  968.90   11.30
   1  -1   0  986.80   11.20
   1  -1   0  976.40   11.10
   1  -1   0  968.90   10.50
  -1   1   0  970.60   11.10
   0  -1   0 1633.74   17.40
   0  -1   0 1631.94   17.10
   0  -1   0 1638.34   17.50
   0   1   0 1620.64   17.50
   0   1   0 1649.63   17.50
  -1  -1   0    5.20    0.60
  -1  -1   0    5.80    0.70
   1   1   0    3.60    0.30
   1   1   0    3.80    0.60
   1   1   0    5.30    0.70
  -2  -1   0    1.70    0.60
   2   1   0    1.50    0.40
   2   1   0    0.20    0.40
  -3  -1   0  202.68    4.80
   3   1   0  212.88    3.90
   3   1   0  214.58    4.90
   3   1   0  214.48    4.90
  -4  -1   0  109.19    4.00
   4   1   0  117.89    3.20
   4   1   0  112.79    3.90
   4   1   0  111.69    4.00
  -5  -1   0  332.17    8.10
   5   1   0  335.17    8.00
   5   1   0  343.67    6.50
   5   1   0  348.07    7.90
  -6  -1   0  112.39    4.90
  -6  -1   0  119.09    5.20
   6   1   0  121.49    5.20
   6   1   0  127.39    5.20
  -7  -1   0   37.40    4.30
  -7  -1   0   40.50    4.10
   7   1   0   47.50    3.80
  -8  -1   0    1.10    1.80
   8   1   0    0.00    1.60
   7  -2   0    0.30    1.50
  -7   2   0   -0.90    1.40
   6  -2   0   39.20    3.30
  -6   2   0   40.00    3.10
   5  -2   0   90.79    3.50
   5  -2   0   91.59    4.20
  -5   2   0   83.79    3.80
  -5   2   0   94.09    4.10
   4  -2   0  232.98    5.70
   4  -2   0  235.48    6.10
   4  -2   0  228.78    5.20
  -4   2   0  226.98    5.70
   3  -2   0  208.38    4.90
   3  -2   0  213.08    4.20
   3  -2   0  207.48    5.00
  -3   2   0  210.48    4.90
   2  -2   0  162.38    3.70
   2  -2   0  155.08    3.70
   2  -2   0  157.78    3.70
   2  -2   0  160.38    2.90
  -2   2   0  160.68    3.70
   1  -2   0  454.15    6.60
   1  -2   0  464.15    6.40
   1  -2   0  450.25    6.70
  -1   2   0  473.45    6.60
   0  -2   0  995.90   11.80
   0  -2   0  985.80   11.60
   0  -2   0 1008.20   11.00
   0   2   0  993.50   11.80
   0   2   0  994.60   11.30
  -1  -2   0 4043.80   43.00
  -1  -2   0 3973.90   41.90
   1   2   0 4057.89   46.10
   1   2   0 3992.20   40.80
   1   2   0 4106.79   46.80
  -2  -2   0  107.69    3.00
  -2  -2   0  109.59    2.90
   2   2   0  109.49    1.80
   2   2   0  114.09    3.10
   2   2   0  109.89    3.10
  -3  -2   0  153.38    4.10
  -3  -2   0  145.89    4.10
   3   2   0  146.09    2.80
   3   2   0  146.89    4.20
   3   2   0  151.98    4.30
  -4  -2   0  342.37    7.40
  -4  -2   0  345.37    7.40
   4   2   0  335.57    7.50
   4   2   0  352.86    7.70
   4   2   0  340.67    5.50
  -5  -2   0   78.29    3.80
  -5  -2   0   82.69    3.90
   5   2   0   82.29    4.00
   5   2   0   71.69    3.80
  -6  -2   0   24.30    3.20
  -6  -2   0   28.60    3.40
   6   2   0   24.20    3.10
   6   2   0   22.60    3.10
  -7  -2   0   -0.70    1.40
   7   2   0   -0.10    1.40
   7   2   0    1.60    2.10
   7  -3   0    5.30    2.10
  -7   3   0    9.40    2.50
   6  -3   0   15.10    2.70
  -6   3   0   15.60    2.70
   5  -3   0    0.90    1.00
  -5   3   0    3.40    1.40
  -5   3   0    0.40    1.10
   4  -3   0  360.16    6.50
   4  -3   0  360.76    8.10
  -4   3   0  357.76    8.20
  -4   3   0  366.26    7.70
   3  -3   0  403.06    6.20
   3  -3   0  396.56    7.80
   3  -3   0  398.16    7.60
  -3   3   0  399.06    7.50
   2  -3   0  347.77    6.40
   2  -3   0  340.67    6.20
   2  -3   0  334.17    6.50
  -2   3   0  344.77    6.20
   1  -3   0  292.27    5.50
   1  -3   0  292.07    5.10
  -1   3   0  295.17    5.40
  -1   3   0  296.07    5.40
   0  -3   0   80.39    1.90
   0  -3   0   75.69    2.40
   0  -3   0   76.79    2.30
   0   3   0   78.49    2.50
   0   3   0   78.99    2.10
  -1  -3   0 2447.85   27.50
  -1  -3   0 2485.35   27.70
  -1  -3   0 2472.95   27.20
   1   3   0 2478.55   25.80
   1   3   0 2497.95   28.10
  -2  -3   0 1100.69   14.30
  -2  -3   0 1092.59   14.60
   2   3   0 1099.99   15.00
  -3  -3   0  522.95    9.20
  -3  -3   0  520.25    8.90
   3   3   0  525.55    9.50
   3   3   0  526.05    9.30
  -4  -3   0    1.00    1.00
  -4  -3   0   -0.10    0.90
   4   3   0    1.60    1.00
   4   3   0    1.80    1.00
  -5  -3   0   31.30    3.30
  -5  -3   0   35.40    3.70
   5   3   0   24.90    3.10
   5   3   0   32.60    3.30
  -6  -3   0   71.19    4.10
  -6  -3   0   59.79    3.90
   6   3   0   65.99    4.20
   6   3   0   64.19    4.10
  -7  -3   0    9.10    2.50
   7   3   0    8.60    2.50
   7   3   0    6.00    2.00
   7  -4   0   17.60    3.20
  -7   4   0   19.40    3.40
   6  -4   0   -0.30    1.30
  -6   4   0   -0.40    1.30
   5  -4   0    1.60    1.30
  -5   4   0    3.90    1.50
   4  -4   0  295.67    7.70
  -4   4   0  320.17    7.20
  -4   4   0  297.57    7.70
   3  -4   0  331.37    7.40
   3  -4   0  334.87    7.20
  -3   4   0  330.87    6.90
  -3   4   0  315.77    7.40
   2  -4   0   77.29    2.90
   2  -4   0   77.79    3.20
  -2   4   0   78.99    2.90
  -2   4   0   78.79    3.20
   1  -4   0    3.10    0.80
   1  -4   0    3.20    0.90
  -1   4   0    3.80    0.90
  -1   4   0    3.80    1.00
   0  -4   0    7.80    1.20
   0  -4   0    8.30    1.00
   0  -4   0    7.20    1.20
   0   4   0   10.50    1.30
   0   4   0    8.20    1.30
  -1  -4   0  384.96    7.00
  -1  -4   0  394.16    6.60
  -1  -4   0  387.06    7.00
   1   4   0  400.16    7.40
  -2  -4   0  430.16    7.80
  -2  -4   0  437.56    7.80
   2   4   0  437.26    5.40
   2   4   0  423.56    8.40
  -3  -4   0  109.89    3.80
  -3  -4   0  107.69    4.00
   3   4   0  111.39    4.10
   3   4   0  111.69    4.20
  -4  -4   0    5.80    1.60
  -4  -4   0    4.40    1.50
   4   4   0    3.40    1.40
   4   4   0    4.20    1.50
  -5  -4   0   40.50    3.00
  -5  -4   0   44.40    3.20
   5   4   0   43.70    3.30
   5   4   0   40.10    3.20
  -6  -4   0   57.79    3.80
  -6  -4   0   59.69    4.00
   6   4   0   53.29    4.00
   6   4   0   61.79    4.30
  -7  -4   0   49.60    4.90
  -7  -4   0   58.49    4.60
   7   4   0   51.39    5.30
   7  -5   0   14.40    3.10
  -7   5   0   12.80    2.90
   6  -5   0   32.10    4.00
  -6   5   0   23.00    3.40
   5  -5   0   95.79    4.90
  -5   5   0   90.69    4.80
   4  -5   0    4.10    1.50
  -4   5   0    1.30    1.10
  -4   5   0    2.00    1.30
   3  -5   0   45.00    2.70
   3  -5   0   41.80    2.90
  -3   5   0   42.70    2.90
  -3   5   0   42.90    2.60
   2  -5   0    0.90    0.70
   2  -5   0    1.10    0.90
  -2   5   0    0.90    0.90
  -2   5   0    1.30    0.80
   1  -5   0    4.50    1.10
   1  -5   0    5.50    1.30
  -1   5   0    4.10    1.10
  -1   5   0    3.90    1.10
   0  -5   0  253.97    6.00
   0  -5   0  254.57    5.70
   0  -5   0  259.37    4.70
   0   5   0  258.07    6.10
   0   5   0  258.17    5.30
  -1  -5   0   18.30    1.80
  -1  -5   0   16.50    1.90
  -1  -5   0   18.80    2.00
   1   5   0   18.90    2.30
   1   5   0   16.70    1.30
  -2  -5   0  779.52   12.60
  -2  -5   0  782.12   12.40
  -2  -5   0  801.72   12.20
   2   5   0  777.22   13.20
  -3  -5   0   90.19    3.90
  -3  -5   0   88.19    3.80
  -3  -5   0   90.09    3.80
   3   5   0   77.89    3.90
  -4  -5   0    3.00    1.40
  -4  -5   0    0.80    1.00
  -4  -5   0    0.60    1.00
   4   5   0    2.50    1.50
  -5  -5   0    1.10    1.40
  -5  -5   0   -0.30    1.20
  -5  -5   0    0.20    1.30
   5   5   0    0.60    1.40
  -6  -5   0   40.60    4.20
  -6  -5   0   38.90    4.20
   6   5   0   40.00    4.40
  -7  -5   0   32.80    4.30
  -7  -5   0   32.40    4.30
   7   5   0   41.10    4.80
   6  -6   0   31.10    4.00
  -6   6   0   34.30    4.30
   5  -6   0   32.00    3.90
  -5   6   0   32.80    3.90
   4  -6   0   11.50    2.10
   4  -6   0    9.80    2.30
  -4   6   0   11.20    2.30
   3  -6   0  161.38    5.40
   3  -6   0  151.28    5.70
  -3   6   0  159.48    5.20
  -3   6   0  153.28    5.60
   2  -6   0  153.58    5.30
   2  -6   0  151.68    4.90
  -2   6   0  154.98    5.00
  -2   6   0  160.98    5.30
   1  -6   0  168.18    5.30
   1  -6   0  173.78    5.00
  -1   6   0  163.38    5.10
  -1   6   0  171.78    5.00
   0  -6   0  138.69    4.40
   0  -6   0  144.79    3.60
   0  -6   0  148.49    4.90
   0   6   0  139.89    4.10
   0   6   0  142.29    4.80
  -1  -6   0  131.89    4.50
  -1  -6   0  132.99    4.50
  -1  -6   0  127.19    3.90
   1   6   0  125.69    4.70
  -2  -6   0  332.27    7.70
  -2  -6   0  355.46    8.10
  -2  -6   0  343.97    7.50
   2   6   0  344.67    8.60
  -3  -6   0   13.80    2.20
  -3  -6   0   13.50    2.10
  -3  -6   0   16.20    2.60
   3   6   0   12.80    2.30
  -4  -6   0   79.59    4.00
  -4  -6   0   71.69    4.10
  -4  -6   0   65.49    4.00
   4   6   0   76.19    4.40
  -5  -6   0   12.00    2.70
  -5  -6   0   12.80    2.70
  -5  -6   0   13.10    2.50
   5   6   0    8.40    2.30
  -6  -6   0   12.90    2.80
  -6  -6   0   21.20    3.80
   6   6   0   14.70    3.00
   5  -7   0   22.00    3.50
  -5   7   0   18.90    3.20
   4  -7   0   44.90    3.40
   4  -7   0   44.90    3.70
  -4   7   0   48.50    3.80
   3  -7   0   38.20    3.30
   3  -7   0   34.70    2.80
  -3   7   0   39.80    3.00
  -3   7   0   36.10    3.70
   2  -7   0  147.29    5.60
   2  -7   0  136.59    5.00
  -2   7   0  144.99    5.30
  -2   7   0  143.99    5.40
   1  -7   0  115.39    4.40
   1  -7   0  121.09    4.80
  -1   7   0  119.89    4.50
  -1   7   0  113.59    4.70
   0  -7   0    5.80    1.50
   0  -7   0    8.50    1.90
   0   7   0    5.00    1.60
   0   7   0    4.20    1.30
  -1  -7   0    0.40    1.10
  -1  -7   0    0.60    0.80
  -1  -7   0    1.60    1.20
   1   7   0    2.80    1.40
  -2  -7   0   20.50    2.70
  -2  -7   0   22.80    2.90
  -2  -7   0   17.70    2.30
   2   7   0   18.70    3.00
  -3  -7   0  243.78    7.20
  -3  -7   0  224.68    7.10
  -3  -7   0  237.48    7.00
   3   7   0  232.48    7.70
  -4  -7   0  127.29    5.40
  -4  -7   0  127.99    5.80
  -4  -7   0  130.09    5.60
   4   7   0  111.49    5.70
  -5  -7   0    3.60    1.90
  -5  -7   0    5.70    2.30
  -5  -7   0    3.40    1.80
   5   7   0    5.50    2.20
  -6  -7   0    7.90    2.30
  -6  -7   0    4.50    2.40
   6   7   0    8.10    2.60
   5  -8   0    3.20    2.20
  -5   8   0    1.40    1.50
   4  -8   0   48.60    4.10
  -4   8   0   39.60    4.30
   3  -8   0    0.20    1.40
   3  -8   0    1.00    1.30
  -3   8   0    0.90    1.10
   2  -8   0   87.79    4.30
   2  -8   0   81.89    4.50
  -2   8   0   84.19    4.40
  -2   8   0   85.49    4.40
   1  -8   0   23.40    3.10
   1  -8   0   24.00    2.80
  -1   8   0   22.90    2.80
  -1   8   0   27.30    3.30
   0  -8   0    1.50    1.30
   0  -8   0   -0.40    1.00
   0   8   0    0.10    1.10
  -1  -8   0    0.20    1.00
  -1  -8   0    0.50    1.10
   1   8   0    1.00    1.20
  -2  -8   0   10.80    2.10
  -2  -8   0   10.70    2.20
  -2  -8   0   12.40    2.40
   2   8   0   14.50    2.70
  -3  -8   0  186.08    6.40
  -3  -8   0  191.88    6.60
  -3  -8   0  184.48    6.80
   3   8   0  182.78    7.30
  -4  -8   0   36.70    4.10
  -4  -8   0   31.80    4.10
  -4  -8   0   34.40    4.00
   4   8   0   37.30    4.60
  -5  -8   0   18.60    3.40
  -5  -8   0   21.00    3.50
   5   8   0   21.60    3.80
   4  -9   0   21.40    3.60
  -4   9   0   19.40    3.30
   3  -9   0    0.80    1.50
  -3   9   0    1.70    1.70
   2  -9   0   31.50    3.90
   2  -9   0   26.70    3.30
  -2   9   0   28.40    3.60
  -2   9   0   36.40    3.90
   1  -9   0   44.00    4.60
   1  -9   0   35.20    3.70
  -1   9   0   39.00    3.10
  -1   9   0   49.20    3.80
   0  -9   0   86.09    4.80
   0  -9   0   89.09    4.50
   0   9   0   87.99    4.90
  -1  -9   0   27.50    3.50
  -1  -9   0   20.80    3.00
   1   9   0   26.10    3.90
  -2  -9   0    8.60    2.40
  -2  -9   0   12.00    2.50
   2   9   0   14.10    2.80
  -3  -9   0   62.99    4.40
  -3  -9   0   59.89    4.20
   3   9   0   54.09    4.40
  -4  -9   0   18.20    3.10
  -4  -9   0   19.90    3.20
  -4  -9   0   25.50    3.70
   4   9   0   21.20    3.80
   3 -10   0   14.60    3.10
  -3  10   0   11.20    2.80
   2 -10   0    4.90    2.20
   2 -10   0    3.40    1.90
  -2  10   0    6.40    2.20
   1 -10   0   34.60    4.30
   1 -10   0   46.00    3.70
  -1  10   0   34.90    4.30
   0 -10   0   63.89    4.50
   0 -10   0   56.39    4.00
   0  10   0   61.19    4.50
  -1 -10   0   27.10    3.70
  -1 -10   0   23.60    3.30
   1  10   0   26.20    3.90
  -2 -10   0    7.50    2.30
   2  10   0    7.40    2.60
  -3 -10   0    2.10    1.80
  -3 -10   0   -0.20    1.50
   3  10   0   -1.10    1.40
   3  10  -1    1.10    1.90
  -3 -10   1    2.00    1.80
  -3 -10   1    1.60    2.00
   2  10  -1    1.40    1.60
  -2 -10   1    0.10    1.50
  -2 -10   1   -1.30    1.40
   1  10  -1   15.20    3.20
  -1 -10   1   15.30    3.00
  -1 -10   1   15.90    3.10
   0  10  -1   49.20    5.20
   0 -10   1   42.20    4.90
   0 -10   1   42.40    4.30
  -1  10  -1   44.90    4.80
   1 -10   1   33.80    4.20
   1 -10   1   44.70    3.60
  -2  10  -1   33.70    4.20
   2 -10   1   36.90    4.40
  -3  10  -1    2.90    2.00
   3 -10   1    4.60    2.10
   4   9  -1    5.20    2.30
  -4  -9   1    6.30    2.30
  -4  -9   1    9.20    2.70
  -4  -9   1    4.90    2.10
   3   9  -1   79.19    5.30
  -3  -9   1   85.29    5.00
  -3  -9   1   77.39    4.90
   2   9  -1    3.90    1.90
  -2  -9   1    2.50    1.70
  -2  -9   1    1.20    1.60
   1   9  -1   78.39    4.90
  -1  -9   1   83.49    4.80
  -1  -9   1   80.09    4.50
   0   9  -1  144.89    6.40
   0  -9   1  148.69    5.70
   0  -9   1  140.79    6.10
  -1   9  -1   79.99    4.80
   1  -9   1   89.19    4.50
   1  -9   1   80.69    4.70
  -2   9  -1   21.90    3.30
  -2   9  -1   18.40    2.80
   2  -9   1   28.20    3.80
  -3   9  -1    7.00    2.10
   3  -9   1    9.00    2.40
  -4   9  -1    5.30    2.20
   4  -9   1    5.40    2.30
   5   8  -1    6.10    2.70
  -5  -8   1    5.40    2.20
  -5  -8   1    5.80    2.40
  -5  -8   1    6.60    2.30
   4   8  -1   64.69    4.80
  -4  -8   1   60.99    4.40
  -4  -8   1   69.19    4.60
  -4  -8   1   67.29    4.40
   3   8  -1   77.49    5.00
  -3  -8   1   75.79    4.30
  -3  -8   1   81.99    4.60
  -3  -8   1   84.09    4.70
   2   8  -1   26.30    3.60
  -2  -8   1   31.70    3.60
  -2  -8   1   30.80    3.60
   1   8  -1   26.80    3.50
  -1  -8   1   30.60    3.40
  -1  -8   1   27.40    3.30
   0   8  -1    4.30    1.80
   0  -8   1    3.50    1.40
   0  -8   1    2.50    1.40
  -1   8  -1    6.80    1.70
  -1   8  -1    9.60    2.10
   1  -8   1    7.70    2.00
   1  -8   1    5.90    1.60
  -2   8  -1   35.70    3.70
  -2   8  -1   36.90    3.80
   2  -8   1   34.70    3.80
   2  -8   1   33.50    2.80
  -3   8  -1   79.59    4.60
  -3   8  -1   80.39    4.60
   3  -8   1   73.89    4.50
  -4   8  -1    9.30    2.30
   4  -8   1   10.50    2.50
  -5   8  -1    2.90    1.90
   5  -8   1    9.60    2.70
   6   7  -1   10.90    2.80
  -6  -7   1    8.30    2.30
  -6  -7   1   15.80    3.50
   5   7  -1    8.60    2.60
  -5  -7   1   11.20    2.60
  -5  -7   1    7.70    2.20
  -5  -7   1    9.50    2.70
   4   7  -1   71.49    4.70
  -4  -7   1   71.99    4.30
  -4  -7   1   76.39    4.50
  -4  -7   1   73.79    4.50
   3   7  -1   91.09    4.90
  -3  -7   1   83.29    4.40
  -3  -7   1   89.69    4.30
  -3  -7   1   89.39    4.60
   2   7  -1  217.28    7.30
  -2  -7   1  228.38    6.20
  -2  -7   1  216.78    6.60
  -2  -7   1  224.88    6.80
   1   7  -1  116.69    5.00
  -1  -7   1  119.09    4.60
  -1  -7   1  116.49    4.10
  -1  -7   1  117.69    4.80
   0   7  -1    5.70    1.70
   0   7  -1    5.20    1.20
   0  -7   1    7.00    1.60
   0  -7   1    5.20    1.60
  -1   7  -1  125.49    4.60
  -1   7  -1  135.09    5.20
   1  -7   1  133.09    5.10
   1  -7   1  132.59    4.60
  -2   7  -1  176.38    6.10
  -2   7  -1  186.48    6.00
   2  -7   1  178.08    5.50
   2  -7   1  178.38    6.20
  -3   7  -1  187.88    6.60
  -3   7  -1  180.28    6.20
   3  -7   1  180.18    5.90
   3  -7   1  169.28    6.40
  -4   7  -1   -0.50    1.30
   4  -7   1   -0.40    1.20
  -5   7  -1    1.10    1.50
   5  -7   1    1.60    1.50
  -6   7  -1    1.60    1.70
   6  -7   1    0.30    1.60
   6   6  -1   12.50    2.80
  -6  -6   1   12.10    2.60
  -6  -6   1    9.00    2.60
  -6  -6   1   13.80    2.90
   5   6  -1   46.40    4.00
  -5  -6   1   49.10    3.70
  -5  -6   1   38.70    4.00
  -5  -6   1   29.40    3.50
   4   6  -1   77.39    4.50
  -4  -6   1   74.19    4.30
  -4  -6   1   77.49    4.30
  -4  -6   1   80.89    4.40
   3   6  -1  114.39    5.10
  -3  -6   1  109.09    4.50
  -3  -6   1  105.29    4.60
  -3  -6   1  113.39    4.80
   2   6  -1  486.95   10.70
  -2  -6   1  497.75    9.40
  -2  -6   1  505.95   10.20
  -2  -6   1  508.25   10.10
   1   6  -1    5.90    1.60
  -1  -6   1    5.40    1.30
  -1  -6   1    1.90    1.10
  -1  -6   1    5.40    1.40
   0   6  -1   36.30    2.60
   0   6  -1   31.30    2.00
   0  -6   1   30.00    1.60
   0  -6   1   34.20    2.20
   0  -6   1   30.90    2.40
  -1   6  -1   82.99    3.40
  -1   6  -1   81.49    3.80
   1  -6   1   80.69    3.30
   1  -6   1   81.89    3.70
  -2   6  -1  246.58    6.60
  -2   6  -1  247.58    6.70
   2  -6   1  231.78    5.90
   2  -6   1  251.17    6.90
  -3   6  -1  143.69    5.30
  -3   6  -1  150.58    5.50
   3  -6   1  143.09    5.50
   3  -6   1  144.59    4.90
  -4   6  -1    4.00    1.70
  -4   6  -1    7.10    1.80
   4  -6   1    7.20    2.00
  -5   6  -1   11.40    2.50
   5  -6   1   11.40    2.50
  -6   6  -1    1.60    1.70
   6  -6   1    3.70    2.10
   7   5  -1    9.50    2.80
  -7  -5   1    8.00    2.60
   6   5  -1   36.60    4.30
   6   5  -1   23.70    3.50
  -6  -5   1   27.00    3.60
  -6  -5   1   26.90    3.80
   5   5  -1   45.70    3.50
   5   5  -1   47.30    3.70
  -5  -5   1   44.80    3.60
  -5  -5   1   48.10    3.50
   4   5  -1   13.90    2.30
   4   5  -1   15.70    2.50
  -4  -5   1   11.20    2.10
  -4  -5   1   12.90    2.20
   3   5  -1   85.69    3.80
   3   5  -1   92.59    4.30
  -3  -5   1   92.59    4.00
  -3  -5   1   89.69    4.00
   2   5  -1  241.28    6.60
   2   5  -1  232.68    5.80
  -2  -5   1  230.48    6.00
  -2  -5   1  240.58    6.10
   1   5  -1  301.27    5.00
   1   5  -1  298.57    7.10
  -1  -5   1  300.87    6.50
  -1  -5   1  302.07    5.90
  -1  -5   1  305.17    6.80
   0   5  -1    4.70    1.20
   0   5  -1    5.70    1.10
   0  -5   1    6.20    1.30
   0  -5   1    4.50    0.90
   0  -5   1    3.50    1.00
  -1   5  -1   37.70    2.40
  -1   5  -1   36.20    2.10
   1  -5   1   33.10    2.20
   1  -5   1   34.70    2.00
  -2   5  -1  275.17    6.70
   2  -5   1  279.17    6.30
   2  -5   1  266.87    6.60
   2  -5   1  274.97    6.00
  -3   5  -1  118.99    4.40
   3  -5   1  123.59    4.70
   3  -5   1  125.29    4.50
   3  -5   1  120.59    4.20
  -4   5  -1  118.49    5.10
  -4   5  -1  126.59    4.90
   4  -5   1  114.39    4.80
  -5   5  -1   23.00    3.20
   5  -5   1   21.10    3.00
  -6   5  -1   16.30    3.00
   6  -5   1   15.70    2.80
  -7   5  -1   20.80    3.70
   7  -5   1   15.40    3.20
   7   4  -1    3.80    2.00
   7   4  -1    4.20    2.40
  -7  -4   1    5.10    2.30
   6   4  -1   55.79    4.10
   6   4  -1   54.89    4.10
  -6  -4   1   58.79    4.10
  -6  -4   1   56.29    4.10
   5   4  -1   20.70    2.90
   5   4  -1   21.90    2.90
  -5  -4   1   26.00    3.10
  -5  -4   1   30.00    3.40
   4   4  -1   28.90    3.10
   4   4  -1   25.20    2.90
  -4  -4   1   22.70    2.70
  -4  -4   1   22.60    2.60
   3   4  -1   15.60    2.20
   3   4  -1   14.70    1.90
  -3  -4   1   15.20    2.10
  -3  -4   1   18.30    2.30
   2   4  -1   36.00    2.10
   2   4  -1   41.10    2.50
  -2  -4   1   46.50    2.50
  -2  -4   1   41.30    2.40
   1   4  -1 2021.00   23.60
   1   4  -1 2020.60   25.00
   1   4  -1 2046.80   21.90
  -1  -4   1 2078.69   24.60
   0   4  -1  186.68    4.80
   0   4  -1  193.98    3.90
   0  -4   1  182.48    4.20
   0  -4   1  190.08    3.50
   0  -4   1  188.48    4.60
  -1   4  -1   22.30    2.20
   1  -4   1   19.30    2.00
   1  -4   1   17.90    1.30
   1  -4   1   19.40    1.50
  -2   4  -1   51.59    2.60
   2  -4   1   53.49    2.30
   2  -4   1   51.19    2.50
   2  -4   1   51.99    2.60
  -3   4  -1  133.89    4.50
   3  -4   1  137.89    4.60
   3  -4   1  141.79    4.50
   3  -4   1  133.79    4.10
  -4   4  -1   43.10    2.90
   4  -4   1   41.40    2.90
   4  -4   1   43.40    2.90
  -5   4  -1    5.20    1.60
   5  -4   1    3.70    1.60
   5  -4   1    4.40    1.60
  -6   4  -1   13.10    2.60
   6  -4   1   19.40    3.10
  -7   4  -1    7.70    2.40
   7  -4   1    4.10    2.00
   7   3  -1    8.10    2.20
  -7  -3   1   10.90    2.60
  -7  -3   1   13.40    2.80
   6   3  -1   96.29    5.00
   6   3  -1  100.69    5.00
  -6  -3   1   97.69    4.90
  -6  -3   1   94.59    5.00
   5   3  -1   21.80    2.90
   5   3  -1   22.80    2.80
  -5  -3   1   19.20    2.70
  -5  -3   1   24.20    3.00
   4   3  -1   86.59    3.90
   4   3  -1   94.99    4.00
  -4  -3   1   88.49    3.90
  -4  -3   1   91.19    4.00
   3   3  -1  112.59    4.00
   3   3  -1  121.89    4.10
  -3  -3   1  122.19    4.10
  -3  -3   1  116.39    4.00
   2   3  -1  378.86    7.00
   2   3  -1  389.16    7.40
  -2  -3   1  377.96    7.00
  -2  -3   1  392.06    7.20
   1   3  -1 2323.17   26.80
   1   3  -1 2348.76   23.90
   1   3  -1 2296.27   25.70
  -1  -3   1 2326.47   26.20
  -1  -3   1 2304.17   26.40
   0   3  -1  156.48    3.80
   0  -3   1  150.98    3.60
   0  -3   1  155.28    3.00
   0  -3   1  152.08    3.30
  -1   3  -1   95.99    3.00
   1  -3   1   86.49    2.80
   1  -3   1   91.69    2.60
   1  -3   1   88.79    2.40
  -2   3  -1    1.30    0.70
   2  -3   1    1.30    0.50
   2  -3   1    1.00    0.70
   2  -3   1    1.20    0.60
  -3   3  -1  107.99    3.80
   3  -3   1  106.59    3.70
   3  -3   1  105.39    3.70
  -4   3  -1  241.28    6.50
   4  -3   1  239.88    6.30
   4  -3   1  238.18    6.20
  -5   3  -1  107.89    4.70
   5  -3   1  111.69    4.50
   5  -3   1  115.29    4.70
  -6   3  -1   19.20    2.90
   6  -3   1   20.60    2.90
  -7   3  -1    2.20    1.70
   7  -3   1    0.50    1.40
   7   2  -1   13.40    2.80
  -7  -2   1   13.20    2.80
  -7  -2   1   12.80    2.90
   6   2  -1    0.90    1.20
   6   2  -1    2.40    1.50
  -6  -2   1    1.10    1.30
  -6  -2   1    0.80    1.40
   5   2  -1   83.69    4.10
   5   2  -1   85.99    4.00
  -5  -2   1   81.09    4.00
  -5  -2   1   79.19    4.10
   4   2  -1  141.29    4.70
   4   2  -1  148.19    4.70
  -4  -2   1  143.99    4.80
  -4  -2   1  147.09    4.80
   3   2  -1  439.26    8.00
   3   2  -1  432.56    8.10
  -3  -2   1  440.16    5.70
  -3  -2   1  441.46    8.10
  -3  -2   1  439.86    8.10
   2   2  -1  453.05    7.40
   2   2  -1  448.56    7.50
  -2  -2   1  457.15    7.40
  -2  -2   1  448.16    7.50
   1   2  -1  177.28    3.70
   1   2  -1  171.78    3.40
  -1  -2   1  163.88    3.40
  -1  -2   1  166.98    3.60
   0   2  -1 2908.71   30.40
   0   2  -1 2913.61   31.20
   0  -2   1 2909.01   31.00
   0  -2   1 2860.71   30.40
   0  -2   1 2957.00   30.10
  -1   2  -1  142.29    3.30
   1  -2   1  147.59    2.70
   1  -2   1  141.79    3.10
   1  -2   1  143.29    3.10
  -2   2  -1   74.19    2.60
   2  -2   1   71.09    2.20
   2  -2   1   72.09    2.40
   2  -2   1   75.39    2.50
  -3   2  -1  851.91   12.60
   3  -2   1  850.41   12.10
   3  -2   1  880.11   12.40
   3  -2   1  825.72   10.70
  -4   2  -1  943.81   14.70
   4  -2   1  971.40   14.30
   4  -2   1  983.30   13.20
   4  -2   1  974.80   14.50
  -5   2  -1  145.59    5.20
   5  -2   1  142.29    4.90
   5  -2   1  144.99    5.10
   5  -2   1  155.88    4.50
  -6   2  -1    1.00    1.20
   6  -2   1    0.20    1.20
   6  -2   1    1.50    1.30
  -7   2  -1    1.80    1.60
   7  -2   1    0.50    1.60
   7   1  -1   14.50    2.70
  -7  -1   1   10.70    2.50
  -7  -1   1   10.60    2.60
   6   1  -1    2.90    1.40
  -6  -1   1    3.70    1.80
   5   1  -1  145.49    5.20
   5   1  -1  155.18    5.10
  -5  -1   1  147.99    5.50
   4   1  -1   23.40    2.30
   4   1  -1   23.10    2.30
  -4  -1   1   21.50    2.50
  -4  -1   1   19.20    1.40
   3   1  -1  100.79    3.30
   3   1  -1   97.69    3.10
  -3  -1   1   96.79    3.50
  -3  -1   1   99.19    2.50
   2   1  -1  300.47    5.20
   2   1  -1  299.07    5.40
  -2  -1   1  296.47    5.60
  -2  -1   1  296.07    4.10
   1   1  -1   53.79    1.60
   1   1  -1   49.60    1.60
  -1  -1   1   51.29    1.70
  -1  -1   1   49.40    0.90
   0   1  -1 1823.82   19.70
   0   1  -1 1796.12   19.20
   0  -1   1 1805.22   19.10
   0  -1   1 1784.92   18.60
   0  -1   1 1787.52   18.80
  -1   1  -1  481.95    6.70
   1  -1   1  482.75    6.40
   1  -1   1  481.65    6.20
   1  -1   1  478.25    5.60
  -2   1  -1  400.46    6.50
   2  -1   1  400.96    6.20
   2  -1   1  408.76    5.60
   2  -1   1  397.66    6.00
   3  -1   1   93.69    3.00
   3  -1   1   95.19    3.00
   3  -1   1   93.39    2.70
   3  -1   1   89.19    3.10
   4  -1   1   57.69    2.80
   4  -1   1   52.39    2.60
   4  -1   1   57.59    2.50
   4  -1   1   55.79    2.60
   5  -1   1  110.09    4.00
   5  -1   1  107.19    4.20
   5  -1   1  109.49    4.00
   5  -1   1  107.89    4.40
   6  -1   1   13.50    2.40
   6  -1   1   12.80    2.30
   6  -1   1   11.20    2.10
   6  -1   1   12.80    2.20
  -7   1  -1    3.20    2.60
   7  -1   1    1.70    2.80
   7   0  -1   66.59    4.30
  -7   0   1   82.49    5.20
   6   0  -1    8.60    2.00
  -6   0   1   13.30    2.40
   5   0  -1  114.79    4.80
   5   0  -1  113.19    4.20
   5   0  -1  117.19    4.50
  -5   0   1  110.09    3.90
   4   0  -1  126.19    4.40
   4   0  -1  121.39    4.00
   4   0  -1  117.79    3.70
  -4   0   1  120.59    3.60
   3   0  -1   58.19    2.20
   3   0  -1   58.19    2.60
   3   0  -1   61.99    2.50
  -3   0   1   59.69    2.20
   2   0  -1  663.43    8.50
   2   0  -1  667.83    9.40
  -2   0   1  658.53    8.50
   1   0  -1 1388.36   14.60
   1   0  -1 1380.36   15.50
   1   0  -1 1406.56   15.30
  -1   0   1 1376.16   14.90
   0   0  -1  464.65    5.50
   0   0  -1  469.75    5.30
   0   0   1  472.15    5.30
   0   0   1  471.35    5.40
  -1   0  -1  779.32    8.90
   1   0   1  777.02    9.00
   1   0   1  787.72    9.30
   1   0   1  800.02    8.50
   2   0   1  248.98    4.60
   2   0   1  247.98    4.30
   2   0   1  260.17    4.20
   2   0   1  249.88    4.20
   3   0   1  202.18    4.20
   3   0   1  207.18    4.40
   3   0   1  210.58    4.70
   3   0   1  200.78    4.40
   4   0   1  226.28    5.40
   4   0   1  225.68    5.40
   4   0   1  220.08    5.10
   4   0   1  213.98    5.50
   5   0   1  261.87    6.90
   5   0   1  263.27    6.10
   5   0   1  269.77    6.70
   5   0   1  269.57    6.70
  -6   0  -1  117.99    5.00
   6   0   1  114.09    5.00
   6   0   1  117.89    4.30
   6   0   1  111.49    4.70
  -7   0  -1   45.00    3.50
   7   0   1   56.09    3.90
   7  -1  -1   36.50    4.00
  -7   1   1   41.20    4.60
   6  -1  -1  127.39    5.00
   6  -1  -1  117.19    5.40
  -6   1   1  125.09    4.90
   5  -1  -1    2.00    1.30
   5  -1  -1    2.00    1.00
   5  -1  -1    2.80    1.20
  -5   1   1    2.10    1.10
   4  -1  -1   37.20    2.20
   4  -1  -1   44.40    2.40
   4  -1  -1   37.50    2.50
  -4   1   1   36.60    2.20
   3  -1  -1  111.89    3.70
   3  -1  -1  114.99    3.10
   3  -1  -1  108.89    3.30
  -3   1   1  113.59    3.30
   2  -1  -1  206.88    4.00
   2  -1  -1  208.58    4.40
   2  -1  -1  211.58    3.60
  -2   1   1  205.88    4.10
   1  -1  -1  693.63    8.90
   1  -1  -1  710.83    8.50
   1  -1  -1  683.93    8.80
  -1   1   1  699.13    7.80
  -1   1   1  697.73    8.70
   0  -1  -1  587.04    6.90
   0  -1  -1  590.94    6.80
   0  -1  -1  588.34    7.00
   0   1   1  595.84    7.00
   0   1   1  599.04    6.70
  -1  -1  -1 4057.29   43.90
  -1  -1  -1 3944.81   42.30
  -1  -1  -1 3992.80   43.50
   1   1   1 4002.80   45.30
   1   1   1 4154.18   43.60
  -2  -1  -1   63.79    2.00
  -2  -1  -1   61.79    1.80
   2   1   1   65.59    2.20
   2   1   1   61.39    1.70
  -3  -1  -1   86.69    2.80
  -3  -1  -1   90.99    2.90
   3   1   1   82.19    3.00
   3   1   1   87.59    2.90
   3   1   1   89.99    2.50
  -4  -1  -1  100.99    3.50
  -4  -1  -1  107.89    3.70
   4   1   1  110.09    3.80
   4   1   1  108.19    3.90
   4   1   1  102.19    3.00
  -5  -1  -1  202.08    5.90
  -5  -1  -1  213.08    5.90
   5   1   1  201.08    5.00
   5   1   1  218.28    6.20
   5   1   1  212.48    6.20
  -6  -1  -1  230.18    6.80
  -6  -1  -1  234.38    7.00
   6   1   1  240.28    7.20
  -7  -1  -1   48.70    3.70
   7   1   1   45.30    3.70
   7   1   1   49.80    3.90
  -8  -1  -1    0.50    1.70
   7  -2  -1   17.20    3.00
   6  -2  -1   60.59    3.70
   6  -2  -1   63.69    4.10
  -6   2   1   63.39    3.80
   5  -2  -1   49.00    3.30
   5  -2  -1   50.49    2.90
  -5   2   1   52.49    3.20
   4  -2  -1  300.57    7.40
   4  -2  -1  305.57    6.40
  -4   2   1  308.47    7.00
  -4   2   1  317.37    6.50
   3  -2  -1  240.68    4.90
  -3   2   1  242.38    5.50
  -3   2   1  231.58    4.80
   2  -2  -1    1.40    0.50
   2  -2  -1    2.50    0.80
   2  -2  -1    2.50    0.80
  -2   2   1    1.70    0.60
  -2   2   1    0.80    0.60
   1  -2  -1    2.00    0.50
   1  -2  -1    3.50    0.70
   1  -2  -1    3.00    0.70
  -1   2   1    1.40    0.50
   0  -2  -1  187.08    3.40
   0  -2  -1  194.08    3.40
   0  -2  -1  192.28    3.20
   0   2   1  185.38    3.30
   0   2   1  192.68    3.30
  -1  -2  -1 1619.14   18.30
  -1  -2  -1 1625.54   18.40
  -1  -2  -1 1641.64   17.80
   1   2   1 1632.34   18.70
   1   2   1 1627.84   17.60
  -2  -2  -1    1.90    0.60
  -2  -2  -1    3.00    0.70
  -2  -2  -1    3.70    0.80
   2   2   1    3.00    0.80
   2   2   1    4.60    0.60
  -3  -2  -1   52.29    2.20
  -3  -2  -1   52.59    2.40
   3   2   1   57.09    2.60
   3   2   1   53.09    2.50
   3   2   1   54.89    1.80
  -4  -2  -1    4.80    1.20
  -4  -2  -1    7.20    1.40
   4   2   1    6.00    1.00
   4   2   1    2.70    1.10
   4   2   1    5.00    1.10
  -5  -2  -1  161.38    5.10
  -5  -2  -1  156.48    5.30
   5   2   1  158.28    5.50
   5   2   1  166.28    5.70
  -6  -2  -1   21.60    2.90
  -6  -2  -1   22.20    3.00
   6   2   1   15.20    2.60
   6   2   1   19.00    2.90
  -7  -2  -1    6.70    2.10
  -7  -2  -1    4.20    2.00
   7   2   1    3.60    1.80
  -8  -2  -1   16.10    3.30
  -8  -2  -1   21.90    3.70
   7  -3  -1    6.80    2.30
  -7   3   1    8.40    2.20
   6  -3  -1   54.49    4.00
  -6   3   1   47.10    3.60
   5  -3  -1  242.88    7.30
  -5   3   1  224.58    6.90
   4  -3  -1  171.28    4.50
   4  -3  -1  162.68    5.50
  -4   3   1  168.18    5.40
  -4   3   1  175.98    4.70
   3  -3  -1   43.60    2.50
   3  -3  -1   42.20    1.90
  -3   3   1   49.10    2.60
  -3   3   1   41.10    2.00
   2  -3  -1  159.28    3.30
   2  -3  -1  162.78    4.20
   2  -3  -1  157.58    4.30
  -2   3   1  156.88    4.30
  -2   3   1  152.58    3.50
   1  -3  -1    7.80    0.90
   1  -3  -1    8.30    1.20
   1  -3  -1    8.30    1.10
  -1   3   1    8.50    1.00
  -1   3   1    8.00    1.20
   0  -3  -1    5.40    0.90
   0  -3  -1    4.30    0.80
   0  -3  -1    5.00    0.70
   0   3   1    5.90    0.90
   0   3   1    5.00    0.80
  -1  -3  -1  332.17    5.50
  -1  -3  -1  334.67    5.70
  -1  -3  -1  345.37    5.90
   1   3   1  346.47    5.10
   1   3   1  346.27    6.20
  -2  -3  -1 1117.79   14.80
  -2  -3  -1 1111.19   14.00
  -2  -3  -1 1135.89   14.80
   2   3   1 1139.89   15.30
   2   3   1 1139.19   12.80
  -3  -3  -1  401.96    7.10
  -3  -3  -1  402.36    7.80
  -3  -3  -1  402.26    7.60
   3   3   1  405.46    5.70
   3   3   1  402.36    8.10
  -4  -3  -1    3.30    1.20
  -4  -3  -1    3.30    1.10
   4   3   1    3.50    1.20
   4   3   1    2.70    1.10
  -5  -3  -1   14.80    2.30
  -5  -3  -1   18.70    2.40
   5   3   1   15.30    2.40
   5   3   1   10.40    2.00
  -6  -3  -1   35.70    4.00
  -6  -3  -1   35.80    3.60
   6   3   1   30.70    3.70
  -7  -3  -1   25.90    3.90
  -7  -3  -1   23.60    3.40
   7   3   1   28.80    3.90
   7  -4  -1    6.10    2.30
  -7   4   1    6.40    2.30
   6  -4  -1   47.20    3.90
  -6   4   1   53.59    4.00
   5  -4  -1  158.88    6.10
  -5   4   1  156.58    6.00
   4  -4  -1   45.20    3.10
  -4   4   1   47.00    3.10
   3  -4  -1  103.39    4.00
   3  -4  -1   99.89    2.80
   3  -4  -1   98.19    3.90
  -3   4   1  101.29    4.00
  -3   4   1   96.69    3.30
   2  -4  -1  129.39    3.10
   2  -4  -1  125.29    3.90
   2  -4  -1  129.89    4.20
  -2   4   1  129.69    4.20
  -2   4   1  125.29    3.50
   1  -4  -1  242.18    5.30
   1  -4  -1  236.88    4.40
   1  -4  -1  249.08    5.50
  -1   4   1  234.58    4.90
  -1   4   1  241.68    5.30
   0  -4  -1  658.63    9.00
   0  -4  -1  673.03   10.00
   0  -4  -1  668.23   10.00
   0   4   1  673.43    9.90
   0   4   1  667.03    9.50
  -1  -4  -1  303.67    6.00
  -1  -4  -1  290.67    5.70
  -1  -4  -1  319.07    5.80
   1   4   1  309.77    6.30
   1   4   1  300.57    5.10
  -2  -4  -1  857.91   12.80
  -2  -4  -1  883.91   12.60
  -2  -4  -1  840.82   12.00
   2   4   1  872.71   13.20
   2   4   1  859.71   10.60
  -3  -4  -1   74.99    3.00
  -3  -4  -1   73.69    3.30
   3   4   1   67.79    3.40
   3   4   1   77.79    2.30
  -4  -4  -1   14.90    2.20
  -4  -4  -1   19.00    2.40
  -4  -4  -1   14.30    2.00
   4   4   1   16.30    2.40
  -5  -4  -1   40.50    3.90
  -5  -4  -1   35.70    2.70
  -5  -4  -1   36.30    3.10
   5   4   1   40.50    3.30
  -6  -4  -1  116.89    5.70
  -6  -4  -1  123.39    5.50
   6   4   1  117.19    5.70
  -7  -4  -1   28.00    3.80
  -7  -4  -1   29.80    3.90
   7   4   1   29.40    4.10
   6  -5  -1    3.70    2.00
  -6   5   1    4.40    1.90
   5  -5  -1   27.20    3.50
  -5   5   1   30.60    3.70
   4  -5  -1    0.50    1.10
  -4   5   1    1.30    1.20
   3  -5  -1   51.19    3.00
   3  -5  -1   52.99    3.20
  -3   5   1   42.70    2.90
  -3   5   1   50.59    2.60
   2  -5  -1   73.49    3.20
   2  -5  -1   75.49    2.40
   2  -5  -1   74.29    3.50
  -2   5   1   73.59    3.30
  -2   5   1   71.19    2.90
   1  -5  -1  666.13   10.70
   1  -5  -1  667.33   11.10
   1  -5  -1  660.63    9.30
  -1   5   1  642.24   10.40
  -1   5   1  664.73   10.80
   0  -5  -1  149.79    4.30
   0  -5  -1  145.79    4.30
   0  -5  -1  154.68    3.60
   0   5   1  145.39    4.30
   0   5   1  154.38    4.00
  -1  -5  -1    0.20    0.60
  -1  -5  -1    2.00    0.80
  -1  -5  -1    0.40    0.70
   1   5   1    0.30    0.70
   1   5   1    1.70    0.60
  -2  -5  -1   63.29    2.90
  -2  -5  -1   57.69    2.90
  -2  -5  -1   57.39    2.70
   2   5   1   57.79    2.00
   2   5   1   56.79    3.10
  -3  -5  -1   16.60    2.20
  -3  -5  -1   16.90    2.20
  -3  -5  -1   22.30    2.40
   3   5   1   18.20    2.50
  -4  -5  -1   85.39    3.70
  -4  -5  -1   83.29    4.10
  -4  -5  -1   78.49    4.00
   4   5   1   80.69    4.30
  -5  -5  -1    3.30    1.60
  -5  -5  -1    4.30    1.50
  -5  -5  -1    3.70    1.60
   5   5   1    4.10    1.60
  -6  -5  -1   52.99    4.00
  -6  -5  -1   69.29    4.60
   6   5   1   70.69    4.70
  -7  -5  -1   47.70    5.20
  -7  -5  -1   55.99    4.60
   7   5   1   52.89    5.60
   6  -6  -1   19.50    3.40
  -6   6   1   12.80    2.80
   5  -6  -1   27.30    3.70
  -5   6   1   26.90    3.50
   4  -6  -1   64.29    3.90
   4  -6  -1   67.99    4.20
  -4   6   1   68.19    4.20
   3  -6  -1    3.80    1.40
   3  -6  -1    5.10    1.70
  -3   6   1    4.50    1.60
   2  -6  -1   46.80    3.10
   2  -6  -1   46.40    2.80
  -2   6   1   46.70    2.70
  -2   6   1   49.40    3.10
   1  -6  -1   65.59    3.40
   1  -6  -1   61.79    3.10
  -1   6   1   70.09    3.20
  -1   6   1   71.59    3.30
   0  -6  -1   67.09    3.20
   0  -6  -1   68.09    2.60
   0  -6  -1   67.99    3.30
   0   6   1   65.99    3.20
   0   6   1   70.79    2.90
  -1  -6  -1  126.79    4.40
  -1  -6  -1  127.99    3.90
  -1  -6  -1  129.79    4.50
   1   6   1  129.99    3.70
   1   6   1  131.39    4.80
  -2  -6  -1   20.80    2.50
  -2  -6  -1   24.60    2.60
  -2  -6  -1   29.00    2.80
   2   6   1   22.40    2.70
  -3  -6  -1   91.89    4.20
  -3  -6  -1   89.59    4.00
  -3  -6  -1   85.29    3.80
   3   6   1   89.59    4.40
  -4  -6  -1   79.69    4.30
  -4  -6  -1   79.49    3.80
  -4  -6  -1   76.09    4.20
   4   6   1   76.09    4.40
  -5  -6  -1    8.40    2.20
  -5  -6  -1    7.90    2.20
   5   6   1   12.20    2.60
  -6  -6  -1   12.40    2.90
  -6  -6  -1   18.40    3.30
   6   6   1   18.20    3.40
  -7  -6  -1   26.60    4.20
  -7  -6  -1   30.60    4.40
   7   6   1   31.40    4.60
   5  -7  -1    8.40    2.40
  -5   7   1    8.20    2.30
   4  -7  -1  102.59    5.20
   4  -7  -1  103.99    5.40
  -4   7   1  102.99    5.40
   3  -7  -1    3.10    1.40
   3  -7  -1    4.10    1.70
  -3   7   1    2.40    1.30
   2  -7  -1   75.19    4.10
   2  -7  -1   68.29    3.70
  -2   7   1   71.39    3.60
  -2   7   1   69.19    3.90
   1  -7  -1   35.00    2.80
   1  -7  -1   42.60    2.80
  -1   7   1   37.10    2.70
  -1   7   1   46.20    2.90
   0  -7  -1  137.09    4.90
   0  -7  -1  143.49    5.10
   0   7   1  140.49    5.10
   0   7   1  141.39    4.60
  -1  -7  -1   99.89    4.30
  -1  -7  -1   98.09    4.30
  -1  -7  -1  100.49    3.70
   1   7   1  104.69    4.60
   1   7   1   98.99    3.80
  -2  -7  -1   77.09    3.80
  -2  -7  -1   83.09    3.70
  -2  -7  -1   83.39    4.10
   2   7   1   78.79    4.20
  -3  -7  -1  187.08    6.40
  -3  -7  -1  187.08    5.90
  -3  -7  -1  185.58    6.10
   3   7   1  171.68    6.60
  -4  -7  -1   41.10    3.40
  -4  -7  -1   48.10    3.40
  -4  -7  -1   45.40    3.50
   4   7   1   40.30    4.40
  -5  -7  -1   29.90    3.90
  -5  -7  -1   26.70    3.60
   5   7   1   23.80    3.80
  -6  -7  -1    2.10    1.90
  -6  -7  -1    1.70    2.00
   6   7   1    1.20    1.70
   5  -8  -1   13.20    3.10
  -5   8   1   10.40    2.80
   4  -8  -1   63.19    4.60
   4  -8  -1   64.29    4.40
  -4   8   1   57.19    4.40
   3  -8  -1   62.39    4.30
   3  -8  -1   48.30    3.60
  -3   8   1   52.59    4.00
   2  -8  -1   51.19    3.70
   2  -8  -1   42.00    3.20
  -2   8   1   46.80    3.30
  -2   8   1   42.90    3.40
   1  -8  -1    8.30    1.90
   1  -8  -1    4.40    1.70
  -1   8   1    7.70    1.80
  -1   8   1    5.50    1.70
   0  -8  -1    0.30    1.00
   0  -8  -1    2.20    1.40
   0   8   1    0.20    1.10
   0   8   1    1.10    1.10
  -1  -8  -1   30.70    3.30
  -1  -8  -1   29.70    3.40
   1   8   1   29.30    3.60
  -2  -8  -1  115.19    5.20
  -2  -8  -1  111.09    4.50
  -2  -8  -1  112.69    5.00
   2   8   1  103.79    5.20
  -3  -8  -1   70.09    4.10
  -3  -8  -1   74.49    4.20
  -3  -8  -1   60.39    4.00
   3   8   1   66.89    4.50
  -4  -8  -1   23.10    3.50
  -4  -8  -1   21.60    3.20
  -4  -8  -1   24.20    3.20
   4   8   1   18.70    3.30
  -5  -8  -1   33.50    4.20
  -5  -8  -1   30.80    3.80
   5   8   1   35.60    4.60
   4  -9  -1   24.70    3.90
  -4   9   1   22.80    3.90
   3  -9  -1   40.40    4.20
   3  -9  -1   43.40    4.70
  -3   9   1   43.00    4.70
   2  -9  -1    6.60    2.20
   2  -9  -1    7.90    2.10
  -2   9   1   10.70    2.40
   1  -9  -1    3.00    1.70
   1  -9  -1    2.70    1.50
  -1   9   1    1.40    1.40
  -1   9   1    0.00    1.20
   0  -9  -1   25.00    3.30
   0  -9  -1   26.10    3.30
   0   9   1   23.80    3.20
  -1  -9  -1   27.50    3.40
  -1  -9  -1   37.50    4.00
   1   9   1   34.60    4.30
  -2  -9  -1   33.10    3.90
  -2  -9  -1   27.80    3.50
   2   9   1   40.00    4.70
  -3  -9  -1   33.90    4.00
  -3  -9  -1   46.90    3.80
  -3  -9  -1   46.90    3.70
   3   9   1   53.09    5.70
  -4  -9  -1   34.10    4.00
  -4  -9  -1   23.20    3.50
   4   9   1   33.60    4.60
  -5  -9  -1    3.00    2.00
  -5  -9  -1    1.30    1.80
   5   9   1    1.50    1.90
   2 -10  -1    9.10    2.60
   2 -10  -1   11.10    2.50
  -2  10   1   10.70    2.70
   1 -10  -1   92.99    5.10
   1 -10  -1   89.39    5.20
  -1  10   1  100.79   10.50
   0 -10  -1   33.80    4.10
   0 -10  -1   24.60    3.40
   0  10   1   36.90    4.30
  -1 -10  -1   42.20    4.60
  -1 -10  -1   39.10    4.40
   1  10   1   36.40    4.60
  -2 -10  -1   15.10    2.90
  -2 -10  -1   13.80    2.70
   2  10   1    8.70    2.60
  -3 -10  -1   13.10    2.90
  -3 -10  -1   13.20    2.90
   3  10   1   11.50    3.00
   0 -11  -1    5.40    2.10
   0 -11  -1    5.20    2.30
   0  11   1    4.70    2.00
   3  10  -2   12.40    3.30
  -3 -10   2   19.20    3.40
  -3 -10   2   16.80    3.20
   2  10  -2    0.70    1.50
  -2 -10   2   -1.80    1.40
  -2 -10   2    1.30    1.80
   1  10  -2   12.80    3.00
  -1 -10   2   13.40    2.70
  -1 -10   2    9.20    2.60
   0  10  -2    9.30    2.70
   0 -10   2   15.10    3.10
   0 -10   2   10.10    2.30
  -1  10  -2   13.10    3.00
   1 -10   2   20.30    3.50
  -2  10  -2    9.70    2.60
   2 -10   2   11.10    2.80
   4   9  -2   -0.20    1.80
  -4  -9   2   -1.40    1.40
  -4  -9   2    1.80    1.80
   3   9  -2   12.20    3.10
  -3  -9   2   17.50    3.10
  -3  -9   2   10.60    2.60
   2   9  -2   74.89    5.10
  -2  -9   2   76.79    4.60
  -2  -9   2   77.69    4.80
   1   9  -2   44.90    5.10
  -1  -9   2   35.80    3.90
  -1  -9   2   40.40    4.50
   0   9  -2   28.80    3.80
   0  -9   2   26.50    3.50
   0  -9   2   23.50    3.00
  -1   9  -2   65.69    4.50
   1  -9   2   65.39    4.40
   1  -9   2   66.49    3.90
  -2   9  -2   16.00    2.80
  -2   9  -2   20.30    3.10
   2  -9   2   19.90    3.20
  -3   9  -2   -0.40    1.20
  -3   9  -2    4.00    1.90
   3  -9   2    0.20    1.50
  -4   9  -2    0.40    1.40
   4  -9   2    2.50    1.80
   5   8  -2   18.90    3.90
  -5  -8   2   17.50    3.40
  -5  -8   2   12.80    2.90
  -5  -8   2   10.90    2.70
   4   8  -2   30.90    4.20
  -4  -8   2   31.80    4.10
  -4  -8   2   33.00    4.00
  -4  -8   2   27.70    3.60
   3   8  -2    5.30    2.10
  -3  -8   2    5.70    1.90
  -3  -8   2    8.00    2.30
  -3  -8   2    5.30    2.00
   2   8  -2  193.08    7.60
  -2  -8   2  213.98    7.00
  -2  -8   2  191.38    6.90
   1   8  -2   35.00    4.00
  -1  -8   2   33.50    3.50
  -1  -8   2   40.40    4.10
   0   8  -2   49.20    3.70
   0  -8   2   56.59    3.40
   0  -8   2   53.89    3.80
  -1   8  -2   49.30    3.70
  -1   8  -2   59.19    3.40
   1  -8   2   50.59    3.20
   1  -8   2   54.99    3.70
  -2   8  -2   74.09    4.50
  -2   8  -2   62.89    3.80
   2  -8   2   67.79    4.20
  -3   8  -2   36.60    4.00
  -3   8  -2   38.80    4.10
   3  -8   2   38.10    4.20
  -4   8  -2    1.90    1.60
  -4   8  -2   -1.00    1.30
   4  -8   2    1.00    1.40
  -5   8  -2   10.20    2.80
   5  -8   2   10.20    2.60
   6   7  -2   14.20    3.40
  -6  -7   2   10.70    2.80
  -6  -7   2   14.90    3.30
  -6  -7   2   13.70    3.20
   5   7  -2   52.39    4.50
  -5  -7   2   44.20    4.50
  -5  -7   2   38.80    4.60
  -5  -7   2   46.70    4.90
   4   7  -2   58.19    4.40
  -4  -7   2   56.29    3.90
  -4  -7   2   57.59    4.20
  -4  -7   2   55.09    4.00
   3   7  -2   20.60    3.30
  -3  -7   2   23.40    3.20
  -3  -7   2   22.50    2.90
  -3  -7   2   20.70    2.90
   2   7  -2   33.30    3.70
  -2  -7   2   39.40    2.80
  -2  -7   2   37.80    3.80
  -2  -7   2   34.70    2.80
   1   7  -2   11.90    2.40
  -1  -7   2   11.30    2.10
  -1  -7   2   12.60    2.00
   0   7  -2   33.60    2.90
   0   7  -2   32.20    4.00
   0  -7   2   31.00    3.30
   0  -7   2   31.60    2.40
  -1   7  -2   38.40    3.10
  -1   7  -2   41.30    2.70
   1  -7   2   38.50    3.00
   1  -7   2   36.20    2.40
  -2   7  -2  114.79    5.10
  -2   7  -2  111.99    4.70
   2  -7   2  107.29    4.80
   2  -7   2  111.39    4.20
  -3   7  -2   53.59    3.60
  -3   7  -2   53.49    3.70
   3  -7   2   49.70    3.60
  -4   7  -2    5.20    1.90
  -4   7  -2    6.10    1.90
   4  -7   2    8.10    2.20
  -5   7  -2   -0.30    1.50
   5  -7   2    3.70    1.80
  -6   7  -2    0.70    1.60
   6  -7   2   -1.00    1.50
   6   6  -2   20.40    3.20
   6   6  -2   26.60    3.90
  -6  -6   2   34.60    4.50
  -6  -6   2   21.10    3.50
   5   6  -2   94.69    5.40
   5   6  -2   93.69    5.20
  -5  -6   2   86.69    5.10
  -5  -6   2   92.79    5.10
   4   6  -2   92.69    5.00
   4   6  -2   95.49    4.80
  -4  -6   2  103.99    5.10
   3   6  -2   23.20    2.90
   3   6  -2   25.90    3.20
  -3  -6   2   24.80    3.10
  -3  -6   2   24.90    3.00
   2   6  -2   20.80    2.70
   2   6  -2   24.40    2.70
  -2  -6   2   21.90    2.70
  -2  -6   2   22.60    2.70
   1   6  -2  131.59    5.00
  -1  -6   2  127.29    3.90
  -1  -6   2  126.69    4.70
  -1  -6   2  123.49    4.40
   0   6  -2  125.69    4.90
   0   6  -2  120.49    3.70
   0  -6   2  120.99    4.60
   0  -6   2  118.99    4.00
  -1   6  -2  109.69    3.90
  -1   6  -2  117.09    4.70
   1  -6   2  109.99    4.40
   1  -6   2  113.09    3.80
  -2   6  -2  196.78    6.20
   2  -6   2  187.28    5.50
   2  -6   2  195.18    5.20
   2  -6   2  193.78    6.00
  -3   6  -2  175.88    6.00
   3  -6   2  162.98    5.80
   3  -6   2  170.68    5.70
   3  -6   2  179.78    6.40
  -4   6  -2   45.90    3.40
   4  -6   2   48.80    3.40
   4  -6   2   41.00    3.30
  -5   6  -2    3.10    1.70
  -5   6  -2    4.00    1.70
   5  -6   2    2.70    1.60
  -6   6  -2    2.20    1.70
   6  -6   2   -0.20    1.60
   6   5  -2   83.79    5.10
   6   5  -2   79.99    4.90
  -6  -5   2   80.99    5.00
  -6  -5   2   73.49    4.80
   5   5  -2   25.70    3.50
   5   5  -2   36.20    4.00
  -5  -5   2   25.30    3.30
  -5  -5   2   26.00    3.30
   4   5  -2   28.90    3.50
   4   5  -2   25.30    3.20
  -4  -5   2   25.30    3.00
  -4  -5   2   19.20    2.80
   3   5  -2   94.89    4.10
   3   5  -2   99.79    4.50
  -3  -5   2   99.39    4.30
  -3  -5   2   99.49    4.30
   2   5  -2  118.19    4.00
   2   5  -2  119.89    4.60
  -2  -5   2  123.69    4.60
  -2  -5   2  115.09    4.30
   1   5  -2  951.80   11.80
   1   5  -2  968.40   13.40
   1   5  -2  965.50   15.20
  -1  -5   2  985.50   14.20
  -1  -5   2  970.20   14.80
   0   5  -2   90.59    3.80
   0  -5   2   88.09    2.70
   0  -5   2   92.99    3.20
   0  -5   2   92.79    3.60
   0  -5   2   90.99    2.50
  -1   5  -2  269.67    6.70
   1  -5   2  263.97    6.40
   1  -5   2  260.57    5.70
   1  -5   2  267.97    5.50
  -2   5  -2   90.79    3.90
   2  -5   2   97.29    3.80
   2  -5   2   99.99    3.30
   2  -5   2   97.89    3.70
  -3   5  -2   56.59    3.30
   3  -5   2   68.09    2.90
   3  -5   2   67.59    3.40
   3  -5   2   66.39    3.50
  -4   5  -2   33.30    2.80
   4  -5   2   34.10    2.80
   4  -5   2   36.50    3.60
  -5   5  -2   41.90    3.40
   5  -5   2   36.30    3.80
   5  -5   2   43.40    3.30
  -6   5  -2   24.20    3.30
   6  -5   2   29.30    3.80
  -7   5  -2    5.00    2.10
   7  -5   2    6.90    2.40
   7   4  -2   -0.60    1.40
  -7  -4   2   -0.30    1.70
  -7  -4   2    1.00    1.80
   6   4  -2    5.70    2.00
   6   4  -2    9.30    2.40
  -6  -4   2   11.20    2.70
  -6  -4   2    7.60    2.30
   5   4  -2   10.20    2.20
  -5  -4   2   11.20    2.40
  -5  -4   2    8.80    2.10
   4   4  -2  113.29    4.70
   4   4  -2  105.69    4.60
  -4  -4   2  106.59    4.60
  -4  -4   2  108.69    4.60
   3   4  -2  141.19    4.90
   3   4  -2  143.39    4.80
  -3  -4   2  150.38    4.90
  -3  -4   2  129.69    4.70
   2   4  -2  227.68    6.00
   2   4  -2  223.88    5.40
  -2  -4   2  223.98    5.60
  -2  -4   2  224.78    5.80
   1   4  -2  342.77    6.30
   1   4  -2  360.06    7.40
  -1  -4   2  349.27    7.10
  -1  -4   2  350.16    6.70
   0   4  -2   17.30    1.10
   0   4  -2   19.60    2.20
   0  -4   2   16.40    1.80
   0  -4   2   14.30    1.10
   0  -4   2   15.60    1.30
  -1   4  -2    1.40    0.80
   1  -4   2    0.70    0.60
   1  -4   2    1.20    0.70
   1  -4   2    0.30    0.50
  -2   4  -2   62.19    3.00
   2  -4   2   59.99    2.30
   2  -4   2   60.19    2.70
   2  -4   2   61.69    2.80
  -3   4  -2  120.19    4.50
   3  -4   2  127.19    4.30
   3  -4   2  124.29    4.30
   3  -4   2  117.79    3.60
  -4   4  -2  241.88    6.90
   4  -4   2  241.78    6.50
   4  -4   2  238.38    6.60
  -5   4  -2  120.99    5.30
   5  -4   2  110.79    4.80
   5  -4   2  120.49    5.00
   6  -4   2   41.00    3.40
   6  -4   2   40.20    4.00
  -7   4  -2    2.00    1.70
   7  -4   2   -1.40    1.30
   7   3  -2   28.50    3.80
  -7  -3   2   28.80    4.10
  -7  -3   2   24.80    3.80
   6   3  -2    2.90    1.50
   6   3  -2    3.80    1.70
  -6  -3   2    0.50    1.40
  -6  -3   2   -1.30    1.20
   5   3  -2   75.69    4.00
  -5  -3   2   79.39    4.20
  -5  -3   2   66.89    4.00
   4   3  -2   79.19    3.70
   4   3  -2   76.49    3.60
  -4  -3   2   75.79    3.70
  -4  -3   2   74.39    3.80
   3   3  -2  132.09    4.30
   3   3  -2  119.89    4.20
  -3  -3   2  123.29    4.40
  -3  -3   2  122.59    4.30
   2   3  -2  244.58    5.40
   2   3  -2  251.87    5.80
  -2  -3   2  241.88    5.70
  -2  -3   2  247.68    5.50
   1   3  -2   15.50    1.20
   1   3  -2   15.70    1.60
  -1  -3   2   17.30    1.70
  -1  -3   2   14.90    0.70
  -1  -3   2   16.40    1.70
   0   3  -2  346.07    6.50
   0   3  -2  342.27    5.00
   0  -3   2  349.96    6.30
   0  -3   2  342.47    5.50
   0  -3   2  344.87    5.20
  -1   3  -2   18.50    2.00
   1  -3   2   14.60    1.20
   1  -3   2   13.80    1.50
   1  -3   2   12.70    0.90
  -2   3  -2  269.47    6.10
   2  -3   2  265.97    4.70
   2  -3   2  274.17    5.60
   2  -3   2  271.17    5.60
  -3   3  -2  614.14   10.90
   3  -3   2  615.94   10.50
   3  -3   2  626.34   10.20
  -4   3  -2  133.49    5.00
   4  -3   2  139.39    4.50
   4  -3   2  139.19    4.70
  -5   3  -2    4.20    1.60
   5  -3   2    1.70    1.20
   5  -3   2    3.10    1.50
  -6   3  -2   16.30    2.70
   6  -3   2   17.40    2.70
   6  -3   2   23.20    3.00
   7  -3   2    1.50    1.50
   7   2  -2   36.60    4.10
  -7  -2   2   42.90    4.70
  -7  -2   2   44.60    5.00
   6   2  -2   18.30    2.80
  -6  -2   2   20.90    3.20
  -6  -2   2   17.90    2.90
   5   2  -2   71.09    3.60
   5   2  -2   58.49    3.50
  -5  -2   2   60.59    3.80
  -5  -2   2   66.49    3.80
   4   2  -2  341.97    7.50
   4   2  -2  348.67    7.90
  -4  -2   2  336.77    8.00
   3   2  -2  852.51   13.00
   3   2  -2  869.41   12.70
  -3  -2   2  861.71   13.30
  -3  -2   2  868.01   10.00
   2   2  -2  172.68    4.20
   2   2  -2  173.28    4.30
  -2  -2   2  182.18    4.60
  -2  -2   2  184.58    4.40
   1   2  -2    7.40    1.00
   1   2  -2    7.20    0.90
  -1  -2   2    8.20    1.10
  -1  -2   2    7.60    1.10
  -1  -2   2    6.30    0.40
   0   2  -2 1614.14   17.10
   0   2  -2 1554.64   18.50
   0  -2   2 1563.64   17.30
   0  -2   2 1559.84   17.10
   0  -2   2 1562.24   18.10
  -1   2  -2  262.07    5.20
   1  -2   2  262.07    4.70
   1  -2   2  264.57    3.70
   1  -2   2  268.37    4.60
  -2   2  -2 1062.89   14.60
   2  -2   2 1061.19   13.80
   2  -2   2 1078.99   12.40
   2  -2   2 1075.89   13.50
  -3   2  -2  100.59    2.50
  -3   2  -2   98.59    3.70
   3  -2   2  102.49    3.20
   3  -2   2   98.69    3.40
  -4   2  -2  180.98    5.50
   4  -2   2  182.98    4.90
   4  -2   2  180.18    5.20
  -5   2  -2   21.00    2.60
   5  -2   2   27.30    2.90
   5  -2   2   27.10    2.80
  -6   2  -2    9.40    2.10
   6  -2   2   10.00    2.10
   6  -2   2    9.50    2.00
   7  -2   2   43.90    3.50
   7   1  -2    2.60    1.70
  -7  -1   2    7.10    2.30
  -7  -1   2    3.90    2.20
   6   1  -2   14.00    2.50
  -6  -1   2   17.20    3.10
   5   1  -2   95.69    4.30
   5   1  -2   98.89    4.00
  -5  -1   2   97.79    4.70
   4   1  -2  267.87    6.70
   4   1  -2  271.67    6.20
  -4  -1   2  272.67    5.30
  -4  -1   2  280.57    7.20
   3   1  -2  550.34    9.40
   3   1  -2  551.14    8.70
  -3  -1   2  548.05    7.70
  -3  -1   2  561.14    9.90
   2   1  -2  175.28    4.10
   2   1  -2  178.48    3.70
  -2  -1   2  176.08    3.10
  -2  -1   2  172.08    4.30
   1   1  -2  290.47    4.80
   1   1  -2  290.67    4.60
  -1  -1   2  293.47    4.00
  -1  -1   2  291.17    5.10
   0   1  -2  719.13    8.50
   0   1  -2  713.83    9.00
   0  -1   2  714.83    8.40
   0  -1   2  697.93    8.70
  -1   1  -2  871.51   11.10
  -1   1  -2  835.82    9.40
   1  -1   2  866.21   10.10
   1  -1   2  863.11   10.50
  -2   1  -2  883.31   12.00
  -2   1  -2  864.11   10.20
   2  -1   2  882.01   11.40
   2  -1   2  870.21   10.70
  -3   1  -2   60.49    2.10
   3  -1   2   64.99    2.80
   3  -1   2   66.99    2.30
   3  -1   2   59.79    2.40
   4  -1   2  497.45    8.80
   4  -1   2  483.95    8.50
   4  -1   2  486.45    9.40
   5  -1   2  113.89    4.30
   5  -1   2  114.69    4.30
   5  -1   2  115.39    4.70
  -6   1  -2    5.20    1.50
   6  -1   2    4.90    1.40
   6  -1   2    4.60    1.60
   6  -1   2    2.60    1.50
  -7   1  -2   20.50    3.10
   7  -1   2   25.50    3.20
   7   0  -2   34.20    3.80
  -7   0   2   39.60    4.60
   6   0  -2  194.48    6.60
  -6   0   2  203.48    7.40
   5   0  -2   34.30    2.70
  -5   0   2   38.20    2.40
  -5   0   2   30.90    3.60
   4   0  -2   10.10    2.00
   4   0  -2   12.30    1.90
  -4   0   2    9.00    1.40
   3   0  -2   73.39    2.90
   3   0  -2   79.09    2.50
   3   0  -2   75.29    3.10
  -3   0   2   79.99    2.60
   2   0  -2    1.30    0.50
   2   0  -2    1.30    0.60
   2   0  -2    0.90    0.40
  -2   0   2    0.80    0.50
   1   0  -2    1.50    0.50
   1   0  -2    0.70    0.30
   1   0  -2    1.00    0.50
  -1   0   2    1.30    0.40
   0   0  -2  479.15    6.40
   0   0  -2  474.65    5.90
   0   0   2  484.95    6.20
   0   0   2  480.45    6.00
  -1   0  -2 2575.34   26.80
   1   0   2 2548.45   27.50
   1   0   2 2569.44   27.20
  -2   0  -2   66.29    1.60
  -2   0  -2   64.69    2.00
   2   0   2   61.49    2.00
   2   0   2   65.69    1.60
   2   0   2   67.79    2.30
  -3   0  -2   64.19    2.40
   3   0   2   60.19    2.10
   3   0   2   63.29    2.70
   3   0   2   60.49    2.30
  -4   0  -2   23.30    1.80
   4   0   2   23.90    1.70
   4   0   2   28.80    1.90
   4   0   2   23.70    2.00
   5   0   2  184.08    5.90
   5   0   2  185.18    5.30
   5   0   2  190.58    5.20
  -6   0  -2    5.00    1.60
  -6   0  -2    4.80    1.50
   6   0   2    2.50    1.50
   6   0   2    3.10    1.50
  -7   0  -2    0.80    1.50
   7   0   2    0.40    1.50
   7  -1  -2   55.89    4.00
  -7   1   2   54.09    4.50
   6  -1  -2   59.29    4.10
   6  -1  -2   49.40    3.40
  -6   1   2   36.70    4.40
   5  -1  -2   31.20    2.50
   5  -1  -2   25.40    3.00
  -5   1   2   21.50    2.30
   4  -1  -2    8.30    1.50
   4  -1  -2    8.50    1.80
   4  -1  -2   15.60    1.70
  -4   1   2    7.80    1.40
   3  -1  -2    9.10    1.50
   3  -1  -2    7.90    1.30
   3  -1  -2   11.60    1.20
  -3   1   2    7.70    1.20
   2  -1  -2 2581.14   26.60
   2  -1  -2 2524.85   28.30
   2  -1  -2 2541.85   29.10
  -2   1   2 2532.25   28.30
   1  -1  -2 9854.11  107.39
   1  -1  -2 9797.82  109.69
   1  -1  -2 9999.00  106.49
  -1   1   2 9765.32  104.29
   0  -1  -2 1313.57   14.70
   0  -1  -2 1319.97   14.90
   0  -1  -2 1346.37   14.40
   0   1   2 1302.07   14.90
   0   1   2 1314.77   14.00
  -1  -1  -2  163.08    2.80
  -1  -1  -2  157.38    3.10
   1   1   2  158.78    3.00
   1   1   2  159.38    3.20
  -2  -1  -2    1.90    0.60
  -2  -1  -2    3.80    0.50
  -2  -1  -2    4.30    0.70
   2   1   2    3.00    0.80
   2   1   2    3.10    0.60
  -3  -1  -2   89.39    2.50
  -3  -1  -2   92.39    2.70
  -3  -1  -2   95.09    3.10
   3   1   2   96.89    3.30
   3   1   2   91.59    2.70
  -4  -1  -2    3.00    1.00
  -4  -1  -2    1.10    0.80
  -4  -1  -2    0.70    0.80
   4   1   2    4.20    1.10
   4   1   2    2.20    0.80
  -5  -1  -2  383.26    8.00
  -5  -1  -2  372.76    7.90
  -5  -1  -2  378.76    8.40
   5   1   2  367.96    8.60
   5   1   2  384.66    7.40
  -6  -1  -2  208.68    6.30
  -6  -1  -2  205.48    6.70
   6   1   2  203.18    6.90
  -7  -1  -2   30.70    3.60
  -7  -1  -2   29.80    3.70
   7   1   2   29.70    3.70
  -8  -1  -2    9.80    2.70
   7  -2  -2   17.70    3.30
   6  -2  -2   38.80    4.30
   6  -2  -2   40.20    3.10
  -6   2   2   40.10    3.20
   5  -2  -2   76.89    3.60
   5  -2  -2   72.99    4.20
  -5   2   2   76.19    3.80
   4  -2  -2    8.30    1.50
   4  -2  -2   10.60    1.90
  -4   2   2    9.20    1.60
   3  -2  -2  181.68    4.50
  -3   2   2  177.68    3.70
  -3   2   2  181.08    4.80
   2  -2  -2 2063.69   24.40
   2  -2  -2 2100.39   23.40
   2  -2  -2 2012.60   24.30
  -2   2   2 2043.20   24.00
  -2   2   2 1969.00   21.60
   1  -2  -2  242.78    4.60
   1  -2  -2  239.98    4.50
   1  -2  -2  242.08    4.70
  -1   2   2  242.58    4.70
  -1   2   2  235.38    3.30
   0  -2  -2    2.30    0.60
   0  -2  -2    0.80    0.40
   0  -2  -2    1.50    0.50
   0   2   2    1.60    0.40
   0   2   2    1.20    0.50
  -1  -2  -2   98.49    2.50
  -1  -2  -2  103.59    2.70
  -1  -2  -2   98.69    2.00
   1   2   2   98.59    2.50
   1   2   2   98.69    2.60
  -2  -2  -2   54.09    2.00
  -2  -2  -2   50.79    2.10
  -2  -2  -2   53.49    1.50
   2   2   2   53.99    1.80
   2   2   2   54.29    2.30
  -3  -2  -2  411.56    7.10
  -3  -2  -2  399.86    6.30
   3   2   2  412.06    7.90
   3   2   2  403.16    6.30
  -4  -2  -2  320.87    6.70
  -4  -2  -2  325.37    7.30
  -4  -2  -2  323.47    6.20
   4   2   2  339.27    7.70
   4   2   2  327.77    6.00
  -5  -2  -2  225.28    6.10
  -5  -2  -2  236.58    5.80
  -5  -2  -2  230.78    6.70
   5   2   2  227.78    6.80
   5   2   2  233.28    5.40
  -6  -2  -2  227.28    6.80
  -6  -2  -2  214.08    7.10
   6   2   2  218.98    7.30
  -7  -2  -2    4.00    1.90
  -7  -2  -2    5.30    2.20
   7   2   2    1.30    1.70
  -8  -2  -2    2.00    2.00
   8   2   2    3.40    2.20
   7  -3  -2   13.00    3.00
  -7   3   2    7.50    2.20
   6  -3  -2   51.69    4.00
  -6   3   2   55.79    3.90
   5  -3  -2  125.79    5.50
   5  -3  -2  134.49    4.60
  -5   3   2  109.39    4.80
   4  -3  -2    5.80    1.20
   4  -3  -2    6.10    1.70
  -4   3   2    9.30    1.80
   3  -3  -2  106.59    4.10
   3  -3  -2  114.49    3.40
  -3   3   2  118.09    4.10
  -3   3   2  116.49    3.00
   2  -3  -2   29.80    1.60
   2  -3  -2   32.00    2.00
   2  -3  -2   29.50    1.90
  -2   3   2   31.30    2.00
  -2   3   2   32.00    1.40
   1  -3  -2   23.70    1.40
   1  -3  -2   20.10    1.40
   1  -3  -2   22.30    1.50
  -1   3   2   20.40    1.50
  -1   3   2   22.20    1.10
   0  -3  -2  408.86    6.30
   0  -3  -2  399.86    6.40
   0  -3  -2  399.66    6.70
   0   3   2  404.36    6.50
   0   3   2  396.46    6.20
  -1  -3  -2   54.29    2.10
  -1  -3  -2   52.79    1.80
  -1  -3  -2   55.99    2.20
   1   3   2   53.59    2.20
   1   3   2   51.09    1.90
  -2  -3  -2  457.25    7.70
  -2  -3  -2  469.55    7.90
  -2  -3  -2  445.76    6.70
   2   3   2  471.25    8.20
   2   3   2  462.45    6.80
  -3  -3  -2  424.56    6.90
  -3  -3  -2  445.56    8.10
  -3  -3  -2  440.26    8.30
   3   3   2  426.46    6.50
  -4  -3  -2  136.69    4.50
  -4  -3  -2  124.89    3.70
  -4  -3  -2  133.39    4.60
   4   3   2  127.09    4.80
   4   3   2  133.09    3.30
  -5  -3  -2    1.00    1.10
  -5  -3  -2    0.50    1.00
  -5  -3  -2    1.00    1.20
   5   3   2    0.80    1.20
  -6  -3  -2   24.50    3.10
  -6  -3  -2   25.30    3.30
   6   3   2   28.00    3.60
  -7  -3  -2    6.70    2.20
  -7  -3  -2    4.90    2.00
   7   3   2    5.40    2.20
   7  -4  -2    1.60    2.00
  -7   4   2    0.00    1.50
   6  -4  -2   20.70    3.30
  -6   4   2   14.00    2.70
   5  -4  -2   89.19    4.80
  -5   4   2   93.29    4.70
   4  -4  -2   79.39    4.10
   4  -4  -2   81.19    4.90
  -4   4   2   78.29    4.00
   3  -4  -2   98.09    4.10
   3  -4  -2   97.09    3.20
   3  -4  -2   92.19    4.00
  -3   4   2  100.69    3.60
  -3   4   2   91.79    4.00
   2  -4  -2   70.49    3.10
   2  -4  -2   75.29    2.60
   2  -4  -2   75.09    3.20
  -2   4   2   72.29    3.20
  -2   4   2   73.99    2.40
   1  -4  -2  469.35    7.60
   1  -4  -2  477.35    8.40
   1  -4  -2  474.35    8.30
  -1   4   2  459.35    7.20
  -1   4   2  480.95    8.40
   0  -4  -2  149.69    4.00
   0  -4  -2  149.99    3.60
   0  -4  -2  150.08    3.90
   0   4   2  152.88    3.90
  -1  -4  -2 1265.37   16.00
  -1  -4  -2 1262.77   15.70
  -1  -4  -2 1243.18   16.40
   1   4   2 1238.88   16.50
   1   4   2 1233.68   15.50
  -2  -4  -2  464.25    7.50
  -2  -4  -2  476.05    8.40
  -2  -4  -2  471.45    8.40
   2   4   2  454.75    7.10
   2   4   2  471.75    8.80
  -3  -4  -2    2.80    0.90
  -3  -4  -2    2.80    1.00
  -3  -4  -2    2.90    1.10
   3   4   2    3.20    1.20
   3   4   2    3.30    0.80
  -4  -4  -2  122.69    4.70
  -4  -4  -2  121.29    4.60
  -4  -4  -2  134.79    4.00
   4   4   2  129.29    5.00
  -5  -4  -2   20.20    3.00
  -5  -4  -2   16.40    2.60
   5   4   2   22.90    3.20
  -6  -4  -2   37.50    3.90
  -6  -4  -2   39.50    4.50
   6   4   2   31.90    4.00
  -7  -4  -2   73.59    4.80
  -7  -4  -2   65.19    4.70
   7   4   2   70.49    5.00
   6  -5  -2   10.70    2.70
  -6   5   2    5.90    2.20
   5  -5  -2   77.89    4.70
  -5   5   2   83.99    4.70
   4  -5  -2  209.68    6.90
  -4   5   2  196.08    6.70
   3  -5  -2    0.00    0.90
   3  -5  -2    0.30    0.80
  -3   5   2   -0.60    0.70
   2  -5  -2    1.80    0.90
   2  -5  -2    2.70    1.20
   2  -5  -2    3.60    0.90
  -2   5   2    1.80    1.00
  -2   5   2    4.20    1.00
   1  -5  -2  136.89    4.30
   1  -5  -2  139.89    3.80
   1  -5  -2  138.19    4.50
  -1   5   2  137.09    3.90
  -1   5   2  133.69    4.30
   0  -5  -2  316.77    6.70
   0  -5  -2  316.07    6.60
   0  -5  -2  314.17    5.90
   0   5   2  309.87    6.50
  -1  -5  -2  135.89    4.20
  -1  -5  -2  127.19    3.90
  -1  -5  -2  132.49    3.90
   1   5   2  139.29    4.40
   1   5   2  130.29    3.60
  -2  -5  -2   55.29    2.70
  -2  -5  -2   60.19    2.60
  -2  -5  -2   59.69    2.90
   2   5   2   57.89    2.30
   2   5   2   59.89    3.10
  -3  -5  -2   72.99    3.40
  -3  -5  -2   74.79    3.10
  -3  -5  -2   79.49    3.60
   3   5   2   75.19    3.80
  -4  -5  -2   81.99    3.50
  -4  -5  -2   82.49    4.00
  -4  -5  -2   80.49    4.10
   4   5   2   83.29    4.30
  -5  -5  -2   56.69    3.70
  -5  -5  -2   57.59    3.90
   5   5   2   63.39    4.20
  -6  -5  -2   59.59    4.10
  -6  -5  -2   56.49    4.20
   6   5   2   67.29    4.70
  -7  -5  -2   89.89    5.40
  -7  -5  -2   73.99    5.20
   7   5   2   76.89    5.40
   6  -6  -2    6.50    2.60
  -6   6   2    4.40    2.10
   5  -6  -2   13.20    2.90
  -5   6   2    5.90    2.00
   4  -6  -2   29.30    3.80
   4  -6  -2   21.00    2.90
  -4   6   2   22.00    3.20
   3  -6  -2   28.00    3.10
   3  -6  -2   29.30    3.40
  -3   6   2   21.10    2.80
   2  -6  -2   16.50    2.40
   2  -6  -2   17.60    2.40
  -2   6   2   18.40    2.00
  -2   6   2   15.50    2.30
   1  -6  -2  108.29    4.20
   1  -6  -2  116.19    3.50
   1  -6  -2  112.49    4.40
  -1   6   2  110.19    3.90
  -1   6   2  106.49    4.10
   0  -6  -2  266.17    5.70
   0  -6  -2  267.57    6.60
   0  -6  -2  270.47    6.70
   0   6   2  263.77    6.50
  -1  -6  -2   65.49    3.20
  -1  -6  -2   60.29    3.00
  -1  -6  -2   63.59    2.80
   1   6   2   57.09    3.10
   1   6   2   60.19    2.70
  -2  -6  -2  124.59    4.60
  -2  -6  -2  128.59    4.40
  -2  -6  -2  130.39    4.30
   2   6   2  130.69    4.90
   2   6   2  130.49    3.80
  -3  -6  -2   19.10    2.50
  -3  -6  -2   15.70    2.10
  -3  -6  -2   15.40    2.30
   3   6   2   16.00    2.60
  -4  -6  -2   -0.10    0.90
  -4  -6  -2   -0.10    1.00
  -4  -6  -2    2.10    1.40
   4   6   2    0.10    1.10
  -5  -6  -2   88.89    4.80
  -5  -6  -2   87.89    4.90
  -6  -6  -2   22.90    3.50
  -6  -6  -2   28.40    4.00
   6   6   2   32.40    4.40
  -7  -6  -2   13.00    3.10
  -7  -6  -2   15.70    3.40
   7   6   2   11.30    3.00
   5  -7  -2    3.70    2.10
  -5   7   2    1.50    1.70
   4  -7  -2   29.10    3.90
   4  -7  -2   26.00    3.50
  -4   7   2   27.60    3.70
   3  -7  -2   76.19    4.20
   3  -7  -2   69.59    4.30
  -3   7   2   66.89    4.20
   2  -7  -2   25.20    2.90
   2  -7  -2   30.20    3.50
  -2   7   2   29.10    3.30
   1  -7  -2   18.10    2.50
   1  -7  -2   23.70    2.90
  -1   7   2   28.50    2.90
  -1   7   2   22.30    2.70
   0  -7  -2  348.97    8.30
   0  -7  -2  372.56    7.30
   0  -7  -2  368.56    8.50
   0   7   2  357.96    7.90
   0   7   2  354.76    8.40
  -1  -7  -2  110.89    4.50
  -1  -7  -2  113.19    4.10
  -1  -7  -2  117.19    4.50
   1   7   2  113.89    4.00
   1   7   2  116.39    4.80
  -2  -7  -2    8.00    1.90
  -2  -7  -2    7.20    1.70
  -2  -7  -2   10.70    1.90
   2   7   2    7.00    1.80
  -3  -7  -2   47.50    3.40
  -3  -7  -2   49.99    3.10
  -3  -7  -2   47.20    3.30
   3   7   2   53.49    3.70
  -4  -7  -2   35.90    4.00
  -4  -7  -2   30.90    3.70
   4   7   2   34.40    4.20
  -5  -7  -2   26.70    3.50
  -5  -7  -2   25.60    3.50
   5   7   2   21.40    3.50
  -6  -7  -2    8.60    2.60
  -6  -7  -2   11.20    2.90
   6   7   2    9.70    2.70
   5  -8  -2   13.20    3.10
  -5   8   2    9.10    2.70
   4  -8  -2   22.70    3.60
   4  -8  -2   23.00    3.80
  -4   8   2   21.90    3.60
   3  -8  -2   79.89    4.90
   3  -8  -2   84.99    4.70
  -3   8   2   82.29    4.90
   2  -8  -2    3.60    1.70
   2  -8  -2    1.90    1.40
  -2   8   2    3.60    1.70
   1  -8  -2    6.30    1.90
   1  -8  -2    3.70    1.60
  -1   8   2    6.10    1.80
  -1   8   2    7.20    1.70
   0  -8  -2   26.60    3.20
   0  -8  -2   24.80    3.00
   0   8   2   28.90    3.20
   0   8   2   28.80    3.00
  -1  -8  -2   80.49    4.20
  -1  -8  -2   74.59    3.90
   1   8   2   69.99    4.10
  -2  -8  -2   75.39    3.80
  -2  -8  -2   61.49    3.70
  -2  -8  -2   66.69    4.00
   2   8   2   67.59    4.20
  -3  -8  -2  114.99    4.90
  -3  -8  -2  104.59    4.90
  -3  -8  -2  107.79    5.20
   3   8   2  117.19    5.70
  -4  -8  -2   22.20    3.20
  -4  -8  -2   18.60    3.10
   4   8   2   23.70    3.70
  -5  -8  -2   11.40    2.80
  -5  -8  -2    9.70    2.60
   5   8   2   11.90    3.10
   4  -9  -2    5.70    2.20
   4  -9  -2    7.80    2.50
  -4   9   2   15.00    3.30
   3  -9  -2   28.50    4.00
   3  -9  -2   27.00    3.70
  -3   9   2   26.80    3.70
   2  -9  -2    2.40    1.60
   2  -9  -2    2.90    1.60
  -2   9   2    4.20    1.90
   1  -9  -2    1.80    1.50
   1  -9  -2   -0.80    1.10
  -1   9   2   -0.40    1.30
   0  -9  -2    3.60    1.70
   0  -9  -2    6.40    2.10
   0   9   2    2.30    1.40
  -1  -9  -2   94.99    4.90
  -1  -9  -2  104.89    5.10
   1   9   2   97.99    5.20
  -2  -9  -2   55.79    4.00
  -2  -9  -2   56.79    3.80
   2   9   2   60.19    4.20
  -3  -9  -2   38.40    4.10
  -3  -9  -2   24.80    3.50
   3   9   2   30.00    4.10
  -4  -9  -2   22.00    3.60
  -4  -9  -2   19.10    3.30
   4   9   2   25.20    4.00
  -5  -9  -2    0.70    1.60
  -5  -9  -2    3.00    1.90
   5   9   2    0.80    1.70
   2 -10  -2   26.20    3.90
   2 -10  -2   25.70    3.80
  -2  10   2   28.40    3.80
   1 -10  -2   15.40    2.80
   1 -10  -2   15.20    3.10
   0 -10  -2    2.50    1.70
   0 -10  -2    3.30    1.60
   0  10   2    1.40    1.60
  -1 -10  -2   29.70    3.80
  -1 -10  -2   27.40    3.60
   1  10   2   34.30    4.40
  -2 -10  -2   38.90    4.20
  -2 -10  -2   44.90    4.70
   2  10   2   52.49    5.70
  -3 -10  -2    5.30    2.20
   3  10   2   12.90    3.10
   2  10  -3    7.20    2.60
  -2 -10   3    9.70    2.80
  -2 -10   3    9.50    2.50
   1  10  -3    8.60    2.70
  -1 -10   3   11.20    2.80
  -1 -10   3    8.10    2.30
   0  10  -3    5.10    2.40
   0 -10   3    8.60    2.50
  -1  10  -3   13.30    2.80
   1 -10   3   12.60    2.90
  -2  10  -3   16.90    3.20
   2 -10   3   16.70    3.20
   4   9  -3    1.80    2.00
  -4  -9   3   -0.50    1.70
  -4  -9   3   -0.80    1.80
   3   9  -3   -1.40    1.30
  -3  -9   3    1.30    1.60
  -3  -9   3    1.00    1.60
   2   9  -3   83.09    5.50
  -2  -9   3   69.99    4.70
  -2  -9   3   72.59    4.50
   1   9  -3   14.20    3.10
  -1  -9   3   13.00    2.80
  -1  -9   3   12.20    2.50
   0   9  -3   61.39    4.60
   0  -9   3   61.69    3.80
   0  -9   3   63.29    4.40
  -1   9  -3   21.70    3.30
   1  -9   3   26.60    3.60
  -2   9  -3    2.90    1.80
  -2   9  -3    2.50    2.40
   2  -9   3    7.20    2.20
  -3   9  -3    1.00    1.70
  -3   9  -3    0.40    1.70
   3  -9   3    0.10    1.40
  -4   9  -3    7.40    2.50
  -4   9  -3    7.80    2.60
   4  -9   3    7.10    2.40
   5   8  -3   16.50    3.50
  -5  -8   3   13.40    3.10
  -5  -8   3    6.20    2.40
  -5  -8   3   12.00    3.00
   4   8  -3    9.50    2.80
  -4  -8   3    9.20    2.40
  -4  -8   3    9.70    2.60
  -4  -8   3    8.00    2.30
   3   8  -3   14.10    3.10
  -3  -8   3   15.90    2.70
  -3  -8   3   19.00    3.20
   2   8  -3  117.29    6.00
  -2  -8   3  130.29    5.60
  -2  -8   3  124.89    5.80
   1   8  -3  202.88    7.70
  -1  -8   3  212.48    6.80
  -1  -8   3  215.28    7.30
   0   8  -3  162.58    6.60
   0  -8   3  156.38    6.30
   0  -8   3  157.28    5.50
  -1   8  -3    1.20    1.30
   1  -8   3    0.40    1.20
  -2   8  -3    0.80    1.40
  -2   8  -3    0.90    1.10
   2  -8   3   -0.80    1.20
  -3   8  -3    6.60    2.10
  -3   8  -3    5.60    1.90
   3  -8   3    6.20    2.00
  -4   8  -3   25.90    3.60
  -4   8  -3   31.90    4.10
   4  -8   3   24.10    3.50
  -5   8  -3   48.90    5.20
   5  -8   3   52.59    4.30
   5   7  -3   64.69    4.60
   5   7  -3   62.09    4.90
  -5  -7   3   59.39    4.60
  -5  -7   3   68.29    5.00
   4   7  -3   22.40    3.30
   4   7  -3   26.60    3.80
  -4  -7   3   27.40    3.90
  -4  -7   3   15.70    2.90
   3   7  -3   18.90    3.10
   3   7  -3   26.10    3.30
  -3  -7   3   19.90    3.00
  -3  -7   3   16.90    2.70
   2   7  -3   30.30    3.70
  -2  -7   3   30.00    3.50
  -2  -7   3   29.90    3.20
   1   7  -3  133.99    5.70
  -1  -7   3  131.69    5.40
  -1  -7   3  126.29    4.80
   0   7  -3    3.10    1.40
   0  -7   3    2.00    1.10
   0  -7   3    3.00    1.50
  -1   7  -3   15.30    2.20
  -1   7  -3   17.70    2.90
   1  -7   3   12.90    1.90
   1  -7   3   17.80    2.60
  -2   7  -3  136.79    5.70
   2  -7   3  135.09    5.00
   2  -7   3  125.29    5.30
  -3   7  -3  100.39    5.10
   3  -7   3  108.89    5.00
   3  -7   3  100.49    4.70
  -4   7  -3   12.80    2.70
   4  -7   3   11.10    2.30
   4  -7   3   10.40    2.40
  -5   7  -3   34.50    4.20
  -5   7  -3   36.20    4.40
   5  -7   3   35.10    4.20
   6   6  -3   48.80    5.10
   6   6  -3   56.69    4.70
  -6  -6   3   44.70    5.00
  -6  -6   3   41.40    4.70
   5   6  -3   39.30    4.20
   5   6  -3   43.80    4.70
  -5  -6   3   39.50    4.40
  -5  -6   3   55.59    4.40
   4   6  -3  129.09    6.00
   4   6  -3  114.79    5.30
  -4  -6   3  125.39    5.70
  -4  -6   3  124.69    5.70
   3   6  -3   15.80    2.60
   3   6  -3   13.60    2.40
  -3  -6   3   12.20    2.30
  -3  -6   3   12.20    2.20
   2   6  -3   51.29    3.50
   2   6  -3   54.49    3.00
  -2  -6   3   55.79    3.30
  -2  -6   3   53.69    3.40
   1   6  -3   21.60    2.90
   1   6  -3   21.10    1.80
  -1  -6   3   21.90    2.80
  -1  -6   3   26.20    2.70
   0   6  -3  113.79    4.80
   0  -6   3   97.09    4.20
   0  -6   3   95.89    3.60
   0  -6   3  104.59    3.30
  -1   6  -3  359.86    8.80
   1  -6   3  332.97    6.80
   1  -6   3  339.77    7.20
   1  -6   3  335.17    8.10
  -2   6  -3  107.09    4.80
   2  -6   3   94.99    4.20
   2  -6   3   92.89    3.40
   2  -6   3   94.59    4.00
  -3   6  -3   73.09    4.20
   3  -6   3   76.99    3.90
   3  -6   3   67.99    3.80
  -4   6  -3    6.80    2.10
   4  -6   3    3.30    1.50
   4  -6   3    4.40    1.50
  -5   6  -3    4.60    1.90
   5  -6   3    3.00    1.60
   5  -6   3    3.50    1.60
  -6   6  -3    4.70    2.00
   6  -6   3    6.30    2.20
   6  -6   3    6.40    2.30
   6   5  -3   14.60    2.90
   6   5  -3   16.20    3.10
  -6  -5   3   15.90    3.10
  -6  -5   3   19.60    3.40
   5   5  -3   74.99    4.60
   5   5  -3   65.09    4.30
  -5  -5   3   60.49    4.20
  -5  -5   3   74.29    4.70
   4   5  -3  221.68    7.10
   4   5  -3  215.58    7.20
  -4  -5   3  217.08    7.00
  -4  -5   3  223.88    7.30
   3   5  -3   66.49    3.50
   3   5  -3   69.49    3.90
  -3  -5   3   64.39    3.60
  -3  -5   3   68.69    3.90
   2   5  -3   18.30    2.20
   2   5  -3   15.70    2.40
  -2  -5   3   16.60    2.30
  -2  -5   3   12.00    2.00
   1   5  -3   16.60    1.90
   1   5  -3   10.40    1.80
  -1  -5   3   17.20    2.00
  -1  -5   3    9.90    1.80
  -1  -5   3   18.50    1.70
   0   5  -3  255.27    6.80
   0   5  -3  254.17    4.70
   0  -5   3  242.38    5.40
   0  -5   3  245.08    6.30
   0  -5   3  245.68    5.00
  -1   5  -3  642.74   11.70
   1  -5   3  634.34   10.10
   1  -5   3  631.54    9.50
   1  -5   3  610.14   10.90
  -2   5  -3   39.50    2.80
   2  -5   3   48.70    2.80
   2  -5   3   43.50    2.60
   2  -5   3   37.80    2.00
  -3   5  -3   69.49    3.80
   3  -5   3   64.09    3.40
   3  -5   3   70.59    3.50
  -4   5  -3   38.80    3.20
   4  -5   3   41.60    3.00
   4  -5   3   41.20    3.00
  -5   5  -3    2.90    1.60
   5  -5   3    3.80    1.70
   5  -5   3    4.30    1.60
  -6   5  -3   48.10    4.10
   6  -5   3   44.10    3.60
   6  -5   3   49.00    3.90
  -7   5  -3   21.20    3.50
   7  -5   3   29.20    3.80
   7   4  -3   17.00    3.00
  -7  -4   3   20.40    3.50
  -7  -4   3   21.60    3.70
   6   4  -3    1.90    1.40
  -6  -4   3    5.00    2.20
  -6  -4   3    7.40    2.30
   5   4  -3   60.19    4.00
   5   4  -3   55.29    3.80
  -5  -4   3   65.89    4.20
  -5  -4   3   64.09    4.20
   4   4  -3  156.58    5.60
   4   4  -3  145.09    5.40
  -4  -4   3  147.59    5.70
  -4  -4   3  146.79    5.60
   3   4  -3  201.98    6.10
   3   4  -3  193.38    5.70
  -3  -4   3  199.38    5.90
  -3  -4   3  212.28    6.30
   2   4  -3   24.50    2.50
   2   4  -3   22.10    2.40
  -2  -4   3   25.10    2.00
  -2  -4   3   28.10    2.30
   1   4  -3   15.20    1.70
   1   4  -3   13.60    1.90
  -1  -4   3   13.90    0.90
  -1  -4   3   14.00    1.80
  -1  -4   3   12.10    1.60
   0   4  -3  449.86    6.70
   0   4  -3  455.95    8.80
   0  -4   3  438.16    6.90
   0  -4   3  456.35    7.40
   0  -4   3  459.45    8.40
  -1   4  -3  492.25    9.30
   1  -4   3  479.35    7.20
   1  -4   3  482.15    8.00
   1  -4   3  480.95    8.60
  -2   4  -3  145.29    4.90
   2  -4   3  151.78    3.50
   2  -4   3  149.69    4.40
   2  -4   3  153.18    4.40
  -3   4  -3   77.59    3.80
   3  -4   3   75.79    2.60
   3  -4   3   74.89    3.50
   3  -4   3   81.99    3.40
  -4   4  -3  234.68    7.10
   4  -4   3  245.88    6.50
   4  -4   3  233.08    6.70
  -5   4  -3   35.70    3.80
   5  -4   3   34.40    3.50
   5  -4   3   32.50    3.40
  -6   4  -3   31.80    4.00
   6  -4   3   22.30    3.00
   6  -4   3   23.30    3.10
   7  -4   3   12.60    2.80
   7   3  -3   12.60    2.60
  -7  -3   3   21.30    3.60
  -7  -3   3   19.90    3.70
   6   3  -3    0.70    1.30
  -6  -3   3    3.00    1.90
  -6  -3   3    0.70    1.40
   5   3  -3   52.19    3.60
   5   3  -3   52.49    3.40
  -5  -3   3   55.69    3.80
  -5  -3   3   47.30    3.60
   4   3  -3    9.80    2.00
   4   3  -3    9.60    1.80
  -4  -3   3   10.00    1.90
  -4  -3   3   12.00    2.20
   3   3  -3  104.59    4.00
   3   3  -3  108.29    4.00
  -3  -3   3   94.39    3.90
  -3  -3   3  106.49    4.30
   2   3  -3  205.48    5.20
   2   3  -3  194.18    4.90
  -2  -3   3  194.18    5.30
  -2  -3   3  194.48    5.10
   1   3  -3  354.66    7.00
   1   3  -3  340.27    6.10
  -1  -3   3  342.97    6.90
  -1  -3   3  338.27    4.80
  -1  -3   3  352.26    6.30
   0   3  -3   31.60    1.40
   0   3  -3   29.70    1.90
   0  -3   3   29.30    1.40
   0  -3   3   33.70    1.80
   0  -3   3   27.80    1.40
  -1   3  -3   41.80    2.30
   1  -3   3   43.30    2.00
   1  -3   3   43.90    2.10
   1  -3   3   42.30    1.50
  -2   3  -3  488.75    9.10
   2  -3   3  475.15    6.60
   2  -3   3  494.05    8.40
   2  -3   3  493.75    8.20
  -3   3  -3   26.30    2.20
   3  -3   3   31.90    2.00
   3  -3   3   29.00    2.10
  -4   3  -3   33.10    2.70
   4  -3   3   28.40    2.80
   4  -3   3   33.90    2.20
  -5   3  -3   50.79    3.60
   5  -3   3   59.59    3.30
   5  -3   3   52.69    3.30
  -6   3  -3    9.90    2.30
   6  -3   3   12.30    2.30
   6  -3   3   14.30    2.50
  -7   3  -3    8.30    2.70
   7  -3   3    8.20    2.20
   7   2  -3   19.40    3.10
  -7  -2   3   28.60    4.00
  -7  -2   3   24.30    3.80
   6   2  -3   24.00    3.40
  -6  -2   3   25.80    3.80
  -6  -2   3   25.50    3.60
   5   2  -3    1.20    1.20
   5   2  -3    1.50    1.60
  -5  -2   3    2.30    1.50
   4   2  -3   56.19    3.20
   4   2  -3   56.99    3.00
  -4  -2   3   59.29    3.50
   3   2  -3  662.43   10.60
   3   2  -3  648.14   11.10
  -3  -2   3  652.73   11.50
  -3  -2   3  651.53    8.30
   2   2  -3  470.45    8.00
   2   2  -3  463.55    8.20
  -2  -2   3  469.65    6.10
  -2  -2   3  460.45    8.50
   1   2  -3   54.29    2.10
   1   2  -3   57.09    2.20
  -1  -2   3   53.09    2.30
  -1  -2   3   55.39    1.60
  -1  -2   3   55.09    2.10
   0   2  -3   11.20    0.90
   0   2  -3   12.20    1.40
   0  -2   3   10.60    1.20
   0  -2   3   10.40    0.80
   0  -2   3   11.70    0.90
  -1   2  -3   78.89    2.80
   1  -2   3   80.29    2.40
   1  -2   3   79.79    2.40
  -2   2  -3  435.56    8.10
   2  -2   3  413.26    6.70
   2  -2   3  423.46    7.30
  -3   2  -3  122.29    4.30
  -3   2  -3  116.29    2.70
   3  -2   3  120.19    3.40
   3  -2   3  113.69    3.70
  -4   2  -3  152.38    5.30
  -4   2  -3  157.18    3.70
   4  -2   3  151.68    4.70
   4  -2   3  152.28    4.40
  -5   2  -3  126.29    5.20
   5  -2   3  125.79    4.50
   5  -2   3  123.49    4.70
  -6   2  -3    8.10    2.10
   6  -2   3    5.50    1.70
  -7   2  -3   31.80    4.00
   7  -2   3   29.60    3.50
   7   1  -3    5.90    2.20
  -7  -1   3    5.40    2.50
   6   1  -3   52.79    3.80
  -6  -1   3   56.69    4.30
   5   1  -3   -0.70    0.90
  -5  -1   3    1.00    1.40
   4   1  -3  302.37    7.40
   4   1  -3  292.37    6.40
  -4  -1   3  312.97    5.90
  -4  -1   3  296.87    7.80
   3   1  -3  292.57    6.60
   3   1  -3  287.07    5.60
  -3  -1   3  280.37    5.10
  -3  -1   3  277.57    6.80
   2   1  -3   98.09    2.80
   2   1  -3   99.39    3.20
  -2  -1   3   98.59    2.40
  -2  -1   3   94.99    3.40
   1   1  -3  305.97    5.40
   1   1  -3  305.37    5.10
  -1  -1   3  301.67    5.60
  -1  -1   3  307.77    4.70
   0   1  -3  422.26    6.50
   0   1  -3  432.96    6.30
   0  -1   3  425.76    6.20
   0  -1   3  421.46    6.30
  -1   1  -3    1.60    0.60
  -1   1  -3    1.80    0.50
   1  -1   3    1.30    0.50
   1  -1   3    0.30    0.40
  -2   1  -3 1402.76   17.80
  -2   1  -3 1372.66   15.60
   2  -1   3 1377.66   15.60
   2  -1   3 1368.16   16.90
  -3   1  -3 2095.39   25.80
  -3   1  -3 2065.09   23.40
   3  -1   3 2055.89   23.40
   3  -1   3 2131.59   24.90
  -4   1  -3   34.00    2.00
   4  -1   3   44.70    2.50
   4  -1   3   40.10    2.10
   4  -1   3   42.60    2.70
  -5   1  -3   19.10    2.10
   5  -1   3   18.50    2.30
   5  -1   3   24.10    2.50
   5  -1   3   21.50    2.70
  -6   1  -3    4.60    1.70
   6  -1   3    4.40    1.50
   7  -1   3   37.70    3.80
   7   0  -3   14.60    2.80
  -7   0   3    7.90    2.60
   6   0  -3   40.00    3.40
  -6   0   3   47.80    5.00
   5   0  -3    5.00    1.60
  -5   0   3    3.10    1.50
   4   0  -3   66.39    3.30
   4   0  -3   67.89    3.20
  -4   0   3   65.29    3.60
  -4   0   3   71.59    2.90
   3   0  -3   61.19    2.20
   3   0  -3   63.29    2.80
  -3   0   3   66.19    3.20
  -3   0   3   64.29    2.40
   2   0  -3 1420.46   15.70
   2   0  -3 1423.36   17.70
  -2   0   3 1374.36   18.10
  -2   0   3 1393.36   16.70
   1   0  -3    2.60    0.50
   1   0  -3    1.80    0.60
  -1   0   3    2.00    0.60
  -1   0   3    1.90    0.60
   0   0  -3  105.49    2.70
   0   0  -3  106.79    2.30
   0   0   3  104.59    2.60
   0   0   3  104.89    2.40
  -1   0  -3  389.46    6.10
  -1   0  -3  378.16    5.70
   1   0   3  392.26    6.10
   1   0   3  386.56    6.10
  -2   0  -3   79.59    2.30
   2   0   3   80.39    2.50
   2   0   3   83.19    2.80
  -3   0  -3  297.47    5.60
  -3   0  -3  305.07    4.90
   3   0   3  313.37    6.00
   3   0   3  319.07    6.70
   3   0   3  309.17    5.00
  -4   0  -3   40.30    2.20
  -4   0  -3   44.20    2.00
   4   0   3   37.40    2.50
   4   0   3   42.50    2.30
   4   0   3   44.40    2.10
  -5   0  -3   30.90    2.10
  -5   0  -3   26.40    2.70
   5   0   3   26.60    2.10
   5   0   3   25.40    1.90
   5   0   3   31.00    3.20
  -6   0  -3   12.20    2.20
   6   0   3   13.00    2.20
   6   0   3    9.50    2.10
  -7   0  -3    6.90    2.00
   7   0   3    4.10    1.70
   8   0   3   16.40    3.40
   7  -1  -3   12.30    2.60
  -7   1   3   15.80    3.10
   6  -1  -3   29.00    3.40
  -6   1   3   23.20    3.30
   5  -1  -3   69.79    4.10
   5  -1  -3   77.69    3.90
  -5   1   3   74.29    3.60
   4  -1  -3    5.90    1.60
   4  -1  -3    3.80    1.20
  -4   1   3    5.90    1.30
   3  -1  -3  310.07    6.60
   3  -1  -3  307.07    4.90
   3  -1  -3  303.87    7.00
  -3   1   3  297.97    6.20
   2  -1  -3 1397.26   17.60
   2  -1  -3 1381.96   17.90
  -2   1   3 1381.96   17.10
   1  -1  -3   39.50    1.80
   1  -1  -3   36.70    1.70
   1  -1  -3   49.70    2.00
  -1   1   3   35.50    1.70
   0  -1  -3   38.60    1.40
   0  -1  -3   38.20    1.60
   0  -1  -3   38.10    1.50
   0   1   3   36.20    1.60
   0   1   3   37.20    1.20
  -1  -1  -3  169.88    3.50
  -1  -1  -3  173.48    3.00
   1   1   3  173.38    3.50
   1   1   3  170.98    3.60
  -2  -1  -3   70.29    2.00
  -2  -1  -3   74.69    2.40
   2   1   3   73.09    2.60
   2   1   3   70.29    2.30
  -3  -1  -3  395.36    5.70
  -3  -1  -3  386.26    7.00
  -3  -1  -3  387.76    6.30
   3   1   3  399.16    6.80
   3   1   3  399.56    7.70
  -4  -1  -3  373.46    6.80
  -4  -1  -3  373.56    6.50
  -4  -1  -3  364.56    7.50
   4   1   3  384.46    7.10
   4   1   3  369.86    8.00
  -5  -1  -3  119.99    4.50
  -5  -1  -3  122.09    4.10
   5   1   3  120.99    4.90
   5   1   3  119.99    4.10
  -6  -1  -3  141.29    5.40
  -6  -1  -3  147.59    5.00
   6   1   3  139.39    4.80
   6   1   3  134.49    5.80
  -7  -1  -3    1.50    1.50
   7   1   3    0.70    1.50
  -8  -1  -3    4.80    2.60
   8   1   3    8.30    2.60
   7  -2  -3   12.30    3.00
   6  -2  -3   11.70    2.70
   6  -2  -3    9.30    2.00
  -6   2   3   11.70    2.20
   5  -2  -3   21.60    3.20
   5  -2  -3   24.00    2.90
  -5   2   3   20.40    2.70
   4  -2  -3    1.30    1.10
   4  -2  -3   -0.30    0.70
  -4   2   3    0.20    0.90
   3  -2  -3  178.38    4.80
   3  -2  -3  167.88    5.20
  -3   2   3  176.78    4.90
   2  -2  -3  225.18    5.10
   2  -2  -3  226.78    5.40
  -2   2   3  225.68    5.20
   1  -2  -3 2377.66   27.40
   1  -2  -3 2421.56   27.30
   1  -2  -3 2410.76   27.50
  -1   2   3 2416.06   27.40
   0  -2  -3  202.98    4.10
   0  -2  -3  199.08    3.70
   0  -2  -3  198.38    4.10
   0   2   3  198.28    3.40
   0   2   3  196.58    4.20
  -1  -2  -3  193.48    3.90
  -1  -2  -3  187.48    4.10
  -1  -2  -3  193.58    3.00
   1   2   3  197.88    4.10
   1   2   3  194.48    4.00
  -2  -2  -3  384.96    6.80
  -2  -2  -3  373.96    6.20
   2   2   3  385.76    6.40
   2   2   3  375.36    6.90
  -3  -2  -3   76.49    3.00
  -3  -2  -3   72.19    2.60
   3   2   3   69.09    2.50
   3   2   3   70.59    3.10
  -4  -2  -3  440.06    6.90
  -4  -2  -3  431.36    8.60
  -4  -2  -3  417.36    7.80
   4   2   3  435.76    7.50
   4   2   3  419.96    9.00
  -5  -2  -3  362.96    7.80
  -5  -2  -3  357.86    8.40
   5   2   3  360.56    8.80
   5   2   3  363.76    7.20
  -6  -2  -3  112.59    5.10
  -6  -2  -3  121.19    4.80
   6   2   3  121.69    5.50
  -7  -2  -3    1.50    1.40
   7   2   3   -0.90    1.30
  -8  -2  -3    1.00    1.70
   8   2   3   -0.10    1.70
   7  -3  -3   -0.20    1.70
   6  -3  -3    2.00    1.70
  -6   3   3    2.60    1.70
   5  -3  -3   69.09    4.30
   5  -3  -3   73.69    3.70
  -5   3   3   60.39    3.80
   4  -3  -3  122.39    5.00
   4  -3  -3  115.09    4.20
  -4   3   3  117.89    4.70
   3  -3  -3    0.50    0.80
   3  -3  -3    0.50    0.70
  -3   3   3    0.60    0.80
   2  -3  -3    0.90    0.70
   2  -3  -3    0.80    0.70
   2  -3  -3    1.10    0.70
  -2   3   3    1.50    0.40
  -2   3   3    0.60    0.70
   1  -3  -3 1194.48   15.30
   1  -3  -3 1135.99   15.30
   1  -3  -3 1133.39   15.00
  -1   3   3 1145.09   13.00
  -1   3   3 1118.99   15.20
   0  -3  -3  202.38    4.40
   0  -3  -3  208.38    4.60
   0  -3  -3  202.48    4.20
   0   3   3  200.28    3.90
   0   3   3  204.58    4.50
  -1  -3  -3    0.60    0.60
  -1  -3  -3    1.60    0.60
  -1  -3  -3    0.90    0.50
   1   3   3    1.00    0.60
   1   3   3    1.60    0.60
  -2  -3  -3   29.50    1.30
  -2  -3  -3   32.30    1.90
  -2  -3  -3   31.90    1.80
   2   3   3   32.30    2.00
   2   3   3   29.50    1.60
  -3  -3  -3   75.49    3.20
  -3  -3  -3   74.19    2.20
  -3  -3  -3   74.79    3.00
   3   3   3   75.49    3.40
   3   3   3   75.99    2.60
  -4  -3  -3  316.27    5.80
  -4  -3  -3  306.17    7.00
  -4  -3  -3  312.47    7.40
   4   3   3  312.67    7.80
   4   3   3  309.07    6.00
  -5  -3  -3   14.70    2.30
  -5  -3  -3   14.20    2.30
   5   3   3   12.80    2.30
  -6  -3  -3   11.70    2.40
  -6  -3  -3   14.00    2.50
   6   3   3    8.90    2.20
  -7  -3  -3   53.79    4.20
  -7  -3  -3   57.09    4.00
   7   3   3   58.19    4.50
   6  -4  -3   68.79    4.80
  -6   4   3   68.49    4.50
   5  -4  -3   79.49    4.70
  -5   4   3   72.19    4.30
   4  -4  -3   40.10    3.10
   4  -4  -3   44.70    2.60
  -4   4   3   37.20    3.00
   3  -4  -3    2.70    1.10
   3  -4  -3    3.90    1.40
   3  -4  -3    3.30    1.10
  -3   4   3    3.20    1.20
   2  -4  -3    7.80    1.60
   2  -4  -3    6.60    1.40
   2  -4  -3    7.60    1.40
  -2   4   3    7.30    0.90
  -2   4   3    6.40    1.40
   1  -4  -3  100.79    3.50
   1  -4  -3   98.99    3.60
   1  -4  -3  100.09    3.30
  -1   4   3   92.19    2.60
  -1   4   3   96.69    3.50
   0  -4  -3  725.23   11.10
   0  -4  -3  727.63   10.70
   0  -4  -3  718.43   10.60
   0   4   3  726.63   11.00
   0   4   3  714.43   10.20
  -1  -4  -3  133.79    3.50
  -1  -4  -3  135.29    4.00
  -1  -4  -3  138.39    3.90
   1   4   3  136.39    3.90
   1   4   3  135.49    3.80
  -2  -4  -3  431.66    8.00
  -2  -4  -3  417.46    7.90
  -2  -4  -3  418.56    6.70
   2   4   3  410.56    8.10
   2   4   3  418.26    7.20
  -3  -4  -3   86.89    3.60
  -3  -4  -3   87.49    3.50
  -3  -4  -3   88.89    2.80
   3   4   3   93.79    3.00
   3   4   3   89.79    3.80
  -4  -4  -3    3.50    1.30
  -4  -4  -3    4.40    1.30
   4   4   3    3.80    1.50
  -5  -4  -3   16.40    2.50
  -5  -4  -3   12.80    2.30
   5   4   3   23.30    3.20
  -6  -4  -3   45.30    3.40
  -6  -4  -3   42.90    3.60
   6   4   3   37.70    4.30
  -7  -4  -3   72.39    4.90
  -7  -4  -3   60.49    4.20
   7   4   3   65.09    4.80
   6  -5  -3   11.50    2.80
  -6   5   3   11.10    2.70
   5  -5  -3    2.40    1.70
  -5   5   3   -0.90    1.10
   4  -5  -3   19.20    2.90
  -4   5   3   18.20    2.70
   3  -5  -3   26.00    2.90
   3  -5  -3   32.60    2.20
   3  -5  -3   33.90    2.80
  -3   5   3   33.40    2.80
   2  -5  -3  129.89    4.20
   2  -5  -3  133.49    4.80
   2  -5  -3  135.49    4.80
  -2   5   3  132.79    4.80
   1  -5  -3  119.99    3.80
   1  -5  -3  124.09    4.30
   1  -5  -3  117.29    4.20
  -1   5   3  117.39    4.20
  -1   5   3  118.59    3.50
   0  -5  -3  807.92   11.90
   0  -5  -3  806.02   12.70
   0  -5  -3  784.52   12.10
   0   5   3  824.22   12.50
   0   5   3  824.92   12.10
  -1  -5  -3  285.17    6.10
  -1  -5  -3  295.47    6.70
  -1  -5  -3  302.47    6.40
   1   5   3  295.57    6.60
   1   5   3  298.87    6.30
  -2  -5  -3   82.19    3.50
  -2  -5  -3   78.59    2.90
  -2  -5  -3   85.59    3.40
   2   5   3   78.69    3.50
   2   5   3   76.79    3.00
  -3  -5  -3   16.30    2.10
  -3  -5  -3   17.20    2.20
  -3  -5  -3   18.10    1.90
   3   5   3   18.40    1.80
   3   5   3   17.90    2.40
  -4  -5  -3   70.69    3.70
  -4  -5  -3   69.59    3.80
   4   5   3   71.59    4.00
  -5  -5  -3  129.79    5.40
  -5  -5  -3  137.89    5.70
   5   5   3  130.29    5.90
  -6  -5  -3   40.70    4.30
  -6  -5  -3   34.60    3.90
   6   5   3   38.80    4.50
  -7  -5  -3   50.49    4.10
  -7  -5  -3   54.09    5.50
   7   5   3   47.00    5.40
   6  -6  -3    1.00    1.80
  -6   6   3    0.60    1.70
   5  -6  -3   10.20    2.60
  -5   6   3    9.40    2.30
   4  -6  -3   19.20    3.10
  -4   6   3   11.90    2.50
   3  -6  -3   83.09    4.40
   3  -6  -3   75.49    4.10
  -3   6   3   70.49    4.10
   2  -6  -3  168.18    5.70
   2  -6  -3  158.48    5.60
  -2   6   3  165.88    5.70
   1  -6  -3    9.80    1.60
   1  -6  -3   12.60    2.10
   1  -6  -3   10.30    1.80
  -1   6   3    9.10    1.70
  -1   6   3    9.80    1.50
   0  -6  -3   76.09    3.10
   0  -6  -3   73.69    3.50
   0  -6  -3   75.39    3.40
   0   6   3   73.39    3.30
   0   6   3   73.39    3.30
  -1  -6  -3   46.80    2.60
  -1  -6  -3   44.50    2.50
  -1  -6  -3   46.00    2.80
   1   6   3   44.20    2.70
   1   6   3   49.00    2.60
  -2  -6  -3    2.00    1.10
  -2  -6  -3    0.90    0.80
  -2  -6  -3    0.40    0.80
   2   6   3   -0.60    0.90
   2   6   3    1.40    0.80
  -3  -6  -3   73.39    3.70
  -3  -6  -3   73.29    3.70
  -3  -6  -3   76.39    3.20
   3   6   3   74.79    4.00
  -4  -6  -3   50.99    3.50
  -4  -6  -3   56.89    3.60
   4   6   3   58.79    3.90
  -5  -6  -3  101.89    5.00
  -5  -6  -3  102.29    5.20
   5   6   3  104.69    5.60
  -6  -6  -3   47.40    3.90
  -6  -6  -3   50.29    4.20
   6   6   3   48.40    5.10
  -7  -6  -3    8.60    2.50
  -7  -6  -3    8.30    2.60
   7   6   3    8.60    2.80
   5  -7  -3    4.00    2.10
  -5   7   3    5.50    2.10
   4  -7  -3   11.00    2.50
   4  -7  -3   12.70    2.80
  -4   7   3   10.20    2.30
   3  -7  -3   15.20    2.60
   3  -7  -3   20.00    3.10
  -3   7   3   16.70    2.80
   2  -7  -3    3.90    1.50
   2  -7  -3    8.00    1.90
  -2   7   3    7.80    2.00
   1  -7  -3   44.20    3.10
   1  -7  -3   41.60    3.00
  -1   7   3   41.00    2.70
  -1   7   3   40.20    3.00
   0  -7  -3   37.70    2.40
   0  -7  -3   34.60    2.70
   0  -7  -3   47.40    3.00
   0   7   3   40.50    2.70
   0   7   3   40.50    2.80
  -1  -7  -3   82.89    4.00
  -1  -7  -3   89.59    3.80
  -1  -7  -3   86.39    3.60
   1   7   3   76.69    3.90
   1   7   3   80.39    3.70
  -2  -7  -3   10.70    2.10
  -2  -7  -3   13.30    2.10
  -2  -7  -3   11.00    2.00
   2   7   3   10.00    2.00
  -3  -7  -3   57.79    3.70
  -3  -7  -3   63.49    3.70
  -3  -7  -3   70.19    4.00
   3   7   3   66.89    4.10
  -4  -7  -3   32.40    3.70
  -4  -7  -3   17.70    2.90
   4   7   3   30.20    3.90
  -5  -7  -3   39.70    4.20
  -5  -7  -3   45.80    3.80
   5   7   3   36.40    4.20
  -6  -7  -3   13.30    2.80
  -6  -7  -3   13.60    3.00
   6   7   3   10.10    2.80
   4  -8  -3   10.60    2.50
   4  -8  -3   14.70    3.10
  -4   8   3   16.80    3.10
   3  -8  -3   12.80    2.70
  -3   8   3    8.70    2.40
   2  -8  -3   28.20    3.60
   2  -8  -3   22.00    3.00
  -2   8   3   31.20    3.50
   1  -8  -3   86.49    4.50
   1  -8  -3   99.29    4.80
  -1   8   3   88.09    4.50
   0  -8  -3   18.20    2.70
   0  -8  -3   23.70    3.00
   0   8   3   21.10    2.70
   0   8   3   26.20    3.10
  -1  -8  -3  126.39    5.00
  -1  -8  -3  121.99    5.20
  -1  -8  -3  120.79    4.50
   1   8   3  126.09    5.30
   1   8   3  122.19    5.60
  -2  -8  -3   74.79    4.20
  -2  -8  -3   81.49    4.10
  -2  -8  -3   78.89    4.00
   2   8   3   80.39    4.50
  -3  -8  -3   38.00    4.00
  -3  -8  -3   31.50    3.60
   3   8   3   32.40    3.90
  -4  -8  -3   17.40    3.00
  -4  -8  -3   19.50    3.20
   4   8   3   20.70    3.40
  -5  -8  -3   14.20    2.90
  -5  -8  -3   15.60    3.10
   5   8   3   13.50    2.80
   3  -9  -3   29.10    4.00
   3  -9  -3   21.10    3.50
  -3   9   3   18.40    3.20
   2  -9  -3   -1.20    1.30
   2  -9  -3   -1.90    1.00
  -2   9   3    1.70    1.60
   1  -9  -3    2.80    1.60
   1  -9  -3    1.40    1.40
  -1   9   3    3.50    1.70
   0  -9  -3   12.70    2.50
   0  -9  -3   15.00    2.60
   0   9   3   17.60    2.80
   0   9   3   14.40    2.60
  -1  -9  -3   95.69    5.00
  -1  -9  -3  101.99    4.90
   1   9   3  102.29    5.20
  -2  -9  -3   71.39    4.10
  -2  -9  -3   73.39    4.60
   2   9   3   70.49    4.50
  -3  -9  -3    5.20    2.10
  -3  -9  -3    5.90    2.00
   3   9   3    5.30    2.20
  -4  -9  -3   25.30    3.80
  -4  -9  -3   26.50    3.60
   4   9   3   34.40    4.60
  -5  -9  -3    2.90    2.00
  -5  -9  -3    4.50    2.20
   5   9   3    4.70    2.20
   2 -10  -3   -1.30    1.50
   2 -10  -3   -0.50    1.30
  -2  10   3   -0.80    1.60
   1 -10  -3    4.60    1.90
   1 -10  -3    1.80    1.70
  -1  10   3    3.00    1.80
   0 -10  -3   20.20    3.30
   0 -10  -3   22.10    3.40
  -1 -10  -3   14.50    2.80
  -1 -10  -3   20.90    3.30
   1  10   3   21.80    3.40
  -2 -10  -3   49.99    4.10
   2  10   3   51.19    5.20
  -3 -10  -3   11.40    2.70
   3  10   3    8.70    3.00
   1  10  -4   24.30    4.20
  -1 -10   4   19.20    3.70
   0  10  -4   31.60    4.50
   0 -10   4   37.20    4.60
  -1  10  -4    6.90    2.40
   1 -10   4    5.20    2.20
  -2  10  -4   24.20    4.00
   2 -10   4   36.00    4.50
   3   9  -4    0.30    1.60
  -3  -9   4    2.30    1.80
  -3  -9   4   -0.40    1.40
   2   9  -4   13.60    3.10
  -2  -9   4    9.50    2.30
  -2  -9   4   16.20    3.10
   1   9  -4   29.80    4.20
  -1  -9   4   36.20    4.30
  -1  -9   4   29.50    3.60
   0   9  -4   27.90    4.10
   0  -9   4   25.40    3.50
  -1   9  -4   -0.70    1.20
   1  -9   4    0.50    1.50
  -2   9  -4   11.80    2.80
   2  -9   4   16.50    3.00
  -3   9  -4   29.30    4.20
  -3   9  -4   20.10    3.40
   3  -9   4   20.40    3.30
   4   8  -4    7.60    2.30
   4   8  -4    8.20    2.60
  -4  -8   4    6.40    2.40
  -4  -8   4    6.90    2.50
   3   8  -4   25.80    3.90
  -3  -8   4   25.90    3.50
  -3  -8   4   22.60    3.50
   2   8  -4   37.50    4.50
  -2  -8   4   33.50    3.70
  -2  -8   4   28.60    3.80
   1   8  -4   77.59    5.00
  -1  -8   4   86.89    4.80
  -1  -8   4   76.49    4.10
   0   8  -4   60.79    4.40
   0  -8   4   65.49    4.30
  -1   8  -4   14.40    2.70
   1  -8   4   12.00    2.50
  -2   8  -4   -0.90    1.20
   2  -8   4    0.40    1.30
   2  -8   4   -0.30    1.20
  -3   8  -4   32.10    4.10
   3  -8   4   33.00    3.60
   3  -8   4   32.80    3.90
  -4   8  -4   16.20    3.00
  -4   8  -4   18.50    3.40
   4  -8   4   23.70    3.40
   4  -8   4   16.00    3.00
  -5   8  -4   26.90    3.80
  -5   8  -4   28.60    4.10
   5  -8   4   27.90    3.90
   5   7  -4   15.50    3.00
   5   7  -4   17.50    3.50
  -5  -7   4   13.70    3.10
  -5  -7   4   16.80    3.40
   4   7  -4   57.89    4.10
   4   7  -4   46.00    4.90
  -4  -7   4   44.00    4.70
   3   7  -4   33.70    4.10
   3   7  -4   42.20    3.30
  -3  -7   4   39.90    4.30
  -3  -7   4   43.10    3.50
   2   7  -4   81.09    4.80
   2   7  -4   82.99    5.00
  -2  -7   4   81.09    4.70
  -2  -7   4   81.79    4.30
   1   7  -4   99.29    5.10
  -1  -7   4   94.99    4.30
  -1  -7   4   98.19    4.80
   0   7  -4   68.19    4.30
   0  -7   4   70.49    4.00
   0  -7   4   68.09    3.40
  -1   7  -4  166.18    6.60
   1  -7   4  164.98    6.10
   1  -7   4  167.28    5.10
  -2   7  -4    6.20    1.90
   2  -7   4    2.60    1.50
   2  -7   4    4.50    1.60
  -3   7  -4   19.90    3.20
   3  -7   4   24.80    3.20
   3  -7   4   20.40    2.90
  -4   7  -4   48.00    4.00
   4  -7   4   43.90    4.40
   4  -7   4   44.50    3.60
  -5   7  -4   39.80    4.60
   5  -7   4   48.30    4.90
   5  -7   4   47.00    3.90
   5   6  -4   43.90    4.70
   5   6  -4   41.10    4.70
  -5  -6   4   44.70    4.90
  -5  -6   4   34.30    4.20
   4   6  -4   79.19    4.50
   4   6  -4   87.49    5.10
  -4  -6   4   80.29    4.90
  -4  -6   4   92.09    5.10
   3   6  -4    0.30    0.90
   3   6  -4    1.10    1.20
  -3  -6   4    0.30    1.30
  -3  -6   4   -0.30    1.30
   2   6  -4    9.20    2.10
   2   6  -4    8.40    1.70
  -2  -6   4    6.90    1.70
  -2  -6   4    6.80    1.90
   1   6  -4   22.90    1.90
   1   6  -4   21.60    2.90
  -1  -6   4   22.50    2.80
  -1  -6   4   26.40    2.70
   0   6  -4  136.39    5.50
   0  -6   4  137.49    3.90
   0  -6   4  134.19    4.30
   0  -6   4  138.39    5.10
  -1   6  -4  226.98    7.10
   1  -6   4  224.98    5.30
   1  -6   4  223.78    6.60
   1  -6   4  230.58    5.80
  -2   6  -4   18.80    2.80
   2  -6   4   19.50    2.60
   2  -6   4   18.90    2.40
  -3   6  -4    4.30    1.70
   3  -6   4    4.60    1.50
   3  -6   4    5.40    1.60
  -4   6  -4   34.80    3.90
   4  -6   4   39.80    3.80
   4  -6   4   36.80    3.10
  -5   6  -4    6.00    2.20
   5  -6   4    3.70    1.70
   5  -6   4    5.40    1.80
  -6   6  -4   22.20    3.70
   6  -6   4   21.60    3.50
   6  -6   4   19.10    3.30
   6   5  -4    4.20    2.10
  -6  -5   4    8.10    2.60
  -6  -5   4    4.50    2.20
   5   5  -4   93.59    5.20
   5   5  -4  104.89    5.40
  -5  -5   4   98.49    5.40
  -5  -5   4  100.99    5.60
   4   5  -4   19.90    3.00
   4   5  -4   22.10    3.00
  -4  -5   4   15.90    2.60
  -4  -5   4   19.10    3.00
   3   5  -4    3.10    1.30
   3   5  -4    2.80    1.30
  -3  -5   4    4.00    1.50
  -3  -5   4    1.70    1.30
   2   5  -4    1.00    1.10
   2   5  -4    1.80    1.00
  -2  -5   4    0.10    1.00
  -2  -5   4    1.90    1.20
   1   5  -4  239.28    5.60
   1   5  -4  246.38    7.10
  -1  -5   4  249.97    6.10
  -1  -5   4  242.18    6.70
   0   5  -4  324.67    8.10
   0   5  -4  330.27    5.80
   0  -5   4  321.07    6.10
   0  -5   4  333.77    6.50
   0  -5   4  320.87    7.60
  -1   5  -4  230.48    6.80
   1  -5   4  228.48    6.20
   1  -5   4  229.68    4.90
   1  -5   4  225.28    5.50
  -2   5  -4  299.57    8.00
   2  -5   4  307.07    7.30
   2  -5   4  292.27    6.90
  -3   5  -4    7.40    2.00
   3  -5   4   12.30    2.00
   3  -5   4   12.40    2.10
  -4   5  -4    0.00    1.10
   4  -5   4    3.60    1.40
   4  -5   4    0.90    1.20
  -5   5  -4    6.10    2.00
   5  -5   4    3.00    1.50
   5  -5   4    1.70    1.50
  -6   5  -4   43.60    4.90
   6  -5   4   41.20    4.30
   6   4  -4    3.30    1.70
  -6  -4   4    2.40    1.90
  -6  -4   4    4.80    2.40
   5   4  -4   21.50    3.10
   5   4  -4   19.50    3.00
  -5  -4   4   20.30    3.40
  -5  -4   4   19.50    3.40
   4   4  -4   31.60    3.40
   4   4  -4   35.30    3.60
  -4  -4   4   42.70    4.30
  -4  -4   4   31.30    3.70
   3   4  -4  391.76    8.90
   3   4  -4  419.26    9.40
  -3  -4   4  428.76    9.70
  -3  -4   4  418.36    9.20
   2   4  -4  188.38    5.20
   2   4  -4  189.28    5.70
  -2  -4   4  187.68    5.90
  -2  -4   4  187.88    5.40
   1   4  -4  195.38    5.80
   1   4  -4  204.38    4.90
  -1  -4   4  203.48    5.70
  -1  -4   4  207.28    3.80
  -1  -4   4  202.78    5.00
   0   4  -4  344.67    5.90
   0   4  -4  362.96    7.90
   0  -4   4  350.86    7.40
   0  -4   4  348.27    6.30
   0  -4   4  349.37    6.10
  -1   4  -4  161.68    5.20
   1  -4   4  160.88    3.50
   1  -4   4  154.98    4.50
   1  -4   4  161.18    4.30
  -2   4  -4  149.69    5.20
   2  -4   4  156.78    4.60
   2  -4   4  146.29    3.20
   2  -4   4  142.39    4.40
  -3   4  -4    4.50    1.50
   3  -4   4    3.00    1.10
   3  -4   4    3.60    1.30
  -4   4  -4   65.59    4.00
   4  -4   4   73.29    3.50
   4  -4   4   69.09    3.70
  -5   4  -4   87.19    4.90
   5  -4   4   87.79    4.50
   5  -4   4   99.09    4.30
  -6   4  -4   29.50    4.00
   6  -4   4   28.90    3.70
  -7   4  -4   27.50    4.20
   7  -4   4   26.60    3.70
   7   3  -4    2.60    1.80
  -7  -3   4    1.10    1.90
  -7  -3   4    3.70    2.10
   6   3  -4   11.70    2.50
  -6  -3   4   14.20    3.00
  -6  -3   4   11.60    2.80
   5   3  -4    6.70    2.10
  -5  -3   4    3.20    1.60
  -5  -3   4    3.40    1.70
   4   3  -4   82.29    4.10
   4   3  -4   88.09    4.00
  -4  -3   4   91.19    4.40
  -4  -3   4   87.59    4.50
   3   3  -4  519.15   10.10
   3   3  -4  520.25   10.00
  -3  -3   4  523.35   10.30
  -3  -3   4  537.05   10.80
   2   3  -4  156.08    4.60
   2   3  -4  149.99    4.60
  -2  -3   4  141.39    4.40
  -2  -3   4  151.98    2.90
  -2  -3   4  145.49    4.80
   1   3  -4   35.10    2.20
   1   3  -4   34.20    1.90
  -1  -3   4   33.80    2.00
  -1  -3   4   36.20    1.50
  -1  -3   4   30.60    2.10
   0   3  -4    9.70    1.20
   0   3  -4    9.80    1.60
   0  -3   4    6.40    1.00
   0  -3   4   10.10    1.50
   0  -3   4    8.20    1.10
  -1   3  -4   -0.90    0.50
   1  -3   4    1.60    0.50
   1  -3   4    0.90    0.70
   1  -3   4    0.60    0.60
  -2   3  -4  142.09    4.70
   2  -3   4  144.49    4.20
   2  -3   4  141.19    4.00
  -3   3  -4  392.16    9.00
   3  -3   4  405.96    8.20
   3  -3   4  400.16    7.50
  -4   3  -4  225.48    7.10
   4  -3   4  236.38    5.80
   4  -3   4  235.58    6.40
  -5   3  -4  125.89    5.70
   5  -3   4  136.99    5.30
   5  -3   4  136.69    4.80
  -6   3  -4    0.40    1.20
   6  -3   4    0.60    1.30
  -7   3  -4   13.00    2.90
   7  -3   4   15.00    2.90
   7   2  -4    5.70    2.20
  -7  -2   4    1.60    2.00
  -7  -2   4    4.30    2.20
   6   2  -4   34.40    4.20
  -6  -2   4   21.80    3.30
  -6  -2   4   28.30    4.00
   5   2  -4   -0.30    1.10
  -5  -2   4    0.50    1.40
   4   2  -4   87.79    4.10
   4   2  -4   82.89    3.50
  -4  -2   4   85.39    4.30
   3   2  -4  101.99    4.00
   3   2  -4  105.99    3.70
  -3  -2   4  106.09    4.30
   2   2  -4  206.48    4.90
   2   2  -4  210.08    5.30
  -2  -2   4  204.38    3.80
  -2  -2   4  208.18    5.60
   1   2  -4   30.40    1.70
   1   2  -4   33.50    1.90
  -1  -2   4   30.80    1.90
  -1  -2   4   31.00    1.40
   0   2  -4   53.39    2.40
   0   2  -4   50.59    1.90
   0  -2   4   54.09    1.80
   0  -2   4   48.10    2.20
   0  -2   4   52.59    2.00
  -1   2  -4  622.14   10.10
  -1   2  -4  609.94    8.30
   1  -2   4  630.94    9.30
   1  -2   4  625.24    9.00
  -2   2  -4  760.92   12.30
  -2   2  -4  759.62    9.40
   2  -2   4  737.53   10.30
   2  -2   4  764.72   11.20
  -3   2  -4  182.88    5.60
  -3   2  -4  177.48    3.60
   3  -2   4  179.58    4.20
   3  -2   4  176.08    4.90
  -4   2  -4    1.80    1.10
  -4   2  -4    3.20    0.90
   4  -2   4    2.90    1.00
   4  -2   4    1.80    1.10
  -5   2  -4   35.80    3.10
   5  -2   4   32.90    2.70
   5  -2   4   35.40    2.30
  -6   2  -4    0.60    1.30
   6  -2   4    0.70    1.20
  -7   2  -4    5.00    2.10
   7  -2   4   10.10    2.40
   7   1  -4    1.80    1.80
  -7  -1   4    2.90    2.20
   6   1  -4   19.00    3.10
  -6  -1   4    8.90    2.60
   5   1  -4  141.39    5.70
  -5  -1   4  135.99    6.00
   4   1  -4  200.18    6.20
  -4  -1   4  201.88    6.60
   3   1  -4   23.80    2.60
   3   1  -4   22.60    1.70
  -3  -1   4   20.50    1.50
  -3  -1   4   23.40    2.60
   2   1  -4  786.02   11.90
   2   1  -4  766.22   10.60
  -2  -1   4  761.72   10.30
  -2  -1   4  772.52   12.30
   1   1  -4  187.28    4.40
   1   1  -4  181.58    3.90
  -1  -1   4  173.58    3.70
  -1  -1   4  179.08    4.40
   0   1  -4   73.19    2.40
   0   1  -4   75.79    2.50
   0  -1   4   77.39    2.40
   0  -1   4   75.39    2.40
  -1   1  -4 1191.98   15.50
  -1   1  -4 1162.58   14.30
   1  -1   4 1176.68   13.80
   1  -1   4 1193.58   14.90
  -2   1  -4  482.55    8.70
  -2   1  -4  477.45    7.00
   2  -1   4  482.85    6.70
   2  -1   4  471.75    7.90
  -3   1  -4  176.08    3.90
  -3   1  -4  178.18    5.20
   3  -1   4  176.18    4.60
   3  -1   4  176.58    3.70
  -4   1  -4   11.70    1.40
  -4   1  -4   15.20    1.50
  -4   1  -4   13.90    2.30
   4  -1   4   12.30    1.80
   4  -1   4   14.60    1.60
  -5   1  -4   12.50    2.20
  -5   1  -4   14.60    1.90
   5  -1   4   13.60    2.20
  -6   1  -4  120.09    5.60
   6  -1   4  139.99    5.30
  -7   1  -4   38.10    4.30
   7  -1   4   40.00    4.00
  -8   1  -4   19.60    3.40
   7   0  -4    5.90    2.10
  -7   0   4    6.90    2.60
   6   0  -4   59.49    4.10
  -6   0   4   58.99    4.60
   5   0  -4  148.29    5.70
  -5   0   4  155.38    6.40
  -4   0   4   79.09    4.10
  -4   0   4   77.49    3.20
   3   0  -4   48.50    2.60
   3   0  -4   50.39    1.90
  -3   0   4   45.40    2.80
  -3   0   4   48.90    2.30
   2   0  -4    4.10    0.70
   2   0  -4    4.30    1.10
  -2   0   4    4.40    1.10
  -2   0   4    3.80    0.90
   1   0  -4    1.60    0.40
   1   0  -4    2.30    0.80
  -1   0   4    0.60    0.60
  -1   0   4    1.90    0.70
   0   0  -4   52.69    1.80
   0   0  -4   49.20    2.10
   0   0   4   49.40    2.00
   0   0   4   51.39    1.90
  -1   0  -4 1083.69   13.60
  -1   0  -4 1096.79   14.00
  -1   0  -4 1086.29   12.10
   1   0   4 1107.79   12.30
   1   0   4 1088.49   14.10
  -2   0  -4  807.52   10.80
   2   0   4  802.22   11.90
   2   0   4  818.62   11.50
  -3   0  -4  676.73   10.00
  -3   0  -4  682.23    8.60
   3   0   4  701.23   10.70
   3   0   4  687.33   11.50
  -4   0  -4   45.20    2.30
  -4   0  -4   49.80    2.00
   4   0   4   47.40    2.00
   4   0   4   49.99    2.60
   4   0   4   47.70    2.90
  -5   0  -4   21.80    2.40
   5   0   4   30.70    2.90
   5   0   4   22.20    2.90
  -6   0  -4  112.79    4.50
   6   0   4  105.89    5.30
   6   0   4  110.09    4.50
   7   0   4    9.80    2.20
   7   0   4    8.20    2.40
  -8   0  -4   24.80    3.90
   7  -1  -4   15.40    2.90
  -7   1   4   16.20    3.50
   6  -1  -4    6.50    2.00
  -6   1   4    4.70    2.00
   5  -1  -4    4.30    1.50
   5  -1  -4    2.30    1.50
  -5   1   4    1.80    1.20
   4  -1  -4   23.20    2.80
   4  -1  -4   18.30    2.40
  -4   1   4   23.20    2.40
   3  -1  -4    1.80    1.00
   3  -1  -4    2.30    1.00
  -3   1   4    2.40    1.00
   2  -1  -4   32.50    2.00
   2  -1  -4   37.40    2.30
  -2   1   4   35.00    2.00
   1  -1  -4 1525.35   18.60
   1  -1  -4 1484.75   19.00
  -1   1   4 1524.85   18.50
   0  -1  -4  518.85    6.80
   0  -1  -4  519.65    7.60
   0  -1  -4  513.95    7.20
   0  -1  -4  509.75    8.30
   0   1   4  514.65    8.10
  -1  -1  -4  104.49    2.40
  -1  -1  -4  103.19    2.90
   1   1   4  103.39    3.00
   1   1   4  103.79    2.90
  -2  -1  -4   94.79    3.00
  -2  -1  -4   94.89    2.30
   2   1   4   99.49    3.20
   2   1   4   90.49    3.00
  -3  -1  -4  126.89    3.10
  -3  -1  -4  132.09    3.80
   3   1   4  128.59    3.70
  -4  -1  -4  154.18    3.90
  -4  -1  -4  150.48    4.50
   4   1   4  154.08    5.20
   4   1   4  157.88    4.50
  -5  -1  -4    7.60    1.40
  -5  -1  -4    6.70    1.60
   5   1   4    6.80    1.60
   5   1   4    8.70    2.00
  -6  -1  -4   -0.70    0.90
   6   1   4    0.90    1.10
   6   1   4   -0.60    1.20
  -7  -1  -4   43.40    3.50
   7   1   4   38.70    4.50
   8   1   4   14.90    3.10
  -7   2   4   -1.20    1.50
   6  -2  -4    1.90    1.40
   6  -2  -4    2.90    1.90
   5  -2  -4    4.60    1.90
   5  -2  -4    0.40    1.00
  -5   2   4    3.80    1.50
   4  -2  -4    8.30    1.90
   4  -2  -4    9.40    1.80
  -4   2   4    8.00    1.60
   3  -2  -4  526.65   10.30
   3  -2  -4  527.65    9.80
  -3   2   4  523.75    9.70
   2  -2  -4 1729.13   22.30
   2  -2  -4 1743.53   22.00
  -2   2   4 1738.33   21.90
   1  -2  -4 1249.68   16.50
   1  -2  -4 1242.78   16.10
   1  -2  -4 1247.08   16.60
  -1   2   4 1252.17   16.30
   0  -2  -4    2.80    0.80
   0  -2  -4    1.10    0.60
   0  -2  -4    1.90    0.60
   0   2   4    2.10    0.50
   0   2   4    0.50    0.60
  -1  -2  -4  152.18    3.50
  -1  -2  -4  149.69    2.70
  -1  -2  -4  147.89    3.80
   1   2   4  155.88    4.00
   1   2   4  151.78    3.60
  -2  -2  -4   23.00    1.70
  -2  -2  -4   23.00    1.40
   2   2   4   22.50    1.70
   2   2   4   21.90    1.50
  -3  -2  -4  193.38    5.00
  -3  -2  -4  186.18    4.30
   3   2   4  197.38    4.70
   3   2   4  196.18    5.30
  -4  -2  -4  490.35    9.40
  -4  -2  -4  493.95    8.60
   4   2   4  502.25   10.10
   4   2   4  507.45    8.70
  -5  -2  -4  181.18    5.80
  -5  -2  -4  179.18    5.20
   5   2   4  188.98    5.20
   5   2   4  170.38    6.10
  -6  -2  -4   47.80    3.40
  -6  -2  -4   59.89    3.50
   6   2   4   54.59    3.90
  -7  -2  -4   44.50    3.60
   7   2   4   39.30    4.30
  -8  -2  -4    1.30    1.80
   8   2   4    0.30    1.90
   6  -3  -4    6.20    2.40
  -6   3   4   15.40    2.80
   5  -3  -4    3.90    1.40
   5  -3  -4    8.60    2.30
  -5   3   4    6.00    1.80
   4  -3  -4   51.09    3.10
   4  -3  -4   56.69    3.70
  -4   3   4   51.89    3.30
   3  -3  -4  369.36    8.60
   3  -3  -4  367.66    7.90
  -3   3   4  381.06    8.30
   2  -3  -4  202.68    5.50
   2  -3  -4  193.88    5.30
  -2   3   4  205.98    5.50
   1  -3  -4    7.20    1.40
   1  -3  -4    9.10    1.50
   1  -3  -4    5.80    1.10
  -1   3   4    6.20    1.30
   0  -3  -4   14.90    1.60
   0  -3  -4   18.70    1.90
   0  -3  -4   15.90    1.60
   0   3   4   19.00    1.20
   0   3   4   19.00    1.60
  -1  -3  -4  159.78    4.20
  -1  -3  -4  160.48    3.30
  -1  -3  -4  165.08    4.10
   1   3   4  162.18    4.30
   1   3   4  165.58    4.00
  -2  -3  -4  531.35    9.10
  -2  -3  -4  521.85    8.60
   2   3   4  519.15    9.10
   2   3   4  521.05    8.60
  -3  -3  -4  559.84    9.20
  -3  -3  -4  551.84    9.90
   3   3   4  570.44   10.40
   3   3   4  555.24    9.10
  -4  -3  -4  428.66    8.30
  -4  -3  -4  426.26    8.90
   4   3   4  429.36    7.80
   4   3   4  413.86    9.40
  -5  -3  -4  190.68    6.20
  -5  -3  -4  194.98    5.70
   5   3   4  200.58    5.30
   5   3   4  187.88    6.50
  -6  -3  -4   18.70    2.60
  -6  -3  -4   23.70    3.20
   6   3   4   23.50    3.40
  -7  -3  -4    6.20    2.10
   7   3   4    6.00    2.30
   6  -4  -4    1.20    1.70
  -6   4   4    1.30    1.60
   5  -4  -4   15.10    3.00
  -5   4   4   13.90    2.50
   4  -4  -4    9.30    1.80
   4  -4  -4   11.80    2.40
  -4   4   4   10.60    2.10
   3  -4  -4    2.20    1.20
   3  -4  -4    2.20    1.00
   3  -4  -4    5.20    1.50
  -3   4   4    2.60    1.20
   2  -4  -4   37.00    2.50
   2  -4  -4   39.10    2.40
   2  -4  -4   40.60    2.60
  -2   4   4   41.40    2.70
   1  -4  -4   44.90    2.50
   1  -4  -4   50.59    2.60
   1  -4  -4   54.89    2.80
  -1   4   4   47.50    2.60
  -1   4   4   46.70    1.70
   0  -4  -4  195.98    4.70
   0  -4  -4  202.48    5.00
   0  -4  -4  208.48    5.30
   0   4   4  200.68    5.20
   0   4   4  194.38    4.30
  -1  -4  -4  220.08    4.50
  -1  -4  -4  219.18    5.30
  -1  -4  -4  225.98    5.30
   1   4   4  226.28    5.40
   1   4   4  218.78    5.10
  -2  -4  -4  248.68    6.00
  -2  -4  -4  255.27    4.60
  -2  -4  -4  256.07    5.90
   2   4   4  248.88    5.70
   2   4   4  252.27    6.10
  -3  -4  -4   77.79    2.70
  -3  -4  -4   70.89    3.30
  -3  -4  -4   72.99    3.20
   3   4   4   71.79    3.50
   3   4   4   71.09    2.90
  -4  -4  -4   37.80    2.50
  -4  -4  -4   32.30    2.60
   4   4   4   42.50    2.20
   4   4   4   35.50    2.80
  -5  -4  -4    6.40    1.90
  -5  -4  -4    6.00    1.60
   5   4   4    2.90    1.60
  -6  -4  -4    9.80    2.10
  -6  -4  -4   13.70    2.70
   6   4   4   12.10    2.70
  -7  -4  -4   14.80    3.30
  -7  -4  -4   13.00    2.80
   7   4   4   17.00    3.30
   6  -5  -4    1.90    1.90
  -6   5   4    2.30    1.80
   5  -5  -4   26.30    3.70
  -5   5   4   21.50    3.10
   4  -5  -4   47.50    3.70
  -4   5   4   48.10    3.60
   3  -5  -4   39.20    3.10
   3  -5  -4   48.40    2.80
   3  -5  -4   35.70    2.90
  -3   5   4   44.70    3.20
   2  -5  -4   48.70    3.10
   2  -5  -4   49.90    3.10
   2  -5  -4   54.09    3.00
  -2   5   4   49.80    3.10
   1  -5  -4   40.50    2.50
   1  -5  -4   45.90    2.60
   1  -5  -4   43.10    2.70
  -1   5   4   46.90    2.10
  -1   5   4   45.80    2.80
   0  -5  -4  679.33   11.00
   0  -5  -4  660.73   10.80
   0  -5  -4  662.13   11.50
   0   5   4  669.23   11.30
   0   5   4  667.43   10.30
  -1  -5  -4  339.87    7.40
  -1  -5  -4  339.07    6.50
  -1  -5  -4  342.27    7.10
   1   5   4  341.37    7.20
   1   5   4  333.77    7.20
  -2  -5  -4   48.90    2.20
  -2  -5  -4   44.90    2.70
  -2  -5  -4   45.30    2.70
   2   5   4   47.10    2.80
   2   5   4   53.79    2.70
  -3  -5  -4  116.09    4.40
  -3  -5  -4  117.59    4.50
   3   5   4  121.99    3.80
   3   5   4  120.69    4.80
  -4  -5  -4   54.49    3.30
  -4  -5  -4   60.69    3.60
   4   5   4   65.79    3.90
  -5  -5  -4   41.00    3.10
  -5  -5  -4   44.90    3.40
   5   5   4   43.60    4.50
  -6  -5  -4   41.00    4.10
  -6  -5  -4   38.90    4.20
   6   5   4   47.50    5.20
  -7  -5  -4   38.10    4.50
  -7  -5  -4   37.20    4.20
   7   5   4   44.80    5.10
   5  -6  -4   11.00    2.80
  -5   6   4   15.10    2.90
   4  -6  -4   29.30    3.80
  -4   6   4   28.40    3.70
   3  -6  -4    3.20    1.60
   3  -6  -4   -0.50    1.00
  -3   6   4    2.80    1.40
   2  -6  -4   19.30    2.60
   2  -6  -4   17.00    2.60
   2  -6  -4   16.40    2.20
  -2   6   4   21.40    2.80
   1  -6  -4  165.38    5.20
   1  -6  -4  154.28    5.30
   1  -6  -4  159.68    5.50
  -1   6   4  158.68    5.50
   0  -6  -4   82.29    3.50
   0  -6  -4   78.29    3.50
   0  -6  -4   83.59    3.80
   0   6   4   87.09    3.50
   0   6   4   84.99    3.80
  -1  -6  -4   70.99    3.30
  -1  -6  -4   74.29    3.60
  -1  -6  -4   73.09    3.20
   1   6   4   69.59    3.30
   1   6   4   67.69    3.30
  -2  -6  -4   30.50    3.20
  -2  -6  -4   22.80    1.90
  -2  -6  -4   21.90    2.50
   2   6   4   26.70    3.00
   2   6   4   27.90    2.80
  -3  -6  -4  104.69    4.50
  -3  -6  -4   96.49    4.40
   3   6   4  102.69    4.70
  -4  -6  -4   61.59    3.80
  -4  -6  -4   72.49    4.00
   4   6   4   74.79    4.40
  -5  -6  -4  171.48    6.60
  -5  -6  -4  165.98    6.30
   5   6   4  168.18    7.00
  -6  -6  -4   26.50    3.50
  -6  -6  -4   29.00    3.80
   6   6   4   32.40    4.20
  -7  -6  -4   16.90    3.30
  -7  -6  -4   15.60    3.10
   7   6   4   12.80    3.30
   5  -7  -4    2.40    1.70
  -5   7   4    2.20    1.80
   4  -7  -4    0.40    1.20
   4  -7  -4   -0.40    1.10
  -4   7   4    0.20    1.40
   3  -7  -4   11.60    2.50
   3  -7  -4   11.50    2.50
  -3   7   4   11.70    2.50
   2  -7  -4   58.79    3.80
   2  -7  -4   56.69    3.70
  -2   7   4   54.99    3.80
   1  -7  -4   45.30    3.30
   1  -7  -4   55.49    3.50
  -1   7   4   45.30    3.30
   0  -7  -4   12.70    2.20
   0  -7  -4   11.00    1.90
   0  -7  -4   11.50    2.20
   0   7   4   17.00    2.40
   0   7   4   10.60    1.90
  -1  -7  -4  118.89    4.90
  -1  -7  -4  121.49    4.60
  -1  -7  -4  119.79    4.40
   1   7   4  122.49    4.60
   1   7   4  119.99    4.70
  -2  -7  -4   20.80    2.40
  -2  -7  -4   17.10    2.40
  -2  -7  -4   19.00    2.60
   2   7   4   21.90    2.60
   2   7   4   16.90    2.60
  -3  -7  -4    2.70    1.40
  -3  -7  -4    2.60    1.50
   3   7   4    3.60    1.70
  -4  -7  -4   79.69    4.50
  -4  -7  -4   86.09    4.60
   4   7   4   87.59    4.90
  -5  -7  -4   98.49    5.20
  -5  -7  -4  101.09    5.40
   5   7   4   98.19    5.60
  -6  -7  -4    6.00    2.20
  -6  -7  -4    5.60    2.20
   6   7   4    3.50    2.30
   4  -8  -4    4.50    2.30
   4  -8  -4    5.20    2.00
  -4   8   4    5.20    2.20
   3  -8  -4   17.00    2.90
   3  -8  -4   27.00    3.80
   2  -8  -4   12.00    2.60
   2  -8  -4   11.30    2.30
  -2   8   4   12.90    2.70
   1  -8  -4   85.59    4.60
   1  -8  -4   76.79    4.40
  -1   8   4   89.29    4.60
   0  -8  -4   60.09    3.90
   0  -8  -4   53.69    3.60
   0   8   4   54.69    3.60
  -1  -8  -4   17.10    2.50
  -1  -8  -4   19.90    2.90
  -1  -8  -4   20.10    2.70
   1   8   4   19.90    2.80
   1   8   4   17.30    2.70
  -2  -8  -4   37.20    3.10
  -2  -8  -4   35.90    3.80
   2   8   4   45.30    4.50
  -3  -8  -4    4.50    1.80
  -3  -8  -4    3.10    1.60
   3   8   4    4.20    1.90
  -4  -8  -4   30.80    3.90
  -4  -8  -4   30.30    3.90
   4   8   4   26.00    3.70
  -5  -8  -4   25.10    4.00
  -5  -8  -4   18.80    3.30
   5   8   4   20.60    3.60
   3  -9  -4   10.60    2.70
   3  -9  -4    8.90    2.50
  -3   9   4    8.00    2.60
   2  -9  -4    4.10    1.90
   2  -9  -4    3.10    1.90
  -2   9   4    0.20    1.80
   1  -9  -4   17.00    2.90
   1  -9  -4   18.10    3.10
  -1   9   4   20.30    3.20
   0  -9  -4   29.90    3.60
   0  -9  -4   35.70    4.00
   0   9   4   32.60    3.70
  -1  -9  -4   49.50    3.90
  -1  -9  -4   55.49    3.70
   1   9   4   49.00    3.70
  -2  -9  -4   73.59    4.20
  -2  -9  -4   77.79    4.70
   2   9   4   79.09    4.80
  -3  -9  -4    6.70    2.00
   3   9   4    9.70    2.50
  -4  -9  -4    7.80    2.40
  -4  -9  -4    5.40    2.10
   4   9   4   11.90    2.90
   2 -10  -4    0.60    1.50
   2 -10  -4    0.60    1.70
  -2  10   4   -0.90    1.60
   1 -10  -4   -0.90    1.40
   1 -10  -4    0.70    1.50
  -1  10   4    1.10    1.60
   0 -10  -4   26.40    3.70
   0 -10  -4   26.80    3.70
  -1 -10  -4   26.20    3.50
  -2 -10  -4   22.80    3.40
   2  10   4   38.80    4.80
  -3 -10  -4   20.00    3.40
   3  10   4   22.80    3.90
   0  10  -5   33.20    4.80
   0 -10   5   31.30    4.40
   3   9  -5   -1.40    1.40
  -3  -9   5   -0.40    1.70
  -3  -9   5   -1.70    1.60
   2   9  -5   18.20    3.70
  -2  -9   5   21.60    3.30
  -2  -9   5   21.70    3.70
   1   9  -5   27.20    4.20
  -1  -9   5   25.70    3.90
   0   9  -5   12.30    2.80
   0  -9   5   17.20    3.20
  -1   9  -5   25.90    4.00
   1  -9   5   26.10    3.70
  -2   9  -5   17.40    3.30
   2  -9   5   22.80    3.60
  -3   9  -5   27.10    4.30
  -3   9  -5   35.10    4.30
   3  -9   5   26.00    3.90
   4   8  -5   13.30    3.20
  -4  -8   5   11.60    3.00
  -4  -8   5    7.90    2.30
   3   8  -5    4.90    2.00
  -3  -8   5    6.70    2.50
  -3  -8   5    7.70    2.30
   2   8  -5   17.70    3.40
  -2  -8   5   26.30    3.80
  -2  -8   5   18.80    2.90
   1   8  -5   72.49    4.90
  -1  -8   5   68.49    4.50
  -1  -8   5   73.79    7.20
   0   8  -5   37.40    4.40
   0  -8   5   44.50    4.60
  -1   8  -5    6.20    2.20
   1  -8   5    6.50    2.10
  -2   8  -5   -0.10    1.50
   2  -8   5    1.80    1.60
   2  -8   5    2.20    1.50
  -3   8  -5   15.00    3.00
   3  -8   5   14.50    2.70
   3  -8   5   18.90    3.10
  -4   8  -5   22.10    3.70
   4  -8   5   25.10    3.70
   4  -8   5   30.30    3.90
  -5  -7   5    3.70    2.20
  -5  -7   5    4.70    2.50
   4   7  -5   52.39    4.60
   4   7  -5   53.89    4.10
  -4  -7   5   53.99    4.30
  -4  -7   5   57.09    4.60
   3   7  -5   71.19    4.90
   3   7  -5   73.89    4.30
  -3  -7   5   66.79    4.70
  -3  -7   5   57.69    4.10
   2   7  -5   92.89    5.30
  -2  -7   5  108.19    5.00
  -2  -7   5  105.99    5.50
   1   7  -5  187.58    7.20
  -1  -7   5  179.08    6.80
  -1  -7   5  194.78    6.10
   0   7  -5    6.00    1.90
   0  -7   5    8.10    2.00
  -1   7  -5    3.20    1.60
   1  -7   5    1.70    1.30
   1  -7   5    2.70    1.50
  -2   7  -5    3.60    1.80
   2  -7   5    2.50    1.40
   2  -7   5    4.60    1.60
  -3   7  -5   77.39    5.00
   3  -7   5   81.39    4.40
   3  -7   5   77.59    4.40
  -4   7  -5  154.78    7.10
   4  -7   5  159.08    6.40
   4  -7   5  156.88    6.40
  -5   7  -5   10.30    2.70
   5  -7   5   13.40    2.70
   5  -7   5   16.30    3.00
   5   6  -5   24.10    3.70
   5   6  -5   26.40    4.20
  -5  -6   5   18.00    3.20
  -5  -6   5   18.20    3.50
   4   6  -5   12.70    2.70
   4   6  -5   11.50    2.60
  -4  -6   5    8.60    2.40
  -4  -6   5   13.30    2.70
   3   6  -5  119.29    5.80
   3   6  -5  130.89    5.30
  -3  -6   5  122.89    5.50
  -3  -6   5  113.79    5.70
   2   6  -5   29.90    2.50
   2   6  -5   22.60    3.10
  -2  -6   5   23.60    3.00
  -2  -6   5   27.50    3.50
   1   6  -5   21.80    3.10
  -1  -6   5   21.10    2.90
  -1  -6   5   23.90    2.70
   0   6  -5   28.80    3.40
   0  -6   5   31.90    3.30
   0  -6   5   33.00    2.30
  -1   6  -5  167.28    6.30
   1  -6   5  166.38    5.10
   1  -6   5  158.48    5.70
  -2   6  -5  130.89    5.80
   2  -6   5  125.09    4.80
   2  -6   5  135.39    5.20
  -3   6  -5   31.70    3.80
   3  -6   5   37.40    3.00
   3  -6   5   35.50    3.60
  -4   6  -5  102.89    5.60
   4  -6   5   89.69    4.70
   4  -6   5   96.69    4.70
  -5   6  -5   28.20    3.90
   5  -6   5   32.10    3.70
   5  -6   5   35.70    3.90
  -6   6  -5    3.70    1.90
   6  -6   5   11.10    2.80
   6   5  -5   21.00    3.50
  -6  -5   5   21.30    3.80
  -6  -5   5   25.40    4.30
   5   5  -5   32.60    3.90
  -5  -5   5   43.40    5.00
  -5  -5   5   32.20    4.00
   4   5  -5    0.50    1.40
   4   5  -5   -0.60    1.00
  -4  -5   5    0.80    1.50
  -4  -5   5    1.00    1.40
   3   5  -5   11.30    2.20
   3   5  -5   11.80    2.30
  -3  -5   5   11.60    2.50
  -3  -5   5    8.10    2.00
   2   5  -5    0.90    1.00
   2   5  -5    0.10    1.00
  -2  -5   5   -0.30    1.00
  -2  -5   5   -0.10    1.10
   1   5  -5   46.60    2.50
   1   5  -5   52.89    3.40
  -1  -5   5   49.20    2.80
  -1  -5   5   50.19    3.30
   0   5  -5  346.77    6.70
   0   5  -5  325.17    8.50
   0  -5   5  339.37    6.80
   0  -5   5  337.57    6.50
   0  -5   5  331.77    8.10
  -1   5  -5  244.78    7.40
   1  -5   5  270.27    6.80
   1  -5   5  261.57    6.10
  -2   5  -5   63.19    3.80
   2  -5   5   62.09    3.20
   2  -5   5   58.19    3.20
  -3   5  -5   24.00    3.30
   3  -5   5   22.20    2.70
   3  -5   5   24.20    2.80
  -4   5  -5    5.10    1.80
   4  -5   5    1.90    1.30
   4  -5   5    6.00    1.70
  -5   5  -5   37.30    4.40
   5  -5   5   37.10    3.80
   5  -5   5   42.20    3.20
  -6   5  -5   18.10    3.60
   6  -5   5   16.10    3.00
   6   4  -5   32.60    4.20
  -6  -4   5   40.70    5.10
  -6  -4   5   37.90    4.70
   5   4  -5   39.30    4.10
  -5  -4   5   34.40    4.00
  -5  -4   5   45.10    4.90
   4   4  -5   23.20    3.00
   4   4  -5   29.80    3.60
  -4  -4   5   24.70    3.40
  -4  -4   5   30.70    3.80
   3   4  -5   34.80    2.80
   3   4  -5   35.10    2.80
  -3  -4   5   35.70    3.60
  -3  -4   5   33.50    3.60
   2   4  -5   32.90    2.70
   2   4  -5   33.00    2.40
  -2  -4   5   32.80    2.80
  -2  -4   5   37.40    2.60
   1   4  -5   45.40    2.90
   1   4  -5   42.40    2.40
  -1  -4   5   37.60    2.70
  -1  -4   5   40.60    2.30
  -1  -4   5   40.70    1.80
   0   4  -5  743.13   10.60
   0   4  -5  713.23   12.80
   0  -4   5  722.33   10.60
   0  -4   5  732.63   10.70
   0  -4   5  725.13   12.20
  -1   4  -5  192.28    6.00
   1  -4   5  204.98    4.00
   1  -4   5  210.58    5.20
   1  -4   5  208.48    5.50
  -2   4  -5   67.29    3.70
   2  -4   5   70.59    3.20
   2  -4   5   73.19    3.20
  -3   4  -5   11.20    2.10
   3  -4   5   10.10    1.80
   3  -4   5   13.00    2.00
  -4   4  -5   17.40    2.90
   4  -4   5   12.70    2.00
   4  -4   5   15.00    2.30
  -5   4  -5  129.19    6.20
   5  -4   5  153.48    5.90
   5  -4   5  146.69    5.90
  -6   4  -5   42.10    4.90
   6  -4   5   50.69    4.00
  -7   4  -5   17.00    3.50
   7  -4   5   19.90    3.40
   6   3  -5   13.40    2.90
  -6  -3   5   18.00    3.10
  -6  -3   5   14.80    3.10
   5   3  -5   54.19    3.90
  -5  -3   5   59.19    4.20
  -5  -3   5   64.99    4.50
   4   3  -5  134.99    6.50
   4   3  -5  123.69    5.30
  -4  -3   5  131.19    5.50
  -4  -3   5  135.19    5.80
   3   3  -5    0.10    0.90
   3   3  -5    0.30    1.00
  -3  -3   5    0.70    1.10
  -3  -3   5    0.50    1.20
   2   3  -5   70.39    3.30
   2   3  -5   69.19    3.20
  -2  -3   5   67.89    3.20
  -2  -3   5   69.39    3.60
   1   3  -5  199.08    5.00
   1   3  -5  194.08    5.40
  -1  -3   5  190.88    5.50
  -1  -3   5  196.58    4.10
  -1  -3   5  193.18    4.80
   0   3  -5  529.85    8.40
   0   3  -5  546.25   10.00
   0  -3   5  534.55    8.00
   0  -3   5  522.75    8.30
   0  -3   5  530.65    9.40
  -1   3  -5  171.78    5.20
  -1   3  -5  177.18    3.70
   1  -3   5  173.78    4.50
   1  -3   5  179.08    3.20
   1  -3   5  181.58    4.70
  -2   3  -5  246.88    6.70
   2  -3   5  245.38    6.00
   2  -3   5  252.37    5.60
  -3   3  -5  216.88    6.70
   3  -3   5  225.08    5.30
   3  -3   5  221.08    6.00
  -4   3  -5   89.99    4.60
   4  -3   5   94.29    4.20
   4  -3   5   94.99    3.60
  -5   3  -5   35.50    4.00
   5  -3   5   38.40    3.70
  -6   3  -5   50.69    4.20
   6  -3   5   50.59    3.70
  -7   3  -5   25.20    4.10
   7  -3   5   26.60    3.70
   6   2  -5   25.50    3.80
  -6  -2   5   17.50    3.30
   5   2  -5   12.50    2.40
  -5  -2   5   11.10    2.60
   4   2  -5   33.00    3.60
  -4  -2   5   26.70    3.40
   3   2  -5   34.50    2.50
   3   2  -5   38.70    2.30
  -3  -2   5   29.90    3.10
   2   2  -5  385.36    7.40
   2   2  -5  396.16    8.10
  -2  -2   5  381.16    6.40
  -2  -2   5  396.26    8.50
   1   2  -5   47.70    2.40
   1   2  -5   46.50    2.40
  -1  -2   5   47.70    2.00
  -1  -2   5   43.30    2.50
   0   2  -5    0.90    0.70
   0   2  -5    0.40    0.60
   0  -2   5    0.20    0.60
   0  -2   5    0.20    0.50
  -1   2  -5  414.06    6.80
  -1   2  -5  411.26    8.10
   1  -2   5  410.86    7.30
   1  -2   5  430.26    7.20
  -2   2  -5   25.30    1.40
  -2   2  -5   23.60    2.00
   2  -2   5   24.90    1.60
   2  -2   5   29.70    2.00
  -3   2  -5   37.00    2.70
  -3   2  -5   35.60    1.70
   3  -2   5   36.70    2.00
   3  -2   5   36.60    2.30
  -4   2  -5   62.79    3.70
   4  -2   5   67.49    2.70
   4  -2   5   59.09    3.20
  -5   2  -5   31.40    3.60
   5  -2   5   34.20    2.80
  -6   2  -5   54.49    4.20
   6  -2   5   66.69    4.00
  -7   2  -5    7.90    2.40
   7  -2   5    9.30    2.40
   6   1  -5   10.90    2.60
  -6  -1   5   11.60    2.80
   5   1  -5   13.80    2.70
  -5  -1   5    7.80    2.20
   4   1  -5   96.49    4.50
  -4  -1   5  110.69    5.10
   3   1  -5  208.88    5.80
   3   1  -5  188.98    5.80
  -3  -1   5  194.48    6.20
  -3  -1   5  198.88    4.70
   2   1  -5   30.00    1.70
   2   1  -5   29.40    2.10
  -2  -1   5   32.40    2.30
  -2  -1   5   30.50    1.80
   1   1  -5   83.19    3.10
   1   1  -5   81.39    2.70
  -1  -1   5   82.09    3.20
  -1  -1   5   80.59    2.70
   0   1  -5    5.50    1.00
   0   1  -5    4.00    1.00
   0  -1   5    3.60    0.80
   0  -1   5    2.00    0.80
  -1   1  -5  564.94    8.80
  -1   1  -5  588.04    9.60
   1  -1   5  580.94    8.20
   1  -1   5  582.84    9.20
  -2   1  -5  217.28    4.50
  -2   1  -5  233.58    5.90
   2  -1   5  225.28    4.10
   2  -1   5  230.78    5.30
  -3   1  -5  215.38    6.10
  -3   1  -5  212.18    4.50
   3  -1   5  212.18    4.10
   3  -1   5  215.28    5.50
  -4   1  -5   65.19    2.70
  -4   1  -5   55.29    3.40
   4  -1   5   60.09    3.10
  -5   1  -5   57.89    2.80
  -5   1  -5   61.09    3.80
   5  -1   5   56.79    3.30
  -6   1  -5   49.99    3.90
   6  -1   5   46.60    3.40
  -7   1  -5   25.80    3.70
   7  -1   5   34.20    3.90
   6   0  -5   16.10    2.90
  -6   0   5   14.40    3.00
   5   0  -5   74.69    4.30
  -5   0   5   76.89    4.80
   4   0  -5   74.19    3.90
  -4   0   5   78.19    3.40
  -4   0   5   81.19    4.50
   3   0  -5   60.19    3.20
  -3   0   5   61.79    2.80
  -3   0   5   64.19    3.60
   2   0  -5   81.19    2.20
   2   0  -5   86.19    3.50
  -2   0   5   86.99    3.60
  -2   0   5   82.39    3.00
   1   0  -5  438.76    6.50
   1   0  -5  455.05    8.30
  -1   0   5  468.15    8.20
  -1   0   5  454.25    7.80
   0   0  -5   31.00    1.60
   0   0  -5   33.50    2.00
   0   0   5   30.00    1.80
   0   0   5   29.70    1.60
  -1   0  -5 1020.50   13.70
  -1   0  -5  992.90   13.40
   1   0   5 1012.80   12.00
   1   0   5  995.20   13.90
  -2   0  -5 1660.13   20.90
  -2   0  -5 1616.64   19.80
   2   0   5 1648.34   20.60
  -3   0  -5  195.08    4.70
   3   0   5  206.88    5.70
   3   0   5  194.98    5.00
  -4   0  -5    1.90    0.90
   4   0   5    1.70    0.90
   4   0   5    1.10    0.90
  -5   0  -5   29.30    2.30
   5   0   5   32.00    3.40
   5   0   5   34.70    2.60
  -6   0  -5   68.99    3.60
   6   0   5   67.59    3.80
   6   0   5   64.29    4.30
   7   0   5   88.79    4.70
   7   0   5   92.79    5.60
  -8   0  -5   33.40    4.40
   6  -1  -5   11.30    2.50
  -6   1   5   10.30    2.70
   5  -1  -5   47.20    3.50
  -5   1   5   51.19    4.00
   4  -1  -5   43.40    3.10
   4  -1  -5   51.89    3.60
  -4   1   5   46.20    2.90
   3  -1  -5  215.18    6.10
   3  -1  -5  209.88    6.30
  -3   1   5  219.48    5.70
   2  -1  -5   18.40    2.20
   2  -1  -5   21.10    2.30
  -2   1   5   21.20    2.10
   1  -1  -5    0.20    0.60
   1  -1  -5    1.70    0.80
   1  -1  -5    1.20    0.40
  -1   1   5    0.70    0.70
   0  -1  -5  255.57    5.70
   0  -1  -5  250.37    4.50
   0  -1  -5  261.87    5.20
   0   1   5  245.78    5.50
   0   1   5  247.98    4.90
  -1  -1  -5    1.40    0.70
  -1  -1  -5    2.10    0.60
   1   1   5    0.60    0.60
   1   1   5    1.50    0.50
   1   1   5    0.70    0.60
  -2  -1  -5  476.15    8.10
  -2  -1  -5  477.35    6.80
   2   1   5  483.45    8.50
   2   1   5  496.15    8.60
  -3  -1  -5  306.07    5.20
  -3  -1  -5  311.47    6.50
   3   1   5  305.87    7.10
   3   1   5  310.77    6.60
  -4  -1  -5    9.60    1.30
  -4  -1  -5    9.90    1.60
   4   1   5    9.10    1.60
   4   1   5   12.40    2.10
  -5  -1  -5    0.40    0.90
   5   1   5    0.20    1.10
   5   1   5    0.20    0.90
  -6  -1  -5   63.99    3.70
   6   1   5   49.80    3.80
   6   1   5   56.09    3.40
  -7  -1  -5   90.89    4.70
   7   1   5   78.29    5.10
   8   1   5   20.50    3.60
   6  -2  -5    0.10    1.30
  -6   2   5   -0.30    1.50
   5  -2  -5   16.20    2.90
   5  -2  -5    6.60    1.70
  -5   2   5   14.70    2.50
   4  -2  -5   78.49    4.30
   4  -2  -5   76.49    4.00
  -4   2   5   75.59    3.80
   3  -2  -5  178.68    5.80
   3  -2  -5  186.18    5.80
  -3   2   5  173.68    5.40
   2  -2  -5   22.00    2.50
   2  -2  -5   19.00    2.20
  -2   2   5   16.90    2.00
   1  -2  -5   28.60    2.00
   1  -2  -5   26.60    1.80
   1  -2  -5   31.40    2.10
  -1   2   5   31.10    2.10
   0  -2  -5   59.09    2.70
   0  -2  -5   57.39    2.20
   0  -2  -5   57.89    2.40
   0   2   5   55.29    1.80
   0   2   5   56.49    2.60
  -1  -2  -5   82.19    2.70
  -1  -2  -5   91.59    3.20
  -1  -2  -5   85.29    2.10
   1   2   5   84.09    2.70
   1   2   5   89.69    3.20
  -2  -2  -5  523.05    8.00
  -2  -2  -5  525.25    9.00
   2   2   5  533.95    9.10
   2   2   5  509.55    8.90
  -3  -2  -5  388.56    6.80
  -3  -2  -5  395.96    7.90
   3   2   5  395.06    8.30
   3   2   5  399.96    7.80
  -4  -2  -5  303.57    6.00
  -4  -2  -5  287.47    6.90
   4   2   5  286.17    7.40
   4   2   5  286.77    6.50
  -5  -2  -5   15.50    2.00
  -5  -2  -5   12.90    2.10
   5   2   5   16.10    2.20
   5   2   5   14.60    2.60
  -6  -2  -5   21.10    2.90
   6   2   5   18.10    2.50
   6   2   5   14.60    2.60
  -7  -2  -5   18.10    3.00
   7   2   5   19.60    3.50
  -8  -2  -5   10.70    2.60
   8   2   5    5.20    2.30
   6  -3  -5    5.40    2.00
   6  -3  -5    6.10    2.30
  -6   3   5    6.70    2.20
   5  -3  -5    6.80    2.10
   5  -3  -5    6.80    1.90
  -5   3   5    4.30    1.70
   4  -3  -5   70.49    3.80
   4  -3  -5   71.79    4.20
  -4   3   5   68.99    3.90
   3  -3  -5  156.08    5.30
   3  -3  -5  153.88    5.50
  -3   3   5  160.08    5.40
   2  -3  -5  498.65    9.70
   2  -3  -5  499.25    9.70
   2  -3  -5  491.15    9.90
  -2   3   5  494.35    9.60
   1  -3  -5   70.19    3.00
   1  -3  -5   74.99    3.20
   1  -3  -5   73.19    3.30
  -1   3   5   68.99    3.10
   0  -3  -5   82.09    3.30
   0  -3  -5   80.09    2.70
   0  -3  -5   80.99    3.10
   0   3   5   82.89    3.30
   0   3   5   77.99    2.30
  -1  -3  -5  342.17    7.00
  -1  -3  -5  323.97    5.30
  -1  -3  -5  331.97    6.40
   1   3   5  325.67    6.20
   1   3   5  331.77    7.00
  -2  -3  -5    1.40    0.80
  -2  -3  -5    1.40    0.80
   2   3   5    0.70    0.80
   2   3   5    0.20    0.70
  -3  -3  -5  421.66    8.60
  -3  -3  -5  402.66    7.60
   3   3   5  417.76    8.80
   3   3   5  413.36    8.00
  -4  -3  -5  997.30   14.40
  -4  -3  -5  991.80   15.60
   4   3   5  982.40   14.50
   4   3   5 1001.30   16.30
  -5  -3  -5   35.50    2.80
  -5  -3  -5   45.70    2.80
   5   3   5   39.60    2.60
   5   3   5   38.90    3.30
  -6  -3  -5    1.20    1.40
   6   3   5    1.30    1.60
  -7  -3  -5    7.60    2.30
   7   3   5    7.10    2.40
   6  -4  -5    4.80    2.10
  -6   4   5    5.20    2.20
   5  -4  -5   17.10    4.20
   5  -4  -5   20.40    3.30
  -5   4   5   19.00    3.00
   4  -4  -5   19.10    2.90
   4  -4  -5   25.30    3.00
  -4   4   5   21.60    3.00
   3  -4  -5   12.80    2.10
   3  -4  -5   17.30    2.70
  -3   4   5   15.70    2.50
   2  -4  -5  127.69    4.90
   2  -4  -5  131.99    4.80
   2  -4  -5  129.39    4.60
  -2   4   5  125.49    4.80
   1  -4  -5   88.09    3.70
   1  -4  -5   88.39    3.70
   1  -4  -5   90.39    3.50
  -1   4   5   89.59    3.80
   0  -4  -5   60.69    3.00
   0  -4  -5   61.49    2.90
   0  -4  -5   59.09    2.60
   0   4   5   57.89    2.20
   0   4   5   64.09    3.00
  -1  -4  -5   24.10    1.90
  -1  -4  -5   17.50    1.30
  -1  -4  -5   23.50    2.30
   1   4   5   21.10    2.10
   1   4   5   25.40    2.50
  -2  -4  -5    1.90    1.00
  -2  -4  -5    3.10    1.10
  -2  -4  -5    4.40    0.80
   2   4   5    4.10    1.30
   2   4   5    4.50    1.30
  -3  -4  -5  415.86    8.30
  -3  -4  -5  419.66    8.90
   3   4   5  434.06    8.40
   3   4   5  419.46    9.10
  -4  -4  -5   61.39    3.20
  -4  -4  -5   63.79    3.50
   4   4   5   63.99    3.80
   4   4   5   67.69    3.20
  -5  -4  -5   63.09    3.80
  -5  -4  -5   57.59    3.30
   5   4   5   65.79    4.20
  -6  -4  -5    3.40    1.70
  -6  -4  -5    5.30    1.80
   6   4   5    3.70    1.90
  -7  -4  -5    4.90    2.20
   7   4   5    7.60    2.50
   5  -5  -5   -0.50    1.30
  -5   5   5   -0.50    1.50
   4  -5  -5    1.20    1.40
  -4   5   5    0.40    1.40
   3  -5  -5    4.90    1.70
   3  -5  -5    3.70    1.40
   3  -5  -5    5.60    1.70
  -3   5   5    4.70    1.80
   2  -5  -5   38.50    2.90
   2  -5  -5   36.30    2.90
   2  -5  -5   36.00    2.70
  -2   5   5   42.50    3.10
   1  -5  -5  223.98    6.30
   1  -5  -5  239.28    6.30
   1  -5  -5  241.58    6.70
  -1   5   5  236.88    6.70
   0  -5  -5  102.29    4.10
   0  -5  -5  101.99    3.60
   0  -5  -5  104.89    4.10
   0   5   5  108.19    3.40
   0   5   5  100.19    4.10
  -1  -5  -5  164.18    5.10
  -1  -5  -5  167.28    5.20
  -1  -5  -5  169.98    4.40
   1   5   5  168.08    5.20
   1   5   5  163.78    4.80
  -2  -5  -5   91.69    3.20
  -2  -5  -5   77.19    3.50
  -2  -5  -5   79.89    3.70
   2   5   5   72.89    3.50
   2   5   5   85.79    3.60
  -3  -5  -5    0.20    0.80
  -3  -5  -5    2.10    1.20
   3   5   5    2.00    1.30
   3   5   5    0.20    1.00
  -4  -5  -5    1.10    1.20
  -4  -5  -5    0.00    1.00
   4   5   5    0.00    1.10
  -5  -5  -5  226.58    7.40
  -5  -5  -5  237.08    7.00
   5   5   5  234.28    8.00
  -6  -5  -5    8.80    2.10
  -6  -5  -5    5.50    2.00
   6   5   5    8.10    2.50
  -7  -5  -5   15.70    3.20
   7   5   5   12.90    3.20
   5  -6  -5    0.10    1.50
  -5   6   5   -0.40    1.70
   4  -6  -5   10.00    2.60
  -4   6   5    8.40    2.30
   3  -6  -5   44.80    3.60
   3  -6  -5   57.29    3.90
  -3   6   5   57.59    4.00
   2  -6  -5   63.69    3.90
   2  -6  -5   64.39    3.60
   2  -6  -5   64.29    3.80
  -2   6   5   68.39    4.00
   1  -6  -5  156.78    5.70
   1  -6  -5  160.28    5.40
   1  -6  -5  169.38    5.50
  -1   6   5  157.88    5.70
   0  -6  -5  207.68    6.10
   0  -6  -5  215.38    5.90
   0  -6  -5  222.58    6.60
   0   6   5  223.08    5.70
   0   6   5  227.78    6.60
  -1  -6  -5   70.69    3.50
  -1  -6  -5   64.49    3.50
  -1  -6  -5   66.59    3.00
   1   6   5   65.99    3.50
   1   6   5   66.99    3.30
  -2  -6  -5   15.40    2.30
  -2  -6  -5   17.60    2.60
   2   6   5   13.30    2.10
   2   6   5   14.80    2.20
  -3  -6  -5   15.50    2.60
  -3  -6  -5   11.60    2.30
   3   6   5   15.40    2.10
   3   6   5   17.90    2.70
  -4  -6  -5  112.39    4.90
  -4  -6  -5  107.49    5.10
   4   6   5  106.19    5.20
  -5  -6  -5  121.79    5.70
  -5  -6  -5  122.09    5.30
   5   6   5  115.09    5.90
  -6  -6  -5   69.79    4.50
  -6  -6  -5   66.99    4.70
   6   6   5   66.69    5.00
   4  -7  -5   16.30    3.20
  -4   7   5   13.20    2.80
   3  -7  -5   80.89    4.90
   3  -7  -5   82.09    4.90
  -3   7   5   81.79    5.00
   2  -7  -5    3.80    1.70
   2  -7  -5    2.10    1.50
  -2   7   5    2.00    1.60
   1  -7  -5   11.30    2.20
   1  -7  -5   16.20    2.50
   1  -7  -5   12.30    2.30
  -1   7   5   15.00    2.60
   0  -7  -5   22.20    2.80
   0  -7  -5   18.20    2.70
   0  -7  -5   17.80    2.50
   0   7   5   21.10    2.80
  -1  -7  -5   17.60    2.50
  -1  -7  -5   21.20    2.80
  -1  -7  -5   22.70    2.60
   1   7   5   20.20    2.70
   1   7   5   24.90    2.90
  -2  -7  -5   43.80    3.10
  -2  -7  -5   43.70    3.20
   2   7   5   40.00    3.10
   2   7   5   40.40    2.90
  -3  -7  -5   24.90    3.20
  -3  -7  -5   29.40    3.50
   3   7   5   26.20    3.30
  -4  -7  -5  104.99    5.20
  -4  -7  -5  103.59    5.20
   4   7   5  120.09    5.80
  -5  -7  -5   36.80    4.30
  -5  -7  -5   41.70    4.40
   5   7   5   37.20    4.40
  -6  -7  -5   61.09    4.40
  -6  -7  -5   53.39    4.50
   6   7   5   61.19    4.90
   4  -8  -5    0.80    1.60
   4  -8  -5   -0.60    1.60
  -4   8   5    0.90    1.90
   3  -8  -5    3.30    2.00
   3  -8  -5    5.80    2.00
  -3   8   5    3.90    2.10
   2  -8  -5   10.20    2.30
   2  -8  -5   14.70    2.90
  -2   8   5   19.30    3.20
   1  -8  -5   21.60    3.10
   1  -8  -5   19.60    3.00
  -1   8   5   17.60    2.80
   0  -8  -5    7.50    2.00
   0  -8  -5    6.60    2.00
   0  -8  -5    6.80    1.80
   0   8   5    5.90    1.90
  -1  -8  -5   40.20    3.00
  -1  -8  -5   42.50    3.20
  -1  -8  -5   44.10    3.40
   1   8   5   40.30    3.20
   1   8   5   42.80    3.30
  -2  -8  -5   24.60    3.10
  -2  -8  -5   23.60    3.30
   2   8   5   26.30    3.50
  -3  -8  -5   23.30    3.10
  -3  -8  -5   30.80    3.90
   3   8   5   30.60    3.90
  -4  -8  -5   23.50    3.50
  -4  -8  -5   24.50    3.60
   4   8   5   31.10    4.10
  -5  -8  -5    1.10    1.60
  -5  -8  -5    2.50    2.00
   5   8   5    0.90    1.70
   3  -9  -5    6.70    2.10
   3  -9  -5    9.20    2.90
  -3   9   5    9.20    2.80
   2  -9  -5   66.99    4.80
   2  -9  -5   54.89    4.40
  -2   9   5   54.89    4.50
   1  -9  -5   16.70    3.10
   1  -9  -5   15.00    2.90
  -1   9   5   15.00    3.00
   0  -9  -5   17.60    2.90
   0  -9  -5   11.80    2.60
   0   9   5   19.30    3.20
  -1  -9  -5   38.50    4.20
  -2  -9  -5   42.90    3.50
  -2  -9  -5   45.40    4.70
   2   9   5   43.10    3.80
  -3  -9  -5   16.40    3.20
  -3  -9  -5   14.20    2.90
   3   9   5   18.20    3.30
  -4  -9  -5    1.50    1.70
  -4  -9  -5    3.10    1.70
   4   9   5    1.80    1.60
   1 -10  -5    7.70    2.50
   1 -10  -5    7.30    2.40
  -1  10   5    6.50    2.50
   0 -10  -5   33.70    4.10
   0 -10  -5   38.00    4.30
  -1 -10  -5   12.60    2.80
  -2 -10  -5   32.30    4.30
   2  10   5   31.90    5.80
  -3 -10  -5   12.10    2.80
  -3 -10  -5    9.60    2.60
   3  10   5   12.30    3.00
   2   9  -6   20.10    3.90
  -2  -9   6   14.30    3.30
   1   9  -6   31.70    4.70
  -1  -9   6   38.70    4.80
   0   9  -6   21.30    3.80
   0  -9   6   21.30    3.60
  -1   9  -6   13.80    2.90
   1  -9   6   24.00    3.80
  -2   9  -6   24.60    4.20
   2  -9   6   16.90    3.10
   3   8  -6   15.70    3.40
  -3  -8   6   16.50    3.10
  -3  -8   6   14.10    3.10
   2   8  -6   10.50    2.80
  -2  -8   6    3.60    1.90
   1   8  -6   43.00    5.00
  -1  -8   6   36.40    4.30
   0   8  -6    2.70    1.90
   0  -8   6    2.80    1.70
  -1   8  -6   29.10    4.30
   1  -8   6   20.10    3.20
  -2   8  -6   23.80    3.80
   2  -8   6   29.20    3.70
  -3   8  -6    6.30    2.30
   3  -8   6   10.10    2.50
   3  -8   6    8.00    2.40
  -4   8  -6   30.80    4.60
   4  -8   6   33.60    4.20
   4  -8   6   30.90    4.00
   4   7  -6   11.90    2.90
   4   7  -6    8.80    2.70
  -4  -7   6    7.10    2.60
  -4  -7   6   10.20    2.80
   3   7  -6   52.59    5.80
   3   7  -6   49.50    4.30
  -3  -7   6   55.79    4.60
   2   7  -6   23.50    3.60
  -2  -7   6   17.80    3.20
  -2  -7   6   24.90    3.40
   1   7  -6   68.49    4.60
  -1  -7   6   69.99    4.50
   0   7  -6    8.00    2.20
   0  -7   6   15.50    2.70
  -1   7  -6    8.20    2.30
   1  -7   6   10.30    2.30
  -2   7  -6   14.10    2.80
   2  -7   6   13.60    2.30
   2  -7   6   13.50    2.60
  -3   7  -6   56.79    4.50
   3  -7   6   47.60    3.70
   3  -7   6   57.69    3.90
  -4   7  -6   27.30    4.00
   4  -7   6   30.20    3.70
   4  -7   6   34.30    3.90
  -5   7  -6   14.90    3.50
   5  -7   6   15.80    3.00
   5   6  -6   13.00    3.00
  -5  -6   6   17.00    3.50
  -5  -6   6   13.70    3.30
   4   6  -6   21.80    3.60
   4   6  -6   26.80    3.60
  -4  -6   6   24.40    3.80
  -4  -6   6   22.60    3.40
   3   6  -6  112.09    5.80
   3   6  -6  130.29    5.50
  -3  -6   6  119.69    6.00
  -3  -6   6  125.29    5.60
   2   6  -6   71.79    4.50
   2   6  -6   72.59    3.80
  -2  -6   6   71.19    4.50
  -2  -6   6   70.99    4.00
   1   6  -6   30.10    3.70
  -1  -6   6   26.50    3.40
  -1  -6   6   26.30    2.80
   0   6  -6  160.48    6.40
   0  -6   6  171.38    6.20
  -1   6  -6   37.30    4.20
   1  -6   6   40.00    2.70
   1  -6   6   38.90    3.00
  -2   6  -6    6.60    2.10
   2  -6   6    4.30    1.60
   2  -6   6    5.20    1.60
  -3   6  -6   71.09    4.70
   3  -6   6   83.39    4.30
   3  -6   6   81.89    4.30
  -4   6  -6  102.09    5.80
   4  -6   6   99.69    5.10
   4  -6   6   94.79    4.70
  -5   6  -6   62.89    5.00
   5  -6   6   73.29    4.70
  -6   6  -6    9.40    2.80
   6  -6   6    5.50    2.20
   5   5  -6   18.90    3.40
  -5  -5   6   21.70    4.00
  -5  -5   6   20.90    3.40
   4   5  -6    5.80    2.00
   4   5  -6    2.60    1.60
  -4  -5   6    1.70    1.60
  -4  -5   6   -0.20    1.40
   3   5  -6    0.90    1.30
   3   5  -6   -1.60    0.90
  -3  -5   6   -0.70    1.20
  -3  -5   6    1.20    1.50
   2   5  -6   26.20    3.20
   2   5  -6   29.90    3.10
  -2  -5   6   23.90    2.80
  -2  -5   6   25.40    3.20
   1   5  -6   53.99    2.90
   1   5  -6   55.19    3.60
  -1  -5   6   55.89    3.60
  -1  -5   6   54.39    3.20
   0   5  -6  333.37    8.90
   0  -5   6  344.37    8.50
   0  -5   6  336.37    6.80
  -1   5  -6   32.20    3.50
   1  -5   6   32.10    2.60
   1  -5   6   31.60    2.30
  -2   5  -6   13.20    2.40
   2  -5   6   14.70    2.10
   2  -5   6   17.70    2.50
  -3   5  -6   21.00    3.00
   3  -5   6   21.40    2.70
   3  -5   6   18.30    2.50
  -4   5  -6   72.79    4.70
   4  -5   6   72.19    4.10
   4  -5   6   67.29    3.70
  -5   5  -6   43.20    4.70
   5  -5   6   49.50    3.80
  -6   5  -6   16.20    3.20
   6  -5   6   19.30    3.30
   6   4  -6   35.40    4.30
  -6  -4   6   34.40    4.70
  -6  -4   6   25.90    4.10
   5   4  -6    4.00    1.80
  -5  -4   6    2.30    2.00
  -5  -4   6    3.80    2.10
   4   4  -6    9.40    2.20
  -4  -4   6    6.50    2.10
  -4  -4   6   10.40    2.50
   3   4  -6    2.90    1.50
   3   4  -6    2.20    1.30
  -3  -4   6    2.50    1.70
  -3  -4   6    1.00    1.20
   2   4  -6  256.17    7.20
   2   4  -6  253.17    6.90
  -2  -4   6  251.47    7.50
  -2  -4   6  270.17    6.90
   1   4  -6  238.68    6.00
   1   4  -6  233.48    6.80
  -1  -4   6  243.18    6.90
  -1  -4   6  243.28    6.00
   0   4  -6  174.38    4.50
   0   4  -6  166.08    5.70
   0  -4   6  171.58    5.40
   0  -4   6  165.88    4.40
   0  -4   6  168.38    4.30
  -1   4  -6  248.38    7.20
   1  -4   6  247.68    6.00
   1  -4   6  263.77    6.50
  -2   4  -6   88.49    4.40
   2  -4   6   85.29    3.70
   2  -4   6   90.99    3.70
  -3   4  -6   99.19    4.90
   3  -4   6  102.39    4.00
   3  -4   6   92.19    4.20
  -4   4  -6    2.20    1.40
   4  -4   6    1.50    1.20
   4  -4   6    0.40    1.00
  -5   4  -6   91.49    5.40
   5  -4   6   74.09    4.40
  -6   4  -6   68.59    5.10
   6  -4   6   71.99    4.70
  -7   4  -6   17.50    3.60
   7  -4   6   22.70    3.50
   6   3  -6   13.70    2.90
  -6  -3   6   19.80    3.80
  -6  -3   6   17.90    3.40
   5   3  -6   15.60    2.90
  -5  -3   6    8.20    2.50
  -5  -3   6   14.60    2.90
   4   3  -6   88.19    4.60
  -4  -3   6   86.69    5.00
  -4  -3   6   88.39    4.70
   3   3  -6  113.89    4.40
   3   3  -6  112.39    4.80
  -3  -3   6  107.89    5.10
  -3  -3   6  107.59    4.70
   2   3  -6  236.58    6.30
   2   3  -6  218.18    6.20
  -2  -3   6  233.98    6.90
  -2  -3   6  233.78    6.30
   1   3  -6  237.28    6.00
   1   3  -6  238.18    6.40
  -1  -3   6  259.77    5.90
  -1  -3   6  249.08    5.20
  -1  -3   6  263.37    6.80
   0   3  -6   15.00    2.10
   0   3  -6   22.30    2.20
   0  -3   6   19.80    2.30
   0  -3   6   15.80    1.70
   0  -3   6   17.00    1.70
  -1   3  -6  210.08    4.70
  -1   3  -6  208.18    6.10
   1  -3   6  208.88    5.30
   1  -3   6  201.48    5.20
  -2   3  -6   81.79    2.70
  -2   3  -6   84.09    4.00
   2  -3   6   82.89    3.50
   2  -3   6   82.69    3.20
  -3   3  -6   20.20    2.70
   3  -3   6   23.90    2.00
   3  -3   6   23.00    2.60
  -4   3  -6   65.39    4.10
   4  -3   6   66.59    3.70
  -5   3  -6  137.99    6.40
   5  -3   6  137.69    5.60
  -6   3  -6  117.79    6.40
   6  -3   6  120.69    5.60
  -7   3  -6   10.30    2.80
   7  -3   6   15.10    2.90
   6   2  -6   19.30    3.50
  -6  -2   6   11.60    3.00
   5   2  -6   33.30    4.20
  -5  -2   6   31.80    4.00
   4   2  -6  166.88    6.30
  -4  -2   6  166.58    6.50
   3   2  -6   61.39    3.50
  -3  -2   6   65.19    3.90
   2   2  -6    1.70    1.00
   2   2  -6    0.70    0.80
  -2  -2   6    0.50    0.70
  -2  -2   6    0.70    1.00
   1   2  -6   11.10    1.60
   1   2  -6    9.60    1.50
  -1  -2   6   14.50    2.10
  -1  -2   6    8.50    1.30
   0   2  -6    8.60    1.50
   0   2  -6   12.40    1.60
   0  -2   6    9.10    1.50
   0  -2   6    8.50    1.30
  -1   2  -6  230.58    6.00
  -1   2  -6  220.68    5.00
   1  -2   6  222.58    5.00
   1  -2   6  207.98    5.30
  -2   2  -6  534.45    8.50
  -2   2  -6  534.75   10.50
   2  -2   6  546.75    9.70
   2  -2   6  521.75    8.40
  -3   2  -6  714.93   10.20
  -3   2  -6  704.33   13.40
   3  -2   6  699.23   10.20
   3  -2   6  682.73   11.90
  -4   2  -6   17.00    2.70
   4  -2   6   15.30    2.20
  -5   2  -6   35.80    4.10
   5  -2   6   42.60    3.20
  -6   2  -6   39.20    4.60
   6  -2   6   43.60    3.50
  -7   2  -6    7.10    2.40
   7  -2   6    7.70    2.30
   6   1  -6    6.00    2.20
  -6  -1   6    6.20    2.50
   5   1  -6   26.50    3.50
  -5  -1   6   22.20    3.40
   4   1  -6   40.70    3.20
  -4  -1   6   45.20    3.60
   3   1  -6   38.40    2.80
  -3  -1   6   34.60    2.20
  -3  -1   6   32.20    3.40
   2   1  -6   -0.30    0.60
   2   1  -6    1.00    0.80
  -2  -1   6   -0.70    0.80
  -2  -1   6    0.10    0.70
   1   1  -6   35.20    2.00
   1   1  -6   35.80    2.30
  -1  -1   6   37.60    2.10
  -1  -1   6   39.60    2.40
   0   1  -6  438.36    7.90
   0   1  -6  445.06    8.10
   0  -1   6  446.96    7.90
   0  -1   6  424.36    7.90
  -1   1  -6  223.18    5.60
  -1   1  -6  213.48    5.10
   1  -1   6  217.88    5.40
   1  -1   6  224.18    4.60
  -2   1  -6  129.29    4.60
  -2   1  -6  130.99    3.80
   2  -1   6  137.09    4.30
   2  -1   6  136.19    3.20
  -3   1  -6  254.57    5.50
  -3   1  -6  252.57    7.00
   3  -1   6  252.17    4.60
   3  -1   6  256.47    6.40
  -4   1  -6    2.70    1.00
  -4   1  -6    1.60    1.20
   4  -1   6    1.20    1.10
  -5   1  -6    0.40    1.10
   5  -1   6   -0.80    1.00
  -6   1  -6   17.20    3.00
   6  -1   6   21.90    3.00
  -7   1  -6   53.69    4.60
   7  -1   6   56.59    4.00
   6   0  -6   24.20    3.50
  -6   0   6   25.40    4.10
   5   0  -6   85.29    4.90
  -5   0   6  106.69    5.80
   4   0  -6   14.60    2.50
  -4   0   6   15.60    2.70
   3   0  -6  130.29    5.00
  -3   0   6  137.29    4.40
  -3   0   6  127.39    5.20
   2   0  -6   81.09    3.70
  -2   0   6   81.79    3.30
  -2   0   6   86.29    3.90
   1   0  -6  137.49    3.30
   1   0  -6  132.39    4.40
  -1   0   6  142.89    4.40
  -1   0   6  134.49    4.10
   0   0  -6  542.15    8.50
   0   0  -6  550.34    9.70
   0   0   6  555.24    9.30
   0   0   6  550.04    8.70
  -1   0  -6   29.90    1.90
  -1   0  -6   32.80    2.10
   1   0   6   33.70    1.60
   1   0   6   29.30    2.00
  -2   0  -6  206.18    5.00
  -2   0  -6  217.68    5.70
   2   0   6  220.98    5.60
  -3   0  -6   69.19    3.40
  -3   0  -6   68.79    2.90
   3   0   6   69.59    3.20
  -4   0  -6   66.29    3.00
   4   0   6   67.29    3.80
   4   0   6   69.79    3.40
  -5   0  -6   27.60    2.80
   5   0   6   27.50    2.90
   5   0   6   19.40    2.70
  -6   0  -6  121.69    5.90
  -6   0  -6  101.69    5.40
   6   0   6  108.29    5.70
   6   0   6  107.19    4.80
  -7   0  -6   87.69    5.40
   7   0   6   92.29    4.80
   6  -1  -6   21.20    3.30
  -6   1   6   17.40    3.50
   5  -1  -6   51.69    3.90
  -5   1   6   63.79    4.60
   4  -1  -6    8.90    1.90
  -4   1   6   13.30    2.20
  -4   1   6   13.90    2.70
   3  -1  -6   -0.70    0.80
  -3   1   6    1.00    1.10
  -3   1   6    2.30    1.30
   2  -1  -6    0.90    0.80
  -2   1   6    0.50    0.90
  -2   1   6   -0.50    0.70
   1  -1  -6  188.38    5.40
   1  -1  -6  176.38    3.20
  -1   1   6  185.98    5.10
  -1   1   6  190.18    5.10
   0  -1  -6  337.77    7.20
   0  -1  -6  331.17    5.80
   0  -1  -6  323.27    6.30
   0   1   6  323.07    6.20
   0   1   6  321.77    6.90
  -1  -1  -6  669.03   10.10
  -1  -1  -6  661.63   10.80
  -1  -1  -6  663.63    9.40
   1   1   6  667.63   10.90
   1   1   6  665.23    8.80
  -2  -1  -6  481.35    6.90
  -2  -1  -6  474.65    8.60
   2   1   6  480.05    8.90
   2   1   6  470.65    9.00
  -3  -1  -6    3.40    0.80
  -3  -1  -6    2.20    1.00
   3   1   6    0.40    1.00
   3   1   6    1.90    1.10
  -4  -1  -6  356.26    7.80
   4   1   6  356.66    8.80
   4   1   6  364.16    7.90
  -5  -1  -6   16.40    2.30
   5   1   6   17.10    2.50
   5   1   6   11.10    2.20
  -6  -1  -6   30.80    3.30
   6   1   6   32.40    3.40
   6   1   6   18.90    3.00
  -7  -1  -6   55.49    4.00
   7   1   6   58.19    4.00
   7   1   6   54.69    4.50
   6  -2  -6    2.40    1.80
  -6   2   6    0.10    1.60
   5  -2  -6    7.30    2.10
   5  -2  -6   10.30    2.60
  -5   2   6    8.60    2.10
   4  -2  -6    6.20    1.80
   4  -2  -6   10.30    2.30
  -4   2   6    8.20    1.90
   3  -2  -6    1.40    1.20
   3  -2  -6    1.20    1.20
  -3   2   6    1.10    1.10
   2  -2  -6  180.18    5.60
   2  -2  -6  168.88    5.40
  -2   2   6  173.38    5.40
   1  -2  -6  341.17    7.70
   1  -2  -6  323.57    6.90
   1  -2  -6  324.97    7.20
  -1   2   6  336.57    7.40
   0  -2  -6  156.98    3.40
   0  -2  -6  156.68    4.30
   0  -2  -6  162.18    4.00
   0  -2  -6  154.68    4.80
   0   2   6  157.38    4.80
  -1  -2  -6  159.18    4.00
  -1  -2  -6  160.18    4.70
   1   2   6  156.28    4.10
   1   2   6  161.08    4.80
  -2  -2  -6    1.60    0.60
  -2  -2  -6    0.60    0.70
   2   2   6    1.00    0.70
   2   2   6    0.00    0.60
  -3  -2  -6  115.79    4.20
  -3  -2  -6  120.49    3.40
   3   2   6  108.79    4.30
   3   2   6  110.79    4.10
  -4  -2  -6   94.99    4.00
  -4  -2  -6  106.29    3.40
   4   2   6   95.09    3.90
   4   2   6   96.79    4.50
  -5  -2  -6    2.40    1.30
   5   2   6    2.40    1.40
   5   2   6    3.30    1.40
  -6  -2  -6   25.30    3.10
   6   2   6   26.80    3.00
   6   2   6   17.60    2.90
  -7  -2  -6   23.60    3.30
   7   2   6   26.90    4.00
   6  -3  -6    1.80    1.50
   6  -3  -6    0.20    1.70
   5  -3  -6    1.00    1.50
   5  -3  -6    2.20    1.50
  -5   3   6    3.00    1.70
   4  -3  -6  205.28    7.30
   4  -3  -6  206.08    6.90
  -4   3   6  219.18    7.00
   3  -3  -6  336.97    8.70
   3  -3  -6  334.97    8.50
  -3   3   6  334.87    8.50
   2  -3  -6  172.88    5.70
   2  -3  -6  175.58    5.60
  -2   3   6  183.18    5.70
   1  -3  -6    6.80    1.40
   1  -3  -6    5.60    1.50
   1  -3  -6    7.50    1.50
  -1   3   6    6.50    1.40
   0  -3  -6    4.70    1.20
   0  -3  -6    4.50    1.10
   0  -3  -6    4.70    1.20
   0   3   6    4.10    1.20
   0   3   6    4.50    0.80
  -1  -3  -6    1.60    0.80
  -1  -3  -6    1.60    0.70
  -1  -3  -6    0.60    0.80
   1   3   6    1.40    0.70
   1   3   6    1.30    0.80
  -2  -3  -6   78.59    3.00
  -2  -3  -6   82.59    3.60
   2   3   6   69.89    3.10
   2   3   6   80.49    3.50
  -3  -3  -6  555.04   10.50
  -3  -3  -6  545.95    9.20
   3   3   6  552.74   10.30
   3   3   6  543.05   10.50
  -4  -3  -6   91.19    3.50
  -4  -3  -6   90.09    4.10
   4   3   6   86.49    4.30
   4   3   6   87.39    3.70
  -5  -3  -6  237.98    7.10
   5   3   6  244.78    7.80
   5   3   6  237.08    6.40
  -6  -3  -6    2.70    1.60
   6   3   6    2.00    1.60
  -7  -3  -6    0.70    1.60
   7   3   6    2.00    1.70
   5  -4  -6    3.80    1.90
   5  -4  -6    5.70    1.90
  -5   4   6    1.90    1.70
   4  -4  -6  112.69    5.20
   4  -4  -6  115.09    5.60
  -4   4   6  118.89    5.50
   3  -4  -6   91.49    4.60
   3  -4  -6   75.39    4.10
  -3   4   6   84.69    4.40
   2  -4  -6   25.60    3.20
   2  -4  -6   29.30    2.50
   2  -4  -6   23.20    2.80
  -2   4   6   27.40    3.10
   1  -4  -6   11.50    2.10
   1  -4  -6   13.50    2.10
   1  -4  -6   11.50    2.00
  -1   4   6    9.50    1.80
   0  -4  -6   18.90    2.30
   0  -4  -6   22.00    1.80
   0  -4  -6   19.60    2.30
   0   4   6   29.40    3.00
   0   4   6   20.20    1.40
  -1  -4  -6  217.88    5.80
  -1  -4  -6  230.28    6.20
  -1  -4  -6  224.28    4.70
   1   4   6  219.78    6.20
   1   4   6  219.98    5.30
  -2  -4  -6  416.46    8.80
  -2  -4  -6  409.66    8.20
   2   4   6  421.06    8.60
   2   4   6  416.56    8.80
  -3  -4  -6  262.87    6.40
  -3  -4  -6  265.07    7.10
   3   4   6  251.97    6.50
   3   4   6  255.67    7.00
  -4  -4  -6  150.48    4.90
  -4  -4  -6  144.09    5.40
   4   4   6  143.69    5.60
   4   4   6  147.89    4.90
  -5  -4  -6  185.38    6.60
  -5  -4  -6  197.68    5.90
   5   4   6  190.48    6.20
   5   4   6  195.58    7.10
  -6  -4  -6    7.20    2.20
   6   4   6    8.30    2.50
  -7  -4  -6    8.90    2.50
   7   4   6   13.80    3.20
   5  -5  -6   -0.50    1.40
  -5   5   6   -0.10    1.70
   4  -5  -6    1.00    1.60
   4  -5  -6   -0.50    1.10
  -4   5   6    1.90    1.60
   3  -5  -6   52.59    3.80
   3  -5  -6   58.49    3.70
  -3   5   6   65.49    4.10
   2  -5  -6   28.40    3.20
   2  -5  -6   28.00    3.10
   2  -5  -6   27.70    3.50
  -2   5   6   37.00    3.70
   1  -5  -6    4.30    1.40
   1  -5  -6    4.70    1.60
   1  -5  -6    4.90    1.50
  -1   5   6    4.30    1.60
   0  -5  -6  161.18    5.40
   0  -5  -6  163.58    4.80
   0  -5  -6  163.78    5.50
   0   5   6  163.78    5.50
  -1  -5  -6  240.38    6.60
  -1  -5  -6  243.98    5.40
  -1  -5  -6  232.68    6.40
   1   5   6  243.38    6.00
   1   5   6  242.38    6.70
  -2  -5  -6   54.29    3.30
  -2  -5  -6   48.20    2.90
   2   5   6   51.39    3.10
   2   5   6   49.70    3.00
  -3  -5  -6   -0.90    0.80
  -3  -5  -6    0.70    1.00
   3   5   6    0.10    0.80
   3   5   6    0.10    1.00
  -4  -5  -6   26.60    3.00
  -4  -5  -6   20.70    2.80
   4   5   6   23.80    2.80
   4   5   6   19.80    3.00
  -5  -5  -6   34.60    3.70
  -5  -5  -6   34.70    3.50
   5   5   6   39.50    4.30
  -6  -5  -6   35.60    4.00
   6   5   6   40.70    4.70
  -7  -5  -6    4.70    2.10
   7   5   6    7.90    2.50
   5  -6  -6    7.60    2.50
  -5   6   6   13.30    3.00
   4  -6  -6    6.60    2.20
  -4   6   6    3.70    1.90
   3  -6  -6   13.20    2.60
   3  -6  -6   27.30    3.60
  -3   6   6   20.90    3.20
   2  -6  -6   15.00    2.50
   2  -6  -6   15.20    2.60
   2  -6  -6   22.60    3.10
  -2   6   6   18.80    2.90
   1  -6  -6  197.48    6.40
   1  -6  -6  209.88    6.40
   1  -6  -6  209.78    6.80
  -1   6   6  204.18    6.80
   0  -6  -6   31.80    2.70
   0  -6  -6   33.70    2.50
   0  -6  -6   35.00    2.80
   0   6   6   36.10    2.90
  -1  -6  -6   31.60    3.20
  -1  -6  -6   28.70    3.20
  -1  -6  -6   30.50    3.10
   1   6   6   33.10    3.50
   1   6   6   29.70    2.30
  -2  -6  -6   34.60    2.80
  -2  -6  -6   40.40    3.00
   2   6   6   36.60    2.80
   2   6   6   35.70    2.80
  -3  -6  -6   12.20    2.40
  -3  -6  -6   13.30    2.20
   3   6   6   14.80    2.30
   3   6   6   16.00    2.60
  -4  -6  -6   48.10    4.70
  -4  -6  -6   38.10    3.80
   4   6   6   42.60    4.40
  -5  -6  -6   17.00    2.90
  -5  -6  -6   21.70    3.40
   5   6   6   19.60    3.30
  -6  -6  -6  188.18    7.00
  -6  -6  -6  172.38    7.30
   6   6   6  177.68    7.90
   4  -7  -6   -1.90    1.30
  -4   7   6    0.80    1.80
   3  -7  -6    4.20    2.00
   3  -7  -6    1.60    1.70
  -3   7   6    2.90    1.80
   2  -7  -6   77.79    4.50
   2  -7  -6   62.79    4.20
  -2   7   6   72.89    4.60
   1  -7  -6   49.80    3.70
   1  -7  -6   60.59    3.80
   1  -7  -6   57.49    3.70
  -1   7   6   54.89    3.80
   0  -7  -6    2.20    1.40
   0  -7  -6    2.10    1.30
   0  -7  -6    3.00    1.30
   0   7   6    1.90    1.30
  -1  -7  -6   79.69    4.20
  -1  -7  -6   81.39    4.40
   1   7   6   90.39    4.40
  -2  -7  -6   85.59    4.50
  -2  -7  -6   91.49    4.60
   2   7   6   92.49    4.40
   2   7   6   92.29    4.50
  -3  -7  -6   96.49    4.80
  -3  -7  -6   83.39    4.60
   3   7   6   83.29    4.70
  -4  -7  -6   49.50    3.70
  -4  -7  -6   51.79    3.90
   4   7   6   56.49    4.20
  -5  -7  -6   32.30    4.20
  -5  -7  -6   22.50    3.40
   5   7   6   22.10    3.60
  -6  -7  -6   76.99    5.40
  -6  -7  -6   73.69    4.90
   6   7   6   68.09    5.20
   3  -8  -6    8.60    2.60
   3  -8  -6   13.00    3.10
  -3   8   6    8.50    2.50
   2  -8  -6   28.60    3.80
   2  -8  -6   19.10    3.40
  -2   8   6   23.30    3.50
   1  -8  -6    1.80    1.50
   1  -8  -6    2.20    1.50
  -1   8   6    3.20    1.70
   0  -8  -6   27.40    3.80
   0  -8  -6   25.90    3.10
   0  -8  -6   28.00    3.30
   0   8   6   27.80    3.70
  -1  -8  -6    3.00    1.50
  -1  -8  -6    5.00    1.80
   1   8   6    6.30    1.90
  -2  -8  -6   20.10    3.10
  -2  -8  -6   19.20    3.00
   2   8   6   19.70    3.40
   2   8   6   21.80    3.00
  -3  -8  -6   70.39    4.40
  -3  -8  -6   75.39    4.50
   3   8   6   82.19    4.90
  -4  -8  -6   34.40    4.20
  -4  -8  -6   27.40    3.70
   4   8   6   31.00    4.20
  -5  -8  -6    5.60    2.10
  -5  -8  -6    5.90    2.40
   5   8   6    5.60    2.40
   2  -9  -6   26.00    3.90
   2  -9  -6   22.10    3.80
  -2   9   6   25.60    3.90
   1  -9  -6   23.20    3.40
   1  -9  -6   20.30    3.50
  -1   9   6   17.90    3.10
   0  -9  -6   15.40    3.10
   0   9   6   20.60    3.40
  -1  -9  -6    2.40    1.60
  -1  -9  -6    4.00    2.30
   1   9   6    3.00    1.80
  -2  -9  -6   34.10    4.00
  -2  -9  -6   30.10    3.90
  -3  -9  -6   15.00    2.90
   3   9   6   15.90    3.00
  -4  -9  -6   17.40    3.40
  -4  -9  -6   16.20    3.20
   4   9   6   14.20    3.10
   0 -10  -6   26.20    3.80
   0  10   6   27.60    3.90
  -1 -10  -6    5.50    2.20
  -2 -10  -6   13.20    3.10
   0   9  -7   15.10    3.50
   0  -9   7   20.70    3.60
  -1   9  -7   10.30    2.80
   1  -9   7    6.40    2.40
   2   8  -7   23.40    4.10
  -2  -8   7   15.10    3.10
   1   8  -7   15.00    3.10
  -1  -8   7   15.20    2.90
   0   8  -7   36.50    4.80
   0  -8   7   30.50    3.90
  -1   8  -7   87.29    5.70
   1  -8   7   97.29    5.50
  -2   8  -7    3.80    2.00
   2  -8   7    6.70    2.20
  -3   8  -7   15.90    3.50
   3  -8   7   21.00    3.40
   3  -8   7   24.20    3.50
   3   7  -7   25.50    3.90
  -3  -7   7   26.70    3.80
  -3  -7   7   31.00    4.30
   2   7  -7   54.39    4.50
  -2  -7   7   51.59    5.30
   1   7  -7    7.40    2.20
  -1  -7   7   10.80    2.60
   0   7  -7   16.40    3.00
   0  -7   7   23.10    3.40
  -1   7  -7    4.20    2.10
   1  -7   7    4.60    1.90
  -2   7  -7    5.70    2.20
   2  -7   7    6.60    2.10
   2  -7   7    6.50    1.80
  -3   7  -7   11.50    2.80
   3  -7   7   16.00    2.70
   3  -7   7   12.50    2.60
  -4   7  -7   16.50    3.30
   4  -7   7   14.00    2.80
   4  -7   7   16.20    2.90
   4   6  -7   33.30    4.10
  -4  -6   7   32.60    4.30
  -4  -6   7   22.00    3.60
   3   6  -7   83.89    5.20
   3   6  -7   86.89    4.80
  -3  -6   7   87.59    5.40
  -3  -6   7   93.29    5.00
   2   6  -7  136.19    5.70
   2   6  -7  137.49    6.30
  -2  -6   7  129.79    6.20
  -2  -6   7  133.79    5.50
   1   6  -7    0.80    1.40
  -1  -6   7    0.60    1.40
   0   6  -7    4.00    1.80
   0  -6   7    0.90    1.30
  -1   6  -7    2.60    1.60
   1  -6   7    2.00    1.40
   1  -6   7    3.40    1.40
  -2   6  -7  254.47    8.80
   2  -6   7  275.97    7.50
   2  -6   7  277.17    8.00
  -3   6  -7   48.20    4.10
   3  -6   7   50.49    3.60
   3  -6   7   58.29    3.70
  -4   6  -7   42.70    5.00
   4  -6   7   46.90    3.80
   4  -6   7   58.89    4.20
  -5   6  -7   34.40    4.60
   5  -6   7   31.60    3.90
   5   5  -7    7.00    2.30
  -5  -5   7   15.00    3.20
  -5  -5   7   12.40    3.20
   4   5  -7   38.20    4.30
  -4  -5   7   37.30    4.30
  -4  -5   7   30.20    4.10
   3   5  -7   44.30    3.60
   3   5  -7   53.69    3.80
  -3  -5   7   53.49    3.90
  -3  -5   7   49.99    4.10
   2   5  -7   24.20    3.20
   2   5  -7   28.20    3.30
  -2  -5   7   28.50    3.20
  -2  -5   7   23.00    3.20
   1   5  -7   48.30    2.90
   1   5  -7   37.90    3.20
  -1  -5   7   37.60    2.90
  -1  -5   7   38.40    3.30
   0   5  -7   56.29    3.80
   0  -5   7   55.09    3.60
  -1   5  -7  104.99    5.20
   1  -5   7  115.79    4.30
   1  -5   7  114.89    4.70
  -2   5  -7  238.98    8.00
   2  -5   7  262.07    7.20
   2  -5   7  245.88    6.90
  -3   5  -7   33.10    3.90
   3  -5   7   38.40    2.90
   3  -5   7   40.60    3.90
  -4   5  -7   56.49    4.40
   4  -5   7   53.29    3.80
  -5   5  -7   18.10    3.40
   5  -5   7   13.60    2.80
  -6   5  -7   13.40    3.10
   6  -5   7   16.70    3.10
   5   4  -7    1.90    1.70
  -5  -4   7    2.00    2.00
  -5  -4   7    0.30    1.70
   4   4  -7    1.40    1.40
  -4  -4   7    2.20    1.60
  -4  -4   7    3.10    1.90
   3   4  -7    4.30    1.60
  -3  -4   7    5.60    2.00
  -3  -4   7    8.90    2.30
   2   4  -7   49.30    3.40
   2   4  -7   50.79    3.30
  -2  -4   7   51.79    3.70
  -2  -4   7   54.79    3.40
   1   4  -7  204.28    6.60
   1   4  -7  195.08    5.80
  -1  -4   7  199.18    5.50
  -1  -4   7  205.88    6.60
   0   4  -7   97.69    4.60
   0   4  -7  106.49    3.80
   0  -4   7  104.29    3.80
   0  -4   7  104.69    4.50
  -1   4  -7   88.59    4.40
   1  -4   7   83.09    3.80
   1  -4   7   86.79    3.60
  -2   4  -7   10.00    2.20
   2  -4   7    9.00    1.80
   2  -4   7    8.40    1.70
  -3   4  -7    3.20    1.60
   3  -4   7    3.90    1.50
   3  -4   7    2.60    1.20
  -4   4  -7   10.30    2.50
   4  -4   7    5.40    1.80
  -5   4  -7   42.90    4.80
   5  -4   7   50.59    3.80
  -6   4  -7   76.79    5.50
   6  -4   7   83.89    5.00
   5   3  -7    4.90    2.10
  -5  -3   7    3.30    2.20
  -5  -3   7    5.40    2.20
   4   3  -7   11.90    2.60
  -4  -3   7   14.80    3.00
  -4  -3   7    7.90    2.20
   3   3  -7    3.00    1.50
  -3  -3   7    5.20    1.80
  -3  -3   7    3.10    1.70
   2   3  -7   90.89    4.00
   2   3  -7   90.09    4.20
  -2  -3   7   98.89    4.20
  -2  -3   7  107.09    4.80
   1   3  -7  272.07    7.10
   1   3  -7  266.27    6.80
  -1  -3   7  261.77    6.30
  -1  -3   7  274.17    6.00
  -1  -3   7  265.97    7.20
   0   3  -7  189.38    5.20
   0   3  -7  190.88    5.90
   0  -3   7  184.88    4.50
   0  -3   7  188.38    5.00
   0  -3   7  190.28    5.70
  -1   3  -7   56.89    3.30
  -1   3  -7   56.29    2.60
   1  -3   7   48.30    2.70
   1  -3   7   49.80    2.80
  -2   3  -7    4.90    1.50
   2  -3   7    6.00    1.40
   2  -3   7    6.10    1.50
  -3   3  -7  203.68    7.00
   3  -3   7  204.38    6.30
   3  -3   7  207.78    5.30
  -4   3  -7   31.20    4.00
   4  -3   7   27.30    3.20
  -5   3  -7  104.29    5.80
   5  -3   7  104.39    5.10
  -6   3  -7   40.10    4.70
   6  -3   7   38.70    4.20
  -7   3  -7    5.50    2.30
   7  -3   7    6.70    2.40
   6   2  -7   25.60    4.00
  -6  -2   7   27.60    4.50
   5   2  -7   73.79    4.80
  -5  -2   7   79.79    5.30
   4   2  -7    0.10    1.10
  -4  -2   7    1.40    1.60
   3   2  -7    2.30    1.20
  -3  -2   7    2.60    1.50
   2   2  -7  242.58    6.10
  -2  -2   7  258.07    7.70
  -2  -2   7  243.88    7.10
   1   2  -7  289.27    6.80
   1   2  -7  290.57    7.20
  -1  -2   7  302.27    7.40
  -1  -2   7  295.47    6.50
   0   2  -7  172.68    5.00
   0   2  -7  176.98    5.20
   0  -2   7  174.18    4.90
   0  -2   7  168.58    5.00
  -1   2  -7   48.30    2.90
  -1   2  -7   49.90    2.50
   1  -2   7   45.60    2.60
   1  -2   7   48.10    2.50
  -2   2  -7  238.58    5.50
  -2   2  -7  227.98    6.70
   2  -2   7  228.78    5.10
   2  -2   7  230.08    6.10
  -3   2  -7  301.37    8.40
  -3   2  -7  302.27    6.40
   3  -2   7  307.67    7.70
  -4   2  -7   19.70    2.90
   4  -2   7   32.00    3.30
  -5   2  -7   43.10    3.80
   5  -2   7   44.30    3.30
  -6   2  -7   23.90    3.60
   6  -2   7   32.40    3.90
  -7   2  -7   17.40    3.50
   7  -2   7   16.80    3.20
   6   1  -7    5.90    2.40
  -6  -1   7    4.40    2.30
   5   1  -7   21.80    3.30
  -5  -1   7   26.90    3.90
   4   1  -7    7.20    1.80
  -4  -1   7   10.00    2.50
   3   1  -7   68.39    3.90
  -3  -1   7   69.79    4.00
   2   1  -7   26.10    2.80
  -2  -1   7   29.40    2.20
  -2  -1   7   30.60    3.20
   1   1  -7   80.99    3.10
   1   1  -7   81.49    3.70
  -1  -1   7   82.79    3.30
  -1  -1   7   84.09    3.70
   0   1  -7  107.29    3.70
   0   1  -7  100.99    3.80
   0  -1   7  102.89    3.80
   0  -1   7  103.39    3.60
  -1   1  -7    3.80    1.20
  -1   1  -7    2.90    1.10
   1  -1   7    3.60    1.10
   1  -1   7    2.80    0.90
  -2   1  -7  159.78    4.60
  -2   1  -7  156.08    5.30
   2  -1   7  162.98    5.10
   2  -1   7  158.68    3.70
  -3   1  -7   34.60    2.20
  -3   1  -7   35.10    2.80
   3  -1   7   38.70    2.60
  -4   1  -7  200.88    7.00
  -4   1  -7  216.08    5.50
   4  -1   7  203.78    6.30
  -5   1  -7    6.70    1.90
   5  -1   7    6.50    1.80
  -6   1  -7   20.00    3.40
   6  -1   7   19.10    2.90
  -7   1  -7   22.90    3.80
   7  -1   7   29.40    3.80
   6   0  -7    1.60    1.70
  -6   0   7   -0.30    1.70
   5   0  -7   27.80    4.10
  -5   0   7   18.80    3.50
   4   0  -7   60.59    4.00
  -4   0   7   65.19    4.50
   3   0  -7   20.70    2.90
  -3   0   7   29.20    2.90
  -3   0   7   28.10    3.50
   2   0  -7   -0.50    0.80
  -2   0   7    0.80    1.10
  -2   0   7    1.00    0.90
   1   0  -7  233.48    6.40
   1   0  -7  224.78    4.80
  -1   0   7  223.88    5.80
  -1   0   7  233.28    6.10
   0   0  -7  163.68    5.00
   0   0  -7  168.58    4.30
   0   0   7  164.98    4.90
   0   0   7  163.18    4.50
  -1   0  -7  165.18    4.80
  -1   0  -7  164.98    4.90
   1   0   7  166.28    5.10
   1   0   7  157.18    3.90
  -2   0  -7   62.29    3.20
  -2   0  -7   57.69    2.80
   2   0   7   56.29    3.00
  -3   0  -7   25.00    2.80
  -3   0  -7   19.10    2.20
   3   0   7   20.90    2.40
  -4   0  -7  387.06    9.60
  -4   0  -7  401.56    8.10
   4   0   7  377.46    8.70
  -5   0  -7    1.90    1.20
  -5   0  -7    1.30    1.20
   5   0   7   -0.10    1.10
  -6   0  -7   42.60    4.70
   6   0   7   43.20    4.20
  -7   0  -7   32.70    4.30
   7   0   7   46.50    3.70
   6  -1  -7   13.60    2.90
  -6   1   7    9.10    2.80
   5  -1  -7   10.50    2.20
  -5   1   7   11.80    2.80
   4  -1  -7   50.99    3.80
  -4   1   7   60.49    3.60
  -4   1   7   51.39    4.10
   3  -1  -7   57.79    3.70
  -3   1   7   59.59    3.90
  -3   1   7   65.49    3.50
   2  -1  -7   43.30    3.00
  -2   1   7   40.70    3.00
  -2   1   7   46.70    2.90
   1  -1  -7  141.89    4.90
  -1   1   7  139.89    4.70
  -1   1   7  133.69    4.60
   0  -1  -7  684.73   10.00
   0  -1  -7  702.93   12.20
   0   1   7  691.63   10.70
   0   1   7  684.83   11.80
  -1  -1  -7  689.23   11.80
  -1  -1  -7  693.13   10.20
  -1  -1  -7  698.23   10.90
   1   1   7  687.43   11.70
   1   1   7  682.03    9.50
  -2  -1  -7    0.20    0.80
  -2  -1  -7    1.30    0.60
  -2  -1  -7    0.60    0.80
   2   1   7    0.60    0.70
  -3  -1  -7   21.40    2.40
   3   1   7   22.20    2.50
   3   1   7   13.20    2.00
  -4  -1  -7   87.19    3.80
   4   1   7   87.79    4.40
   4   1   7   89.99    4.00
  -5  -1  -7  120.59    4.80
   5   1   7  139.09    5.30
   5   1   7  131.19    5.80
  -6  -1  -7   74.19    4.10
   6   1   7   73.89    4.80
   6   1   7   73.69    4.10
   7   1   7   24.20    3.70
   7   1   7   32.00    3.70
   6  -2  -7   11.30    2.80
  -6   2   7   15.70    3.70
   5  -2  -7    7.10    2.20
  -5   2   7   11.90    2.80
   4  -2  -7   65.19    4.20
  -4   2   7   73.39    4.70
  -4   2   7   81.59    4.40
   3  -2  -7    6.00    1.80
   3  -2  -7    3.90    1.60
  -3   2   7    4.90    1.70
   2  -2  -7    6.70    1.70
   2  -2  -7    6.30    1.60
  -2   2   7    3.30    1.40
   1  -2  -7    9.90    1.80
   1  -2  -7   15.40    2.10
  -1   2   7   12.90    2.00
   0  -2  -7  266.17    6.30
   0  -2  -7  270.77    5.10
   0  -2  -7  264.17    6.90
   0   2   7  270.17    6.80
  -1  -2  -7  194.68    4.80
  -1  -2  -7  203.68    5.80
   1   2   7  194.38    4.90
   1   2   7  197.68    5.70
   1   2   7  199.18    4.10
  -2  -2  -7  125.99    3.60
  -2  -2  -7  119.39    4.40
   2   2   7  120.49    4.30
   2   2   7  122.09    4.40
  -3  -2  -7   14.60    2.10
  -3  -2  -7   15.40    1.70
   3   2   7    9.50    1.90
   3   2   7    9.70    1.80
  -4  -2  -7    4.20    1.40
   4   2   7    5.00    1.50
   4   2   7    2.70    1.40
  -5  -2  -7  389.06    9.30
   5   2   7  386.46    9.00
  -6  -2  -7   25.20    3.20
   6   2   7   23.00    3.40
   6   2   7   29.00    3.30
  -7  -2  -7   29.50    3.70
   7   2   7   20.10    3.40
   5  -3  -7   10.20    2.40
   5  -3  -7   12.80    3.00
  -5   3   7   16.50    2.90
   4  -3  -7   24.30    3.50
   4  -3  -7   24.10    3.30
  -4   3   7   21.50    3.00
   3  -3  -7   14.80    2.60
   3  -3  -7   21.50    3.00
  -3   3   7   19.30    2.80
   2  -3  -7   45.90    3.20
   2  -3  -7   39.80    2.90
  -2   3   7   40.90    3.00
   1  -3  -7   33.20    2.40
   1  -3  -7   36.60    2.80
   1  -3  -7   33.70    2.50
  -1   3   7   37.00    2.80
   0  -3  -7   69.69    2.90
   0  -3  -7   67.99    3.20
   0  -3  -7   64.29    3.50
   0   3   7   69.79    3.50
  -1  -3  -7  349.07    7.30
  -1  -3  -7  362.56    6.20
  -1  -3  -7  358.96    8.30
   1   3   7  371.56    8.40
   1   3   7  361.36    7.10
  -2  -3  -7  296.47    6.40
  -2  -3  -7  305.27    7.50
   2   3   7  289.87    7.30
   2   3   7  287.37    6.90
  -3  -3  -7   31.90    2.60
  -3  -3  -7   33.10    2.10
   3   3   7   30.60    2.50
   3   3   7   35.20    2.70
  -4  -3  -7    3.00    1.40
   4   3   7    8.30    2.00
   4   3   7    4.80    1.50
  -5  -3  -7  133.19    5.50
   5   3   7  138.19    5.10
   5   3   7  134.19    6.00
  -6  -3  -7    5.60    2.00
   6   3   7    7.30    2.00
   6   3   7    5.10    2.00
  -7  -3  -7   14.70    3.00
   7   3   7    9.20    2.90
   5  -4  -7   18.60    3.40
   5  -4  -7   17.20    3.10
  -5   4   7   18.30    3.20
   4  -4  -7   51.59    3.80
   4  -4  -7   61.39    4.40
  -4   4   7   60.09    4.30
   3  -4  -7  174.28    6.50
   3  -4  -7  176.68    6.60
  -3   4   7  183.68    6.70
   2  -4  -7   12.10    2.30
   2  -4  -7   10.90    2.20
   2  -4  -7    9.50    2.10
  -2   4   7   11.30    2.20
   1  -4  -7    6.70    1.60
   1  -4  -7    4.40    1.50
   1  -4  -7    3.60    1.30
  -1   4   7    2.60    1.40
   0  -4  -7   97.49    4.40
   0  -4  -7   92.19    3.50
   0  -4  -7   94.59    4.00
   0   4   7   88.29    4.20
  -1  -4  -7   98.79    3.90
  -1  -4  -7   99.09    4.30
   1   4   7  100.59    4.30
   1   4   7   95.69    3.50
  -2  -4  -7  310.57    7.10
  -2  -4  -7  299.27    7.80
   2   4   7  300.97    7.10
   2   4   7  293.77    7.60
  -3  -4  -7  394.66    9.20
  -3  -4  -7  408.96    8.40
   3   4   7  414.86    9.20
   3   4   7  404.06    9.20
  -4  -4  -7   62.39    3.20
  -4  -4  -7   47.40    3.30
   4   4   7   58.99    3.90
   4   4   7   55.69    3.30
  -5  -4  -7    1.30    1.40
   5   4   7    2.70    1.40
   5   4   7    4.10    1.70
  -6  -4  -7   50.99    4.00
   6   4   7   58.79    4.50
  -7  -4  -7   19.90    3.50
   7   4   7   21.70    3.90
   5  -5  -7    3.40    2.20
  -5   5   7    3.80    2.10
   4  -5  -7   13.30    2.80
   4  -5  -7   12.90    2.70
  -4   5   7   10.90    2.60
   3  -5  -7   31.10    3.60
   3  -5  -7   33.20    3.90
  -3   5   7   30.20    3.60
   2  -5  -7   24.50    3.20
   2  -5  -7   20.80    2.80
   2  -5  -7   15.70    2.70
  -2   5   7   26.60    3.40
   1  -5  -7   66.99    3.90
   1  -5  -7   65.69    3.80
   1  -5  -7   74.89    3.80
  -1   5   7   66.69    3.90
   0  -5  -7   47.90    3.20
   0  -5  -7   48.00    3.30
   0  -5  -7   49.90    2.80
   0   5   7   54.89    3.50
  -1  -5  -7  175.68    6.00
  -1  -5  -7  162.48    5.50
   1   5   7  176.68    6.00
   1   5   7  171.68    5.10
  -2  -5  -7  286.77    7.90
  -2  -5  -7  284.27    7.30
   2   5   7  293.07    7.40
   2   5   7  301.27    7.90
  -3  -5  -7   75.59    4.10
  -3  -5  -7   73.79    3.70
   3   5   7   67.59    3.60
   3   5   7   78.79    4.10
  -4  -5  -7   25.30    3.10
  -4  -5  -7   27.50    3.10
   4   5   7   29.00    3.20
   4   5   7   22.60    3.10
  -5  -5  -7    1.50    1.50
  -5  -5  -7    2.30    1.40
   5   5   7    2.60    1.60
  -6  -5  -7   92.89    5.30
   6   5   7  102.49    5.90
  -7  -5  -7   15.60    3.20
   7   5   7   15.60    3.30
   4  -6  -7    1.20    1.70
  -4   6   7    3.20    1.90
   3  -6  -7    5.40    2.00
   3  -6  -7    7.20    2.20
   3  -6  -7   13.20    2.80
  -3   6   7    9.80    2.40
   2  -6  -7  107.49    5.20
   2  -6  -7  112.59    5.50
   2  -6  -7  109.29    5.10
  -2   6   7  112.29    5.50
   1  -6  -7   54.99    3.70
   1  -6  -7   46.70    3.50
   1  -6  -7   45.30    3.20
  -1   6   7   43.10    3.50
   0  -6  -7    2.60    1.30
   0  -6  -7    3.00    1.30
   0  -6  -7    2.10    1.40
   0   6   7    1.60    1.40
  -1  -6  -7  113.29    4.90
  -1  -6  -7  105.89    4.80
   1   6   7  103.89    4.80
  -2  -6  -7    1.40    1.20
  -2  -6  -7    1.70    1.30
   2   6   7    0.70    1.20
   2   6   7    0.40    1.10
  -3  -6  -7   12.50    2.40
  -3  -6  -7   19.00    2.70
   3   6   7   15.90    2.60
   3   6   7   17.70    2.70
  -4  -6  -7   44.60    3.60
  -4  -6  -7   49.30    3.40
   4   6   7   44.30    3.70
  -5  -6  -7   11.40    2.40
  -5  -6  -7   11.60    2.60
   5   6   7    7.60    2.50
  -6  -6  -7   44.70    4.80
   6   6   7   33.80    4.50
   4  -7  -7    7.10    2.50
  -4   7   7    5.40    2.30
   3  -7  -7   19.10    3.40
   3  -7  -7   17.00    3.10
  -3   7   7   23.90    3.50
   2  -7  -7   77.09    4.60
   2  -7  -7   69.39    4.60
  -2   7   7   86.39    5.10
   1  -7  -7   60.29    3.80
   1  -7  -7   56.39    3.90
   1  -7  -7   58.49    4.10
  -1   7   7   49.90    3.90
   0  -7  -7   27.70    3.30
   0  -7  -7   31.30    3.60
   0   7   7   32.30    3.80
  -1  -7  -7   11.30    2.30
  -1  -7  -7    9.50    2.30
   1   7   7    8.40    2.20
  -2  -7  -7   71.69    4.20
  -2  -7  -7   63.79    4.10
   2   7   7   66.49    4.00
   2   7   7   61.59    3.80
  -3  -7  -7   95.09    4.80
  -3  -7  -7   74.99    4.50
   3   7   7   76.09    4.30
   3   7   7   85.69    4.80
  -4  -7  -7   42.70    4.70
  -4  -7  -7   42.00    4.30
   4   7   7   43.20    4.60
  -5  -7  -7   71.79    4.50
  -5  -7  -7   58.09    4.50
   5   7   7   60.69    4.80
   3  -8  -7    0.50    1.60
   3  -8  -7    2.90    1.80
  -3   8   7    3.40    2.10
   2  -8  -7    6.20    2.10
   2  -8  -7    2.10    1.70
  -2   8   7    4.60    2.00
   1  -8  -7   13.60    2.70
   1  -8  -7   11.40    2.50
  -1   8   7    9.60    2.70
   0  -8  -7   27.20    3.50
   0  -8  -7   36.30    4.10
   0   8   7   34.20    4.10
  -1  -8  -7    3.40    1.60
  -1  -8  -7    2.50    1.60
   1   8   7    5.00    1.90
  -2  -8  -7   82.59    4.80
  -2  -8  -7   92.19    5.00
   2   8   7   86.39    4.80
  -3  -8  -7   73.29    4.60
  -3  -8  -7   62.69    4.50
   3   8   7   78.99    4.80
  -4  -8  -7   61.49    4.40
  -4  -8  -7   53.09    4.20
   4   8   7   62.39    4.70
  -5  -8  -7   11.00    2.90
  -5  -8  -7   17.50    3.20
   5   8   7   14.00    3.30
   1  -9  -7   11.20    2.80
  -1   9   7   15.40    3.20
   0  -9  -7   15.40    3.00
   0   9   7   15.90    3.10
  -1  -9  -7   -0.80    1.40
  -1  -9  -7   -1.50    1.20
   1   9   7    0.50    1.50
  -2  -9  -7    7.30    2.20
  -2  -9  -7   10.20    2.60
  -3  -9  -7   28.80    4.00
  -3  -9  -7   36.60    4.60
   3   9   7   33.80    5.20
   1   8  -8   10.30    2.90
  -1  -8   8    8.70    2.70
   0   8  -8   27.30    4.20
   0  -8   8   32.80    4.10
  -1   8  -8   25.30    4.10
   1  -8   8   30.60    4.20
  -2   8  -8   27.10    4.20
   2  -8   8   37.10    4.30
  -3   8  -8   10.90    3.10
   3  -8   8   14.10    3.00
   3   7  -8   24.80    4.00
  -3  -7   8   20.90    3.80
  -2  -7   8    6.90    2.30
   1   7  -8    1.70    1.80
  -1  -7   8    8.20    2.50
   0   7  -8   27.90    4.00
   0  -7   8   27.90    3.90
  -1   7  -8   13.30    3.10
   1  -7   8   19.60    3.20
  -2   7  -8   93.19    5.80
   2  -7   8  104.29    5.40
  -3   7  -8    1.60    1.70
   3  -7   8    2.90    1.70
   3  -7   8    0.70    1.60
  -4   7  -8   13.70    3.10
   4  -7   8   21.10    3.40
   3   6  -8   50.29    4.00
  -3  -6   8   53.79    4.20
  -3  -6   8   40.70    4.90
   2   6  -8   29.80    4.00
  -2  -6   8   32.90    4.20
   1   6  -8    8.00    2.40
  -1  -6   8    7.10    2.20
   0   6  -8    0.20    1.40
   0  -6   8    0.70    1.40
  -1   6  -8   27.50    3.90
   1  -6   8   36.20    3.80
  -2   6  -8  137.89    6.60
   2  -6   8  147.99    6.00
   2  -6   8  143.89    5.60
  -3   6  -8    9.50    2.60
   3  -6   8    7.60    2.20
   3  -6   8   10.20    2.30
  -4   6  -8    6.90    2.50
   4  -6   8    7.90    2.20
  -5   6  -8    2.20    2.00
   5  -6   8    0.70    1.60
   4   5  -8   50.09    4.20
  -4  -5   8   42.30    4.70
  -4  -5   8   42.30    5.00
   3   5  -8   31.80    4.00
  -3  -5   8   30.80    4.00
  -3  -5   8   32.20    3.70
   2   5  -8   73.79    4.20
   2   5  -8   65.49    4.30
  -2  -5   8   63.49    4.40
  -2  -5   8   68.99    4.20
   1   5  -8   57.99    4.00
  -1  -5   8   56.89    4.00
   0   5  -8    3.20    1.70
   0  -5   8    5.10    1.80
  -1   5  -8   30.30    3.70
   1  -5   8   39.90    3.90
   1  -5   8   35.40    2.70
  -2   5  -8   78.99    4.80
   2  -5   8   75.39    4.00
   2  -5   8   78.09    4.10
  -3   5  -8  274.07    9.30
   3  -5   8  284.67    8.30
   3  -5   8  300.07    8.80
  -4   5  -8   18.40    3.40
   4  -5   8   21.00    3.10
  -5   5  -8   12.20    3.10
   5  -5   8    6.80    2.30
  -6   5  -8   11.50    2.90
   6  -5   8    6.10    2.40
   5   4  -8    1.50    1.80
  -5  -4   8    1.50    2.00
  -5  -4   8    1.70    2.00
   4   4  -8   -0.40    1.30
  -4  -4   8    0.90    1.70
  -4  -4   8    2.20    1.90
   3   4  -8    1.90    1.50
  -3  -4   8    1.30    1.60
  -3  -4   8    2.10    1.80
   2   4  -8  185.28    6.50
   2   4  -8  183.88    6.40
  -2  -4   8  177.38    6.90
  -2  -4   8  173.78    6.00
   1   4  -8  170.38    6.20
   1   4  -8  184.98    5.90
  -1  -4   8  170.98    6.30
   0   4  -8   26.90    2.20
   0   4  -8   25.10    3.20
   0  -4   8   25.70    2.60
   0  -4   8   26.50    3.10
  -1   4  -8    2.20    1.40
   1  -4   8    2.80    1.30
   1  -4   8    0.60    1.10
  -2   4  -8   30.80    3.70
   2  -4   8   32.00    3.20
   2  -4   8   32.00    3.20
  -3   4  -8  376.36   10.50
   3  -4   8  386.06    9.50
  -4   4  -8    5.40    2.10
   4  -4   8    4.00    1.70
  -5   4  -8   20.80    3.60
   5  -4   8   23.30    3.40
  -6   4  -8   30.60    4.30
   6  -4   8   27.90    3.80
   5   3  -8   -1.00    1.40
  -5  -3   8    0.10    1.70
  -5  -3   8   -0.30    1.80
   4   3  -8    0.90    1.40
  -4  -3   8    0.60    1.90
  -4  -3   8    1.50    1.70
   3   3  -8   29.20    3.50
  -3  -3   8   37.10    3.90
  -3  -3   8   40.50    4.40
   2   3  -8  237.08    7.30
  -2  -3   8  248.38    7.70
  -2  -3   8  232.98    6.80
   1   3  -8  181.08    5.90
   1   3  -8  179.58    5.80
  -1  -3   8  181.58    6.20
  -1  -3   8  178.28    5.20
   0   3  -8  141.49    4.80
   0   3  -8  145.09    5.30
   0  -3   8  134.29    5.00
   0  -3   8  143.69    4.70
  -1   3  -8    0.60    1.00
  -1   3  -8    4.10    1.20
   1  -3   8    1.50    1.20
   1  -3   8    1.60    1.10
  -2   3  -8   40.40    3.20
   2  -3   8   40.20    2.90
   2  -3   8   42.20    2.50
  -3   3  -8   26.60    3.50
   3  -3   8   25.10    2.90
  -4   3  -8  123.59    6.10
   4  -3   8  120.49    5.30
  -5   3  -8   50.69    4.30
   5  -3   8   53.39    3.90
  -6   3  -8   11.30    2.90
   6  -3   8   10.10    2.50
   5   2  -8   35.10    4.60
  -5  -2   8   27.20    4.00
   4   2  -8   23.30    3.10
  -4  -2   8   32.30    4.00
   3   2  -8  108.49    5.20
  -3  -2   8  111.09    5.40
   2   2  -8   17.00    2.50
  -2  -2   8   23.90    3.10
   1   2  -8  174.98    5.30
   1   2  -8  166.58    5.70
  -1  -2   8  180.58    5.90
  -1  -2   8  176.98    5.20
   0   2  -8   92.49    3.90
   0   2  -8   91.19    3.90
   0  -2   8  101.99    4.10
   0  -2   8   89.59    3.80
  -1   2  -8   12.00    2.10
  -1   2  -8   14.90    1.90
   1  -2   8   12.50    2.00
   1  -2   8   13.10    1.90
  -2   2  -8   19.30    2.80
  -2   2  -8   17.00    2.20
   2  -2   8   18.40    2.40
   2  -2   8   19.70    2.10
  -3   2  -8   26.20    3.20
   3  -2   8   28.70    3.20
  -4   2  -8  633.84   14.20
   4  -2   8  630.34   12.60
  -5   2  -8   52.19    4.30
   5  -2   8   51.79    3.80
  -6   2  -8    5.50    2.20
   6  -2   8    5.40    2.00
  -7   2  -8    7.10    2.50
   7  -2   8   10.70    2.60
   5   1  -8   56.59    4.60
  -5  -1   8   54.79    4.70
   4   1  -8   31.20    3.80
  -4  -1   8   32.50    4.10
   3   1  -8    7.20    1.90
  -3  -1   8   10.90    2.50
   2   1  -8   38.70    3.00
  -2  -1   8   45.60    2.80
  -2  -1   8   41.90    3.20
   1   1  -8   95.79    4.30
  -1  -1   8   98.39    3.90
  -1  -1   8  106.69    4.40
   0   1  -8  185.78    5.30
   0   1  -8  179.08    5.60
   0  -1   8  188.38    5.30
   0  -1   8  177.18    5.40
  -1   1  -8  449.76    9.20
  -1   1  -8  477.75    9.40
   1  -1   8  475.75    9.60
   1  -1   8  452.35    8.20
  -2   1  -8  220.38    6.60
  -2   1  -8  222.88    5.90
   2  -1   8  224.38    6.40
  -3   1  -8   19.40    2.30
  -3   1  -8   16.10    2.60
   3  -1   8   19.60    2.50
  -4   1  -8  311.07    8.10
  -4   1  -8  288.57    8.80
   4  -1   8  288.67    8.00
  -5   1  -8   21.60    3.30
   5  -1   8   27.70    3.30
  -6   1  -8    7.60    2.40
   6  -1   8   10.90    2.50
  -7   1  -8   -1.70    1.30
   7  -1   8    2.40    1.90
   5   0  -8   11.60    2.80
  -5   0   8   25.70    4.20
   4   0  -8   42.00    4.90
  -4   0   8   37.70    4.20
   3   0  -8   -0.80    1.10
  -3   0   8   -1.10    1.00
  -3   0   8   -0.40    1.00
   2   0  -8    1.40    1.10
  -2   0   8    1.90    1.30
  -2   0   8    1.60    1.10
   1   0  -8  154.18    5.40
  -1   0   8  163.68    5.20
  -1   0   8  157.48    5.20
   0   0  -8  340.27    6.90
   0   0  -8  349.87    8.20
   0   0   8  338.97    7.80
   0   0   8  330.67    7.20
  -1   0  -8  101.69    4.10
  -1   0  -8  103.89    3.90
   1   0   8  101.59    4.20
   1   0   8  107.99    3.30
  -2   0  -8   32.60    2.40
  -2   0  -8   36.20    2.70
   2   0   8   35.20    2.60
  -3   0  -8    6.20    1.70
  -3   0  -8    7.00    1.60
   3   0   8    5.30    1.60
  -4   0  -8    5.50    1.60
  -4   0  -8    5.30    1.80
   4   0   8    5.50    1.60
  -5   0  -8  116.39    5.80
  -5   0  -8  131.39    4.80
   5   0   8  122.69    5.30
  -6   0  -8   58.09    4.50
   6   0   8   54.29    3.90
  -7   0  -8    2.40    1.90
   7   0   8   -0.10    1.50
   5  -1  -8    9.70    2.50
  -5   1   8    9.30    2.70
   4  -1  -8   30.40    3.70
  -4   1   8   34.00    4.10
   3  -1  -8   20.50    2.90
  -3   1   8   22.30    3.20
  -3   1   8   28.10    3.20
   2  -1  -8  100.69    4.80
  -2   1   8  110.39    4.80
  -2   1   8  112.09    4.60
   1  -1  -8    1.70    1.20
  -1   1   8    1.60    1.10
  -1   1   8    1.10    1.10
   0   1   8  264.97    7.00
   0   1   8  240.88    5.90
  -1  -1  -8  128.09    4.80
  -1  -1  -8  137.29    4.40
   1   1   8  133.29    4.80
  -2  -1  -8   53.39    3.00
  -2  -1  -8   54.59    3.10
   2   1   8   53.49    3.20
  -3  -1  -8   21.30    2.80
  -3  -1  -8   16.90    2.30
   3   1   8   19.50    2.70
  -4  -1  -8    3.30    1.40
   4   1   8    4.80    1.70
   4   1   8    1.70    1.20
  -5  -1  -8  451.05    9.80
   5   1   8  420.46   11.10
   5   1   8  424.26   10.10
  -6  -1  -8   76.89    4.20
   6   1   8   78.39    5.20
   6   1   8   67.59    4.20
  -7  -1  -8   12.20    2.90
   7   1   8   19.80    3.10
   5  -2  -8    3.10    1.80
  -5   2   8    2.60    2.00
   4  -2  -8    0.80    1.40
  -4   2   8   -0.30    1.40
  -4   2   8   -1.00    1.20
   3  -2  -8   22.80    3.10
  -3   2   8   26.90    3.30
   2  -2  -8   67.49    4.00
  -2   2   8   69.79    4.00
  -2   2   8   73.29    4.00
   1  -2  -8    2.20    1.30
  -1   2   8    3.10    1.20
  -1   2   8    1.60    1.10
   0  -2  -8  607.14   10.90
   0  -2  -8  592.74   11.90
   0   2   8  610.94   11.70
   0   2   8  632.24   10.50
  -1  -2  -8  363.96    8.70
  -1  -2  -8  375.06    7.50
  -1  -2  -8  377.46    7.50
   1   2   8  383.36    8.70
  -2  -2  -8   18.00    2.40
  -2  -2  -8   20.00    1.60
   2   2   8   20.70    2.40
   2   2   8   20.20    2.60
  -3  -2  -8   59.49    3.40
   3   2   8   64.09    3.60
   3   2   8   59.59    3.50
  -4  -2  -8   42.60    3.10
   4   2   8   44.70    3.40
   4   2   8   46.40    3.20
  -5  -2  -8   87.39    4.40
   5   2   8   93.39    4.40
   5   2   8   77.09    4.70
  -6  -2  -8   84.79    4.60
   6   2   8   85.49    5.30
   6   2   8   78.69    4.40
  -7  -2  -8   88.29    5.10
   7   2   8   76.39    5.50
   5  -3  -8    1.90    1.70
  -5   3   8   -1.00    1.60
  -5   3   8   -1.00    1.60
   4  -3  -8    1.20    1.60
   4  -3  -8    0.00    1.30
  -4   3   8    2.20    1.80
   3  -3  -8   72.59    4.40
   3  -3  -8   61.79    4.10
  -3   3   8   72.99    4.30
   2  -3  -8   64.19    3.70
   2  -3  -8   61.09    3.90
  -2   3   8   61.99    3.90
   1  -3  -8   98.89    4.10
   1  -3  -8   93.59    4.30
   1  -3  -8   92.89    4.50
  -1   3   8   89.09    4.40
   0  -3  -8    3.50    1.10
   0  -3  -8    2.70    1.20
   0  -3  -8    5.80    1.70
   0   3   8    1.50    1.20
  -1  -3  -8   86.19    3.60
  -1  -3  -8   93.29    4.30
   1   3   8   93.19    3.50
   1   3   8   83.89    4.10
  -2  -3  -8  120.69    4.10
  -2  -3  -8  127.29    5.00
   2   3   8  120.29    4.50
   2   3   8  127.29    5.00
  -3  -3  -8    7.10    1.80
  -3  -3  -8    7.30    1.50
   3   3   8    6.10    1.70
   3   3   8    5.70    1.60
  -4  -3  -8    0.70    1.20
   4   3   8   -0.50    1.00
   4   3   8    0.60    1.20
  -5  -3  -8    9.20    2.10
   5   3   8    9.10    2.00
   5   3   8    7.80    2.20
  -6  -3  -8  131.59    5.90
   6   3   8  113.89    6.20
   6   3   8  128.19    5.40
  -7  -3  -8   35.50    4.20
   7   3   8   24.50    3.90
   5  -4  -8   14.00    3.00
   5  -4  -8   16.40    3.50
  -5   4   8   19.30    3.60
   4  -4  -8   66.29    4.60
   4  -4  -8   60.19    4.60
  -4   4   8   76.89    5.00
   3  -4  -8   29.30    3.60
   3  -4  -8   32.80    4.00
  -3   4   8   38.80    4.20
   2  -4  -8   16.30    2.80
  -2   4   8   19.70    3.00
   1  -4  -8   23.80    3.00
   1  -4  -8   27.70    3.00
   1  -4  -8   24.80    3.00
  -1   4   8   26.30    3.30
   0  -4  -8  172.28    6.20
   0  -4  -8  163.78    5.60
   0  -4  -8  173.68    5.00
   0   4   8  172.58    6.10
  -1  -4  -8  274.67    7.00
  -1  -4  -8  264.87    7.70
   1   4   8  258.07    7.50
  -2  -4  -8  343.57    7.80
  -2  -4  -8  328.57    8.60
   2   4   8  341.77    7.90
   2   4   8  331.97    8.50
  -3  -4  -8   82.79    3.60
  -3  -4  -8   78.89    4.30
   3   4   8   87.29    4.30
   3   4   8   73.09    4.00
  -4  -4  -8   49.30    3.50
   4   4   8   51.39    3.50
   4   4   8   41.30    3.40
  -5  -4  -8    0.10    1.20
   5   4   8    0.30    1.20
   5   4   8    0.80    1.30
  -6  -4  -8   38.80    4.50
   6   4   8   39.00    4.60
  -7  -4  -8   21.30    3.70
   7   4   8   16.00    3.50
   4  -5  -8   20.20    3.50
   4  -5  -8   20.00    3.40
  -4   5   8    9.50    2.40
   3  -5  -8    5.40    2.10
   3  -5  -8    5.00    1.90
  -3   5   8    4.40    2.00
   2  -5  -8    7.50    2.00
   2  -5  -8   12.00    2.50
   2  -5  -8    9.70    2.30
  -2   5   8    7.90    2.20
   1  -5  -8    9.50    2.20
   1  -5  -8    7.20    1.80
   1  -5  -8    7.50    1.90
  -1   5   8   10.10    2.30
   0  -5  -8   15.90    2.50
   0  -5  -8   17.90    2.90
   0   5   8   19.40    3.00
  -1  -5  -8  151.48    5.50
  -1  -5  -8  145.09    5.80
   1   5   8  148.49    5.80
  -2  -5  -8  260.97    7.80
  -2  -5  -8  257.97    7.20
   2   5   8  270.77    7.10
   2   5   8  247.58    7.60
  -3  -5  -8  272.37    7.30
  -3  -5  -8  257.97    8.00
   3   5   8  269.27    7.80
   3   5   8  271.97    7.80
  -4  -5  -8   11.40    2.10
  -4  -5  -8   11.40    2.40
   4   5   8   15.90    2.60
   4   5   8   10.40    2.30
  -5  -5  -8    1.40    1.40
   5   5   8    0.30    1.40
  -6  -5  -8   21.40    3.30
   6   5   8   25.80    4.00
   4  -6  -8    3.60    2.20
  -4   6   8    7.30    2.60
   3  -6  -8   11.90    2.70
   3  -6  -8    6.80    2.00
  -3   6   8   12.50    2.90
   2  -6  -8    4.90    1.80
   2  -6  -8    7.20    2.20
   2  -6  -8    7.60    2.20
  -2   6   8   11.00    2.50
   1  -6  -8   49.70    3.40
   1  -6  -8   43.20    4.50
   1  -6  -8   50.29    3.80
  -1   6   8   48.90    3.90
   0  -6  -8  139.69    5.80
   0  -6  -8  143.29    6.10
   0   6   8  153.38    6.20
  -1  -6  -8   15.80    2.50
  -1  -6  -8   16.80    2.70
   1   6   8   19.70    3.10
  -2  -6  -8   31.20    3.60
  -2  -6  -8   25.70    3.30
   2   6   8   33.90    3.80
  -3  -6  -8   52.29    3.50
  -3  -6  -8   47.50    3.80
   3   6   8   49.20    3.60
   3   6   8   49.90    3.60
  -4  -6  -8   14.30    2.70
  -4  -6  -8   15.00    2.50
   4   6   8   15.30    2.80
   4   6   8   14.00    2.60
  -5  -6  -8   10.70    2.60
   5   6   8   17.10    3.30
  -6  -6  -8    2.20    1.90
   6   6   8    2.50    1.90
   3  -7  -8    4.90    2.10
   3  -7  -8    6.00    2.30
  -3   7   8    6.90    2.60
   2  -7  -8   42.30    4.60
   2  -7  -8   32.60    4.20
   2  -7  -8   36.40    4.10
  -2   7   8   39.10    4.50
   1  -7  -8   33.50    4.10
   1  -7  -8   27.80    3.50
   1  -7  -8   30.60    3.80
  -1   7   8   32.40    4.10
   0  -7  -8   31.90    3.70
   0  -7  -8   33.20    4.10
   0   7   8   38.90    4.30
  -1  -7  -8   14.30    2.70
  -1  -7  -8   12.70    2.60
   1   7   8   15.10    2.80
  -2  -7  -8   17.60    2.90
  -2  -7  -8   14.40    2.70
   2   7   8   20.40    3.10
  -3  -7  -8   29.20    3.90
  -3  -7  -8   31.70    3.70
   3   7   8   30.90    3.70
   3   7   8   38.70    4.20
  -4  -7  -8   71.09    4.70
  -4  -7  -8   81.99    4.60
   4   7   8   85.49    5.10
  -5  -7  -8   31.10    4.00
  -5  -7  -8   29.70    4.20
   5   7   8   28.10    4.10
   2  -8  -8    6.20    2.20
   2  -8  -8    7.40    2.40
  -2   8   8    6.80    2.40
   1  -8  -8    9.10    2.80
  -1   8   8    8.40    2.60
   0  -8  -8   26.00    3.80
   0  -8  -8   24.80    3.70
   0   8   8   31.00    4.00
  -1  -8  -8   47.70    5.10
  -1  -8  -8   40.20    4.50
   1   8   8   49.10    5.10
  -2  -8  -8   14.50    2.90
  -2  -8  -8   14.70    2.90
   2   8   8   18.40    3.20
  -3  -8  -8   31.50    4.10
  -3  -8  -8   42.20    4.60
  -4  -8  -8   73.09    5.10
  -4  -8  -8   79.59    4.90
   4   8   8   77.29    5.30
   0  -9  -8    1.90    1.80
   0   9   8    2.20    1.90
  -1  -9  -8   37.80    4.40
  -1  -9  -8   37.60    4.50
   1   9   8   50.99    5.30
  -2  -9  -8    1.70    1.90
  -2  -9  -8    1.20    1.70
  -3  -9  -8   26.00    4.10
  -3  -9  -8   19.90    3.30
   2   7  -9   25.70    4.20
  -2  -7   9   20.60    3.70
   1   7  -9   29.60    4.10
  -1  -7   9   38.80    4.70
   0   7  -9   23.30    3.80
   0  -7   9   26.20    3.80
  -1   7  -9   12.80    3.00
   1  -7   9   13.60    2.90
  -2   7  -9   49.40    5.70
   2  -7   9   57.09    4.30
  -3   7  -9   40.20    5.10
   3  -7   9   49.50    4.00
  -3  -6   9    4.40    2.40
   2   6  -9   34.20    4.30
  -2  -6   9   41.80    4.80
   1   6  -9   17.20    3.20
  -1  -6   9   14.30    3.00
   0   6  -9    1.50    1.60
   0  -6   9   -0.50    1.30
  -1   6  -9    7.50    2.30
   1  -6   9    7.60    2.10
  -2   6  -9    3.90    2.10
   2  -6   9    4.00    1.80
   2  -6   9    2.50    1.70
  -3   6  -9  130.09    6.90
   3  -6   9  140.29    6.10
  -4   6  -9    2.00    1.80
   4  -6   9    5.00    2.10
   3   5  -9    5.90    2.10
  -3  -5   9    5.70    2.30
   2   5  -9   41.80    3.50
  -2  -5   9   37.10    4.40
   1   5  -9    2.50    1.70
  -1  -5   9    7.80    2.20
   0   5  -9    7.00    2.30
   0  -5   9    7.80    2.20
  -1   5  -9  115.29    5.80
   1  -5   9  111.29    5.10
   1  -5   9  103.49    4.90
  -2   5  -9   63.49    4.50
   2  -5   9   62.79    3.90
   2  -5   9   60.79    3.80
  -3   5  -9  154.58    7.20
   3  -5   9  152.48    6.10
  -4   5  -9   23.20    3.90
   4  -5   9   17.70    3.00
  -5   5  -9    0.30    1.70
   5  -5   9    2.90    2.00
   4   4  -9   19.30    3.30
  -4  -4   9   17.00    3.50
  -4  -4   9   22.60    3.70
   3   4  -9    7.10    2.30
  -3  -4   9    4.80    2.10
  -3  -4   9    8.40    2.60
   2   4  -9   18.10    2.80
  -2  -4   9   22.90    3.50
   1   4  -9   62.69    4.00
   1   4  -9   72.69    4.00
  -1  -4   9   71.79    4.30
   0   4  -9  107.89    5.10
   0  -4   9  105.69    5.00
  -1   4  -9   94.69    4.90
   1  -4   9   83.69    4.10
   1  -4   9   81.99    4.20
  -2   4  -9  103.49    5.40
   2  -4   9  102.59    4.70
   2  -4   9   94.09    6.40
  -3   4  -9   50.79    4.10
   3  -4   9   49.00    3.60
  -4   4  -9   78.39    5.20
   4  -4   9   74.89    4.60
  -5   4  -9   25.30    4.20
   5  -4   9   16.80    3.00
  -6   4  -9    1.70    2.00
   6  -4   9    0.70    1.80
   4   3  -9    1.10    1.50
  -4  -3   9    3.00    2.30
  -4  -3   9    0.80    1.80
   3   3  -9   29.60    3.50
  -3  -3   9   44.20    3.60
  -3  -3   9   45.30    4.80
   2   3  -9    4.80    1.80
  -2  -3   9    5.60    1.80
  -2  -3   9    3.00    1.80
   1   3  -9  255.87    7.40
   1   3  -9  245.28    7.30
  -1  -3   9  244.48    7.60
   0   3  -9   46.60    3.10
   0   3  -9   45.70    3.30
   0  -3   9   47.80    3.30
   0  -3   9   48.40    3.00
  -1   3  -9    3.70    1.50
  -1   3  -9    5.90    1.50
   1  -3   9    5.20    1.50
   1  -3   9    5.90    1.70
  -2   3  -9    2.40    1.50
   2  -3   9    1.40    1.20
  -3   3  -9   -0.40    1.20
   3  -3   9    3.00    1.60
  -4   3  -9  246.18    8.80
   4  -3   9  239.28    7.80
  -5   3  -9   65.69    5.00
   5  -3   9   71.99    4.60
  -6   3  -9   17.50    3.60
   6  -3   9   22.30    3.40
   4   2  -9   18.60    3.30
  -4  -2   9   12.50    2.90
   3   2  -9   35.80    4.10
  -3  -2   9   36.00    4.20
   2   2  -9    7.50    2.00
  -2  -2   9    9.10    2.30
   1   2  -9  251.97    7.50
  -1  -2   9  268.57    6.90
  -1  -2   9  253.77    7.40
   0   2  -9   53.79    3.20
   0   2  -9   56.99    3.40
   0  -2   9   55.49    3.30
   0  -2   9   55.29    3.30
  -1   2  -9    0.50    1.10
  -1   2  -9    1.60    1.10
   1  -2   9    1.70    1.10
   1  -2   9    1.00    1.20
  -2   2  -9   14.20    2.60
  -2   2  -9   10.60    1.80
   2  -2   9   10.80    2.10
  -3   2  -9   90.29    4.90
   3  -2   9   80.59    4.30
  -4   2  -9  170.38    7.10
   4  -2   9  180.08    6.60
  -5   2  -9   40.90    4.90
   5  -2   9   36.90    4.10
  -6   2  -9   28.80    4.10
   6  -2   9   37.60    4.30
   5   1  -9    1.30    1.50
  -5  -1   9    0.60    1.90
   4   1  -9    8.60    2.50
  -4  -1   9    9.20    2.50
   3   1  -9   61.39    4.20
  -3  -1   9   59.19    4.20
   2   1  -9  135.49    5.70
  -2  -1   9  134.89    5.30
  -2  -1   9  129.19    5.50
   1   1  -9   12.80    2.30
  -1  -1   9   15.80    2.40
  -1  -1   9    9.80    1.90
   0   1  -9  164.98    5.10
   0   1  -9  155.98    5.50
   0  -1   9  149.99    5.30
   0  -1   9  151.88    5.10
  -1   1  -9  208.08    6.20
  -1   1  -9  215.08    6.30
   1  -1   9  215.88    6.50
   1  -1   9  229.88    8.00
  -2   1  -9   73.19    4.00
  -2   1  -9   75.89    3.70
   2  -1   9   75.49    4.00
  -3   1  -9   56.59    3.30
  -3   1  -9   53.39    3.70
   3  -1   9   54.69    3.50
  -4   1  -9   29.70    3.80
   4  -1   9   30.80    3.40
  -5   1  -9  101.39    5.70
   5  -1   9  114.79    5.40
  -6   1  -9   23.70    4.00
   6  -1   9   23.30    3.50
  -7   1  -9    1.20    1.90
   7  -1   9    3.10    2.00
   5   0  -9    3.50    1.70
  -5   0   9    2.40    2.10
   4   0  -9   10.30    2.60
  -4   0   9    9.20    2.70
   3   0  -9   19.30    3.00
  -3   0   9   24.40    3.70
   2   0  -9   79.59    4.50
  -2   0   9   90.09    4.60
  -2   0   9   89.49    4.30
   1   0  -9   51.69    3.40
  -1   0   9   49.20    3.10
  -1   0   9   45.60    3.10
   0   0  -9  160.08    5.70
   0   0   9  167.48    5.60
   0   0   9  162.98    5.00
  -1   0  -9  201.78    6.30
  -1   0  -9  207.28    6.00
  -2   0  -9   47.80    3.20
  -2   0  -9   51.59    3.20
   2   0   9   51.59    3.30
  -3   0  -9   25.90    3.20
  -3   0  -9   30.70    3.10
   3   0   9   25.60    3.00
  -4   0  -9   21.70    2.80
  -4   0  -9   18.90    3.00
   4   0   9   22.60    3.00
  -5   0  -9   96.19    5.50
   5   0   9   97.19    5.00
  -6   0  -9   16.70    3.30
   6   0   9   17.70    3.10
  -7   0  -9   38.30    5.10
   7   0   9   43.70    4.60
   5  -1  -9    5.10    2.00
  -5   1   9   10.50    3.00
   4  -1  -9    1.50    1.70
  -4   1   9    5.60    2.20
   3  -1  -9   15.00    2.60
  -3   1   9   19.40    2.80
  -3   1   9   18.90    3.10
   2  -1  -9   59.29    4.00
  -2   1   9   72.99    4.00
  -2   1   9   66.19    4.00
   1  -1  -9    9.10    2.00
  -1   1   9    9.70    2.10
  -1   1   9    7.20    1.80
   0  -1  -9   67.39    3.80
   0   1   9   70.59    3.80
   0   1   9   66.69    3.20
  -1  -1  -9   64.49    3.20
  -1  -1  -9   60.79    3.60
   1   1   9   65.29    3.60
  -2  -1  -9   96.79    4.40
  -2  -1  -9   96.89    4.30
   2   1   9  105.79    4.70
  -3  -1  -9   34.90    2.90
  -3  -1  -9   37.40    2.90
   3   1   9   37.00    3.00
  -4  -1  -9    6.30    1.80
  -4  -1  -9    5.60    1.90
   4   1   9    4.30    1.80
  -5  -1  -9   56.49    3.80
  -5  -1  -9   54.79    4.10
   5   1   9   60.69    4.00
  -6  -1  -9   60.19    4.70
   6   1   9   60.19    4.10
  -7  -1  -9   21.70    4.10
   7   1   9   24.40    3.50
   5  -2  -9    1.40    1.80
  -5   2   9    4.10    2.50
   4  -2  -9   17.20    3.00
  -4   2   9   13.40    2.90
  -4   2   9   22.70    3.40
   3  -2  -9   28.90    3.60
  -3   2   9   40.10    4.30
  -3   2   9   38.00    4.00
   2  -2  -9   35.20    3.90
  -2   2   9   45.70    3.50
  -2   2   9   26.40    3.00
   1  -2  -9  341.57    9.00
  -1   2   9  333.37    8.80
  -1   2   9  332.77    8.30
   0  -2  -9    6.20    1.80
   0   2   9    5.90    1.70
   0   2   9    6.20    1.70
  -1  -2  -9   37.30    3.90
  -1  -2  -9   33.30    2.30
   1   2   9   34.80    3.50
  -2  -2  -9   97.39    4.60
  -2  -2  -9  103.39    4.30
   2   2   9   89.89    4.40
  -3  -2  -9   47.80    3.40
   3   2   9   50.79    3.50
   3   2   9   46.80    3.40
  -4  -2  -9   58.99    3.80
   4   2   9   56.59    3.70
   4   2   9   55.79    3.80
  -5  -2  -9   75.39    4.30
   5   2   9   69.39    4.10
   5   2   9   60.79    4.40
  -6  -2  -9   94.89    5.00
   6   2   9   99.69    5.20
   6   2   9   88.99    5.60
   7   2   9   27.00    3.70
   7   2   9   23.90    3.80
   4  -3  -9    0.60    1.60
  -4   3   9   -1.20    1.50
  -4   3   9    1.00    1.70
   3  -3  -9   -1.50    1.10
  -3   3   9    0.70    1.60
  -3   3   9    0.30    1.40
   2  -3  -9   42.00    4.20
  -2   3   9   42.10    4.40
   1  -3  -9  168.18    6.40
  -1   3   9  162.68    6.20
  -1   3   9  173.38    5.80
   0  -3  -9    2.90    1.30
   0  -3  -9    0.40    1.10
   0   3   9   -0.20    1.10
  -1  -3  -9  131.59    4.60
  -1  -3  -9  129.69    5.50
   1   3   9  121.89    5.20
  -2  -3  -9   22.60    2.50
  -2  -3  -9   20.60    2.80
   2   3   9   19.60    2.50
   2   3   9   21.10    2.80
  -3  -3  -9   38.00    3.10
   3   3   9   47.30    3.30
   3   3   9   43.80    3.30
  -4  -3  -9   81.29    4.50
   4   3   9   80.79    4.40
   4   3   9   80.39    4.60
  -5  -3  -9   37.00    3.80
   5   3   9   30.00    3.80
   5   3   9   38.80    4.00
  -6  -3  -9   74.09    4.70
   6   3   9   76.09    4.50
   6   3   9   86.49    5.60
   4  -4  -9   -1.70    1.20
   4  -4  -9    0.00    1.70
  -4   4   9   -0.90    1.60
   3  -4  -9    2.30    1.60
   3  -4  -9    3.40    1.80
  -3   4   9    3.20    2.10
   2  -4  -9    2.80    1.70
   2  -4  -9    3.30    1.60
  -2   4   9    2.90    1.70
   1  -4  -9   16.90    2.90
   1  -4  -9   17.60    2.60
   1  -4  -9   17.90    2.90
  -1   4   9   15.70    2.70
   0  -4  -9  148.39    5.60
   0  -4  -9  147.19    6.10
   0   4   9  151.28    6.00
  -1  -4  -9   40.40    2.90
  -1  -4  -9   35.70    3.90
   1   4   9   41.50    4.20
  -2  -4  -9    8.30    2.20
  -2  -4  -9    9.00    1.90
   2   4   9   12.90    2.40
   2   4   9    8.90    1.90
  -3  -4  -9   80.79    4.50
   3   4   9   88.19    4.50
   3   4   9   70.49    4.20
  -4  -4  -9   19.50    3.00
   4   4   9   16.00    2.70
   4   4   9   25.60    3.40
  -5  -4  -9    5.70    2.00
   5   4   9    9.10    2.60
   5   4   9    8.10    2.10
  -6  -4  -9    7.30    2.10
   6   4   9   11.90    3.00
   4  -5  -9   15.20    3.20
   4  -5  -9    7.60    2.40
  -4   5   9   16.70    3.30
   3  -5  -9    1.20    1.70
   3  -5  -9    1.10    1.50
  -3   5   9   -0.20    1.60
   2  -5  -9    6.40    2.00
   2  -5  -9    6.10    2.00
  -2   5   9    7.50    2.20
   1  -5  -9   29.50    3.80
   1  -5  -9   29.20    3.90
   1  -5  -9   40.00    4.90
  -1   5   9   35.30    4.10
   0  -5  -9   94.09    4.70
   0  -5  -9   91.99    5.10
   0   5   9  100.29    5.20
  -1  -5  -9    7.20    2.00
  -1  -5  -9   13.30    2.40
   1   5   9   12.10    2.50
  -2  -5  -9  241.08    8.00
  -2  -5  -9  254.17    7.30
   2   5   9  256.57    8.00
  -3  -5  -9   66.09    3.70
  -3  -5  -9   55.69    4.00
   3   5   9   62.09    3.90
   3   5   9   60.39    4.00
  -4  -5  -9    5.90    2.00
   4   5   9    6.40    1.90
   4   5   9    6.40    2.00
  -5  -5  -9    4.80    1.90
   5   5   9    3.80    1.80
   5   5   9    4.30    1.90
  -6  -5  -9   14.10    2.90
   6   5   9   12.20    2.90
   3  -6  -9    3.60    1.90
   3  -6  -9    1.80    1.80
  -3   6   9    5.00    2.20
   2  -6  -9    5.10    2.00
   2  -6  -9    6.40    2.10
   2  -6  -9    3.50    1.60
  -2   6   9    5.20    2.30
   1  -6  -9    1.60    1.30
   1  -6  -9    1.70    1.60
  -1   6   9    5.60    2.10
   0  -6  -9   70.69    4.60
   0  -6  -9   72.09    4.50
   0   6   9   66.49    4.50
  -1  -6  -9   58.89    3.90
  -1  -6  -9   61.09    4.30
   1   6   9   67.69    4.40
  -2  -6  -9   59.99    3.90
  -2  -6  -9   58.89    4.30
   2   6   9   66.69    4.30
  -3  -6  -9    5.60    1.90
  -3  -6  -9    5.90    2.10
   3   6   9    6.10    1.90
   3   6   9    4.90    1.90
  -4  -6  -9   33.00    4.20
   4   6   9   29.80    3.80
   4   6   9   31.30    3.80
  -5  -6  -9    7.60    2.30
   5   6   9   10.40    2.80
   2  -7  -9    5.10    2.10
   2  -7  -9    3.30    2.20
   2  -7  -9    2.90    1.90
  -2   7   9    4.90    2.50
   1  -7  -9   16.60    3.00
   1  -7  -9   19.00    3.30
  -1   7   9   22.80    3.70
   0  -7  -9   29.20    4.10
   0  -7  -9   22.20    3.40
   0   7   9   23.40    3.60
  -1  -7  -9    2.90    1.70
  -1  -7  -9    6.70    2.20
   1   7   9    6.70    2.10
  -2  -7  -9    1.00    1.60
  -2  -7  -9    0.00    1.20
   2   7   9    2.20    1.90
  -3  -7  -9   17.70    3.00
  -3  -7  -9   13.90    2.90
   3   7   9   15.90    2.90
  -4  -7  -9   39.50    4.70
  -4  -7  -9   41.50    4.30
   4   7   9   38.20    4.30
  -5  -7  -9   22.10    3.80
   5   7   9   23.50    4.10
   1  -8  -9    4.60    2.00
   1  -8  -9    4.60    2.10
  -1   8   9    5.90    2.60
   0  -8  -9    0.30    1.50
   0  -8  -9    1.40    1.60
   0   8   9    2.70    2.10
  -1  -8  -9   40.00    4.80
  -1  -8  -9   41.00    4.70
   1   8   9   41.30    4.80
  -2  -8  -9    3.30    1.90
  -2  -8  -9    3.20    2.00
   2   8   9    4.60    2.00
  -3  -8  -9   32.90    4.20
  -3  -8  -9   30.90    4.20
  -4  -8  -9   43.50    4.60
  -4  -8  -9   41.90    5.00
   0   7 -10    8.30    2.50
   0  -7  10   10.20    2.90
  -1   7 -10   26.80    4.30
   1  -7  10   24.50    3.70
  -2   7 -10    9.30    2.80
  -2  -6  10   20.60    3.70
   1   6 -10   29.80    4.00
  -1  -6  10   29.60    4.10
   0   6 -10   42.80    5.00
   0  -6  10   42.10    4.70
  -1   6 -10   17.50    3.50
   1  -6  10   18.10    3.00
  -2   6 -10   17.80    3.40
  -3   6 -10   42.70    5.10
   3  -6  10   53.39    4.30
   3   5 -10   11.30    2.70
  -3  -5  10   13.30    3.20
  -2  -5  10    1.80    1.90
   1   5 -10    9.20    2.40
  -1  -5  10   10.60    2.60
   0   5 -10   61.09    4.50
   0  -5  10   59.29    4.30
  -1   5 -10   31.60    4.10
   1  -5  10   24.00    3.30
  -2   5 -10   13.00    2.80
   2  -5  10   13.50    2.50
  -3   5 -10    5.80    2.20
   3  -5  10    5.00    1.90
  -4   5 -10   14.50    3.60
   4  -5  10   15.10    3.00
   3   4 -10   41.00    4.60
  -3  -4  10   43.10    4.90
   2   4 -10    9.00    2.30
  -2  -4  10    7.10    2.30
   1   4 -10   46.90    3.50
  -1  -4  10   43.40    3.70
   0   4 -10   59.99    4.10
   0  -4  10   61.89    4.20
  -1   4 -10   84.09    4.90
   1  -4  10   81.59    4.40
   1  -4  10   79.59    4.20
  -2   4 -10   84.39    5.00
   2  -4  10   87.29    4.60
  -3   4 -10   37.50    4.30
   3  -4  10   30.70    3.60
  -4   4 -10   50.89    5.50
   4  -4  10   58.39    4.30
  -5   4 -10    1.50    1.90
   5  -4  10    2.00    1.80
   4   3 -10    1.70    1.80
  -4  -3  10    9.10    2.70
  -4  -3  10    5.40    2.40
   3   3 -10   58.89    4.40
  -3  -3  10   77.29    5.20
  -3  -3  10   68.89    4.60
   2   3 -10   31.10    3.70
  -2  -3  10   37.00    4.30
   1   3 -10   25.70    3.50
  -1  -3  10   25.80    3.40
   0   3 -10    8.10    2.00
   0   3 -10    8.40    2.00
   0  -3  10    9.40    2.20
   0  -3  10    7.00    1.80
  -1   3 -10  140.29    5.90
   1  -3  10  146.49    5.50
  -2   3 -10  104.99    5.30
   2  -3  10  108.89    5.00
  -3   3 -10   19.70    3.10
   3  -3  10   25.40    3.40
  -4   3 -10   32.50    4.40
   4  -3  10   32.90    3.80
  -5   3 -10   36.40    4.70
   5  -3  10   38.70    4.30
  -6   3 -10   23.20    4.10
   6  -3  10   37.70    4.70
   4   2 -10   17.70    3.40
   3   2 -10   79.99    5.10
  -3  -2  10   92.39    5.60
   2   2 -10  135.79    6.00
  -2  -2  10  138.59    6.20
   1   2 -10    0.50    1.30
  -1  -2  10   -0.90    1.20
   0   2 -10    2.90    1.30
   0  -2  10    1.80    1.40
   0  -2  10    1.20    1.30
  -1   2 -10    1.40    1.20
  -1   2 -10    0.30    1.10
   1  -2  10    2.20    1.50
  -2   2 -10    7.60    2.40
  -2   2 -10    5.00    1.80
   2  -2  10    6.80    1.90
  -3   2 -10   49.30    3.90
   3  -2  10   40.80    3.40
  -4   2 -10   58.19    4.50
   4  -2  10   48.10    3.80
  -5   2 -10   61.19    4.90
   5  -2  10   57.79    4.20
  -6   2 -10   23.10    4.20
   6  -2  10   18.20    3.30
   4   1 -10   22.70    3.60
  -4  -1  10   28.20    4.10
   3   1 -10   25.10    3.60
  -3  -1  10   32.00    4.10
   2   1 -10   88.59    4.90
  -2  -1  10   87.09    4.80
   1   1 -10    4.10    1.50
  -1  -1  10    2.50    1.70
  -1  -1  10    1.10    1.10
   0   1 -10   29.90    3.30
   0  -1  10   32.20    3.30
   0  -1  10   28.30    3.30
  -1   1 -10   20.40    2.70
  -1   1 -10   13.30    2.30
   1  -1  10   15.10    2.50
  -2   1 -10  123.09    5.00
  -2   1 -10  121.89    5.30
   2  -1  10  115.99    5.20
  -3   1 -10  191.98    6.20
  -3   1 -10  180.68    6.90
   3  -1  10  181.28    6.50
  -4   1 -10   76.19    4.90
   4  -1  10   66.89    4.30
  -5   1 -10   24.50    3.70
   5  -1  10   23.60    3.30
  -6   1 -10    8.80    2.60
   6  -1  10   10.20    2.60
   4   0 -10    0.70    1.50
  -4   0  10    1.30    2.00
   3   0 -10    2.40    1.70
  -3   0  10    2.00    1.70
   2   0 -10   19.70    3.00
  -2   0  10   19.60    2.70
   1   0 -10   94.09    4.80
  -1   0  10   98.59    4.60
  -1   0  10   97.29    4.60
   0   0 -10  153.58    5.80
   0   0  10  147.79    5.60
  -1   0 -10  100.49    4.70
  -1   0 -10  107.69    4.90
   1   0  10   99.89    4.70
  -2   0 -10  165.28    6.00
  -2   0 -10  161.48    5.90
   2   0  10  161.78    6.10
  -3   0 -10   69.89    4.30
  -3   0 -10   77.99    4.20
   3   0  10   71.99    4.20
  -4   0 -10   22.10    2.90
  -4   0 -10   18.30    3.10
   4   0  10   22.50    3.20
  -5   0 -10   10.50    2.70
   5   0  10   12.80    2.60
  -6   0 -10    8.80    2.70
   6   0  10   11.10    2.70
   4  -1 -10   -0.80    1.40
  -4   1  10    0.50    1.70
   3  -1 -10    2.10    1.60
  -3   1  10    4.80    1.90
  -3   1  10    3.30    1.80
   2  -1 -10   64.49    4.30
  -2   1  10   68.29    4.10
  -2   1  10   59.49    4.10
   1  -1 -10  195.48    7.00
  -1   1  10  207.28    6.50
  -1   1  10  195.28    6.70
   0  -1 -10    2.70    1.40
   0   1  10    3.80    1.60
  -1  -1 -10   37.60    3.10
   1   1  10   37.30    3.10
  -2  -1 -10   37.80    3.10
  -2  -1 -10   42.60    3.10
   2   1  10   43.80    3.30
  -3  -1 -10    2.20    1.40
  -3  -1 -10    1.50    1.30
   3   1  10    3.80    1.60
  -4  -1 -10   18.60    2.90
  -4  -1 -10   18.20    3.00
   4   1  10   17.80    2.90
  -5  -1 -10   57.89    4.50
  -5  -1 -10   59.19    3.90
   5   1  10   56.99    4.00
  -6  -1 -10   17.90    3.40
   6   1  10   21.60    3.40
   4  -2 -10    4.50    2.40
  -4   2  10    3.00    2.20
   3  -2 -10   11.00    2.60
  -3   2  10   15.60    2.80
  -3   2  10   13.30    3.00
   2  -2 -10   31.30    3.70
  -2   2  10   42.10    3.60
  -2   2  10   30.80    3.60
   1  -2 -10   51.79    3.80
  -1   2  10   60.89    3.80
  -1   2  10   51.79    3.70
   0  -2 -10    4.40    1.60
   0   2  10    8.60    2.10
  -1  -2 -10   43.10    3.40
   1   2  10   43.50    3.30
  -2  -2 -10    3.20    1.40
  -2  -2 -10    2.50    1.50
   2   2  10    3.40    1.40
  -3  -2 -10  116.09    5.30
  -3  -2 -10  106.69    4.90
   3   2  10  110.79    5.30
  -4  -2 -10  129.59    5.80
  -4  -2 -10  110.09    5.30
   4   2  10  111.79    5.40
  -5  -2 -10   78.29    5.00
  -5  -2 -10   74.79    4.60
   5   2  10   75.69    4.60
  -6  -2 -10   22.20    3.70
  -6  -2 -10   30.60    3.90
   6   2  10   28.40    3.80
   4  -3 -10    2.30    1.90
  -4   3  10    1.00    1.70
  -4   3  10    2.50    2.10
   3  -3 -10   -0.90    1.30
  -3   3  10    0.70    1.60
  -3   3  10    2.30    1.80
   2  -3 -10   40.80    4.40
  -2   3  10   31.80    4.00
  -2   3  10   37.70    4.20
   1  -3 -10  183.78    7.00
  -1   3  10  172.28    6.70
   0  -3 -10  162.88    5.80
   0  -3 -10  165.68    6.60
   0   3  10  181.18    6.70
  -1  -3 -10    1.40    1.20
  -1  -3 -10    1.40    1.10
   1   3  10    0.00    1.20
  -2  -3 -10   19.30    2.90
   2   3  10   28.60    3.60
  -3  -3 -10  183.08    6.90
   3   3  10  185.88    6.60
   3   3  10  173.68    6.70
  -4  -3 -10   39.50    4.30
   4   3  10   43.00    3.60
   4   3  10   45.20    3.70
  -5  -3 -10   41.30    4.40
   5   3  10   31.80    3.90
   5   3  10   48.30    3.80
  -6  -3 -10   74.19    4.90
   6   3  10   83.69    4.90
   3  -4 -10    5.30    2.20
  -3   4  10    8.70    2.50
  -3   4  10    5.80    2.30
   2  -4 -10   26.80    3.50
   2  -4 -10   27.90    3.80
  -2   4  10   35.40    4.20
   1  -4 -10   25.60    3.50
  -1   4  10   36.30    4.10
   0  -4 -10   64.69    3.90
   0  -4 -10   66.79    4.40
   0   4  10   53.39    3.90
  -1  -4 -10    1.10    1.40
  -1  -4 -10    3.40    1.50
   1   4  10    3.30    1.60
  -2  -4 -10    3.60    1.70
   2   4  10    3.90    1.70
  -3  -4 -10    1.90    1.60
   3   4  10   -0.40    1.10
   3   4  10    3.30    1.50
  -4  -4 -10   59.39    4.30
   4   4  10   73.69    4.70
   4   4  10   73.49    4.60
  -5  -4 -10   28.90    3.90
   5   4  10   20.50    3.30
   5   4  10   33.40    4.00
  -6  -4 -10   44.40    4.70
   6   4  10   32.90    4.40
   6   4  10   37.90    4.10
   3  -5 -10    3.70    2.10
   3  -5 -10    1.30    1.70
  -3   5  10    4.50    2.40
   2  -5 -10    0.20    1.60
   2  -5 -10    3.40    2.00
  -2   5  10    0.70    1.60
   1  -5 -10    1.40    1.60
   1  -5 -10   -0.40    1.20
  -1   5  10    0.90    1.30
   0  -5 -10   82.79    5.10
   0  -5 -10   86.09    4.70
   0   5  10   84.49    5.00
  -1  -5 -10   87.59    5.20
  -1  -5 -10  101.89    4.90
   1   5  10   87.49    5.00
  -2  -5 -10   24.70    3.10
  -2  -5 -10   26.30    3.60
   2   5  10   24.80    3.50
  -3  -5 -10    4.10    1.90
   3   5  10    5.30    2.10
  -4  -5 -10   47.80    4.00
   4   5  10   53.59    4.00
   4   5  10   50.19    4.10
  -5  -5 -10    6.20    2.30
   5   5  10    4.80    2.10
   5   5  10    6.60    2.20
   2  -6 -10    3.40    1.90
  -2   6  10    1.70    1.90
   1  -6 -10   18.70    3.30
   1  -6 -10   13.90    2.80
  -1   6  10   15.50    3.10
   0  -6 -10   71.99    4.60
   0  -6 -10   76.69    5.00
   0   6  10   71.29    4.90
  -1  -6 -10  163.28    6.60
  -1  -6 -10  144.89    6.80
   1   6  10  154.38    6.80
  -2  -6 -10   77.09    4.50
  -2  -6 -10   73.49    5.00
   2   6  10   73.09    4.70
  -3  -6 -10    1.00    1.60
   3   6  10   -0.90    1.20
  -4  -6 -10    5.10    2.20
   4   6  10    2.60    1.70
   4   6  10    4.90    2.20
  -5  -6 -10   32.90    4.20
   5   6  10   36.70    4.60
   1  -7 -10    6.40    2.30
   1  -7 -10    7.40    2.30
  -1   7  10    7.10    2.50
   0  -7 -10    4.80    2.10
   0  -7 -10    3.40    2.10
   0   7  10    1.40    1.80
  -1  -7 -10   21.40    3.30
  -1  -7 -10   20.80    3.70
   1   7  10   24.40    3.80
  -2  -7 -10    6.20    2.10
  -2  -7 -10    7.10    2.40
   2   7  10    8.40    2.50
  -3  -7 -10    9.10    2.80
  -3  -7 -10   12.50    2.60
   3   7  10    6.30    2.20
  -4  -7 -10    4.10    2.30
   0  -8 -10    0.90    1.80
   0  -8 -10   -0.50    1.70
   0   8  10    2.00    1.90
  -1  -8 -10    3.00    2.10
  -1  -8 -10    2.00    2.10
   1   8  10   -1.60    1.40
  -2  -8 -10   15.90    3.50
  -2  -8 -10   16.00    3.10
   2   8  10   13.20    3.00
   0   6 -11   41.40    4.80
   0  -6  11   40.40    4.60
  -1   6 -11   27.50    4.20
  -2   6 -11   27.20    4.40
  -1  -5  11   13.80    3.10
   0   5 -11    9.20    2.70
   0  -5  11    2.70    1.90
  -1   5 -11   33.40    4.30
  -2   5 -11   21.50    3.60
   2  -5  11   19.60    3.00
  -3   5 -11    6.90    2.50
   3  -5  11    5.30    2.20
   2   4 -11    2.20    1.60
  -2  -4  11    1.50    1.90
  -1  -4  11    1.00    1.80
   0  -4  11   55.39    4.20
  -1   4 -11  148.39    6.70
   1  -4  11  157.98    9.10
  -2   4 -11   35.40    4.30
   2  -4  11   42.40    4.20
  -3   4 -11    8.50    2.50
   3  -4  11   16.60    3.00
  -4   4 -11    0.90    1.60
   4  -4  11    2.60    1.80
   3   3 -11    6.90    2.10
  -3  -3  11   10.10    2.80
   2   3 -11   33.60    4.00
  -2  -3  11   38.70    4.50
   1   3 -11    5.70    2.00
  -1  -3  11    3.20    1.90
   0   3 -11   93.59    4.80
   0  -3  11   82.69    5.90
  -1   3 -11  123.69    5.70
   1  -3  11  136.69    5.60
  -2   3 -11   62.59    4.40
   2  -3  11   61.39    4.10
  -3   3 -11   16.20    3.00
   3  -3  11   13.10    2.60
  -4   3 -11   33.20    4.50
   4  -3  11   24.60    3.50
  -5   3 -11    4.10    2.30
   5  -3  11    3.60    2.00
   3   2 -11   32.80    4.20
  -3  -2  11   33.40    4.50
   2   2 -11   70.39    4.70
  -2  -2  11   80.69    5.10
   1   2 -11   -1.50    1.00
  -1  -2  11   -0.10    1.60
   0   2 -11    0.40    1.20
   0  -2  11    1.80    1.40
  -1   2 -11    2.10    1.50
  -1   2 -11    0.70    1.20
   1  -2  11    1.20    1.40
  -2   2 -11   84.49    4.80
   2  -2  11   95.19    4.90
  -3   2 -11   62.39    4.40
   3  -2  11   60.49    4.10
  -4   2 -11   82.89    5.40
   4  -2  11   93.59    5.30
  -5   2 -11   27.90    4.30
   5  -2  11   31.90    4.00
   3   1 -11   23.70    3.70
  -3  -1  11   36.30    4.60
   2   1 -11   74.89    4.80
  -2  -1  11   80.29    4.90
   1   1 -11   26.40    3.60
  -1  -1  11   25.10    3.10
  -1  -1  11   42.20    4.30
   0   1 -11   15.40    2.60
   0  -1  11   15.80    2.60
  -1   1 -11    0.30    1.20
   1  -1  11   -0.50    1.20
  -2   1 -11  218.58    7.00
  -2   1 -11  209.98    7.20
   2  -1  11  191.88    7.00
  -3   1 -11   92.99    5.20
   3  -1  11   89.09    4.90
  -4   1 -11    9.60    2.50
   4  -1  11   16.20    2.90
  -5   1 -11   32.90    4.60
   5  -1  11   32.40    4.10
  -6   1 -11    0.60    1.70
   6  -1  11   -0.30    1.60
   3   0 -11   26.70    4.00
  -3   0  11   29.20    4.10
   2   0 -11   36.30    4.40
  -2   0  11   41.40    4.30
   1   0 -11   66.59    4.40
  -1   0  11   78.09    4.90
  -1   0  11   80.69    4.40
   0   0 -11   25.20    3.30
   0   0  11   19.70    2.70
  -1   0 -11   59.89    3.90
   1   0  11   46.70    3.60
  -2   0 -11   48.30    3.60
  -2   0 -11   53.09    3.60
   2   0  11   49.99    3.70
  -3   0 -11  100.99    5.00
  -3   0 -11   99.09    5.30
   3   0  11  105.99    5.30
  -4   0 -11   17.60    3.20
  -4   0 -11   17.80    3.60
   4   0  11   15.90    2.90
  -5   0 -11   35.80    4.50
   5   0  11   42.00    4.50
  -6   0 -11    9.90    3.00
   6   0  11   19.20    3.30
   3  -1 -11   -0.70    1.30
  -3   1  11   -0.70    1.50
   2  -1 -11    3.10    1.80
  -2   1  11    5.60    2.10
  -2   1  11    2.20    1.70
   1  -1 -11   65.29    4.30
  -1   1  11   66.39    4.20
   0  -1 -11  104.59    5.30
   0   1  11  107.49    5.20
  -1  -1 -11   37.20    4.40
   1   1  11   32.60    3.70
  -2  -1 -11    0.00    1.20
   2   1  11   -1.00    1.10
  -3  -1 -11  135.39    5.90
  -3  -1 -11  138.19    6.00
   3   1  11  120.59    5.70
  -4  -1 -11   32.60    3.70
  -4  -1 -11   33.50    4.20
   4   1  11   25.50    3.40
  -5  -1 -11   13.90    2.90
  -5  -1 -11   10.90    2.70
   5   1  11   10.60    2.60
  -6  -1 -11   55.29    5.90
   6   1  11   64.09    4.80
   3  -2 -11   -0.10    1.50
  -3   2  11    0.90    1.70
  -3   2  11   -1.20    1.50
   2  -2 -11   15.10    3.10
  -2   2  11   17.40    3.10
  -2   2  11   15.30    2.90
   1  -2 -11   33.60    3.90
  -1   2  11   32.00    3.80
   0  -2 -11   38.80    4.30
   0   2  11   36.90    4.00
  -1  -2 -11   17.20    3.10
   1   2  11   18.30    2.90
  -2  -2 -11    5.10    2.10
   2   2  11    1.50    1.40
  -3  -2 -11   36.10    4.00
  -3  -2 -11   30.80    3.70
   3   2  11   31.20    3.90
  -4  -2 -11   68.09    4.50
  -4  -2 -11   89.49    5.10
   4   2  11   72.59    4.70
  -5  -2 -11    7.50    2.40
  -5  -2 -11   13.50    2.80
   5   2  11   12.80    2.70
  -6  -2 -11   20.80    3.60
  -6  -2 -11   23.00    3.50
   6   2  11   21.10    3.50
   3  -3 -11    9.30    2.70
  -3   3  11   11.60    2.80
  -3   3  11    7.60    2.60
   2  -3 -11   31.60    4.20
  -2   3  11   40.70    4.50
   1  -3 -11   22.20    3.50
  -1   3  11   21.00    3.40
   0  -3 -11    8.30    2.20
   0   3  11   11.90    2.60
  -1  -3 -11   28.80    3.60
   1   3  11   29.00    3.60
  -2  -3 -11   42.60    4.70
   2   3  11   33.10    3.80
  -3  -3 -11   19.20    3.20
   3   3  11   18.90    3.00
  -4  -3 -11  149.59    6.50
  -4  -3 -11  167.28    7.00
   4   3  11  146.69    6.60
  -5  -3 -11   25.80    3.70
   5   3  11   30.50    4.20
   5   3  11   36.60    4.40
   3  -4 -11   24.00    3.90
  -3   4  11   29.50    4.30
  -3   4  11   24.00    4.00
   2  -4 -11    1.90    1.70
  -2   4  11    3.70    1.90
   1  -4 -11   22.00    3.80
  -1   4  11   21.90    3.50
   0  -4 -11   35.40    4.60
   0  -4 -11   39.30    4.00
   0   4  11   37.40    4.30
  -1  -4 -11    6.70    2.10
   1   4  11    9.50    2.40
  -2  -4 -11   37.70    4.60
   2   4  11   39.30    4.40
  -3  -4 -11   14.80    2.90
   3   4  11   11.90    2.60
  -4  -4 -11   73.79    5.00
   4   4  11   72.89    4.80
   4   4  11   73.29    4.80
  -5  -4 -11   65.19    4.80
   5   4  11   76.09    5.30
   5   4  11   67.49    4.80
   2  -5 -11   -0.20    1.60
  -2   5  11    0.20    1.50
   1  -5 -11   36.90    5.00
  -1   5  11   37.30    4.40
   0  -5 -11   32.60    3.90
   0  -5 -11   34.40    4.60
   0   5  11   32.80    4.10
  -1  -5 -11    0.40    1.50
  -1  -5 -11    2.10    1.50
   1   5  11    1.60    1.60
  -2  -5 -11   17.20    3.20
  -3  -5 -11    8.50    2.60
   3   5  11    6.70    2.20
  -4  -5 -11    7.50    2.50
   4   5  11   11.10    2.70
  -5  -5 -11   26.70    3.90
   5   5  11   27.90    4.00
   5   5  11   40.90    4.80
   1  -6 -11    0.10    1.40
   1  -6 -11    0.10    1.60
  -1   6  11   -0.40    1.60
   0  -6 -11   50.39    4.20
   0  -6 -11   41.70    4.90
   0   6  11   40.90    4.80
  -1  -6 -11   69.99    4.60
  -1  -6 -11   66.09    5.00
   1   6  11   70.89    5.00
  -2  -6 -11    9.20    2.50
   2   6  11   15.40    3.20
  -3  -6 -11    8.60    2.70
   3   6  11    7.10    2.30
  -4  -6 -11    0.90    1.90
   4   6  11   -0.80    1.40
   0  -7 -11   38.00    4.60
   0  -7 -11   39.30    4.90
   0   7  11   30.90    4.30
  -1  -7 -11   41.30    4.80
  -1  -7 -11   36.80    4.90
   1   7  11   40.80    4.90
  -2  -7 -11    3.70    2.20
  -2  -7 -11    4.80    2.10
   2   7  11    2.90    1.90
  -3  -7 -11    5.40    2.40
   3   7  11    5.50    2.30
  -1   5 -12   74.99    5.30
  -2   5 -12   16.80    3.20
  -1  -4  12    6.00    2.40
  -1   4 -12   18.00    3.30
  -2   4 -12   22.00    3.70
   2  -4  12   18.40    3.10
  -3   4 -12    0.10    1.70
   3  -4  12    0.30    1.70
   2   3 -12    9.10    2.50
  -2  -3  12    4.90    2.40
   1   3 -12   28.10    4.00
  -1  -3  12   35.10    4.90
  -2   3 -12  103.79    5.80
   2  -3  12  109.59    5.60
  -3   3 -12   13.50    3.00
   3  -3  12   12.20    2.80
  -4   3 -12   -1.30    1.50
   4  -3  12   -0.20    1.50
   2   2 -12   13.40    3.10
   1   2 -12   13.80    3.00
   0   2 -12   57.59    4.10
   0  -2  12   56.29    4.00
  -1   2 -12   46.80    3.90
   1  -2  12   37.10    4.10
  -2   2 -12   50.39    4.00
   2  -2  12   51.19    4.00
  -3   2 -12   48.60    5.10
   3  -2  12   38.40    4.10
  -4   2 -12    7.00    2.50
   4  -2  12    4.00    2.10
   2   1 -12   14.20    3.00
  -2  -1  12    9.50    2.70
   1   1 -12    0.80    1.40
   0   1 -12   -0.20    1.10
   0  -1  12    1.00    1.40
  -1   1 -12   10.70    2.40
   1  -1  12    6.70    2.10
  -2   1 -12   15.50    2.90
   2  -1  12   12.70    2.60
  -3   1 -12  119.39    6.00
   3  -1  12  110.29    5.60
  -4   1 -12   28.60    4.30
   4  -1  12   31.60    3.90
  -5   1 -12   17.70    3.70
   5  -1  12   21.40    3.60
   2   0 -12    7.70    2.40
  -2   0  12   11.00    3.00
   1   0 -12    2.80    1.70
  -1   0  12    7.30    2.20
   0   0 -12    3.20    1.70
   0   0  12    2.50    1.70
  -1   0 -12   75.09    4.50
   1   0  12   56.19    4.10
  -2   0 -12   55.29    4.00
   2   0  12   61.09    4.30
  -3   0 -12  114.89    5.60
  -3   0 -12  103.49    5.60
   3   0  12  104.19    5.60
  -4   0 -12   26.80    3.80
   4   0  12   29.10    3.80
  -5   0 -12    2.50    2.00
   5   0  12   -0.80    1.60
   2  -1 -12   30.00    4.10
  -2   1  12   36.80    4.20
   1  -1 -12  123.29    6.10
  -1   1  12  123.19    5.90
   0  -1 -12   25.70    3.40
   0   1  12   24.60    3.30
  -1  -1 -12   49.60    3.90
   1   1  12   63.59    4.40
  -2  -1 -12   42.70    4.40
   2   1  12   41.60    4.30
  -3  -1 -12   21.50    3.40
  -3  -1 -12   14.50    3.70
   3   1  12   19.30    3.20
  -4  -1 -12   20.50    3.60
  -4  -1 -12   19.10    3.30
   4   1  12   17.50    3.30
  -5  -1 -12    0.80    1.90
   5   1  12    2.70    1.90
   2  -2 -12    5.00    2.20
  -2   2  12    5.30    2.20
   1  -2 -12   17.90    3.10
  -1   2  12   12.90    2.80
   0  -2 -12    5.60    2.10
   0   2  12   11.80    2.60
  -1  -2 -12   10.10    2.40
   1   2  12    8.60    2.30
  -2  -2 -12    7.30    2.30
   2   2  12    6.50    2.10
  -3  -2 -12    8.00    2.60
   3   2  12    7.90    2.30
  -4  -2 -12   59.59    4.50
  -4  -2 -12   55.99    4.40
   4   2  12   55.59    4.40
  -5  -2 -12   15.00    3.00
  -5  -2 -12   20.80    3.80
   5   2  12   11.50    2.70
   2  -3 -12    3.30    2.00
  -2   3  12    2.60    2.10
   1  -3 -12    8.40    2.50
  -1   3  12   10.40    2.80
   0  -3 -12   32.70    4.30
   0   3  12   39.60    4.60
  -1  -3 -12    0.70    1.40
   1   3  12    1.70    1.60
  -2  -3 -12   36.20    4.30
   2   3  12   32.20    3.80
  -3  -3 -12   56.29    4.50
   3   3  12   56.99    4.40
  -4  -3 -12   64.89    4.90
  -4  -3 -12   59.09    7.40
   4   3  12   60.49    4.70
  -5  -3 -12   18.00    3.50
  -5  -3 -12   19.00    3.40
   5   3  12   21.00    3.70
   1  -4 -12   14.10    3.00
  -1   4  12   18.40    3.40
   0  -4 -12   13.90    3.00
   0   4  12   10.60    2.60
  -1  -4 -12   11.30    2.80
   1   4  12    9.80    2.60
  -2  -4 -12   58.39    4.60
   2   4  12   57.69    4.50
  -3  -4 -12   32.70    4.30
   3   4  12   35.10    4.50
  -4  -4 -12   44.40    5.20
   4   4  12   50.69    5.20
   1  -5 -12    0.30    1.80
  -1   5  12    0.50    1.60
   0  -5 -12    8.50    2.40
   0  -5 -12    4.60    2.20
   0   5  12    8.00    2.70
  -1  -5 -12    3.60    2.10
   1   5  12    1.20    1.60
  -2  -5 -12    0.50    1.60
   2   5  12    1.50    1.80
  -3  -5 -12   24.10    3.70
   3   5  12   26.00    3.90
  -4  -5 -12   32.30    4.60
   4   5  12   29.50    4.20
  -1  -6 -12   21.80    4.20
   1   6  12   15.00    3.30
  -2  -6 -12    0.00    1.80
   2   6  12    2.80    2.00
   2  -3  13    5.70    2.30
   1   2 -13   37.90    4.50
   0   2 -13   62.49    4.50
   1  -2  13   41.40    4.40
   2  -2  13   15.30    3.00
  -3   2 -13   23.40    3.80
   3  -2  13   21.10    3.50
   1   1 -13    5.70    2.20
   0   1 -13    1.60    1.60
   0  -1  13    2.00    1.70
  -1   1 -13   30.70    3.80
   1  -1  13   18.70    3.00
   2  -1  13   43.20    4.70
  -3   1 -13   51.89    6.60
   3  -1  13   68.49    4.80
  -4   1 -13   24.90    3.80
   4  -1  13   20.00    3.40
   1   0 -13   -1.00    1.20
  -1   0  13    0.10    1.40
   0   0 -13    1.50    1.60
   0   0  13   -0.40    1.30
  -1   0 -13   75.39    4.90
   1   0  13   83.89    5.10
  -2   0 -13   72.09    4.70
   2   0  13   62.19    4.60
  -3   0 -13   24.30    4.00
   3   0  13   25.80    3.70
  -4   0 -13   21.80    3.90
   4   0  13   18.40    3.30
   1  -1 -13    7.50    2.40
  -1   1  13   18.40    3.30
   0  -1 -13   23.70    3.60
   0   1  13   19.40    3.20
  -1  -1 -13   29.30    4.20
   1   1  13   25.30    3.60
  -2  -1 -13   32.20    4.00
   2   1  13   30.80    3.90
  -3  -1 -13   25.60    3.80
   3   1  13   23.30    3.70
  -4  -1 -13   24.80    4.00
  -4  -1 -13   21.00    3.60
   4   1  13   18.70    3.40
   1  -2 -13   28.30    3.90
  -1   2  13   33.30    4.30
   0  -2 -13   39.00    4.90
   0   2  13   29.10    4.00
  -1  -2 -13    0.80    1.60
   1   2  13   -0.20    1.30
  -2  -2 -13   36.10    4.80
   2   2  13   38.30    4.40
  -3  -2 -13   25.60    3.90
   3   2  13   23.00    3.70
  -4  -2 -13   18.00    3.50
   4   2  13   14.70    3.20
   1  -3 -13    1.60    1.80
  -1   3  13    0.20    1.70
   0  -3 -13   14.40    3.30
   0   3  13   16.30    3.30
  -1  -3 -13    1.20    1.50
   1   3  13   -1.80    1.30
  -2  -3 -13    8.40    2.80
   2   3  13    6.90    2.20
  -3  -3 -13   21.50    3.70
   3   3  13   25.30    3.90
  -4  -3 -13   32.80    4.60
   4   3  13   32.00    4.40
   0  -4 -13   12.40    3.10
   0   4  13   10.80    2.80
  -1  -4 -13   25.90    4.00
   1   4  13   21.60    3.70
  -2  -4 -13   20.30    4.00
   2   4  13   13.60    3.00
  -3  -4 -13   34.10    4.70
   3   4  13   31.20    4.30
   1   0  14   11.50    2.80
  -2   0 -14   23.00    3.70
   2   0  14   21.30    3.60
  -1  -1 -14   15.40    3.30
   1   1  14   18.60    3.40
  -2  -1 -14   24.80    3.80
   2   1  14   25.50    4.00
   0   0   0    0.00    0.00

_computing_structure_solution     'SHELXT 2014/5 (Sheldrick, 2014)'
;
_shelx_hkl_checksum              76302
loop_
_space_group_symop_operation_xyz
'x, y, z'
'-x, -y, -z'
loop_
_atom_site_label
_atom_site_type_symbol
_atom_site_fract_x
_atom_site_fract_y
_atom_site_fract_z
_atom_site_U_iso_or_equiv
_atom_site_adp_type
_atom_site_occupancy
_atom_site_site_symmetry_order
_atom_site_calc_flag
_atom_site_refinement_flags_posn
_atom_site_refinement_flags_adp
_atom_site_refinement_flags_occupancy
_atom_site_disorder_assembly
_atom_site_disorder_group
Ni1 Ni 0.0000 0.5000 0.5000 0.02756(11) Uani 1 2 d S . P . .
F1A F 0.6635(18) 0.178(3) -0.0226(11) 0.094(5) Uani 0.43(3) 1 d . . P A 1
F2A F 0.870(2) 0.1261(16) 0.1068(11) 0.091(3) Uani 0.43(3) 1 d . . P A 1
F3A F 0.8511(17) 0.3485(13) 0.0232(14) 0.074(2) Uani 0.43(3) 1 d . . P A 1
F1B F 0.8957(12) 0.1578(12) 0.1080(8) 0.076(2) Uani 0.57(3) 1 d . . P A 2
F2B F 0.6609(16) 0.1079(13) 0.0105(13) 0.093(3) Uani 0.57(3) 1 d . . P A 2
F3B F 0.793(3) 0.3293(13) -0.0149(11) 0.099(4) Uani 0.57(3) 1 d . . P A 2
O1 O -0.17067(19) 0.57291(13) 0.36973(11) 0.0323(3) Uani 1 1 d . . . . .
O2 O 0.15440(19) 0.70277(13) 0.47667(11) 0.0335(3) Uani 1 1 d . . . . .
N1 N 0.2433(2) 0.39960(16) 0.35798(13) 0.0308(3) Uani 1 1 d . . . . .
C1 C -0.1496(3) 0.6991(2) 0.30378(15) 0.0311(4) Uani 1 1 d . . . . .
C2 C -0.0104(3) 0.8153(2) 0.31359(17) 0.0382(4) Uani 1 1 d . . . . .
H2 H -0.0111 0.9048 0.2583 0.046 Uiso 1 1 calc R U . . .
C3 C 0.1307(3) 0.81208(19) 0.39780(16) 0.0323(4) Uani 1 1 d . . . . .
C4 C -0.2876(3) 0.7189(2) 0.20546(19) 0.0449(5) Uani 1 1 d . . . . .
H4A H -0.2741 0.8240 0.1657 0.067 Uiso 1 1 calc R U . . .
H4B H -0.4367 0.7035 0.2443 0.067 Uiso 1 1 calc R U . . .
H4C H -0.2413 0.6418 0.1427 0.067 Uiso 1 1 calc R U . . .
C5 C 0.2666(3) 0.9512(2) 0.3957(2) 0.0475(5) Uani 1 1 d . . . . .
H5A H 0.4143 0.9152 0.3968 0.071 Uiso 1 1 calc R U . . .
H5B H 0.2123 1.0114 0.4688 0.071 Uiso 1 1 calc R U . . .
H5C H 0.2614 1.0171 0.3200 0.071 Uiso 1 1 calc R U . . .
C6 C 0.2082(3) 0.3853(2) 0.24236(17) 0.0391(4) Uani 1 1 d . . . . .
H6 H 0.0721 0.4176 0.2248 0.047 Uiso 1 1 calc R U . . .
C7 C 0.3583(3) 0.3265(2) 0.14825(17) 0.0417(4) Uani 1 1 d . . . . .
H7 H 0.3262 0.3184 0.0678 0.050 Uiso 1 1 calc R U . . .
C8 C 0.5579(3) 0.2792(2) 0.17275(17) 0.0339(4) Uani 1 1 d . . . . .
C9 C 0.5961(3) 0.2908(2) 0.29121(17) 0.0345(4) Uani 1 1 d . . . . .
H9 H 0.7301 0.2575 0.3113 0.041 Uiso 1 1 calc R U . . .
C10 C 0.4356(3) 0.3520(2) 0.38042(16) 0.0324(4) Uani 1 1 d . . . . .
H10 H 0.4635 0.3607 0.4617 0.039 Uiso 1 1 calc R U . . .
C11 C 0.7288(3) 0.2232(2) 0.07038(19) 0.0454(5) Uani 1 1 d . . . . .
loop_
_atom_site_aniso_label
_atom_site_aniso_U_11
_atom_site_aniso_U_22
_atom_site_aniso_U_33
_atom_site_aniso_U_23
_atom_site_aniso_U_13
_atom_site_aniso_U_12
Ni1 0.03140(18) 0.02887(17) 0.02550(17) 0.00237(11) -0.01283(12) -0.00696(12)
F1A 0.056(3) 0.179(13) 0.053(4) -0.066(6) -0.012(3) 0.010(6)
F2A 0.120(8) 0.069(4) 0.060(5) 0.022(3) 0.015(4) 0.064(4)
F3A 0.068(4) 0.073(3) 0.065(5) -0.003(4) 0.028(3) -0.013(3)
F1B 0.046(3) 0.124(5) 0.061(3) -0.028(3) -0.017(2) 0.025(3)
F2B 0.079(3) 0.103(5) 0.100(6) -0.068(4) -0.004(3) -0.007(3)
F3B 0.133(7) 0.074(4) 0.059(4) 0.027(3) 0.041(4) 0.029(4)
O1 0.0351(7) 0.0362(6) 0.0286(6) 0.0036(5) -0.0140(5) -0.0063(5)
O2 0.0371(7) 0.0327(6) 0.0339(7) 0.0022(5) -0.0139(5) -0.0088(5)
N1 0.0347(8) 0.0315(7) 0.0287(7) 0.0009(6) -0.0114(6) -0.0077(6)
C1 0.0343(9) 0.0362(9) 0.0224(8) -0.0018(7) -0.0057(7) 0.0054(7)
C2 0.0514(11) 0.0313(9) 0.0324(10) 0.0076(7) -0.0120(8) -0.0026(8)
C3 0.0366(10) 0.0285(8) 0.0307(9) -0.0015(7) -0.0024(7) -0.0046(7)
C4 0.0537(12) 0.0482(11) 0.0364(11) 0.0041(9) -0.0209(9) 0.0040(9)
C5 0.0529(12) 0.0358(10) 0.0541(13) 0.0011(9) -0.0084(10) -0.0145(9)
C6 0.0386(10) 0.0489(11) 0.0334(10) -0.0037(8) -0.0163(8) 0.0025(8)
C7 0.0467(11) 0.0531(12) 0.0286(10) -0.0044(8) -0.0161(8) 0.0027(9)
C8 0.0377(10) 0.0330(9) 0.0313(9) 0.0007(7) -0.0070(8) -0.0053(7)
C9 0.0317(9) 0.0383(9) 0.0361(10) 0.0009(7) -0.0125(8) -0.0062(7)
C10 0.0336(9) 0.0378(9) 0.0290(9) 0.0004(7) -0.0126(7) -0.0094(7)
C11 0.0481(12) 0.0505(12) 0.0375(11) -0.0024(9) -0.0086(9) 0.0028(9)
loop_
_atom_type_symbol
_atom_type_description
_atom_type_scat_dispersion_real
_atom_type_scat_dispersion_imag
_atom_type_scat_source
C C 0.0033 0.0016 'International Tables Vol C Tables 4.2.6.8 and 6.1.1.4'
H H 0.0000 0.0000 'International Tables Vol C Tables 4.2.6.8 and 6.1.1.4'
F F 0.0171 0.0103 'International Tables Vol C Tables 4.2.6.8 and 6.1.1.4'
N N 0.0061 0.0033 'International Tables Vol C Tables 4.2.6.8 and 6.1.1.4'
Ni Ni 0.3393 1.1124 'International Tables Vol C Tables 4.2.6.8 and 6.1.1.4'
O O 0.0106 0.0060 'International Tables Vol C Tables 4.2.6.8 and 6.1.1.4'
loop_
_geom_angle_atom_site_label_1
_geom_angle_atom_site_label_2
_geom_angle_atom_site_label_3
_geom_angle
_geom_angle_site_symmetry_1
_geom_angle_site_symmetry_3
O1 Ni1 O1 180.0 2_566 .
O1 Ni1 O2 89.08(5) 2_566 .
O1 Ni1 O2 90.92(5) . .
O1 Ni1 O2 90.92(5) 2_566 2_566
O1 Ni1 O2 89.08(5) . 2_566
O2 Ni1 O2 180.0 . 2_566
O1 Ni1 N1 89.94(5) 2_566 2_566
O1 Ni1 N1 90.06(5) . 2_566
O2 Ni1 N1 90.03(5) . 2_566
O2 Ni1 N1 89.97(5) 2_566 2_566
O1 Ni1 N1 90.07(5) 2_566 .
O1 Ni1 N1 89.93(5) . .
O2 Ni1 N1 89.97(5) . .
O2 Ni1 N1 90.03(5) 2_566 .
N1 Ni1 N1 180.0 2_566 .
C1 O1 Ni1 126.08(11) . .
C3 O2 Ni1 125.49(11) . .
C10 N1 C6 116.98(16) . .
C10 N1 Ni1 121.84(12) . .
C6 N1 Ni1 121.16(12) . .
O1 C1 C2 125.68(16) . .
O1 C1 C4 114.93(16) . .
C2 C1 C4 119.38(16) . .
C1 C2 C3 125.97(16) . .
C1 C2 H2 117.0 . .
C3 C2 H2 117.0 . .
O2 C3 C2 125.72(16) . .
O2 C3 C5 116.15(16) . .
C2 C3 C5 118.13(16) . .
C1 C4 H4A 109.5 . .
C1 C4 H4B 109.5 . .
H4A C4 H4B 109.5 . .
C1 C4 H4C 109.5 . .
H4A C4 H4C 109.5 . .
H4B C4 H4C 109.5 . .
C3 C5 H5A 109.5 . .
C3 C5 H5B 109.5 . .
H5A C5 H5B 109.5 . .
C3 C5 H5C 109.5 . .
H5A C5 H5C 109.5 . .
H5B C5 H5C 109.5 . .
N1 C6 C7 123.55(17) . .
N1 C6 H6 118.2 . .
C7 C6 H6 118.2 . .
C6 C7 C8 118.75(17) . .
C6 C7 H7 120.6 . .
C8 C7 H7 120.6 . .
C9 C8 C7 118.60(17) . .
C9 C8 C11 121.34(17) . .
C7 C8 C11 120.01(17) . .
C8 C9 C10 118.77(17) . .
C8 C9 H9 120.6 . .
C10 C9 H9 120.6 . .
N1 C10 C9 123.35(16) . .
N1 C10 H10 118.3 . .
C9 C10 H10 118.3 . .
F1A C11 F2A 112.2(8) . .
F3B C11 F1B 108.1(7) . .
F3B C11 F2B 105.4(5) . .
F1B C11 F2B 102.6(6) . .
F1A C11 F3A 104.2(7) . .
F2A C11 F3A 101.6(7) . .
F1A C11 C8 115.1(5) . .
F3B C11 C8 114.0(4) . .
F2A C11 C8 114.5(6) . .
F1B C11 C8 114.2(4) . .
F2B C11 C8 111.4(5) . .
F3A C11 C8 107.6(5) . .
loop_
_geom_bond_atom_site_label_1
_geom_bond_atom_site_label_2
_geom_bond_distance
_geom_bond_site_symmetry_2
Ni1 O1 2.0069(12) 2_566
Ni1 O1 2.0069(12) .
Ni1 O2 2.0288(12) .
Ni1 O2 2.0288(12) 2_566
Ni1 N1 2.1685(15) 2_566
Ni1 N1 2.1685(15) .
F1A C11 1.263(10) .
F2A C11 1.298(9) .
F3A C11 1.381(10) .
F1B C11 1.303(7) .
F2B C11 1.356(8) .
F3B C11 1.290(8) .
O1 C1 1.265(2) .
O2 C3 1.260(2) .
N1 C10 1.337(2) .
N1 C6 1.343(2) .
C1 C2 1.395(3) .
C1 C4 1.513(2) .
C2 C3 1.406(3) .
C2 H2 0.9500 .
C3 C5 1.513(2) .
C4 H4A 0.9800 .
C4 H4B 0.9800 .
C4 H4C 0.9800 .
C5 H5A 0.9800 .
C5 H5B 0.9800 .
C5 H5C 0.9800 .
C6 C7 1.371(3) .
C6 H6 0.9500 .
C7 C8 1.389(3) .
C7 H7 0.9500 .
C8 C9 1.377(2) .
C8 C11 1.495(3) .
C9 C10 1.384(3) .
C9 H9 0.9500 .
C10 H10 0.9500 .
