#------------------------------------------------------------------------------
#$Date: 2019-11-10 20:15:38 +0200 (Sun, 10 Nov 2019) $
#$Revision: 226154 $
#$URL: file:///home/coder/svn-repositories/cod/cif/4/51/61/4516159.cif $
#------------------------------------------------------------------------------
#
# This file is available in the Crystallography Open Database (COD),
# http://www.crystallography.net/
#
# All data on this site have been placed in the public domain by the
# contributors.
#
data_4516159
loop_
_publ_author_name
'Omahen, Emily H.'
'Binder, Justin F.'
'Jacobs, Brad F.'
'Swidan, Ala'aeddeen'
'Macdonald, Charles L. B.'
_publ_section_title
;
 Phosphonium-Templated Iodoplumbates.
;
_journal_issue                   12
_journal_name_full               'ACS omega'
_journal_page_first              17077
_journal_page_last               17082
_journal_paper_doi               10.1021/acsomega.8b02240
_journal_volume                  3
_journal_year                    2018
_chemical_formula_moiety         'C4 H12 P, I'
_chemical_formula_sum            'C4 H12 I P'
_chemical_formula_weight         218.01
_space_group_crystal_system      tetragonal
_space_group_IT_number           129
_space_group_name_Hall           '-P 4a 2a'
_space_group_name_H-M_alt        'P 4/n m m :2'
_atom_sites_solution_hydrogens   geom
_atom_sites_solution_primary     heavy
_audit_creation_date             2018-06-26
_audit_creation_method
;
Olex2 1.2
(compiled 2018.05.29 svn.r3508 for OlexSys, GUI svn.r5506)
;
_cell_angle_alpha                90
_cell_angle_beta                 90
_cell_angle_gamma                90
_cell_formula_units_Z            2
_cell_length_a                   8.1978(10)
_cell_length_b                   8.1978(10)
_cell_length_c                   6.0037(8)
_cell_measurement_reflns_used    5087
_cell_measurement_temperature    170.0
_cell_measurement_theta_max      31.829
_cell_measurement_theta_min      3.515
_cell_volume                     403.47(9)
_computing_cell_refinement       'SAINT v8.37A (Bruker, 2015)'
_computing_data_reduction        'SAINT v8.37A (Bruker, 2015)'
_computing_molecular_graphics    'Olex2 (Dolomanov et al., 2009)'
_computing_publication_material  'Olex2 (Dolomanov et al., 2009)'
_computing_structure_refinement  'XL (Sheldrick, 2008)'
_computing_structure_solution    'XS (Sheldrick, 2008)'
_diffrn_ambient_temperature      170.0
_diffrn_measured_fraction_theta_full 1.000
_diffrn_measured_fraction_theta_max 1.000
_diffrn_measurement_device_type  'Bruker APEX3 Photon 100'
_diffrn_measurement_method       '\f and \w scans'
_diffrn_radiation_type           MoK\a
_diffrn_radiation_wavelength     0.71073
_diffrn_reflns_av_R_equivalents  0.0702
_diffrn_reflns_av_unetI/netI     0.0253
_diffrn_reflns_Laue_measured_fraction_full 1.000
_diffrn_reflns_Laue_measured_fraction_max 1.000
_diffrn_reflns_limit_h_max       10
_diffrn_reflns_limit_h_min       -12
_diffrn_reflns_limit_k_max       12
_diffrn_reflns_limit_k_min       -12
_diffrn_reflns_limit_l_max       9
_diffrn_reflns_limit_l_min       -9
_diffrn_reflns_number            7940
_diffrn_reflns_point_group_measured_fraction_full 1.000
_diffrn_reflns_point_group_measured_fraction_max 1.000
_diffrn_reflns_theta_full        25.242
_diffrn_reflns_theta_max         32.518
_diffrn_reflns_theta_min         3.393
_diffrn_standards_number         0
_exptl_absorpt_coefficient_mu    4.061
_exptl_absorpt_correction_T_max  0.7464
_exptl_absorpt_correction_T_min  0.3871
_exptl_absorpt_correction_type   multi-scan
_exptl_absorpt_process_details
'SADABS-2016/2 (Bruker,2016/2) was used for absorption correction. wR2(int) was 0.1448 before and 0.0885 after correction. The Ratio of minimum to maximum transmission is 0.5186. The \l/2 correction factor is Not present.'
_exptl_crystal_colour            colourless
_exptl_crystal_colour_primary    colourless
_exptl_crystal_density_diffrn    1.794
_exptl_crystal_description       prism
_exptl_crystal_F_000             208
_exptl_crystal_size_max          0.2
_exptl_crystal_size_mid          0.1
_exptl_crystal_size_min          0.015
_refine_diff_density_max         2.899
_refine_diff_density_min         -1.037
_refine_diff_density_rms         0.164
_refine_ls_extinction_method     none
_refine_ls_goodness_of_fit_ref   1.232
_refine_ls_hydrogen_treatment    constr
_refine_ls_matrix_type           full
_refine_ls_number_parameters     13
_refine_ls_number_reflns         448
_refine_ls_number_restraints     0
_refine_ls_restrained_S_all      1.232
_refine_ls_R_factor_all          0.0501
_refine_ls_R_factor_gt           0.0423
_refine_ls_shift/su_max          0.000
_refine_ls_shift/su_mean         0.000
_refine_ls_structure_factor_coef Fsqd
_refine_ls_weighting_details
'w=1/[\s^2^(Fo^2^)+(0.0220P)^2^+2.5021P] where P=(Fo^2^+2Fc^2^)/3'
_refine_ls_weighting_scheme      calc
_refine_ls_wR_factor_gt          0.0914
_refine_ls_wR_factor_ref         0.0962
_reflns_Friedel_coverage         0.000
_reflns_number_gt                399
_reflns_number_total             448
_reflns_threshold_expression     'I > 2\s(I)'
_cod_data_source_file            ao8b02240_si_002.cif
_cod_data_source_block           mo_eo36_0m
_cod_original_cell_volume        403.47(11)
_cod_original_sg_symbol_H-M      'P 4/n m m'
_cod_database_code               4516159
_shelx_shelxl_version_number     2014/7
_shelx_space_group_comment
;
The symmetry employed for this shelxl refinement is uniquely defined
by the following loop, which should always be used as a source of
symmetry information in preference to the above space-group names.
They are only intended as comments.
;
_shelx_estimated_absorpt_t_max   0.942
_shelx_estimated_absorpt_t_min   0.497
_olex2_refinement_description
;
1. Fixed Uiso
 At 1.5 times of:
  All C(H,H,H) groups
2. Others
 Fixed Sof: H1A(0.5) H1C(0.5) H1B(0.5)
3.a Idealised Me refined as rotating group:
 C1(H1A,H1C,H1B)
;
_shelx_res_file
;
    mo_eo36_0m.res created by SHELXL-2014/7

TITL mo_EO36_0m in P4/nmm #129
REM reset to P4/nmm #129
CELL 0.71073 8.1978 8.1978 6.0037 90 90 90
ZERR 2 0.001 0.001 0.0008 0 0 0
LATT 1
SYMM 0.5-Y,+X,+Z
SYMM 0.5-X,0.5-Y,+Z
SYMM +Y,0.5-X,+Z
SYMM 0.5+X,-Y,-Z
SYMM -X,0.5+Y,-Z
SYMM 0.5+Y,0.5+X,-Z
SYMM -Y,-X,-Z
SFAC C H I P
UNIT 8 24 2 2

L.S. 20
PLAN  20
SIZE 0.1 0.2 0.015
TEMP -103.15
BOND
fmap 2 53
ACTA
REM <olex2.extras>
REM <HklSrc "%.\\mo_EO36_0m.hkl">
REM </olex2.extras>

WGHT    0.022000    2.502100
FVAR       0.24484
I1    3    0.250000    0.250000    0.160101    10.12500    0.02914    0.02914 =
         0.02556    0.00000    0.00000    0.00000
P1    4    0.250000   -0.250000    0.500000    10.12500    0.02224    0.02224 =
         0.01867    0.00000    0.00000    0.00000
C1    1    0.250000   -0.077208    0.674346    10.50000    0.13619    0.02269 =
         0.03339   -0.00698    0.00000    0.00000
PART -1
AFIX 137
H1A   2    0.219548    0.019330    0.587514    10.50000   -1.50000
H1C   2    0.359203   -0.061732    0.737306    10.50000   -1.50000
H1B   2    0.171249   -0.093078    0.795227    10.50000   -1.50000
AFIX   0
HKLF 4

REM  mo_EO36_0m in P4/nmm #129
REM R1 =  0.0423 for     399 Fo > 4sig(Fo)  and  0.0501 for all     448 data
REM     13 parameters refined using      0 restraints

END

WGHT      0.0219      2.5031

REM Highest difference peak  2.899,  deepest hole -1.037,  1-sigma level  0.164
Q1    1   0.2500  0.2500  0.2877  10.12500  0.05    2.90
Q2    1   0.2500  0.2500  0.0194  10.12500  0.05    1.74
Q3    1   0.2500  0.2500  0.4504  10.12500  0.05    1.28
Q4    1   0.2500  0.2500 -0.0896  10.12500  0.05    1.18
Q5    1   0.2500  0.2500  0.5865  10.12500  0.05    0.66
Q6    1   0.2500 -0.1786  0.8875  10.50000  0.05    0.65
Q7    1   0.0607  0.2500  0.1553  10.50000  0.05    0.61
Q8    1   0.2500  0.1634  0.7811  10.50000  0.05    0.60
Q9    1   0.2500 -0.1777  0.6927  10.50000  0.05    0.57
Q10   1   0.2500  0.1611  0.3318  10.50000  0.05    0.54
Q11   1   0.2500  0.1110  0.6247  10.50000  0.05    0.51
Q12   1   0.0024 -0.2500  0.8924  10.50000  0.05    0.51
Q13   1   0.2500 -0.1303  0.5580  10.50000  0.05    0.48
Q14   1   0.2500 -0.0337  0.7787  10.50000  0.05    0.47
Q15   1   0.2500  0.0916  0.4476  10.50000  0.05    0.45
Q16   1   0.1929 -0.0641  0.6380  11.00000  0.05    0.45
Q17   1   0.2500 -0.1246  1.0402  10.50000  0.05    0.44
Q18   1   0.1684 -0.2500  0.7868  10.50000  0.05    0.42
Q19   1   0.1412  0.1412  0.5616  10.50000  0.05    0.35
Q20   1   0.2500  0.0117  0.8284  10.50000  0.05    0.32
;
_shelx_res_checksum              1903
_shelx_hkl_file
;
   1  -1   0  145.07    9.70
   1   1   0  127.27    9.69
   1   1   0  148.83    9.70
   1   1   0  151.28    9.70
  -1  -1   0  155.01    9.70
  -1   1   0  130.70    9.68
   1  -1   0  125.06    9.68
  -1  -1   0  165.14    9.71
   2   1   0    0.24    0.30
   2   1   0    0.63    0.32
  -1   2   0    0.53    0.24
   1  -2   0    0.18    0.19
  -2  -1   0    0.03    0.26
  -2  -1   0    0.37    0.23
  -2  -1   0    0.13    0.19
   1  -2   0    0.60    0.28
   2   1   0    0.06    0.17
  -2  -1   0    0.30    0.22
  -1   2   0    0.04    0.19
   2   1   0    0.40    0.29
   2   0   0  950.00   65.28
   2   0   0  953.80   65.28
   0   2   0  973.00   65.43
   0  -2   0  967.67   65.42
  -2   0   0 1000.00   65.32
   2  -1   0    0.29    0.14
   1   2   0    0.22    0.23
  -1  -2   0    0.43    0.27
  -2   1   0    0.02    0.15
  -2   1   0    0.18    0.22
   2  -1   0    0.20    0.10
  -2   2   0  436.92   26.38
  -2  -2   0  341.98   26.37
   2   2   0  366.87   26.36
   2  -2   0  349.05   26.33
   2   2   0  408.93   26.37
   2   2   0  399.01   26.37
  -2  -2   0  451.68   26.40
  -2   2   0  372.25   26.35
   3   2   0   -0.08    0.25
  -3  -2   0   -0.01    0.30
   2  -3   0    0.58    0.42
   3   2   0    0.16    0.39
   3   2   0   -0.24    0.43
  -3  -2   0   -0.11    0.27
   2  -3   0   -0.36    0.23
  -2   3   0   -0.21    0.26
  -2   3   0    0.07    0.30
  -3  -2   0    0.33    0.30
   3   2   0    0.56    0.42
  -3  -2   0   -0.24    0.33
  -3  -1   0  329.48   20.28
   1  -3   0  274.46   20.28
   1  -3   0  327.43   20.32
  -1   3   0  278.92   20.29
  -1   3   0  314.90   20.32
  -3  -1   0  316.75   20.27
   3   1   0  291.73   20.31
   3   1   0  268.90   20.25
   3   1   0  301.26   20.29
   3   1   0  330.36   20.30
  -3  -1   0  270.25   20.28
   0  -3   0    0.41    0.32
  -3   0   0   -0.01    0.31
  -3   0   0    0.19    0.19
   0   3   0    0.00    0.27
  -3   0   0   -0.06    0.28
   0   3   0    0.68    0.32
   0  -3   0    0.16    0.26
   1   3   0  275.83   19.81
   1   3   0  324.28   19.85
  -1  -3   0  257.51   19.80
  -3   1   0  288.83   19.76
  -1  -3   0  319.00   19.84
  -3   2   0   -0.02    0.36
   3  -2   0    0.02    0.14
   2   3   0    0.20    0.38
   2   3   0    0.05    0.30
  -3   2   0    0.21    0.22
   2   3   0    0.27    0.39
   2   3   0   -0.05    0.36
  -2  -3   0   -0.09    0.28
  -2  -3   0   -0.08    0.37
  -3  -3   0  241.26   17.47
   3   3   0  232.84   17.45
  -3   3   0  264.61   17.47
   3  -3   0  256.16   17.46
   3   3   0  269.29   17.48
   3   3   0  265.66   17.47
  -3  -3   0  285.45   17.51
  -3   3   0  247.73   17.44
  -4  -3   0    0.48    0.45
   4   3   0    0.17    0.59
   4   3   0    0.47    0.62
   3  -4   0    0.28    0.29
   3  -4   0    0.59    0.57
  -4  -3   0    0.36    0.38
   4   3   0    0.35    0.56
   4   3   0    0.33    0.34
  -2   4   0  332.02   21.73
  -2   4   0  347.20   21.76
  -4  -2   0  319.41   21.69
  -4  -2   0  317.58   21.72
   2  -4   0  302.81   21.70
   4   2   0  313.72   21.69
  -4  -2   0  315.40   21.69
  -4  -1   0   -0.14    0.37
   4   1   0   -0.13    0.20
  -4  -1   0   -0.13    0.34
   1  -4   0    0.80    0.43
   1  -4   0    0.19    0.31
   4   1   0   -0.50    0.52
  -4  -1   0   -0.18    0.30
  -4   0   0  489.43   33.01
   0  -4   0  508.02   33.05
  -4   0   0  527.28   33.02
   0   4   0  443.54   33.02
   0   4   0  506.13   33.06
  -4   0   0  465.16   33.01
  -4   0   0  506.12   32.98
   0  -4   0  467.00   33.03
  -4   1   0    0.08    0.23
  -1  -4   0    0.17    0.40
  -1  -4   0    0.26    0.34
   2   4   0  323.98   22.32
  -2  -4   0  363.96   22.36
   2   4   0  310.43   22.31
   2   4   0  329.56   22.32
   2   4   0  348.49   22.36
  -2  -4   0  308.40   22.31
  -4   2   0  322.95   22.26
   4  -3   0   -0.07    0.18
  -4   3   0    0.16    0.41
  -3  -4   0    1.03    0.76
  -4   3   0    0.22    0.32
  -3  -4   0    0.20    0.40
   4   4   0  265.45   17.25
   4   4   0  273.30   17.26
   4   4   0  234.74   17.29
  -4  -4   0  245.84   17.24
  -4  -4   0  263.85   17.29
  -4   4   0  255.85   17.21
  -4   4   0  257.01   17.24
   4   4   0  239.52   17.22
   4  -4   0  247.88   17.17
  -5  -4   0    0.46    0.53
   4  -5   0    0.61    0.68
   3  -5   0   83.76    5.88
  -5  -3   0   87.15    5.91
   5   3   0   77.99    5.87
   5   3   0   81.24    5.72
  -3   5   0   88.85    5.83
   5   3   0   73.44    5.87
   5   3   0   73.68    5.87
  -5  -3   0   85.05    5.78
   3  -5   0   85.95    5.73
  -3   5   0   92.54    5.82
  -5  -2   0    0.85    0.38
  -5  -2   0    0.81    0.38
  -5  -2   0   -0.02    0.48
   2  -5   0    1.40    0.58
  -5  -1   0   88.25    6.06
  -5  -1   0   94.79    6.14
   5   1   0   91.46    6.00
   5   1   0   78.49    6.02
   1  -5   0   80.96    6.09
   1  -5   0   89.02    6.16
  -1   5   0   94.53    6.16
  -5  -1   0   89.28    6.08
  -5  -1   0   88.10    6.06
  -5   0   0   -0.33    0.33
  -5   0   0   -0.72    0.40
  -5   0   0   -0.58    0.48
   0  -5   0    0.54    0.51
   1   5   0   88.50    6.35
  -5   1   0   89.17    6.10
   1   5   0   92.90    6.22
  -1  -5   0   85.19    6.17
  -5   2   0   -0.58    0.44
  -5   2   0    0.39    0.30
  -5   3   0   84.82    6.18
   3   5   0   87.06    6.25
   3   5   0   96.44    6.22
   3   5   0   89.52    6.20
  -3  -5   0   82.29    6.18
  -5   3   0   86.34    6.11
   3   5   0   92.62    6.22
  -3  -5   0   90.94    6.25
  -4  -5   0    0.82    0.76
   5   5   0   56.08    3.77
  -5   5   0   49.16    3.58
  -5  -5   0   45.49    3.71
   5   5   0   45.09    3.76
   5   5   0   47.22    3.60
  -5   5   0   50.03    3.60
  -5  -5   0   44.00    3.60
   5   5   0   54.84    3.73
   6   5   0    1.92    1.06
  -5   6   0    1.14    0.72
  -6  -5   0    0.71    0.91
  -5   6   0    1.06    0.67
  -6  -5   0    0.90    0.71
   6   5   0    3.22    1.11
   5  -6   0    0.50    0.42
   6   5   0    1.77    0.73
   6   5   0    2.58    1.21
   6   4   0  160.31   10.58
  -4   6   0  165.04   10.67
  -4   6   0  157.71   10.65
   6   4   0  131.85   10.72
   4  -6   0  156.48   10.54
  -6  -4   0  159.52   10.70
  -6  -4   0  164.30   10.66
   6   4   0  141.33   10.74
   3  -6   0   -0.01    0.48
  -6  -3   0    0.04    0.52
   6   3   0   -0.18    0.40
  -6  -3   0   -0.09    0.62
   6   3   0   -0.15    0.84
  -3   6   0    1.34    0.62
   3  -6   0   -0.72    0.83
  -6  -2   0  209.08   16.57
  -6  -2   0  209.52   16.58
   6   2   0  279.98   16.61
  -2   6   0  247.23   16.68
  -6  -2   0  252.13   16.64
   2  -6   0  230.16   16.63
  -2   6   0  253.15   16.71
   2  -6   0  268.59   16.77
   6   2   0  243.85   16.54
  -6  -2   0  255.49   16.95
  -6  -1   0   -0.35    0.42
   1  -6   0    0.48    0.47
  -6  -1   0   -0.61    0.51
   1  -6   0    1.21    0.71
  -6  -1   0   -0.36    0.55
   0   6   0  319.30   20.40
  -6   0   0  258.62   20.29
  -6   0   0  275.42   20.31
  -6   0   0  337.68   20.27
   0   6   0  310.43   20.36
   0  -6   0  285.82   20.32
   0  -6   0  299.61   20.37
  -6   0   0  307.74   20.34
   1   6   0    2.31    0.66
  -1  -6   0    0.00    0.50
   1   6   0    2.09    0.62
  -1  -6   0    1.20    0.69
   2   6   0  242.50   15.78
  -6   2   0  244.49   15.66
   2   6   0  213.83   15.78
  -2  -6   0  235.63   15.75
  -2  -6   0  195.62   15.81
   2   6   0  233.81   15.75
  -6   2   0  238.42   15.71
   2   6   0  240.52   15.77
   3   6   0    1.68    0.71
  -3  -6   0    1.10    0.63
   3   6   0    1.83    0.75
  -3  -6   0    0.97    0.76
   3   6   0    3.21    0.84
   4   6   0  163.61   10.97
   4   6   0  167.00   10.96
   4   6   0  162.45   10.96
   4   6   0  131.46   10.98
  -6   4   0  154.35   10.87
  -4  -6   0  157.37   10.95
  -6   4   0  174.23   10.94
   5   6   0    2.88    1.02
   5   6   0    2.26    1.00
  -6   5   0    1.19    0.66
   5   6   0    2.51    0.95
   5   6   0    2.31    0.83
  -6   5   0    1.41    0.66
  -5  -6   0    3.02    0.97
  -6  -6   0  100.54    6.98
  -6  -6   0   84.57    7.04
   6   6   0  103.15    7.09
   6   6   0  103.22    7.11
  -6   6   0   96.14    6.93
   6   6   0   99.40    6.95
  -6   6   0  103.40    6.94
   6   6   0   93.91    7.12
  -6   7   0   -0.05    0.82
   7   6   0    1.24    0.96
   7   6   0   -2.16    1.39
  -6   7   0    1.20    1.03
   7   6   0    0.36    1.32
   7   6   0   -0.01    1.49
  -7  -6   0   -0.01    0.91
  -7  -5   0   26.15    2.21
   5  -7   0   24.75    1.90
   7   5   0   23.10    2.77
  -5   7   0   24.37    2.36
  -5   7   0   27.15    2.23
   7   5   0   19.21    2.72
  -4   7   0    1.96    0.77
   4  -7   0    1.35    0.59
   4  -7   0   -0.70    1.20
   7   4   0    2.66    1.16
   7   4   0    1.02    0.58
  -7  -4   0    0.37    0.68
   7   4   0    0.69    1.06
  -4   7   0    0.65    0.95
  -7  -4   0    2.23    0.91
  -3   7   0   43.22    3.16
   3  -7   0   43.20    3.04
   7   3   0   39.80    2.89
  -7  -3   0   41.02    3.18
  -7  -3   0   39.07    3.06
   7   3   0   39.56    3.02
   3  -7   0   33.59    3.82
  -3   7   0   42.78    3.17
  -7  -2   0    0.86    0.51
  -2   7   0    0.99    0.75
  -7  -2   0   -0.35    0.57
   2  -7   0    0.13    0.62
  -7  -2   0   -0.80    0.68
  -7  -2   0    0.72    0.52
  -2   7   0    1.10    0.71
   2  -7   0   -0.43    0.91
  -7  -1   0   56.16    3.73
  -7  -1   0   48.27    3.53
   1  -7   0   42.02    3.78
  -1   7   0   48.85    3.72
  -7  -1   0   51.79    3.58
   1  -7   0   48.66    3.63
  -7  -1   0   51.00    3.56
  -1   7   0   48.32    3.70
   0  -7   0    1.70    0.89
  -7   0   0    0.17    0.48
   0   7   0    1.32    0.77
   0   7   0    0.40    0.98
  -7   0   0   -0.95    0.69
   0  -7   0    0.04    0.59
  -7   0   0   -1.08    0.71
  -7   0   0   -1.04    0.79
  -1  -7   0   45.46    3.36
  -7   1   0   44.66    3.36
  -7   1   0   48.67    3.42
   1   7   0   44.12    3.43
  -1  -7   0   39.14    3.47
  -7   1   0   40.18    3.31
   1   7   0   45.75    3.45
   1   7   0   47.68    3.52
  -2  -7   0    0.68    0.71
   2   7   0    2.93    0.88
   2   7   0    3.83    0.98
   2   7   0    2.02    0.84
   2   7   0    3.75    0.96
   3   7   0   46.23    3.40
  -3  -7   0   44.14    3.27
   3   7   0   44.31    3.35
   3   7   0   45.70    3.36
  -7   3   0   38.54    3.13
  -7   3   0   34.93    3.23
  -4  -7   0   -0.60    0.78
   4   7   0    0.80    1.00
  -7   4   0    0.78    0.61
   4   7   0    2.50    0.96
   4   7   0    2.16    1.01
  -7   4   0    1.86    0.74
   4   7   0    0.64    0.96
  -5  -7   0   28.68    2.44
   5   7   0   25.00    2.53
   5   7   0   22.59    2.57
   5   7   0   25.87    2.47
  -7   5   0   25.36    2.26
   5   7   0   26.30    2.60
  -7   5   0   27.75    2.30
  -6  -7   0   -0.24    0.96
  -7   6   0    1.08    0.92
   6   7   0    0.03    1.18
   6   7   0   -0.23    1.26
   6   7   0    0.91    1.15
  -7   6   0    0.66    0.78
   6   7   0    2.40    1.34
   7   7   0   11.84    2.35
   7   7   0   11.84    2.03
  -7   7   0    9.44    1.66
  -7  -7   0   12.90    1.93
   7   7   0   12.41    2.49
   7   7   0   10.14    2.10
   8   7   0   -0.80    1.77
  -8  -7   0    0.02    1.24
   8   7   0    1.90    2.04
   8   7   0   -1.68    2.02
  -7   8   0    1.34    1.16
  -8  -6   0   31.94    4.06
   8   6   0   43.23    3.92
   8   6   0   41.64    3.40
  -6   8   0   45.40    3.46
   5  -8   0    0.47    0.61
   5  -8   0   -0.14    1.42
  -8  -5   0   -0.06    0.91
   8   5   0    1.03    0.87
  -5   8   0    1.10    0.96
   8   5   0   -0.80    1.23
  -8  -4   0   66.85    4.89
   8   4   0   60.64    4.65
   4  -8   0   67.84    4.76
  -4   8   0   68.23    4.95
   8   4   0   70.14    4.79
  -4   8   0   74.58    5.74
  -8  -4   0   60.63    5.03
  -8  -3   0    0.07    0.69
   3  -8   0    1.07    0.73
  -3   8   0    1.81    1.05
  -8  -3   0    0.99    0.95
   3  -8   0    2.90    1.36
  -3   8   0    2.49    0.93
  -8  -2   0   89.80    6.07
  -2   8   0   83.93    6.21
  -8  -2   0   91.28    6.19
   2  -8   0   91.86    6.11
  -2   8   0   88.26    6.25
  -8  -2   0   80.56    5.95
   2  -8   0   75.87    6.29
   1  -8   0   -0.30    1.15
  -8  -1   0   -0.85    0.82
  -8  -1   0    0.15    0.65
  -8  -1   0   -1.04    0.61
  -8  -1   0   -0.17    0.61
   1  -8   0    0.98    0.76
  -1   8   0   -0.18    0.84
  -8   0   0  101.36    6.95
  -8   0   0  108.68    7.06
  -8   0   0   93.79    6.99
  -8   0   0  102.58    6.91
   0  -8   0  100.53    7.04
   0   8   0   89.33    7.09
  -1  -8   0    1.34    0.82
   1   8   0    1.20    0.91
   1   8   0    3.09    1.12
   2   8   0   85.41    6.05
  -8   2   0   84.97    5.96
  -8   2   0   83.35    5.90
   2   8   0   70.82    6.00
   2   8   0   83.44    6.25
   2   8   0   83.58    6.05
  -8   2   0   80.34    5.88
  -2  -8   0   87.45    5.97
   3   8   0    1.96    1.10
  -3  -8   0    1.05    0.91
   3   8   0    1.69    1.08
   3   8   0    1.44    1.16
  -8   3   0   -0.16    0.70
   3   8   0    2.43    1.09
   4   8   0   70.00    5.15
   4   8   0   60.63    5.04
  -8   4   0   75.48    4.93
  -4  -8   0   69.17    5.02
   4   8   0   58.77    5.04
  -8   4   0   65.10    4.84
   5   8   0    0.96    1.44
   5   8   0    1.34    1.27
   5   8   0    1.50    1.28
  -5  -8   0    0.07    1.11
  -8   5   0    1.89    0.90
  -8   5   0    1.23    0.89
   5   8   0    0.40    1.20
   6   8   0   36.41    4.25
   6   8   0   40.44    3.76
  -8   6   0   40.21    3.50
  -6  -8   0   45.21    3.56
   6   8   0   38.68    3.72
  -8   6   0   46.53    3.37
  -7  -8   0    0.06    1.32
   7   8   0   -0.57    1.85
  -8   7   0   -0.72    0.98
   7   8   0   -0.03    1.83
   7   8   0    1.17    2.41
   7   8   0    2.40    1.74
  -8   8   0   22.49    2.92
   8   8   0   18.79    3.66
   8   8   0   20.67    3.76
  -8  -8   0   22.70    2.98
   8   8   0   22.65    3.76
  -9  -8   0    0.90    1.99
  -8   9   0   -1.28    1.82
  -7   9   0    6.25    1.64
   9   7   0    5.59    2.33
  -9  -7   0    7.93    1.74
  -9  -6   0    0.02    1.25
   9   6   0    0.92    1.58
  -6   9   0    2.13    1.31
   5  -9   0   14.63    1.58
  -9  -5   0   18.75    2.58
   9   5   0   13.84    1.60
  -5   9   0   14.15    2.87
  -9  -4   0    0.78    0.94
   4  -9   0    0.21    0.79
   4  -9   0    3.33    2.04
  -9  -3   0   28.40    2.59
   3  -9   0   23.58    2.16
  -9  -3   0   23.13    2.17
  -3   9   0   20.60    2.64
   3  -9   0   16.49    3.15
  -2   9   0   -0.46    1.03
   2  -9   0    0.47    1.47
   2  -9   0   -0.19    0.89
  -9  -2   0    1.27    0.80
  -9  -2   0   -0.92    1.06
  -9  -2   0   -0.24    0.72
  -9  -1   0   34.77    2.91
  -9  -1   0   32.37    2.60
   1  -9   0   34.24    2.79
  -9  -1   0   34.12    2.56
  -9  -1   0   29.33    2.49
  -1   9   0   28.18    2.87
  -9   0   0   -1.81    1.23
   0  -9   0   -0.64    0.92
   0   9   0    0.72    1.34
   0   9   0    0.08    1.12
  -9   0   0   -1.19    0.96
   0  -9   0   -0.92    1.62
   1   9   0   38.08    3.17
  -1  -9   0   34.47    2.85
  -9   1   0   27.67    2.88
   1   9   0   24.95    3.55
   1   9   0   33.54    3.14
   2   9   0    1.72    1.20
   2   9   0    2.71    1.28
  -9   2   0    0.63    1.25
  -9   2   0   -1.20    1.17
  -2  -9   0    2.28    2.08
   2   9   0   -1.33    1.89
  -9   3   0   21.00    2.36
   3   9   0   21.71    2.62
  -9   3   0   18.09    2.27
  -3  -9   0   23.80    2.34
   3   9   0   23.54    2.59
   4   9   0   -0.83    1.31
   4   9   0    0.36    1.27
  -4  -9   0    0.23    1.14
   4   9   0    0.03    1.32
  -9   4   0   -0.03    1.01
  -9   4   0    1.87    0.98
  -9   5   0   18.70    2.27
   5   9   0   11.43    2.40
   5   9   0   13.77    2.55
  -9   5   0   16.00    1.97
   5   9   0   13.16    2.44
  -5  -9   0   15.20    2.16
   6   9   0    3.22    1.75
  -9   6   0    0.97    1.08
   6   9   0   -0.65    1.58
  -6  -9   0   -0.77    1.37
   6   9   0   -0.25    1.70
  -7  -9   0    6.50    1.85
   7   9   0    6.44    2.32
   7   9   0    7.08    2.09
  -9   7   0    9.79    1.65
   7   9   0    8.78    2.31
   8   9   0   -2.88    2.47
  -8  -9   0   -0.46    1.99
  -9   8   0   -1.01    1.66
 -10  -7   0   -0.84    1.96
  -7  10   0    2.29    2.08
 -10  -6   0   19.04    2.82
  -6  10   0   18.67    3.02
   5 -10   0    1.30    1.19
 -10  -5   0    2.15    1.34
  -5  10   0    2.97    1.50
 -10  -4   0   28.60    3.91
   4 -10   0   29.31    2.66
  -4  10   0   33.31    3.12
  -3  10   0    0.58    1.25
   3 -10   0    0.39    1.01
 -10  -3   0    0.30    0.99
   2 -10   0   45.08    4.21
   2 -10   0   32.68    4.48
  -2  10   0   37.82    3.53
 -10  -2   0   40.02    3.20
  -1  10   0    0.96    1.17
 -10  -1   0    0.05    0.98
  -1  10   0    0.49    1.63
   1 -10   0    2.27    1.13
 -10  -1   0   -1.74    1.31
   0  10   0   40.61    4.09
   0  10   0   46.46    4.16
 -10   0   0   50.72    3.98
   0 -10   0   47.41    3.84
 -10   1   0    0.87    1.51
   1  10   0   -0.46    1.50
 -10   1   0   -1.11    1.26
 -10   1   0    0.25    0.96
   1  10   0    2.52    1.29
 -10   1   0   -0.46    1.61
  -1 -10   0    0.52    1.23
   1  10   0    1.29    1.56
   2  10   0   42.70    3.91
 -10   2   0   39.04    3.41
   2  10   0   41.14    3.77
  -2 -10   0   45.21    3.55
 -10   2   0   33.38    3.66
 -10   2   0   37.97    4.83
 -10   3   0    1.63    1.43
   3  10   0    3.51    1.57
  -3 -10   0   -0.23    1.35
   3  10   0    0.48    1.42
 -10   3   0    0.82    1.16
   3  10   0    2.49    1.60
 -10   4   0   32.24    2.94
   4  10   0   24.44    3.32
  -4 -10   0   30.92    3.13
   4  10   0   32.88    3.49
   5  10   0    1.79    1.76
   5  10   0   -0.14    1.88
   5  10   0    0.16    1.75
 -10   5   0   -0.02    1.19
  -5 -10   0    2.14    1.64
   6  10   0   15.37    2.59
  -6 -10   0   19.24    2.89
   6  10   0   10.59    2.48
   6  10   0   14.95    2.68
  -7 -10   0   -2.39    2.64
   7  10   0    4.57    3.28
   7  10   0    2.94    2.87
 -11  -5   0    4.96    1.91
  -5  11   0    6.83    2.23
 -11  -4   0    2.05    1.54
  -4  11   0    2.23    1.77
   3 -11   0    5.11    1.39
  -3  11   0    7.10    2.43
  -3  11   0    3.40    1.74
 -11  -3   0    4.99    1.92
  -2  11   0   -2.93    2.09
  -2  11   0   -1.11    1.44
   2 -11   0    0.82    1.28
 -11  -2   0    0.29    1.30
   1 -11   0    4.90    1.48
  -1  11   0    5.45    2.07
  -1  11   0    9.14    2.29
  -1  11   0    3.29    1.61
   0 -11   0    2.79    1.47
   0  11   0    2.18    1.52
   0  11   0    0.57    1.86
   0  11   0    1.75    1.91
  -1 -11   0    5.85    1.70
   1  11   0    7.52    2.02
   1  11   0    6.56    1.90
 -11   1   0    7.57    1.47
 -11   2   0    2.69    1.49
  -2 -11   0    2.28    1.68
   2  11   0   -0.40    1.80
   2  11   0    2.25    1.78
   2  11   0    0.97    1.76
   3  11   0    7.63    2.07
   3  11   0    2.51    2.00
 -11   3   0    8.34    1.69
   3  11   0    5.57    1.95
  -4 -11   0   -0.15    1.86
   4  11   0   -1.51    1.96
   4  11   0   -0.45    2.02
   4  11   0   -2.03    1.99
  -5 -11   0    0.58    2.16
   5  11   0    6.76    2.38
   5  11   0    1.41    2.43
   5  11   0    3.20    2.46
  -3  12   0   -4.11    3.56
   3 -12   0    1.58    1.86
  -3  12   0   -3.60    2.36
 -12  -3   0   -0.59    2.28
  -2  12   0   14.79    2.66
   2 -12   0   17.35    2.96
  -2  12   0   24.34    3.61
  -1  12   0    3.12    2.67
  -1  12   0    2.10    2.64
  -1  12   0    2.91    2.04
   1 -12   0    2.49    1.84
   0 -12   0   19.90    3.07
   0  12   0   22.12    3.31
   0  12   0   16.87    2.90
   1  12   0   -1.16    2.14
  -1 -12   0   -0.07    1.97
   1  12   0   -3.08    2.29
   1  12   0    3.14    2.39
  -2 -12   0   15.13    2.62
   2  12   0   17.04    2.91
   2  12   0   16.63    2.94
   2  12   0   11.80    2.69
   3  12   0   -1.89    2.57
   3  12   0   -1.44    3.65
   3  12   0    1.73    2.56
  -3 -12   0    2.95    3.83
   0   0  -1    0.80    0.31
   0   0  -1    0.64    0.25
   0   0  -1    0.75    0.30
   0   0  -1    0.52    0.26
   0   0   1    0.68    0.37
   0   0   1    0.52    0.26
   0   0   1    0.58    0.37
   0   0   1    0.77    0.24
  -1   0  -1  235.06   17.50
   1   0  -1  261.44   17.56
   1   0  -1  246.46   17.56
   0   1  -1  260.68   17.53
  -1   0  -1  260.36   17.49
   0   1  -1  238.90   17.51
  -1   0  -1  241.75   17.50
   0   1  -1  281.55   17.53
   1   0  -1  245.15   17.55
   0   1  -1  257.25   17.53
   0  -1  -1  272.77   17.53
  -1   0  -1  251.58   17.48
   0  -1  -1  253.18   17.52
  -1   0   1  250.74   17.56
   0  -1   1  262.43   17.53
   0  -1   1  244.32   17.51
  -1   0   1  277.55   17.56
  -1   0   1  259.71   17.56
   0   1   1  295.40   17.54
  -1   0   1  286.50   17.54
   1   0   1  268.16   17.51
   0   1   1  250.55   17.52
   0  -1   1  258.60   17.53
   1   0   1  269.75   17.50
   1   1  -1  338.54   24.51
  -1   1  -1  341.14   24.50
   1   1  -1  411.83   24.57
  -1   1  -1  343.81   24.50
   1   1  -1  369.32   24.54
  -1  -1  -1  359.58   24.50
   1  -1  -1  357.60   24.52
  -1   1  -1  374.17   24.50
  -1  -1  -1  341.73   24.50
   1   1  -1  365.50   24.54
   1  -1  -1  342.19   24.55
  -1  -1   1  374.75   24.54
   1   1   1  360.25   24.49
  -1   1   1  354.30   24.55
  -1   1   1  377.65   24.52
  -1  -1   1  372.41   24.54
  -1  -1   1  360.62   24.52
   1   1   1  395.88   24.50
  -2  -1  -1  465.29   31.71
   1  -2  -1  433.80   31.74
   2   1  -1  502.61   31.81
  -1   2  -1  451.18   31.72
  -2  -1  -1  426.69   31.71
   2   1  -1  431.81   31.74
  -1   2  -1  433.52   31.72
   1  -2  -1  504.67   31.79
  -1   2   1  538.18   31.79
  -2  -1   1  525.21   31.81
   1  -2   1  440.51   31.71
   1  -2   1  529.50   31.82
  -1   2   1  470.59   31.75
  -2  -1   1  485.70   31.78
  -2  -1   1  476.30   31.78
  -2  -1   1  438.95   31.75
   2   1   1  447.70   31.69
   0  -2  -1   26.62    1.95
   2   0  -1   26.43    1.94
   0   2  -1   24.97    1.93
   0  -2  -1   29.20    1.97
   0  -2   1   26.67    2.00
  -2   0   1   24.99    2.05
   0   2   1   28.14    1.95
  -2   0   1   27.67    2.03
  -2   0   1   26.41    2.04
   0  -2   1   30.70    1.96
   1   2  -1  453.90   31.66
  -1  -2  -1  453.91   31.65
   1   2  -1  517.60   31.69
  -1  -2   1  433.14   31.66
  -1  -2   1  461.09   31.67
   1   2   1  463.44   31.65
  -2   1   1  453.05   31.65
  -1  -2   1  539.60   31.69
  -1  -2   1  447.93   31.66
   2   2  -1   65.71    4.11
   2   2  -1   63.08    4.11
  -2  -2  -1   60.25    4.03
  -2   2  -1   54.63    3.97
   2  -2  -1   52.61    4.10
  -2  -2  -1   58.56    4.12
   2  -2  -1   56.75    4.02
   2   2  -1   60.21    4.09
   2   2  -1   54.49    4.04
  -2   2  -1   56.91    3.97
  -2   2   1   61.59    4.10
  -2  -2   1   56.97    4.06
  -2  -2   1   56.84    4.04
  -2   2   1   58.33    4.03
  -2  -2   1   59.61    4.07
   2   2   1   55.86    4.00
   3   2  -1  172.54   12.55
   3   2  -1  186.63   12.62
   3   2  -1  187.47   12.63
  -3  -2  -1  167.76   12.52
  -2   3  -1  178.99   12.52
   2  -3  -1  185.03   12.62
   3   2  -1  186.96   12.61
  -3  -2  -1  186.32   12.54
   2  -3  -1  175.69   12.55
   3   2   1  175.78   12.50
   3   2   1  174.32   12.48
  -2   3   1  184.66   12.56
  -3  -2   1  210.75   12.63
  -3  -2   1  189.42   12.58
  -3  -2   1  183.18   12.56
   2  -3   1  179.79   12.49
  -3  -2   1  185.27   12.57
  -2   3   1  199.11   12.61
   2  -3   1  203.32   12.53
   1  -3  -1  185.56   13.04
  -3  -1  -1  196.35   12.99
   1  -3  -1  209.46   13.08
  -1   3  -1  191.25   13.03
  -3  -1  -1  177.30   12.98
   3   1  -1  175.35   13.09
   3   1  -1  174.88   13.11
   3   1  -1  193.72   13.03
   3   1  -1  181.93   13.12
  -1   3  -1  196.92   13.03
  -3  -1   1  192.27   13.08
  -3  -1   1  203.96   13.11
   1  -3   1  214.79   13.04
  -1   3   1  187.50   13.04
  -3  -1   1  184.69   13.08
  -1   3   1  210.63   13.08
   1  -3   1  180.62   13.01
  -3  -1   1  202.51   13.04
   0   3  -1  103.67    6.70
   0  -3  -1  100.98    6.70
   0   3  -1   90.36    6.70
   0   3  -1   93.65    6.68
   3   0  -1   95.80    6.66
   0  -3  -1   89.64    6.68
   3   0  -1  105.88    6.70
   0   3  -1   90.18    6.70
  -3   0   1   97.67    6.67
   0  -3   1   90.57    6.66
  -3   0   1   94.21    6.73
  -3   0   1   99.30    6.73
   0   3   1   92.48    6.68
   0  -3   1  111.28    6.70
  -3   0   1   98.34    6.73
   0   3   1  107.71    6.72
   3  -1  -1  189.11   13.25
   3  -1  -1  198.43   13.26
   1   3  -1  189.49   13.28
   1   3  -1  189.78   13.30
   1   3  -1  190.07   13.30
  -1  -3  -1  180.21   13.27
   1   3  -1  203.89   13.31
  -1  -3  -1  200.93   13.29
   1   3   1  175.60   13.26
  -3   1   1  201.09   13.28
   1   3   1  216.06   13.31
  -3   1   1  210.84   13.31
  -1  -3   1  220.49   13.32
  -1  -3   1  174.20   13.27
  -2  -3  -1  184.71   12.24
  -2  -3  -1  172.75   12.22
   2   3  -1  182.54   12.26
   2   3  -1  178.31   12.24
   2   3  -1  192.90   12.29
  -3   2  -1  169.90   12.14
   2   3  -1  183.43   12.26
  -3   2  -1  183.54   12.16
   3  -2  -1  174.86   12.20
   2   3   1  199.12   12.25
  -2  -3   1  175.07   12.25
  -2  -3   1  208.32   12.29
  -3   2   1  156.57   12.27
   2   3   1  172.28   12.21
  -2  -3   1  169.26   12.23
  -2  -3   1  174.56   12.24
  -3   2   1  181.44   12.22
  -3   3  -1  112.95    8.04
   3   3  -1  122.69    8.16
   3   3  -1  114.26    8.11
   3   3  -1  124.88    8.17
   3   3  -1  122.38    8.19
   3  -3  -1  115.15    8.08
  -3   3  -1  101.74    8.07
  -3  -3  -1  119.81    8.11
  -3  -3  -1  111.10    8.09
   3  -3  -1  101.60    8.16
  -3  -3   1  118.96    8.12
  -3   3   1  120.29    8.10
   3   3   1  118.03    8.06
  -3   3   1  125.18    8.17
  -3  -3   1  118.51    8.12
  -3  -3   1  130.72    8.18
  -3  -3   1  118.54    8.12
   3   3   1  137.60    8.14
   3   3   1  114.69    8.07
   3  -4  -1  131.21    8.68
   4   3  -1  120.01    8.64
  -3   4  -1  129.10    8.61
   4   3  -1  131.44    8.76
   4   3  -1  129.55    8.76
   4   3  -1  132.99    8.74
  -3   4  -1  126.37    8.61
  -4  -3  -1  121.28    8.62
  -4  -3  -1  134.19    8.66
   3  -4  -1  112.79    8.73
   4   3   1  125.72    8.59
  -3   4   1  140.71    8.72
   3  -4   1  111.87    8.58
  -3   4   1  132.48    8.69
  -4  -3   1  122.27    8.66
  -4  -3   1  128.24    8.66
  -4  -3   1  108.31    9.04
  -4  -3   1  123.61    8.65
   3  -4   1  109.14    8.58
   4   3   1  135.11    8.60
   4   3   1  140.24    8.61
   2  -4  -1   23.49    1.79
  -4  -2  -1   24.73    1.76
   4   2  -1   19.76    2.00
  -4  -2  -1   22.50    1.72
   4   2  -1   22.77    1.78
   4   2  -1   20.66    1.95
   4   2  -1   20.42    2.06
  -4  -2   1   24.64    1.89
  -4  -2   1   24.10    1.88
   4   2   1   23.06    1.65
  -2   4   1   23.78    1.80
  -2   4   1   25.19    1.85
  -4  -2   1   23.66    1.81
  -4  -2   1   27.05    1.97
   4   1  -1  222.10   15.50
  -1   4  -1  232.41   15.46
  -4  -1  -1  210.08   15.38
  -4  -1  -1  233.41   15.40
   1  -4  -1  222.84   15.47
   1  -4  -1  237.83   15.50
   4   1  -1  236.51   15.53
  -1   4  -1  236.97   15.47
   4   1  -1  234.94   15.43
  -4  -1   1  236.07   15.54
   1  -4   1  251.81   15.47
  -1   4   1  217.89   15.46
  -4  -1   1  221.27   15.45
  -4  -1   1  220.83   15.50
  -1   4   1  243.92   15.51
   1  -4   1  205.11   15.42
  -4  -1   1  208.17   15.50
  -4   0  -1   11.64    1.01
   4   0  -1   14.22    1.10
   4   0  -1   14.92    1.15
   0  -4  -1   14.35    1.19
  -4   0   1   12.41    1.38
  -4   0   1   11.80    1.36
   0   4   1   13.10    1.17
   0   4   1   16.31    1.25
  -4   0   1   13.06    1.30
  -4   0   1   13.28    1.15
   1   4  -1  229.45   15.48
   4  -1  -1  215.29   15.40
  -1  -4  -1  215.44   15.46
   4  -1  -1  225.41   15.41
   1   4  -1  235.56   15.50
   1   4  -1  219.01   15.48
   1   4  -1  215.31   15.49
  -1  -4  -1  233.99   15.48
  -1  -4   1  207.31   15.45
  -4   1   1  241.49   15.47
   1   4   1  246.91   15.51
   1   4   1  212.48   15.45
  -1  -4   1  252.25   15.51
  -4   1   1  238.35   15.46
   4  -2  -1   22.43    1.71
  -4   2  -1   23.29    1.63
  -2  -4  -1   21.60    1.80
  -2  -4  -1   25.77    1.86
   4  -2  -1   25.35    1.76
  -4   2   1   24.88    1.78
  -4   2   1   19.36    1.89
   2   4   1   26.11    1.87
   2   4   1   21.92    1.77
   3   4  -1  126.55    8.76
   3   4  -1  127.86    8.77
  -4   3  -1  123.65    8.62
   3   4  -1  121.08    8.78
   3   4  -1  135.50    8.76
  -4   3  -1  121.63    8.65
  -3  -4  -1  118.38    8.70
   4  -3  -1  125.69    8.65
   3   4   1  125.09    8.68
  -3  -4   1  122.97    8.72
   3   4   1  135.51    8.75
   3   4   1  120.67    8.68
  -3  -4   1  142.84    8.81
  -4   3   1  127.37    8.78
  -4   3   1  129.62    8.70
   4  -4  -1   14.42    1.57
  -4  -4  -1   14.04    1.40
  -4  -4  -1   16.40    1.37
   4  -4  -1   15.35    1.25
  -4   4   1   13.53    1.41
  -4   4   1   15.14    1.48
   4   4   1   14.86    1.47
   4   4   1   11.97    1.26
   4   4   1   15.36    1.36
   4   4   1   15.21    1.35
   5   4  -1   97.17    6.96
  -5  -4  -1  101.77    6.83
   5   4  -1   88.18    6.96
  -5  -4  -1   99.55    6.85
  -4   5  -1   97.18    6.78
   5   4  -1  101.43    7.00
   5   4  -1   98.51    6.85
   4  -5  -1   97.59    6.77
   5   4   1  101.11    6.83
  -4   5   1   99.96    6.84
  -5  -4   1  100.58    7.10
  -5  -4   1   98.00    6.92
  -4   5   1  105.64    6.91
   5   4   1   92.11    7.07
  -5  -4   1   94.77    6.84
   5   4   1   94.29    6.75
   5   4   1   98.27    6.90
  -5  -3  -1   82.35    6.45
   5   3  -1   84.06    6.48
   3  -5  -1   94.32    6.27
   5   3  -1   89.19    6.27
  -5  -3  -1   95.08    6.29
   5   3  -1   86.87    6.45
  -3   5  -1   99.60    6.31
   3  -5  -1   90.69    6.44
   5   3  -1   81.69    6.42
  -5  -3   1   90.38    6.29
   3  -5   1   95.10    6.18
  -5  -3   1   96.41    6.32
  -5  -3   1   98.07    6.40
   5   3   1   76.90    6.28
  -5  -3   1   91.86    6.29
  -3   5   1   97.15    6.36
  -3   5   1   89.69    6.30
   3  -5   1   86.30    6.29
   5   3   1   89.95    6.18
   2  -5  -1  149.31   10.55
  -2   5  -1  149.32   10.74
   5   2  -1  148.97   10.51
  -5  -2  -1  154.49   10.51
   5   2  -1  154.67   10.67
   2  -5  -1  153.09   10.63
  -5  -2  -1  147.81   10.49
   5   2  -1  142.11   10.64
   5   2  -1  129.98   10.61
  -2   5  -1  162.84   10.56
  -2   5   1  164.26   10.61
   2  -5   1  175.67   10.58
  -5  -2   1  163.72   11.05
   2  -5   1  148.70   10.49
  -5  -2   1  158.99   10.57
  -5  -2   1  160.79   10.58
  -5  -2   1  152.41   10.55
  -2   5   1  158.74   10.57
  -1   5  -1  143.10    9.45
   5   1  -1  147.10    9.45
  -5  -1  -1  135.28    9.36
   1  -5  -1  129.25    9.43
   5   1  -1  137.73    9.38
   1  -5  -1  149.55    9.54
  -5  -1   1  125.37    9.48
   1  -5   1  153.72    9.46
  -5  -1   1  132.69    9.48
  -1   5   1  126.75    9.43
  -1   5   1  140.38    9.48
  -5  -1   1  139.78    9.42
   1  -5   1  127.66    9.39
  -5  -1   1  137.99    9.52
  -5   0  -1  144.86   10.15
  -5   0  -1  142.11   10.18
   0   5  -1  143.38   10.30
   5   0  -1  157.23   10.21
   5   0  -1  154.12   10.19
   0   5  -1  155.62   10.34
   0  -5  -1  149.83   10.28
   0   5  -1  140.57   10.31
   0   5  -1  162.23   10.31
  -5   0   1  145.40   10.32
   0   5   1  152.48   10.28
  -5   0   1  153.54   10.24
   0  -5   1  137.40   10.24
  -5   0   1  150.59   10.33
   0   5   1  163.27   10.33
   0  -5   1  161.38   10.31
  -5   0   1  136.13   10.31
   5  -1  -1  128.36    9.03
   1   5  -1  136.45    9.18
   1   5  -1  138.41    9.18
   5  -1  -1  130.73    9.03
  -1  -5  -1  132.51    9.14
  -5   1  -1  118.93    8.98
   1   5  -1  133.53    9.15
   1   5  -1  137.50    9.18
  -1  -5  -1  135.01    9.16
  -5   1  -1  124.74    8.98
   1   5   1  129.25    9.18
  -5   1   1  137.79    9.16
   1   5   1  142.04    9.19
  -1  -5   1  129.34    9.12
  -5   1   1  140.37    9.15
  -5   2  -1  148.76   10.20
   2   5  -1  144.17   10.38
   5  -2  -1  148.22   10.23
   5  -2  -1  151.85   10.24
   2   5  -1  153.64   10.37
  -2  -5  -1  146.41   10.34
   2   5  -1  155.09   10.39
  -2  -5  -1  153.44   10.37
   2   5  -1  153.70   10.38
  -5   2   1  138.24   10.36
  -2  -5   1  148.04   10.34
   2   5   1  155.47   10.39
  -5   2   1  156.00   10.31
   2   5   1  148.46   10.41
  -2  -5   1  160.02   10.40
   3   5  -1   98.32    6.55
   5  -3  -1   88.82    6.39
   3   5  -1  102.29    6.59
  -3  -5  -1   90.81    6.51
   3   5  -1   90.64    6.59
  -5   3  -1   90.55    6.38
   5  -3  -1   94.45    6.42
   3   5  -1  100.41    6.58
  -3  -5  -1   94.68    6.55
  -5   3   1   82.74    6.59
  -3  -5   1   96.83    6.60
   3   5   1   92.01    6.50
   3   5   1   92.43    6.55
  -3  -5   1   93.31    6.52
   5  -4  -1   98.55    6.67
   4   5  -1   98.52    6.87
  -4  -5  -1   93.81    6.79
   4   5  -1   87.26    6.87
   4   5  -1   99.35    6.82
   4   5  -1   99.90    6.88
  -5   4  -1   99.81    6.69
  -4  -5  -1   96.57    6.83
  -5   4  -1   95.42    6.69
  -4  -5   1   94.75    6.80
   4   5   1  104.02    6.77
  -5   4   1  107.74    6.89
  -4  -5   1   89.53    6.87
   4   5   1   91.31    6.84
   4   5   1   99.83    6.76
  -5   4   1   99.68    6.77
  -5   5  -1   61.29    4.65
  -5  -5  -1   68.23    4.72
  -5  -5  -1   58.55    4.74
   5   5  -1   67.85    4.88
   5  -5  -1   64.47    4.57
  -5   5  -1   65.63    4.62
   5   5  -1   68.50    4.76
   5   5  -1   59.29    4.85
   5   5  -1   69.85    4.87
  -5   5   1   69.61    4.78
   5   5   1   70.07    4.70
  -5  -5   1   66.44    4.73
   5   5   1   60.14    4.71
  -5  -5   1   63.96    4.84
   5   5   1   72.12    4.72
   5   5   1   62.73    4.80
  -5   5   1   62.31    4.69
  -6  -5  -1   42.14    3.28
  -5   6  -1   44.46    3.27
   5  -6  -1   45.36    3.16
   6   5  -1   41.87    3.66
   5  -6  -1   46.22    3.60
   6   5  -1   40.29    3.72
  -5   6  -1   46.10    3.26
  -6  -5  -1   43.85    3.43
   6   5  -1   44.80    3.37
  -5   6   1   42.58    3.36
  -6  -5   1   46.31    3.37
  -5   6   1   47.21    3.39
  -6  -5   1   41.44    3.54
   6   5   1   35.44    3.44
   6   5   1   40.66    3.49
   6   5   1   41.13    3.42
   6   5   1   43.93    3.21
   6   4  -1    6.33    1.34
   6   4  -1    5.30    0.89
   4  -6  -1    4.92    0.76
   4  -6  -1    5.13    1.35
  -6  -4  -1    4.36    0.93
   6   4   1    4.36    0.84
  -6  -4   1    7.11    1.37
  -4   6   1    5.25    0.90
  -4   6   1    4.25    0.90
  -6  -3  -1   56.55    3.96
  -3   6  -1   59.24    4.03
  -3   6  -1   59.60    4.03
   3  -6  -1   53.82    4.29
   3  -6  -1   55.61    3.99
   6   3  -1   47.61    4.28
  -6  -3  -1   55.92    4.00
   6   3  -1   52.67    4.31
   6   3  -1   56.14    3.97
  -6  -3   1   54.90    4.16
  -6  -3   1   60.96    4.17
  -6  -3   1   55.84    4.02
  -3   6   1   59.22    4.10
  -6  -3   1   50.88    4.10
  -3   6   1   55.18    4.05
   3  -6   1   55.03    3.89
   3  -6   1   51.48    4.08
   6   3   1   55.02    3.83
  -6  -2  -1    7.37    0.86
   6   2  -1    6.42    1.04
   2  -6  -1    6.82    1.37
  -6  -2  -1    7.03    0.96
   2  -6  -1    6.05    0.96
   6   2  -1    5.63    0.88
  -2   6   1    5.68    1.06
  -6  -2   1    7.52    1.11
  -2   6   1    5.74    1.10
  -6  -2   1    5.57    1.16
  -6  -2   1    7.04    1.25
  -6  -2   1    6.62    1.01
  -1   6  -1   78.73    5.29
   1  -6  -1   64.92    5.32
  -6  -1  -1   74.91    5.16
  -1   6  -1   75.67    5.28
   1  -6  -1   71.80    5.25
  -1   6  -1   71.18    5.33
   6   1  -1   78.23    5.19
   6   1  -1   74.63    5.14
  -6  -1  -1   73.23    5.13
  -6  -1   1   71.10    5.33
   1  -6   1   70.26    5.20
  -6  -1   1   77.37    5.38
  -6  -1   1   77.09    5.32
  -1   6   1   72.49    5.27
  -1   6   1   74.59    5.31
  -6  -1   1   76.90    5.23
   1  -6   1   80.42    5.38
   0  -6  -1    6.04    0.95
  -6   0  -1    5.98    0.72
   6   0  -1    5.50    0.71
  -6   0  -1    6.58    0.81
  -6   0  -1    4.83    0.70
   6   0  -1    6.31    0.73
   0  -6  -1    4.64    0.98
  -6   0   1    5.91    1.03
  -6   0   1    6.55    0.83
  -6   0   1    5.94    1.04
   0   6   1    6.20    0.90
  -6   0   1    5.18    1.60
   0   6   1    5.94    1.10
   1   6  -1   70.67    5.14
  -6   1  -1   69.97    4.88
   6  -1  -1   71.58    4.89
   6  -1  -1   74.17    4.91
  -1  -6  -1   71.40    5.13
  -1  -6  -1   73.35    5.09
   1   6  -1   68.34    5.11
   1   6  -1   77.14    5.12
  -6   1  -1   72.14    4.91
   1   6  -1   73.12    5.14
  -6   1   1   60.82    5.62
  -1  -6   1   68.98    5.14
  -1  -6   1   68.16    5.04
   1   6   1   71.66    5.06
  -6   1   1   74.61    5.28
   1   6   1   73.51    5.14
   6  -2  -1    6.01    0.86
  -6   2  -1    6.62    0.66
  -2  -6  -1    5.18    1.06
  -2  -6  -1    5.76    1.20
   6  -2  -1    6.09    0.66
  -6   2   1    5.11    1.05
  -6   2   1    6.57    0.98
   2   6   1    6.24    1.15
   2   6   1    5.85    1.04
   3   6  -1   54.27    4.04
  -3  -6  -1   57.64    3.96
  -6   3  -1   57.77    3.74
   3   6  -1   57.16    4.04
  -3  -6  -1   52.69    4.01
   3   6  -1   56.25    4.01
   6  -3  -1   52.79    3.71
  -6   3  -1   53.18    4.04
   6  -3  -1   60.43    3.76
   3   6  -1   44.36    4.01
  -3  -6   1   49.05    4.04
  -6   3   1   55.68    3.88
   3   6   1   54.14    3.92
  -3  -6   1   50.97    3.92
   3   6   1   56.99    3.97
   3   6   1   47.92    3.98
  -6   3   1   48.17    4.02
  -4  -6  -1    4.40    0.89
   6  -4  -1    3.90    0.77
  -4  -6  -1    4.62    1.07
   6  -4  -1    5.45    0.70
  -6   4   1    4.72    0.79
   4   6   1    4.60    1.03
   4   6   1    5.56    0.99
  -6   4   1    6.52    1.04
   4   6   1    6.54    1.28
   4   6   1    3.78    0.87
  -6   5  -1   43.98    3.25
   6  -5  -1   43.84    3.13
   5   6  -1   45.02    3.54
  -5  -6  -1   37.31    3.50
   5   6  -1   43.02    3.61
   6  -5  -1   42.10    3.23
  -6   5  -1   44.79    3.27
   5   6  -1   41.80    3.58
  -5  -6  -1   47.66    3.43
   5   6   1   47.61    3.42
  -6   5   1   49.30    3.52
   5   6   1   40.28    3.52
  -6   5   1   42.02    3.37
   5   6   1   45.38    3.40
  -5  -6   1   46.27    3.44
   5   6   1   48.95    3.47
   6   6  -1    5.63    1.41
  -6  -6  -1    3.17    1.22
   6   6  -1    4.00    1.11
  -6  -6  -1    1.90    0.88
   6  -6  -1    2.32    0.59
   6   6   1    2.43    1.13
   6   6   1    0.84    1.13
   6   6   1    0.25    0.85
  -6   6   1    1.98    0.93
   6   6   1    3.16    1.15
  -6   6   1    1.00    0.88
   7   6  -1   22.26    3.17
  -7  -6  -1   27.91    2.48
   7   6  -1   23.39    3.08
  -6   7  -1   27.59    2.55
   6  -7  -1   26.14    2.06
   7   6  -1   27.52    2.62
  -6   7  -1   27.23    2.32
   7   6   1   23.19    2.85
   7   6   1   21.37    3.36
  -6   7   1   29.12    2.50
  -7  -6   1   28.25    2.57
   7   6   1   23.43    2.82
   7   5  -1   26.96    3.08
   7   5  -1   36.23    2.90
  -7  -5  -1   27.19    2.85
   7   5  -1   25.45    3.28
  -5   7  -1   36.73    2.67
  -5   7  -1   33.40    2.76
   7   5  -1   27.67    3.38
   5  -7  -1   33.09    2.48
  -7  -5  -1   33.27    2.66
  -7  -5   1   37.67    3.89
   7   5   1   26.17    2.83
  -7  -5   1   36.75    2.72
   7   5   1   31.38    2.45
  -5   7   1   31.22    2.85
  -5   7   1   32.47    2.74
   7   5   1   30.05    2.79
  -7  -4  -1   48.49    3.56
   4  -7  -1   48.56    3.42
   7   4  -1   46.04    3.55
   7   4  -1   45.20    3.98
  -4   7  -1   47.49    3.55
   7   4  -1   37.69    3.91
  -4   7  -1   52.48    3.52
  -7  -4  -1   48.68    3.45
   7   4   1   45.17    3.22
  -7  -4   1   49.60    3.53
  -7  -4   1   43.64    3.49
   4  -7   1   45.90    3.25
   7   4   1   42.99    3.38
  -4   7   1   49.29    3.58
  -7  -4   1   42.49    3.72
  -4   7   1   43.74    3.56
   4  -7   1   37.43    3.52
  -3   7  -1   56.50    3.76
   7   3  -1   42.95    3.87
  -7  -3  -1   49.61    3.63
   3  -7  -1   47.60    4.03
   3  -7  -1   52.15    3.69
  -3   7  -1   52.84    3.79
  -7  -3  -1   45.39    3.71
   7   3  -1   46.49    3.60
  -7  -3   1   50.75    3.70
   3  -7   1   51.38    3.57
   3  -7   1   46.93    3.88
  -3   7   1   46.46    3.77
  -7  -3   1   51.25    4.14
  -7  -3   1   53.32    3.92
  -3   7   1   48.45    3.77
  -7  -3   1   53.67    4.05
  -7  -2  -1   67.01    4.60
  -7  -2  -1   66.00    4.65
   7   2  -1   68.41    4.69
  -2   7  -1   66.74    4.77
   2  -7  -1   67.68    4.72
   2  -7  -1   57.62    4.86
   7   2  -1   63.13    4.56
  -2   7  -1   68.05    4.76
  -7  -2   1   68.43    4.69
   2  -7   1   64.08    4.62
  -7  -2   1   62.86    4.88
  -2   7   1   55.45    4.71
  -7  -2   1   69.98    4.89
  -2   7   1   66.40    4.78
  -7  -2   1   70.66    5.09
   2  -7   1   58.74    5.32
  -1   7  -1   68.18    4.73
  -7  -1  -1   63.89    4.47
   1  -7  -1   52.32    4.67
  -1   7  -1   67.62    4.66
  -7  -1  -1   61.26    4.41
   7   1  -1   61.52    4.37
   1  -7  -1   65.56    4.60
  -1   7  -1   66.14    4.63
   7   1  -1   61.33    4.40
  -7  -1   1   63.21    5.15
   1  -7   1   66.25    4.53
   1  -7   1   61.37    4.73
  -7  -1   1   67.00    4.75
  -7  -1   1   56.17    4.80
  -1   7   1   60.63    4.64
  -7  -1   1   66.73    4.53
   0  -7  -1   58.37    4.86
   0  -7  -1   71.93    4.80
  -7   0  -1   67.96    4.58
   0   7  -1   58.07    4.81
  -7   0  -1   74.55    4.66
   7   0  -1   70.96    4.54
  -7   0  -1   59.31    4.59
   0   7  -1   66.74    4.82
   0   7  -1   71.00    4.90
   0   7  -1   69.68    4.90
   7   0  -1   57.44    4.58
  -7   0   1   58.04    5.05
   0  -7   1   69.25    4.74
   0  -7   1   71.24    4.89
   0   7   1   68.58    4.87
  -7   0   1   62.30    4.88
   1   7  -1   58.52    4.51
   1   7  -1   70.26    4.67
  -1  -7  -1   54.32    4.53
  -1  -7  -1   61.28    4.46
   1   7  -1   70.44    4.60
   1   7   1   56.13    4.52
  -1  -7   1   66.83    4.49
  -7   1   1   55.31    4.49
  -1  -7   1   58.91    4.56
  -7   1   1   67.33    4.44
   1   7   1   57.72    4.45
  -7   1   1   60.04    4.56
  -7   1   1   55.36    4.53
   2   7  -1   68.45    4.75
  -2  -7  -1   67.07    4.65
   2   7  -1   53.83    4.67
  -7   2  -1   65.38    4.43
   2   7  -1   66.04    4.83
   2   7  -1   65.83    4.73
   2   7   1   65.49    4.65
   2   7   1   58.61    4.69
  -2  -7   1   56.63    4.76
  -7   2   1   64.34    4.63
  -7   2   1   62.31    4.66
  -2  -7   1   66.65    4.62
   3   7  -1   54.25    3.95
   3   7  -1   56.99    4.01
   3   7  -1   53.22    3.92
  -3  -7  -1   50.33    3.78
  -7   3  -1   49.17    3.55
   3   7  -1   44.86    3.88
  -7   3  -1   50.91    3.65
  -3  -7   1   55.48    3.81
   3   7   1   42.36    3.85
   3   7   1   48.31    3.83
   3   7   1   50.08    3.84
   3   7   1   51.68    3.86
  -7   3   1   43.83    3.94
  -7   4  -1   45.51    3.39
   4   7  -1   44.37    3.74
   4   7  -1   49.75    3.73
  -4  -7  -1   48.01    3.59
   4   7   1   48.31    3.64
  -7   4   1   51.95    3.71
  -4  -7   1   45.53    3.58
  -7   4   1   44.26    3.51
   4   7   1   39.02    3.65
   4   7   1   46.24    3.70
   4   7   1   47.61    3.63
   5   7  -1   33.84    3.13
  -7   5  -1   33.98    2.68
  -7   5  -1   36.01    2.65
  -5  -7  -1   33.03    2.85
   5   7  -1   35.13    3.12
   5   7   1   31.97    2.90
  -7   5   1   30.15    2.82
  -5  -7   1   40.05    2.93
   5   7   1   34.06    2.95
   5   7   1   32.59    2.93
  -7   5   1   37.75    2.95
   5   7   1   28.00    2.99
  -7   6  -1   24.53    2.27
   6   7  -1   23.31    2.86
   6   7  -1   26.70    2.94
  -6  -7  -1   26.51    2.48
  -7   6  -1   26.50    2.44
  -7   6   1   29.52    2.54
   6   7   1   26.47    2.62
  -7   6   1   24.25    2.61
   6   7   1   27.80    2.70
   6   7   1   29.30    2.66
  -7   7  -1   21.07    1.94
  -7  -7  -1   15.41    2.47
   7   7  -1   15.65    2.80
   7   7  -1   14.25    2.87
   7   7  -1   18.70    3.14
  -7   7  -1   19.22    2.33
   7   7   1   13.32    2.56
  -7   7   1   17.96    2.15
   7   7   1   15.77    2.21
   7   7   1   14.87    2.52
   7   7   1   15.35    2.53
  -7  -7   1   18.98    2.26
  -7   8  -1   12.58    1.92
   8   7  -1   13.12    2.57
   8   7  -1   15.77    3.19
  -8  -7  -1    9.33    1.67
   8   7  -1    6.88    3.58
  -8  -7   1   14.63    2.17
   8   7   1    9.88    2.00
  -7   8   1   13.15    2.11
   8   6  -1    1.21    1.67
   6  -8  -1    1.17    0.72
   8   6  -1    4.63    2.03
   8   6  -1    1.07    2.02
  -8  -6  -1    0.06    1.26
   8   6  -1    3.55    1.54
  -6   8  -1    3.57    1.08
   8   6   1    0.15    1.26
   8   6   1    1.57    0.96
  -6   8   1    2.24    1.63
   8   5  -1   25.29    2.40
   5  -8  -1   25.94    2.16
  -8  -5  -1   22.30    2.33
  -5   8  -1   27.37    2.42
   5  -8  -1   22.00    3.33
   8   5  -1   22.56    3.16
  -8  -5   1   24.26    2.40
  -5   8   1   26.37    2.50
  -8  -4  -1    2.38    1.12
   8   4  -1    3.75    1.34
  -4   8  -1    4.72    1.03
  -8  -4  -1    3.60    0.90
   4  -8  -1    2.12    1.74
   8   4  -1    3.83    1.40
  -4   8  -1    5.00    1.23
  -4   8   1    2.86    1.05
  -8  -4   1    6.17    1.09
   4  -8   1    4.48    1.50
  -8  -4   1    5.02    1.11
  -8  -3  -1   41.69    3.15
  -8  -3  -1   40.01    3.27
   8   3  -1   40.44    3.06
   3  -8  -1   37.61    3.71
   3  -8  -1   43.05    3.22
  -3   8  -1   46.13    3.32
   8   3  -1   43.35    3.28
  -3   8  -1   40.67    3.41
  -3   8   1   41.52    3.36
   3  -8   1   41.31    4.76
   3  -8   1   42.06    3.11
  -8  -3   1   39.83    3.25
  -8  -3   1   39.77    3.26
  -8  -3   1   38.68    3.24
  -8  -3   1   41.23    3.59
   8   2  -1    4.36    0.71
   2  -8  -1    4.39    1.00
  -2   8  -1    3.90    1.11
   8   2  -1    4.06    0.66
  -8  -2  -1    3.68    0.78
   2  -8  -1    3.19    1.47
  -8  -2  -1    5.16    0.89
  -8  -2   1    4.63    1.02
  -8  -2   1    2.54    1.20
  -8  -2   1    4.58    0.93
  -2   8   1    2.92    1.02
  -8  -2   1    4.33    1.10
  -2   8   1    4.46    1.16
   1  -8  -1   55.18    4.16
  -8  -1  -1   53.94    3.97
  -1   8  -1   54.92    4.23
  -1   8  -1   57.60    4.42
  -1   8  -1   57.23    4.30
  -8  -1  -1   55.43    4.05
  -1   8  -1   57.72    4.39
  -8  -1   1   57.93    4.11
  -8  -1   1   57.12    4.29
  -1   8   1   51.17    4.24
   1  -8   1   50.86    4.38
  -8  -1   1   63.23    4.41
  -8  -1   1   52.87    4.27
   1  -8   1   55.16    4.08
   0   8  -1    1.41    1.40
  -8   0  -1    4.50    0.82
   0  -8  -1    4.48    1.04
  -8   0  -1    5.80    1.01
   0   8   1    4.60    1.05
  -8   0   1    3.57    1.24
  -8   0   1    2.20    1.13
  -8   0   1    3.60    1.16
   1   8  -1   48.27    3.84
  -8   1  -1   45.73    3.57
  -8   1  -1   40.31    3.61
   1   8  -1   57.28    3.98
  -1  -8   1   56.74    3.74
  -8   1   1   57.17    3.72
  -8   1   1   41.87    3.87
  -1  -8   1   46.36    4.54
   1   8   1   42.39    4.30
  -8   1   1   45.94    3.84
  -8   1   1   49.06    3.97
   1   8   1   50.82    3.87
  -8   2  -1    4.70    0.84
  -8   2  -1    5.13    0.82
  -2  -8  -1    2.73    1.36
   2   8  -1    6.66    1.20
  -2  -8  -1    4.11    1.04
   2   8   1    4.92    1.23
  -8   2   1    6.76    1.30
  -8   2   1    4.43    1.18
   2   8   1    4.91    1.21
  -8   2   1    4.64    1.06
  -2  -8   1   -0.39    2.10
  -8   2   1    4.05    1.07
  -8   3  -1   40.21    3.06
   3   8  -1   32.95    3.37
   3   8  -1   40.60    3.47
   3   8  -1   42.76    3.48
  -3  -8  -1   43.57    3.29
   3   8   1   34.50    3.37
  -3  -8   1   45.32    3.28
  -8   3   1   33.60    3.33
   3   8   1   44.79    3.39
  -8   3   1   40.00    3.26
   3   8   1   42.05    3.40
  -8   4  -1    5.75    1.14
  -4  -8  -1    4.60    1.13
   4   8  -1    6.71    1.37
   4   8  -1    4.10    1.29
   4   8   1    1.70    1.17
   4   8   1    2.88    1.21
   4   8   1    3.62    1.73
   4   8   1    2.10    1.17
  -8   4   1    3.53    0.98
  -8   4   1    3.33    1.16
  -5  -8  -1   27.48    2.71
   5   8  -1   24.79    2.79
   5   8  -1   24.40    2.84
  -8   5  -1   22.16    2.82
  -8   5  -1   24.26    2.17
  -8   5   1   25.57    2.52
  -8   5   1   25.16    2.53
  -5  -8   1   27.90    2.50
   5   8   1   23.55    2.62
   5   8   1   25.32    2.65
  -6  -8  -1    0.73    1.16
   6   8  -1    2.14    1.41
   6   8  -1    4.13    1.59
  -8   6  -1    2.09    0.89
   6   8  -1    4.29    1.58
  -8   6  -1    3.38    1.13
   6   8   1   -0.54    1.38
  -6  -8   1    4.62    1.30
   6   8   1    0.84    1.44
   6   8   1   -0.06    1.35
  -8   6   1    0.53    1.09
   7   8  -1   12.37    2.27
   7   8  -1   14.87    3.08
  -8   7  -1   11.70    1.87
  -7  -8  -1   13.50    2.16
   7   8  -1   15.79    2.72
  -8   7   1   17.40    3.12
   7   8   1   12.95    2.76
   7   8   1    9.98    2.13
  -7  -8   1   14.65    2.37
  -8   8  -1    0.51    1.38
   8   8  -1    5.69    2.46
   8   8  -1    0.78    2.33
  -8  -8  -1   -2.14    1.47
   8   8  -1    5.78    2.63
  -8   8   1   -1.47    1.43
   8   8   1    0.62    2.09
  -8  -8   1    2.15    1.67
  -9  -8  -1    4.13    2.05
   9   8  -1    3.78    2.91
  -8   9   1    5.70    2.07
  -9  -8   1    3.41    2.13
   9   7  -1    8.38    2.94
  -7   9  -1   10.28    1.81
  -9  -7   1    8.62    1.88
  -7   9   1    8.91    1.86
   6  -9  -1   11.86    1.56
   9   6  -1    8.34    2.21
  -9  -6  -1   10.67    2.11
  -6   9  -1   16.61    2.68
  -9  -6   1   13.68    2.28
  -6   9   1   13.82    2.26
  -9  -5  -1   14.06    1.95
   5  -9  -1   12.21    3.73
   9   5  -1   14.36    2.55
  -5   9  -1   17.88    3.17
   5  -9  -1   13.44    1.69
  -5   9   1   15.61    2.21
  -9  -5   1   16.22    2.06
   9   4  -1   15.42    1.77
  -9  -4  -1   15.25    1.84
   4  -9  -1   20.56    1.91
   4  -9  -1   13.44    2.60
  -4   9  -1   18.25    2.17
   9   4  -1   17.43    2.02
  -4   9   1   20.11    2.22
   4  -9   1   15.83    1.66
  -9  -4   1   14.35    2.11
   4  -9   1   12.79    2.44
  -9  -3  -1   18.18    1.91
  -9  -3  -1   16.05    2.45
   3  -9  -1   19.77    2.06
   9   3  -1   19.63    1.73
  -3   9  -1   21.02    2.27
  -3   9  -1   24.19    2.92
  -9  -3   1   15.52    2.27
  -9  -3   1   18.95    2.21
   3  -9   1   22.67    1.92
   3  -9   1   20.06    3.07
  -3   9   1   18.13    3.28
  -9  -3   1   20.72    2.14
  -9  -2  -1   15.62    2.02
  -2   9  -1   19.80    2.17
  -9  -2  -1   18.37    1.77
  -9  -2   1   19.50    2.64
   2  -9   1   19.09    1.93
  -9  -2   1   17.13    1.97
   2  -9   1   22.00    2.84
  -9  -2   1   19.90    2.12
  -9  -2   1   17.32    2.12
  -1   9  -1   28.81    3.18
  -9  -1  -1   21.69    2.19
   1  -9  -1   24.58    2.33
  -1   9  -1   22.59    2.40
  -9  -1  -1   21.50    2.00
  -1   9  -1   29.18    2.97
  -9  -1   1   21.62    2.78
  -9  -1   1   21.94    2.45
   1  -9   1   28.12    2.26
   1  -9   1   19.90    3.21
  -1   9   1   18.57    3.71
  -9  -1   1   23.16    2.56
  -9   0  -1   24.37    2.05
   0   9  -1   22.32    2.63
   0   9  -1   23.03    2.71
  -9   0  -1   18.81    1.82
   0   9  -1   21.98    2.54
  -9   0   1   16.99    2.51
  -9   0   1   19.48    2.58
   0  -9   1   21.53    2.20
  -9   0   1   19.67    2.58
  -9   1  -1   20.77    1.99
  -9   1  -1   18.84    2.03
  -9   1   1   17.93    2.55
  -9   1   1   20.64    2.63
  -9   1   1   24.37    2.17
  -9   1   1   17.50    2.70
   2   9  -1   15.66    2.25
   2   9  -1   17.81    2.51
  -9   2  -1   16.77    1.77
   2   9  -1   20.76    2.47
  -9   2  -1   12.86    2.20
  -9   2  -1   16.36    1.85
   2   9   1   13.38    2.86
  -9   2   1   18.79    2.57
  -9   2   1   17.43    2.08
  -9   2   1   16.63    2.60
  -2  -9   1   12.79    2.75
  -9   2   1   14.29    2.29
   3   9  -1   23.85    2.62
  -3  -9  -1   20.03    2.21
   3   9  -1   14.77    2.37
  -9   3  -1   20.59    1.91
  -9   3  -1   18.24    2.03
   3   9   1   15.99    2.41
  -9   3   1   20.53    2.93
  -9   3   1   17.71    2.72
   3   9   1   17.99    2.46
  -9   3   1   16.76    2.29
  -9   3   1   19.29    3.02
   3   9   1   15.25    2.36
  -9   4  -1   18.65    2.28
   4   9  -1   18.71    2.68
  -4  -9  -1   18.68    2.26
  -9   4  -1   17.33    1.86
   4   9  -1   16.78    2.63
  -9   4   1   16.14    2.84
  -4  -9   1   19.10    2.33
  -9   4   1   15.94    2.30
   4   9   1   22.88    2.49
  -5  -9  -1   16.16    2.32
   5   9  -1   15.12    2.90
  -9   5  -1   17.36    1.80
   5   9  -1   17.66    3.21
  -9   5  -1   14.53    2.22
   5   9   1   10.82    2.39
   5   9   1   12.13    2.45
  -9   5   1   17.92    2.19
  -9   6  -1   10.22    1.73
   6   9  -1    8.84    2.87
  -6  -9  -1   12.32    2.24
   6   9  -1    7.99    1.93
   6   9   1    6.23    1.89
   6   9   1    9.06    1.97
  -9   6   1   13.25    2.08
  -7  -9  -1    5.10    1.82
  -9   7  -1   11.59    2.00
   7   9  -1   10.31    2.64
   7   9  -1    7.31    2.17
   7   9  -1    5.83    4.17
  -7  -9   1    8.84    1.94
   7   9   1    7.95    2.37
   7   9   1    5.25    2.16
  -8  -9  -1    1.42    2.11
   8   9  -1    4.62    2.73
   8   9  -1   13.17    3.22
   8   9  -1    6.79    3.80
  -8  -9   1    4.16    2.26
   8   9   1    5.67    3.02
  -9   8   1    6.52    2.01
  -7  10  -1    7.22    2.24
 -10  -7  -1    2.36    2.05
  -7  10  -1    5.07    3.20
  -7  10   1    3.61    2.29
 -10  -7   1    3.59    2.28
 -10  -6  -1   -1.55    1.57
  -6  10  -1    3.18    1.81
  -6  10  -1    1.33    2.61
 -10  -6   1    0.57    1.70
  -6  10   1   -3.15    1.74
  -5  10  -1   14.78    2.36
  -5  10  -1   13.66    2.66
 -10  -5  -1    8.06    1.66
   5 -10  -1    9.99    1.81
 -10  -5   1   11.81    2.36
  -5  10   1   11.29    1.98
   4 -10  -1    0.83    2.04
  -4  10  -1    3.69    1.93
  -4  10  -1    4.04    1.45
 -10  -4  -1    1.37    1.10
 -10  -4   1   -0.04    1.24
  -4  10   1    0.52    1.35
   3 -10  -1   13.35    2.05
  -3  10  -1   13.44    2.29
  -3  10  -1   17.99    3.11
 -10  -3  -1   15.58    1.86
  -3  10  -1   20.32    3.04
  -3  10   1   14.57    2.38
 -10  -3   1   15.24    2.36
   3 -10   1   14.89    1.90
  -2  10  -1    3.98    1.80
 -10  -2  -1    1.43    0.88
 -10  -2  -1    1.00    1.22
  -2  10  -1    3.33    1.30
   2 -10  -1   -0.01    1.11
  -2  10   1    1.73    1.33
 -10  -2   1   -0.88    1.09
  -1  10  -1   20.65    2.94
   1 -10  -1   20.77    2.31
 -10  -1  -1   18.31    1.89
 -10  -1  -1   16.79    2.28
  -1  10  -1   16.50    2.79
  -1  10  -1   14.65    2.34
   1 -10   1   21.65    3.70
 -10  -1   1   22.10    3.11
 -10  -1   1   24.79    2.88
  -1  10   1   15.02    2.41
   0  10  -1    2.26    1.22
   0 -10  -1    1.01    1.20
   0  10  -1    4.88    1.58
 -10   0  -1    0.89    1.06
 -10   0   1   -1.21    1.78
   0 -10   1    5.27    1.26
 -10   0   1   -0.23    1.71
   1  10  -1   18.35    2.77
   1  10  -1   16.65    2.50
   1  10  -1   21.54    2.75
  -1 -10  -1   17.33    2.39
 -10   1  -1   17.48    2.18
 -10   1   1   16.99    3.04
 -10   1   1   20.14    2.91
   1  10   1   20.38    2.74
 -10   1   1   15.96    2.17
  -1 -10   1   19.96    2.33
   1  10   1   14.43    2.45
   2  10  -1    4.49    1.64
  -2 -10  -1    0.23    1.26
 -10   2  -1    1.54    2.02
   2  10  -1    1.44    1.42
 -10   2  -1    3.42    1.08
   2  10   1    0.80    1.97
 -10   2   1    1.62    1.95
   2  10   1    0.54    1.52
   2  10   1    0.32    1.31
 -10   2   1    2.30    1.90
 -10   2   1    0.54    1.13
 -10   3  -1   17.67    2.01
   3  10  -1   14.88    2.27
   3  10  -1   14.30    2.19
  -3 -10  -1   15.02    2.31
   3  10  -1   11.90    2.55
 -10   3   1   14.59    2.36
   3  10   1   16.42    2.82
   3  10   1   12.93    2.13
 -10   4  -1    2.74    1.03
   4  10  -1    3.32    1.72
   4  10  -1    0.16    1.63
   4  10  -1    5.29    1.70
  -4 -10   1    4.81    1.60
 -10   4   1    0.04    1.33
   4  10   1   -0.61    2.18
   5  10  -1   10.86    2.13
 -10   5  -1   11.66    1.88
   5  10  -1    6.44    2.10
  -5 -10  -1    7.83    1.87
   5  10   1    9.83    3.26
  -5 -10   1   10.64    1.95
   5  10   1    6.18    2.00
 -10   5   1   12.92    2.46
   5  10   1    8.97    3.40
   6  10  -1    2.54    2.07
   6  10  -1    2.28    2.26
   6  10  -1    4.84    2.28
  -6 -10  -1   -2.58    1.83
  -6 -10   1   -0.37    1.86
   6  10   1    0.55    2.08
 -10   6   1    0.96    1.60
   6  10   1    2.88    4.07
   6  10   1   -0.93    2.56
   7  10  -1    7.36    2.71
   7  10  -1    4.68    2.87
   7  10  -1    8.17    3.00
  -7 -10  -1    3.73    2.36
 -10   7   1    9.08    2.14
  -7 -10   1    3.74    3.01
   7  10   1    4.60    2.71
  -5  11  -1    4.28    3.06
  -5  11  -1   10.52    3.12
  -5  11  -1    7.68    2.26
 -11  -5  -1    5.84    1.92
 -11  -5   1    6.23    2.09
  -5  11   1    4.34    2.21
  -4  11  -1   12.08    2.90
  -4  11  -1    4.85    1.98
   4 -11  -1    8.23    1.65
 -11  -4  -1    5.65    1.68
  -4  11  -1   11.88    2.88
  -4  11   1    9.25    2.20
 -11  -4   1    7.85    1.87
  -3  11  -1   13.57    2.54
 -11  -3  -1    7.50    1.56
  -3  11  -1    9.00    1.94
  -3  11  -1   12.12    2.55
   3 -11  -1    8.99    1.64
  -3  11   1    7.24    1.91
   3 -11   1   10.67    2.27
 -11  -3   1   12.56    2.37
  -2  11  -1   11.30    2.45
   2 -11  -1   13.30    2.26
 -11  -2  -1   10.23    2.02
  -2  11  -1   13.91    2.60
  -2  11  -1    8.77    1.90
   2 -11   1   10.57    2.14
  -2  11   1   11.38    2.04
   1 -11  -1   14.98    2.40
  -1  11  -1   11.71    2.31
 -11  -1  -1   15.84    2.08
  -1  11  -1   12.72    2.41
  -1  11  -1   10.57    1.98
   1 -11   1   13.41    2.22
  -1  11   1   10.00    2.00
   0  11  -1   14.58    2.77
   0  11  -1   18.78    3.35
   0 -11  -1   19.78    2.50
   0  11  -1   16.16    3.21
   0 -11   1   15.00    2.29
 -11   0   1   15.84    2.39
   0  11   1   11.98    2.13
   0  11   1   16.06    3.17
 -11   1  -1   11.78    2.48
   1  11  -1    9.75    2.03
   1  11  -1   16.78    2.99
  -1 -11  -1   13.78    2.45
   1  11  -1   12.39    2.32
  -1 -11   1   11.32    1.92
   1  11   1    9.76    2.00
   1  11   1    7.91    2.10
   1  11   1   14.72    2.93
  -2 -11  -1   14.60    2.56
   2  11  -1   11.06    2.22
   2  11  -1    7.05    2.01
   2  11  -1   11.96    2.22
   2  11   1    9.70    2.16
 -11   2   1   12.95    2.56
  -2 -11   1   11.02    2.01
   2  11   1   11.58    2.23
   2  11   1   10.35    2.12
  -3 -11  -1    8.07    2.02
   3  11  -1    8.85    2.21
   3  11  -1   11.71    2.29
   3  11  -1    9.15    2.26
 -11   3   1   12.32    2.09
   3  11   1    9.20    2.10
   3  11   1   10.97    2.23
   3  11   1    9.14    2.32
  -3 -11   1   11.02    2.08
   4  11  -1    7.97    2.35
   4  11  -1    8.11    2.39
  -4 -11  -1    6.38    2.11
   4  11  -1    6.62    2.38
  -4 -11   1   10.79    2.21
   4  11   1    5.75    2.37
   4  11   1   10.95    2.34
   4  11   1    9.18    2.40
   5  11  -1    6.03    2.66
  -5 -11  -1    3.23    2.30
   5  11  -1    1.74    2.50
   5  11  -1    8.61    2.67
 -11   5   1    5.86    2.24
   5  11   1    5.41    2.50
   5  11   1    4.01    2.41
   5  11   1    7.73    2.53
  -5 -11   1    6.84    2.32
  -2  12  -1    0.76    2.25
  -2  12  -1    0.14    2.83
  -2  12  -1   -0.02    2.54
   2 -12   1   -0.61    1.74
  -2  12   1   -2.97    2.16
  -1  12  -1    8.43    2.84
  -1  12  -1    4.72    2.56
   1 -12  -1    2.03    2.00
  -1  12  -1   -0.66    2.27
  -1  12   1    0.67    2.71
  -1  12   1    6.29    2.17
 -12  -1   1    4.11    1.94
   1 -12   1    4.91    1.90
   0 -12  -1    0.10    2.00
   0  12  -1    0.29    2.05
   0  12  -1    0.19    2.61
   0  12   1    0.82    1.96
 -12   0   1    3.41    1.93
   0 -12   1    2.15    1.94
   0  12   1   -2.60    2.50
  -1 -12  -1    5.57    2.20
   1  12  -1    4.65    2.66
   1  12  -1    5.20    2.60
   1  12  -1    2.65    2.28
   1  12   1    2.53    2.35
   1  12   1    1.68    2.49
 -12   1   1    6.83    2.29
   1  12   1    5.29    2.47
  -1 -12   1    6.17    2.11
   2  12  -1   -2.04    2.72
   2  12  -1   -4.09    2.48
   2  12  -1   -1.86    2.54
  -2 -12  -1    0.23    2.35
   2  12   1   -4.69    2.59
   2  12   1   -1.22    2.52
   2  12   1   -0.22    2.39
  -2 -12   1    3.22    2.23
   0   0  -2   97.27    6.72
   0   0   2  100.68    6.73
   0   0   2  109.94    6.81
   0   0   2   90.49    6.74
   0   0   2   90.90    6.74
   0   1  -2  385.71   24.97
   0   1  -2  371.05   25.01
   0  -1  -2  394.09   24.96
   1   0  -2  343.63   24.99
   0  -1  -2  350.38   24.95
   0   1  -2  370.38   24.97
  -1   0  -2  353.28   24.94
   1   0  -2  367.91   24.98
  -1   0  -2  341.27   24.91
  -1   0  -2  378.86   24.93
   1   0  -2  363.40   25.00
  -1   0  -2  345.08   24.94
   1   0  -2  345.46   24.98
  -1   0   2  361.19   24.96
  -1   0   2  357.15   24.98
   0  -1   2  393.86   24.98
   0  -1   2  389.36   24.96
   1   0   2  345.10   24.94
  -1   0   2  345.20   24.97
   1   0   2  352.66   24.94
   0   1   2  387.46   24.96
   0   1   2  364.98   24.94
   1   0   2  418.74   24.91
   0   1   2  375.66   24.94
   0  -1   2  394.62   24.98
   0   1   2  385.25   24.94
   1   0   2  374.89   24.91
  -1   0   2  377.12   24.98
  -1   1  -2  109.94    7.99
  -1  -1  -2  132.44    8.02
   1  -1  -2  131.91    8.08
   1   1  -2  104.84    8.09
   1   1  -2  101.81    8.03
   1   1  -2  103.22    8.08
   1   1  -2  104.99    8.06
   1  -1  -2  125.08    8.10
  -1   1  -2  103.52    8.01
   1  -1   2  116.70    8.04
   1  -1   2  117.23    8.04
  -1  -1   2  104.83    8.10
   1  -1   2  128.58    7.98
  -1  -1   2  117.58    8.09
  -1  -1   2  104.53    8.10
   1   1   2  132.79    8.02
   1   1   2  121.00    8.02
   1   1   2  119.59    8.02
  -1   1   2  119.24    8.09
  -1   1   2  123.37    8.05
  -1   1   2  130.41    8.07
  -1   1   2  133.71    8.08
  -1   2  -2  175.87   12.06
   2   1  -2  177.24   12.12
  -2  -1  -2  173.01   12.00
   2   1  -2  175.69   12.06
  -1   2  -2  180.71   12.06
  -2  -1  -2  175.81   12.01
   1  -2  -2  174.97   12.10
   1  -2  -2  181.74   12.07
  -1   2  -2  172.74   12.01
   2   1  -2  175.43   12.14
   2   1  -2  169.66   12.13
   2   1   2  182.38   11.99
   1  -2   2  172.79   12.05
  -1   2   2  190.98   12.12
   1  -2   2  199.21   12.08
   1  -2   2  196.88   12.08
  -2  -1   2  154.81   12.12
  -2  -1   2  155.93   12.12
   2   1   2  206.09   11.99
  -2  -1   2  171.80   12.13
  -1   2   2  180.68   12.06
   2   1   2  166.86   12.01
   2   1   2  165.14   12.01
   0  -2  -2   13.13    1.21
   0  -2  -2   13.20    1.20
  -2   0  -2   14.91    1.19
   0   2  -2   12.48    1.27
  -2   0  -2   17.54    1.20
   0   2  -2   12.80    1.28
   0   2  -2   13.94    1.21
   0   2   2   14.96    1.25
   0  -2   2   14.52    1.33
  -2   0   2   16.41    1.47
   0   2   2   13.63    1.16
   0  -2   2   16.24    1.22
   0  -2   2   13.80    1.32
   1   2  -2  178.75   12.37
  -1  -2  -2  166.88   12.31
   1   2  -2  200.37   12.38
  -2   1  -2  156.93   12.26
  -2   1  -2  156.55   12.33
   1   2  -2  169.13   12.32
  -2   1  -2  185.16   12.26
  -2   1  -2  166.15   12.34
   2  -1  -2  177.90   12.40
   1   2  -2  179.90   12.37
   2  -1  -2  196.11   12.38
  -1  -2  -2  177.27   12.32
  -2   1   2  190.27   12.36
  -1  -2   2  197.58   12.40
   1   2   2  181.16   12.31
   2  -1   2  188.21   12.31
   2  -1   2  193.48   12.31
  -1  -2   2  175.78   12.32
   1   2   2  210.85   12.35
  -2   1   2  185.52   12.37
  -2   1   2  183.08   12.37
  -1  -2   2  194.39   12.39
  -2   1   2  161.98   12.38
  -2   2  -2    2.29    0.35
   2  -2  -2    1.24    0.60
  -2   2  -2    2.27    0.47
  -2   2  -2    2.36    0.46
   2  -2  -2    2.07    0.49
  -2   2  -2    2.25    0.41
   2   2  -2    2.02    0.58
  -2  -2  -2    1.89    0.40
   2   2  -2    1.81    0.62
  -2  -2  -2    2.42    0.41
   2   2  -2    2.24    0.63
   2   2  -2    1.96    0.47
   2   2   2    3.05    0.44
  -2   2   2    2.54    0.60
  -2  -2   2    3.04    0.66
   2   2   2    2.22    0.37
  -2  -2   2    3.06    0.66
  -2  -2   2    2.65    0.51
  -2  -2   2    2.47    0.66
  -2   2   2    2.71    0.48
  -2   3  -2  200.87   14.05
   2  -3  -2  205.96   14.05
  -3  -2  -2  203.01   14.00
   3   2  -2  201.37   14.14
   3   2  -2  202.10   14.13
   3   2  -2  202.57   14.15
   2  -3  -2  190.36   14.12
  -2   3  -2  196.46   13.99
  -2   3  -2  198.16   14.04
  -2   3  -2  200.33   14.02
   3   2  -2  204.46   14.06
  -3  -2  -2  201.93   14.00
  -3  -2   2  221.65   14.15
  -2   3   2  213.77   14.06
   3   2   2  204.67   13.96
  -3  -2   2  219.26   14.13
  -3  -2   2  224.79   14.17
  -2   3   2  221.44   14.14
  -3  -2   2  213.50   14.07
   2  -3   2  204.67   13.94
  -1   3  -2  163.74   10.60
  -3  -1  -2  172.31   10.55
  -1   3  -2  151.08   10.63
  -1   3  -2  154.72   10.63
   3   1  -2  150.32   10.73
   3   1  -2  157.88   10.62
  -3  -1  -2  171.36   10.54
  -1   3  -2  140.36   10.57
   1  -3  -2  153.23   10.62
   3   1  -2  151.32   10.73
   1  -3  -2  159.87   10.67
   3   1  -2  148.86   10.70
  -3  -1   2  143.79   10.70
  -1   3   2  155.63   10.62
  -3  -1   2  134.24   10.69
  -3  -1   2  148.85   10.61
  -1   3   2  171.61   10.69
   1  -3   2  175.79   10.59
  -3  -1   2  149.24   10.72
   3   0  -2  340.80   23.46
   0   3  -2  334.04   23.38
  -3   0  -2  322.71   23.29
   0   3  -2  341.99   23.42
   0  -3  -2  349.63   23.42
   0  -3  -2  330.60   23.40
  -3   0  -2  307.32   23.32
  -3   0  -2  313.99   23.31
   0   3  -2  373.06   23.41
   3   0  -2  370.93   23.42
   0   3  -2  338.77   23.42
  -3   0   2  343.93   23.46
   0  -3   2  353.79   23.37
   0  -3   2  362.26   23.43
   0  -3   2  363.86   23.43
  -3   0   2  337.01   23.46
   0   3   2  351.73   23.40
  -3   0   2  382.23   23.44
  -3   0   2  350.71   23.47
  -1  -3  -2  157.03   11.19
   1   3  -2  154.31   11.22
  -1  -3  -2  141.22   11.17
  -3   1  -2  141.20   11.13
   1   3  -2  143.91   11.18
   1   3  -2  170.40   11.23
  -3   1  -2  143.16   11.12
   1   3  -2  152.91   11.22
   3  -1  -2  185.98   11.24
   1   3   2  154.58   11.17
  -1  -3   2  168.25   11.24
  -3   1   2  185.19   11.26
  -1  -3   2  153.26   11.18
  -1  -3   2  189.19   11.26
  -1  -3   2  172.72   11.25
  -3   1   2  179.85   11.26
   1   3   2  176.05   11.22
  -3   1   2  177.85   11.24
  -3   1   2  173.53   11.26
  -2  -3  -2  201.84   14.13
   2   3  -2  208.17   14.20
   3  -2  -2  209.70   14.15
   2   3  -2  201.17   14.15
  -3   2  -2  200.49   14.11
  -3   2  -2  193.00   14.03
   2   3  -2  209.52   14.21
   3  -2  -2  202.15   14.22
  -3   2  -2  203.49   14.11
   2   3  -2  217.70   14.21
  -2  -3  -2  212.82   14.14
  -2  -3   2  210.06   14.16
  -2  -3   2  213.10   14.20
  -2  -3   2  215.41   14.20
   2   3   2  233.17   14.16
  -3   2   2  206.92   14.16
  -3   2   2  193.05   14.22
   2   3   2  212.41   14.12
  -3   3  -2  116.96    8.36
  -3  -3  -2  118.58    8.42
  -3   3  -2  103.28    8.39
   3   3  -2  116.47    8.55
   3   3  -2  125.01    8.56
   3   3  -2  130.75    8.57
  -3   3  -2  118.38    8.44
  -3   3  -2  119.67    8.44
  -3  -3  -2  124.62    8.43
   3  -3  -2  121.64    8.45
   3  -3  -2  129.16    8.60
   3   3  -2  128.47    8.56
  -3  -3   2  128.34    8.49
   3   3   2  123.02    8.39
   3   3   2  141.19    8.45
  -3  -3   2  131.29    8.82
  -3  -3   2  121.99    8.79
  -3  -3   2  116.63    8.82
  -3   3   2  123.54    8.56
   4   3  -2  131.02    9.72
   3  -4  -2  140.17    9.60
  -3   4  -2  141.93    9.54
   3  -4  -2  139.13    9.80
   4   3  -2  137.76    9.64
  -4  -3  -2  137.46    9.57
  -3   4  -2  136.57    9.61
  -3   4  -2  135.34    9.61
  -3   4  -2  142.14    9.54
   4   3  -2  136.73    9.73
  -4  -3  -2  136.11    9.57
   4   3  -2  137.30    9.75
  -4  -3   2  144.25    9.74
   4   3   2  139.06    9.50
  -4  -3   2  138.66    9.72
  -4  -3   2  139.00    9.63
  -3   4   2  149.40    9.72
  -3   4   2  140.59    9.62
  -4  -3   2  155.04    9.77
  -2   4  -2    2.91    0.50
   4   2  -2    2.74    0.59
   4   2  -2    0.90    0.84
   4   2  -2    1.99    0.81
  -4  -2  -2    2.49    0.45
  -4  -2  -2    2.37    0.46
  -2   4  -2    4.16    0.66
   2  -4  -2    2.84    0.87
   4   2  -2    0.52    0.91
   2  -4  -2    2.49    0.58
  -4  -2   2    1.94    0.95
  -4  -2   2    2.02    0.60
  -2   4   2    2.67    0.58
  -2   4   2    2.30    0.67
  -4  -2   2    2.74    0.96
  -4  -2   2    3.21    0.88
  -4  -1  -2  140.08    9.62
  -1   4  -2  148.79    9.72
   4   1  -2  130.08    9.81
  -1   4  -2  143.71    9.75
  -1   4  -2  141.17    9.70
  -1   4  -2  143.34    9.75
   4   1  -2  142.57    9.71
   1  -4  -2  135.37    9.72
   4   1  -2  131.25    9.85
  -4  -1  -2  137.36    9.62
   4   1  -2  132.17    9.85
   1  -4  -2  159.97    9.83
   1  -4   2  142.99    9.67
  -1   4   2  161.99    9.81
  -4  -1   2  141.23    9.93
  -4  -1   2  144.97    9.73
  -4  -1   2  125.19    9.82
   1  -4   2  163.97    9.72
  -4  -1   2  129.09    9.82
   0   4  -2    6.38    0.85
   0   4  -2    6.54    1.04
   0  -4  -2    5.25    1.00
   0   4  -2    6.97    0.87
   0  -4  -2    4.06    0.82
   0   4   2    4.78    0.83
   0   4   2    4.85    0.91
   0  -4   2    5.67    0.77
   0  -4   2    7.39    0.90
   4  -1  -2  157.11   10.07
  -1  -4  -2  134.12   10.19
   1   4  -2  144.09   10.10
  -4   1  -2  132.89    9.96
   1   4  -2  151.76   10.10
  -4   1  -2  136.08    9.95
  -1  -4  -2  132.94   10.04
   1   4  -2  143.64   10.10
   4  -1  -2  147.09   10.06
  -1  -4   2  157.40   10.34
  -1  -4   2  144.04   10.04
   1   4   2  167.89   10.11
   1   4   2  142.62   10.04
  -4   1   2  151.95   10.10
  -1  -4   2  163.83   10.12
  -4   1   2  140.38   10.21
  -4   1   2  150.91   10.16
  -4   1   2  144.54   10.10
   2   4  -2    3.19    0.62
   2   4  -2    2.60    0.69
   4  -2  -2    2.25    0.56
  -2  -4  -2    1.58    0.73
  -4   2  -2    3.47    0.53
  -2  -4  -2    2.35    0.55
  -4   2  -2    2.78    0.51
   2   4  -2    2.99    0.72
  -2  -4   2    2.79    0.77
   2   4   2    2.44    0.56
   2   4   2    2.22    0.59
  -2  -4   2    2.90    0.78
  -2  -4   2    2.57    1.13
  -4   2   2    1.88    0.73
  -2  -4   2    2.60    0.59
  -3  -4  -2  146.06    9.68
  -4   3  -2  135.37    9.63
  -3  -4  -2  138.28    9.66
  -4   3  -2  132.28    9.54
  -4   3  -2  132.32    9.63
  -4   3  -2  135.30    9.54
   4  -3  -2  134.45    9.64
   3   4  -2  133.92    9.76
   3   4  -2  143.32    9.76
   3   4  -2  141.77    9.76
   3   4  -2  140.18    9.70
   3   4   2  140.47    9.63
  -3  -4   2  152.01    9.79
   3   4   2  158.10    9.71
  -3  -4   2  149.15    9.75
  -4   3   2  134.29    9.78
  -3  -4   2  141.68    9.69
  -4   3   2  139.97    9.68
  -3  -4   2  147.64    9.75
  -4   4  -2    3.95    0.64
   4   4  -2    1.92    0.70
  -4  -4  -2    2.60    0.67
   4  -4  -2    2.49    0.60
   4   4  -2    2.12    0.84
  -4  -4  -2    2.37    0.61
   4  -4  -2    2.10    1.00
   4   4  -2    2.38    0.93
  -4   4  -2    2.28    0.70
   4   4  -2    2.43    0.96
  -4   4   2    2.55    0.65
  -4  -4   2    3.01    0.86
   4   4   2    2.39    0.69
  -4  -4   2    1.51    0.89
   4   4   2    2.82    0.55
  -4   4   2    1.83    0.83
  -4  -4   2    2.51    0.87
  -4  -4   2    2.67    0.70
  -5  -4  -2   72.14    5.08
   5   4  -2   73.53    5.14
  -4   5  -2   70.49    5.00
   5   4  -2   70.43    5.38
   5   4  -2   63.35    5.24
  -5  -4  -2   72.02    5.05
  -4   5  -2   68.72    5.12
   5   4  -2   70.18    5.33
  -5  -4   2   71.18    5.12
  -5  -4   2   72.55    5.30
   5   4   2   71.58    4.95
   5   4   2   72.07    5.11
   5   4   2   82.22    5.06
  -5  -4   2   70.76    5.32
  -5  -4   2   67.13    5.30
  -5  -3  -2   53.23    3.89
   5   3  -2   58.42    4.29
   5   3  -2   57.56    4.35
   5   3  -2   47.50    4.17
  -3   5  -2   50.83    4.03
  -3   5  -2   54.80    3.91
   3  -5  -2   45.56    4.19
  -3   5  -2   53.46    4.04
   5   3  -2   52.96    3.99
   3  -5  -2   56.32    3.97
  -5  -3   2   63.12    4.31
  -5  -3   2   57.05    4.13
  -5  -3   2   54.48    4.02
  -3   5   2   58.74    4.11
  -3   5   2   59.17    4.05
  -5  -3   2   56.86    4.13
  -2   5  -2   92.88    6.61
   5   2  -2   91.96    6.78
   5   2  -2   88.65    6.67
  -2   5  -2   93.25    6.62
  -5  -2  -2   94.44    6.47
  -2   5  -2   97.90    6.55
   5   2  -2   90.87    6.80
  -2   5  -2   88.68    6.60
  -5  -2  -2   91.88    6.48
   5   2  -2   88.05    6.72
   2  -5   2  110.05    6.56
  -5  -2   2   97.72    6.77
  -5  -2   2   98.85    6.75
   2  -5   2   91.22    6.46
  -5  -2   2   93.98    6.71
  -5  -2   2   95.52    6.58
   1  -5  -2   55.41    4.02
  -5  -1  -2   62.77    3.86
  -1   5  -2   54.02    4.07
   5   1  -2   48.70    4.11
  -1   5  -2   55.93    4.00
  -1   5  -2   54.37    4.08
  -1   5  -2   55.52    4.00
   5   1  -2   57.22    3.99
   1  -5  -2   52.51    4.08
  -1   5   2   58.25    4.03
  -5  -1   2   54.08    4.72
   1  -5   2   65.19    4.03
  -5  -1   2   51.77    4.21
   1  -5   2   56.68    3.93
  -1   5   2   60.43    4.10
  -5  -1   2   48.13    4.34
  -5  -1   2   53.73    4.00
   0   5  -2  127.82    9.34
   0   5  -2  127.58    9.29
   5   0  -2  137.65    9.27
   0  -5  -2  143.23    9.32
   0   5  -2  130.09    9.31
   0   5  -2  124.86    9.33
   0  -5  -2  149.78    9.36
   5   0  -2  141.36    9.33
   0  -5   2  144.74    9.34
  -5   0   2  130.48    9.40
  -5   0   2  124.11    9.56
   0  -5   2  130.99    9.26
   0   5   2  151.36    9.32
  -5   0   2  125.97    9.48
   5  -1  -2   68.00    4.15
   1   5  -2   55.45    4.23
  -1  -5  -2   50.30    4.13
  -5   1  -2   52.31    4.09
   1   5  -2   55.29    4.23
   1   5  -2   55.87    4.19
  -5   1  -2   54.57    3.99
  -1  -5  -2   56.32    4.19
   1   5  -2   56.46    4.16
  -5   1   2   59.96    4.28
  -5   1   2   61.20    4.24
  -5   1   2   61.56    4.29
   1   5   2   54.66    4.13
   1   5   2   59.52    4.22
  -1  -5   2   57.67    4.13
  -5   1   2   66.75    4.23
  -5   2  -2   88.75    6.47
   2   5  -2   91.44    6.60
   2   5  -2   89.78    6.64
   5  -2  -2   95.57    6.52
   5  -2  -2  105.08    6.59
   2   5  -2   93.37    6.65
   2   5  -2   94.91    6.65
  -5   2  -2   86.45    6.47
   2   5   2  111.68    6.58
  -5   2   2   93.46    6.58
  -2  -5   2   97.68    6.67
  -5   2   2   83.06    6.63
  -2  -5   2   91.21    6.55
   5  -3  -2   56.75    4.05
   3   5  -2   57.92    4.13
   3   5  -2   50.28    4.09
  -5   3  -2   52.25    3.77
  -5   3  -2   54.87    3.77
  -3  -5  -2   51.86    3.97
   3   5  -2   56.93    4.12
  -5   3  -2   55.30    3.92
   5  -3  -2   54.35    3.90
  -3  -5  -2   57.82    4.02
   3   5  -2   56.63    4.04
  -3  -5   2   59.10    4.15
  -5   3   2   53.71    3.99
  -5   3   2   51.35    4.14
   3   5   2   55.89    4.03
  -3  -5   2   53.94    3.98
  -3  -5   2   53.83    4.13
   4   5  -2   71.37    5.26
  -4  -5  -2   85.62    5.21
   4   5  -2   71.41    5.33
  -5   4  -2   69.63    5.03
   5  -4  -2   72.26    5.11
  -5   4  -2   68.74    5.03
   4   5  -2   69.04    5.34
  -4  -5   2   69.62    5.20
  -5   4   2   71.60    5.33
  -4  -5   2   64.20    5.65
   4   5   2   84.80    5.16
  -5   4   2   72.68    5.19
  -4  -5   2   72.42    5.31
  -5  -5  -2   29.09    2.70
  -5   5  -2   33.44    2.48
   5   5  -2   33.35    3.01
   5   5  -2   33.52    2.75
   5   5  -2   31.48    2.96
   5  -5  -2   30.92    2.54
  -5   5  -2   35.81    2.72
  -5  -5  -2   30.64    2.58
   5   5   2   31.21    2.76
  -5  -5   2   30.11    2.91
   5   5   2   35.41    2.56
   5   5   2   36.38    2.60
   5   5   2   32.25    2.53
  -5   5   2   35.16    2.85
  -5   5   2   32.89    2.67
  -5  -5   2   33.63    2.66
  -5   6  -2   46.81    3.63
   6   5  -2   44.05    3.91
   5  -6  -2   54.40    3.64
   6   5  -2   48.35    4.18
  -5   6  -2   52.66    3.84
  -6  -5  -2   52.22    3.80
   6   5  -2   46.32    4.12
   5  -6  -2   44.03    4.18
  -5   6  -2   49.43    3.62
  -5   6   2   49.25    3.78
  -6  -5   2   47.71    3.74
  -5   6   2   56.36    3.90
   6   5   2   49.40    3.80
  -6  -5   2   46.18    3.91
  -6  -5   2   41.62    3.99
   6   4  -2    1.88    1.38
  -4   6  -2    2.27    0.71
   6   4  -2    0.53    1.38
  -4   6  -2    2.63    0.78
   6   4  -2    0.63    1.17
  -6  -4  -2    0.86    0.78
  -4   6  -2    1.86    0.94
   4  -6  -2    1.04    1.23
  -6  -4  -2    2.56    0.75
  -4   6  -2    1.25    0.94
   4  -6  -2    2.17    0.73
   6   4  -2    2.14    0.88
  -6  -4   2    1.41    1.06
  -6  -4   2    3.78    1.11
  -4   6   2    2.43    0.89
  -6  -4   2    1.58    0.84
  -6  -4   2    2.14    1.17
  -4   6   2    0.67    0.82
  -3   6  -2   94.20    6.20
   6   3  -2   85.53    6.53
   6   3  -2   93.08    6.24
  -3   6  -2   91.78    6.18
   3  -6  -2   93.58    6.21
   6   3  -2   84.36    6.55
  -3   6  -2   86.73    6.27
  -6  -3  -2   84.74    6.14
  -3   6  -2   86.20    6.27
   6   3  -2   76.02    6.42
  -6  -3  -2   90.98    6.13
   3  -6  -2   76.69    6.41
  -6  -3   2   92.50    6.46
  -6  -3   2   90.93    6.24
  -3   6   2   96.82    6.33
   3  -6   2   77.87    6.13
  -6  -3   2   87.64    6.33
  -3   6   2   88.67    6.24
  -6  -3   2   89.66    6.33
  -2   6  -2    4.28    0.97
  -2   6  -2    3.81    0.80
   2  -6  -2    4.61    1.26
  -6  -2  -2    4.52    0.77
  -2   6  -2    4.70    0.85
   2  -6  -2    3.92    0.82
  -2   6  -2    6.00    1.00
  -6  -2  -2    6.33    0.89
   6   2  -2    4.95    1.32
  -6  -2   2    5.70    0.91
   2  -6   2    5.24    0.71
  -6  -2   2    5.49    1.18
  -2   6   2    4.61    0.92
   2  -6   2    4.72    0.95
  -6  -2   2    4.15    1.10
  -2   6   2    5.13    0.90
  -6  -2   2    2.81    1.17
  -1   6  -2  107.06    7.31
  -1   6  -2  102.35    7.36
  -1   6  -2  105.35    7.37
   6   1  -2  106.28    7.36
   1  -6  -2  102.47    7.37
  -6  -1  -2  103.39    7.15
   1  -6  -2  109.34    7.31
   6   1  -2  105.92    7.24
  -1   6  -2  104.96    7.31
  -6  -1   2   96.85    7.46
   1  -6   2  118.82    7.35
   1  -6   2  101.28    7.22
  -1   6   2  110.31    7.32
  -6  -1   2   90.09    7.43
  -6  -1   2   91.33    7.44
  -1   6   2  115.04    7.40
   0   6  -2    8.42    1.39
   0  -6  -2    6.50    1.38
   0  -6  -2    6.37    1.15
   0   6  -2    6.61    1.22
   0   6  -2    8.59    1.20
   0   6  -2    7.00    1.44
   0   6   2    7.17    1.05
   0  -6   2    7.32    1.05
   0  -6   2    7.65    1.39
   0   6   2    8.25    1.18
   6  -1  -2  109.21    7.23
  -1  -6  -2  101.75    7.34
   1   6  -2   98.88    7.31
   1   6  -2   97.49    7.33
  -6   1  -2  102.56    7.20
   6  -1  -2  108.88    7.23
  -1  -6  -2  109.56    7.31
   1   6  -2  103.87    7.37
   1   6  -2  104.31    7.37
   1   6   2  111.49    7.39
  -6   1   2  100.67    7.39
  -6   1   2  100.31    7.39
  -1  -6   2  107.03    7.27
  -1  -6   2  102.42    7.38
   1   6   2  102.58    7.28
  -6   1   2  102.82    7.36
  -6   1   2  109.83    7.34
   2   6  -2    3.93    0.96
   6  -2  -2    5.79    0.82
   2   6  -2    4.64    1.01
   6  -2  -2    3.65    0.70
  -6   2  -2    4.79    0.90
  -6   2  -2    5.06    0.89
  -2  -6  -2    3.96    0.85
   2   6  -2    4.73    0.98
  -2  -6  -2    3.50    0.94
   2   6  -2    5.02    1.00
  -6   2   2    3.97    0.97
  -6   2   2    4.33    0.91
  -2  -6   2    5.05    0.99
   2   6   2    4.12    0.82
  -2  -6   2    4.36    1.02
   2   6   2    2.96    0.88
  -6   2   2    4.83    0.98
  -6   3  -2   84.63    5.92
   6  -3  -2   99.67    6.14
   3   6  -2   90.01    6.24
   3   6  -2   73.27    6.22
  -3  -6  -2   95.93    6.19
   3   6  -2   87.45    6.26
   6  -3  -2   87.17    6.02
   3   6  -2   87.24    6.27
  -6   3  -2   85.09    5.93
  -3  -6  -2   79.07    6.26
  -3  -6   2   90.75    6.16
  -6   3   2   85.23    6.30
  -6   3   2   88.14    6.15
  -3  -6   2   73.69    6.26
   3   6   2   89.74    6.13
   3   6   2   90.00    6.23
  -4  -6  -2    2.48    0.95
  -4  -6  -2    2.35    0.79
   4   6  -2    2.42    1.02
   4   6  -2    0.96    0.97
  -6   4  -2    2.43    0.52
  -6   4  -2    2.49    0.54
   4   6  -2    1.40    1.07
   4   6  -2    0.13    1.06
   6  -4  -2    2.85    1.01
   6  -4  -2    1.76    0.64
  -4  -6   2    2.64    0.83
   4   6   2    2.18    0.78
   4   6   2    2.33    0.85
   4   6   2    1.50    0.86
  -6   4   2    0.61    0.94
  -6   4   2    2.29    0.78
  -6   5  -2   48.63    3.82
   5   6  -2   46.75    4.17
  -5  -6  -2   53.78    3.94
  -6   5  -2   50.56    3.74
  -5  -6  -2   48.91    4.03
   5   6  -2   45.55    4.16
   6  -5  -2   58.11    3.79
   5   6   2   59.59    3.91
  -5  -6   2   50.59    3.95
   5   6   2   57.30    3.89
   5   6   2   49.95    3.87
   5   6   2   45.78    4.03
  -6   5   2   58.78    4.05
  -6   6  -2    1.10    1.11
  -6   6  -2    1.26    0.83
   6  -6  -2    0.90    0.72
  -6  -6  -2   -0.13    1.46
   6   6  -2   -0.84    1.45
  -6  -6  -2    1.18    0.87
   6   6  -2    1.78    1.28
  -6   6  -2    1.55    0.74
   6   6  -2    0.48    1.43
  -6   6   2    1.78    1.04
   6   6   2   -0.14    1.02
  -6  -6   2    1.10    0.98
   6   6   2   -0.73    1.12
  -6   6   2    1.69    1.60
   6   6   2    0.66    1.30
   6   6   2    0.08    1.10
   6  -7  -2   26.43    2.17
   7   6  -2   23.53    3.66
  -6   7  -2   21.38    2.44
  -6   7  -2   25.06    2.27
   7   6  -2   22.51    3.27
  -6   7  -2   27.01    2.74
   7   6  -2   21.40    3.14
  -7  -6  -2   26.84    2.39
   7   6   2   24.61    2.14
   7   6   2   20.70    2.54
  -6   7   2   27.11    2.67
  -7  -6   2   25.10    2.49
  -7  -5  -2   15.49    2.39
   7   5  -2   19.02    2.28
   5  -7  -2   21.43    1.95
   7   5  -2   17.20    2.60
   7   5  -2   19.97    2.86
  -5   7  -2   19.10    2.13
   5  -7  -2   18.77    3.08
  -5   7  -2   23.40    2.41
   7   5  -2   18.38    3.01
  -5   7  -2   22.35    2.41
  -7  -5  -2   18.52    1.98
  -5   7  -2   22.63    2.02
  -7  -5   2   20.41    2.12
  -5   7   2   21.18    2.23
  -7  -5   2   19.58    2.53
   7   4  -2   33.37    3.52
   4  -7  -2   32.69    3.65
  -4   7  -2   39.37    3.33
  -4   7  -2   36.73    3.14
   7   4  -2   40.45    3.18
   4  -7  -2   41.18    3.07
  -4   7  -2   41.01    3.08
   7   4  -2   37.44    3.76
  -4   7  -2   41.55    3.29
   7   4  -2   32.23    3.82
  -7  -4  -2   35.57    3.12
  -7  -4  -2   39.26    3.02
  -7  -4   2   36.41    3.34
  -7  -4   2   40.65    3.35
  -4   7   2   43.55    3.28
  -4   7   2   45.38    3.45
  -7  -4   2   39.42    3.18
  -7  -4   2   36.89    3.67
  -3   7  -2   32.74    2.77
  -7  -3  -2   31.76    2.43
  -7  -3  -2   28.76    2.50
   7   3  -2   29.56    2.55
  -3   7  -2   32.74    2.67
  -3   7  -2   31.99    2.57
  -3   7  -2   31.55    2.81
   3  -7  -2   30.43    2.58
   3  -7   2   30.08    2.31
  -7  -3   2   30.73    3.11
  -3   7   2   32.05    2.69
  -7  -3   2   29.66    2.84
   3  -7   2   27.69    2.67
  -7  -3   2   31.93    2.64
  -7  -3   2   29.42    2.82
   2  -7  -2   60.54    4.21
  -2   7  -2   56.37    4.27
   7   2  -2   61.08    4.46
  -2   7  -2   58.76    4.32
  -2   7  -2   55.38    4.20
  -2   7  -2   58.95    4.16
   7   2  -2   46.59    4.33
   2  -7  -2   50.75    4.39
  -7  -2  -2   56.51    3.99
  -7  -2   2   52.40    4.47
  -7  -2   2   58.20    4.45
  -2   7   2   56.88    4.27
   2  -7   2   52.82    4.02
   2  -7   2   62.35    4.31
  -7  -2   2   54.05    4.15
  -7  -2   2   56.85    4.38
  -7  -1  -2   39.02    2.51
   1  -7  -2   33.42    2.78
  -1   7  -2   30.90    2.83
   1  -7  -2   28.13    2.97
  -1   7  -2   32.89    2.96
  -7  -1  -2   38.63    2.55
  -1   7  -2   32.57    2.79
   7   1  -2   34.35    2.83
  -1   7  -2   34.49    2.98
   7   1  -2   34.04    2.65
   1  -7   2   33.43    2.66
   1  -7   2   38.14    2.94
  -1   7   2   33.71    2.89
   0   7  -2   60.38    4.61
  -7   0  -2   61.50    4.31
   0  -7  -2   55.41    4.70
   7   0  -2   70.30    4.51
  -7   0  -2   62.12    4.33
   0   7  -2   63.11    4.73
   7   0  -2   66.54    4.46
   0  -7  -2   68.96    4.63
   0   7  -2   62.34    4.72
   0   7  -2   61.95    4.65
   0   7   2   62.81    4.60
   0  -7   2   61.63    4.72
   0  -7   2   64.08    4.52
  -7   0   2   59.93    4.90
  -7   0   2   52.51    5.10
  -7   0   2   63.50    4.80
   0   7   2   63.42    4.71
   1   7  -2   34.35    2.94
   1   7  -2   33.56    2.90
   7  -1  -2   38.04    2.56
   1   7  -2   31.79    2.81
   7  -1  -2   38.89    2.58
  -1  -7  -2   33.05    2.76
  -1  -7   2   28.70    3.00
  -7   1   2   31.42    2.91
  -7   1   2   29.13    2.98
  -7   1   2   33.84    3.07
  -1  -7   2   34.49    2.67
   1   7   2   32.12    2.78
   1   7   2   34.55    2.87
  -2  -7  -2   59.60    4.05
   2   7  -2   54.00    4.19
  -7   2  -2   53.32    3.80
   2   7  -2   47.43    4.08
  -7   2  -2   52.23    3.80
   2   7  -2   56.06    4.19
   7  -2  -2   53.81    3.79
   7  -2  -2   57.60    3.84
  -7   2   2   52.24    4.21
  -2  -7   2   55.23    3.96
   2   7   2   54.45    4.12
  -7   2   2   48.84    4.09
  -7   2   2   50.19    4.07
  -2  -7   2   46.80    4.22
   2   7   2   55.89    4.04
  -7   2   2   52.57    4.29
   3   7  -2   22.76    2.61
  -7   3  -2   29.12    2.10
   7  -3  -2   29.97    2.21
  -3  -7  -2   28.07    2.50
   3   7  -2   32.83    2.78
   3   7  -2   28.93    2.79
  -7   3  -2   29.62    2.12
   7  -3  -2   31.45    2.32
  -7   3   2   29.41    2.59
  -3  -7   2   30.69    2.49
  -7   3   2   27.78    2.71
   3   7   2   26.80    2.60
   3   7   2   27.02    2.49
   4   7  -2   38.02    3.45
  -4  -7  -2   45.28    3.83
   7  -4  -2   43.84    3.09
   4   7  -2   37.77    3.47
  -4  -7  -2   45.09    3.27
  -7   4  -2   39.07    2.90
   4   7  -2   36.45    3.48
   7  -4  -2   40.93    2.93
  -7   4  -2   38.05    2.90
  -7   4   2   38.05    3.44
   4   7   2   34.65    3.31
   4   7   2   42.89    3.27
  -4  -7   2   40.13    3.20
   4   7   2   38.87    3.24
  -7   4   2   41.70    3.29
  -4  -7   2   37.18    4.37
   5   7  -2   21.49    3.54
   7  -5  -2   19.96    1.72
  -5  -7  -2   19.98    2.13
   7  -5  -2   20.49    2.09
   5   7  -2   15.70    2.36
   5   7  -2   18.03    2.49
  -7   5  -2   19.51    1.80
   5   7  -2   18.26    2.51
  -7   5  -2   20.36    1.74
   5   7   2   18.52    2.19
   5   7   2   21.27    2.14
   5   7   2   15.62    2.28
  -7   5   2   19.94    2.47
   5   7   2   23.02    2.14
  -5  -7   2   22.82    2.58
  -7   5   2   22.02    2.33
   6   7  -2   25.34    2.99
   6   7  -2   21.63    3.03
  -7   6  -2   25.98    2.25
   7  -6  -2   31.03    2.92
   7  -6  -2   26.79    2.12
  -7   6  -2   20.40    2.67
  -7   6  -2   21.92    2.61
  -6  -7  -2   30.36    2.73
  -6  -7   2   29.80    2.61
  -7   6   2   28.83    2.79
   6   7   2   23.14    2.61
   6   7   2   23.99    2.57
   6   7   2   26.18    2.54
   7   7  -2    9.46    2.15
  -7   7  -2   12.22    1.70
  -7  -7  -2   11.30    1.98
   7   7  -2   13.52    2.10
  -7   7  -2    8.37    1.53
  -7   7  -2   11.28    2.17
   7   7  -2   11.06    2.14
  -7   7  -2   12.42    2.31
   7  -7  -2    9.19    1.41
   7   7   2    7.34    1.78
  -7   7   2   12.27    1.99
  -7  -7   2   11.59    2.00
  -7   8  -2   14.44    2.11
   8   7  -2    9.43    2.26
   8   7  -2   10.17    2.58
   8   7  -2   12.49    2.79
  -7   8  -2   12.12    2.09
  -8  -7  -2   15.41    2.24
  -7   8  -2   13.01    2.08
   7  -8  -2   10.34    1.63
  -8  -7   2   13.32    2.37
   8   7   2   13.19    3.04
  -7   8   2   12.34    1.95
   8   6  -2   -1.83    3.16
   8   6  -2   -1.07    2.06
   8   6  -2   -1.03    1.71
   6  -8  -2   -0.43    0.88
   8   6  -2   -0.95    2.06
  -6   8  -2   -1.18    1.55
  -6   8  -2   -1.15    1.48
  -8  -6   2    0.73    1.24
  -6   8   2   -1.26    1.23
   5  -8  -2   21.37    2.12
  -5   8  -2   21.65    4.61
   8   5  -2   15.30    3.27
   8   5  -2   17.18    2.58
  -8  -5  -2   25.26    2.16
   8   5  -2   15.82    2.94
   5  -8  -2   23.82    3.60
  -5   8  -2   25.13    2.27
  -5   8   2   26.23    2.61
  -8  -5   2   15.38    2.80
  -8  -5   2   21.12    2.54
  -4   8  -2   -0.15    0.95
   8   4  -2    0.13    1.06
   8   4  -2   -0.41    1.49
  -8  -4  -2    0.05    0.80
   4  -8  -2    1.82    1.80
  -4   8  -2    0.59    1.60
  -4   8  -2    1.44    1.31
  -4   8  -2    0.34    1.32
  -4   8   2    0.18    1.24
  -8  -4   2   -1.32    1.00
  -8  -4   2   -0.57    1.33
  -8  -4   2    0.63    1.42
  -3   8  -2   27.23    2.56
  -3   8  -2   29.92    2.88
   8   3  -2   22.04    2.89
  -8  -3  -2   28.53    2.33
  -3   8  -2   31.78    2.95
  -8  -3  -2   25.44    2.49
  -3   8  -2   28.41    2.83
   8   3  -2   28.76    2.51
   3  -8  -2   30.80    2.54
  -8  -3   2   29.25    2.54
  -8  -3   2   28.35    2.88
  -8  -3   2   29.36    2.88
   3  -8   2   25.42    2.85
  -3   8   2   27.66    2.68
   3  -8   2   30.83    2.26
   8   2  -2   -2.11    1.29
  -2   8  -2    1.22    1.16
  -2   8  -2    1.83    1.49
  -2   8  -2   -0.64    1.09
  -8  -2  -2    0.56    0.75
  -8  -2  -2    1.00    0.61
   2  -8  -2    0.02    0.86
  -8  -2   2    0.46    1.27
  -8  -2   2    1.68    1.31
  -8  -2   2   -0.24    0.89
  -2   8   2    0.15    0.97
   2  -8   2   -0.62    0.70
   2  -8   2   -0.35    1.27
  -8  -2   2   -0.23    1.44
  -8  -1  -2   35.22    2.58
   1  -8  -2   36.14    2.93
   8   1  -2   37.36    2.81
   8   1  -2   37.39    2.72
  -8  -1  -2   33.35    2.99
  -1   8  -2   38.32    3.27
  -1   8  -2   35.95    3.20
  -1   8  -2   35.16    3.11
  -1   8  -2   33.45    2.92
   1  -8   2   36.91    3.26
  -8  -1   2   28.50    3.31
   1  -8   2   37.30    2.79
  -1   8   2   29.95    3.01
  -8  -1   2   31.25    3.40
  -8   0  -2    0.33    0.59
   0   8  -2    0.22    1.13
   0   8  -2    1.61    1.44
   0  -8  -2   -0.91    0.86
   0  -8  -2   -1.03    1.33
   0   8  -2    0.42    0.95
   8   0  -2    1.45    0.69
   8   0  -2    0.83    0.62
   0   8  -2   -1.08    1.06
  -8   0   2    1.51    0.83
   0   8   2   -0.75    1.01
   0  -8   2   -0.98    1.24
  -8   0   2    1.47    1.31
  -8   0   2    1.03    1.26
  -8   0   2    1.64    1.39
   0   8   2   -0.52    1.02
   1   8  -2   30.92    2.88
   1   8  -2   33.76    3.03
   8  -1  -2   33.15    2.46
  -1  -8  -2   37.74    3.81
  -1  -8  -2   33.89    2.85
   1   8  -2   38.81    3.11
  -8   1  -2   33.76    2.42
  -8   1  -2   27.97    2.38
   8  -1  -2   35.00    2.51
  -8   1   2   28.52    3.23
  -1  -8   2   37.77    2.75
   1   8   2   31.28    2.91
  -8   1   2   26.37    3.21
  -8   1   2   37.57    2.88
   1   8   2   30.62    2.97
  -8   1   2   33.35    3.15
   8  -2  -2   -0.46    0.45
   2   8  -2    0.46    1.22
  -2  -8  -2   -0.88    0.92
   2   8  -2   -0.69    1.13
   2   8  -2   -0.98    1.05
  -8   2  -2   -0.05    0.62
   8  -2  -2   -0.69    0.55
  -8   2  -2   -0.14    0.49
  -8   2  -2    0.71    0.64
  -8   2   2    0.70    1.25
   2   8   2   -1.83    0.99
   2   8   2   -0.12    1.15
  -8   2   2    0.45    0.96
  -8   2   2   -0.28    1.04
  -8   2   2    1.56    1.28
  -2  -8   2    0.27    1.63
  -2  -8   2   -0.67    0.86
   8  -3  -2   30.07    2.20
  -8   3  -2   26.42    2.39
   3   8  -2   31.20    2.98
  -3  -8  -2   33.65    2.68
  -8   3  -2   28.88    2.16
   3   8  -2   34.44    2.97
   3   8  -2   22.53    2.98
   8  -3  -2   28.11    2.13
  -8   3   2   26.71    2.81
   3   8   2   24.37    2.75
  -8   3   2   24.34    2.96
  -8   3   2   24.65    3.47
  -3  -8   2   33.41    2.61
  -8   3   2   28.15    3.09
  -8   4  -2    0.86    0.71
  -8   4  -2    0.60    0.55
   4   8  -2   -0.90    1.24
   4   8  -2    1.49    1.36
  -4  -8   2   -1.06    1.00
   4   8   2   -0.40    1.11
   4   8   2   -0.15    1.18
   4   8   2   -1.16    1.13
  -8   4   2   -1.64    1.08
  -5  -8  -2   21.85    2.37
   5   8  -2   18.62    2.84
  -8   5  -2   20.75    2.35
  -8   5  -2   23.50    2.12
  -8   5  -2   21.83    1.96
   5   8  -2   17.06    2.65
   5   8  -2   24.93    2.88
  -8   5   2   28.66    2.69
   5   8   2   21.87    2.46
   5   8   2   23.78    2.50
  -5  -8   2   25.07    2.48
  -8   6  -2    0.01    0.92
   6   8  -2    0.76    1.72
  -6  -8  -2    0.29    1.19
   6   8  -2    1.03    2.13
   6   8  -2    0.24    1.51
  -8   6  -2   -1.63    1.21
  -8   6  -2   -0.01    1.15
   6   8   2    0.60    1.38
   6   8   2   -1.57    1.51
  -8   6   2    0.80    2.59
   6   8   2   -0.05    1.44
  -6  -8   2   -0.71    1.19
   6   8   2    0.29    1.61
   7   8  -2    6.45    3.38
  -7  -8  -2    9.95    1.69
  -8   7  -2   14.36    2.61
   7   8  -2    9.56    2.03
  -8   7  -2   13.84    2.96
  -7  -8   2   11.64    1.80
   7   8   2    6.40    2.02
   7   8   2    6.91    2.02
   7   8   2    4.15    2.41
   8   8  -2    7.77    2.64
   8   8  -2    5.55    2.86
  -8   8  -2   -1.79    1.97
   8   8  -2    1.78    2.15
  -8  -8  -2    0.73    1.61
  -8   8  -2   -0.69    1.92
  -8   8  -2    1.62    1.47
  -8  -8   2    3.54    1.84
  -8   8   2   -2.19    1.71
   9   8  -2   13.66    5.76
  -8   9  -2    5.74    2.84
   9   8  -2    5.52    3.04
   9   8  -2    9.98    4.51
  -9  -8  -2    3.71    2.18
  -9  -8   2    5.62    2.53
  -8   9   2    7.25    2.45
  -7   9  -2    6.30    2.32
  -9  -7  -2    3.77    1.73
  -7   9  -2    6.57    1.93
  -7   9  -2    8.75    2.31
   9   7  -2    7.94    2.61
   9   7  -2    4.41    5.45
  -7   9   2    4.68    1.94
  -9  -7   2    4.95    1.92
  -6   9  -2   10.96    2.25
  -9  -6  -2   12.44    2.21
  -6   9  -2   16.79    3.16
   9   6  -2    6.31    2.93
   6  -9  -2   13.98    1.85
  -6   9   2   13.51    2.50
  -9  -6   2   11.00    1.95
   5  -9  -2    8.72    1.83
  -5   9  -2   14.84    2.96
   9   5  -2    9.21    2.23
  -9  -5  -2    9.05    1.81
  -5   9  -2   12.09    2.06
  -9  -5   2   11.40    2.14
  -5   9   2   12.86    2.25
   9   4  -2   21.73    2.97
  -4   9  -2   26.44    3.05
  -9  -4  -2   17.93    2.18
  -4   9  -2   29.22    3.03
  -4   9  -2   23.03    2.55
   4  -9  -2   22.18    2.65
   9   4  -2   22.36    2.59
  -9  -4   2   22.32    2.93
  -9  -4   2   17.11    2.95
  -9  -4   2   25.93    2.63
  -4   9   2   23.12    2.66
  -9  -3  -2   17.83    2.21
   9   3  -2   15.06    2.26
   9   3  -2   15.44    2.53
  -3   9  -2   18.85    2.65
  -3   9  -2   18.05    2.17
  -3   9  -2   18.39    2.66
  -9  -3  -2   15.53    1.76
  -9  -3   2   13.99    2.74
  -3   9   2   13.73    2.30
  -9  -3   2   20.02    2.60
  -9  -3   2   15.04    2.64
   3  -9   2   16.69    1.70
  -2   9  -2   30.45    2.92
  -2   9  -2   35.30    3.31
   9   2  -2   34.09    2.74
  -9  -2  -2   32.01    2.55
  -2   9  -2   37.42    3.35
   9   2  -2   29.78    2.66
  -9  -2  -2   31.11    2.94
  -9  -2   2   26.02    3.29
  -2   9   2   30.52    3.08
   2  -9   2   33.04    2.64
  -9  -2   2   31.17    3.36
   2  -9   2   29.35    3.61
  -1   9  -2   24.28    3.22
  -1   9  -2   20.41    2.84
   1  -9  -2   20.22    2.50
  -9  -1  -2   21.39    1.80
   9   1  -2   19.71    1.81
  -9  -1  -2   21.09    2.01
  -1   9  -2   25.95    3.12
   9   1  -2   21.29    1.85
  -1   9   2   19.96    2.43
   1  -9   2   23.18    2.08
  -9  -1   2   14.39    2.89
   1  -9   2   19.78    3.11
   0  -9  -2   36.14    2.92
  -9   0  -2   32.80    2.39
   9   0  -2   30.70    2.39
  -9   0   2   25.26    3.48
  -9   0   2   25.70    3.48
   0  -9   2   36.79    2.78
   0   9   2   29.32    3.04
  -1  -9  -2   23.08    2.34
   1   9  -2   18.79    2.39
  -9   1  -2   19.89    1.83
  -1  -9   2   25.29    4.93
  -1  -9   2   23.89    2.35
  -9   1   2   21.19    3.77
   1   9   2   18.36    2.48
  -9   1   2   23.78    3.33
   2   9  -2   25.22    3.02
  -2  -9  -2   36.02    2.94
  -9   2  -2   29.40    2.48
  -9   2   2   32.72    3.48
  -9   2   2   30.05    2.99
  -9   2   2   31.42    3.72
   2   9   2   28.08    3.05
  -2  -9   2   37.50    2.92
   3   9  -2   14.18    2.39
   3   9  -2   18.98    3.44
  -9   3  -2   16.41    1.60
  -9   3  -2   16.39    1.80
  -3  -9  -2   17.92    2.13
   3   9  -2   12.71    2.01
  -9   3  -2   14.13    1.72
  -9   3  -2   17.48    1.84
  -9   3   2   12.78    2.29
   3   9   2   15.44    2.36
   3   9   2   15.66    2.36
  -3  -9   2   20.69    2.24
  -9   4  -2   23.64    1.91
  -4  -9  -2   22.65    2.57
   4   9  -2   17.05    2.78
  -9   4  -2   23.07    2.27
   4   9  -2   16.66    3.17
  -9   4  -2   22.70    2.31
  -9   4  -2   23.48    2.45
   4   9  -2   24.58    2.97
  -4  -9   2   21.11    2.46
   4   9   2   25.78    2.69
   4   9   2   16.08    2.75
   4   9   2   23.94    2.64
  -9   4   2   22.06    2.75
   5   9  -2    7.47    1.92
  -9   5  -2   11.99    1.58
  -9   5  -2    9.78    2.03
   5   9  -2   13.55    2.72
  -5  -9  -2   12.46    2.14
  -9   5  -2   12.58    2.06
   5   9  -2   10.29    2.09
   5   9   2   11.73    2.40
   5   9   2   10.97    1.87
  -5  -9   2   11.93    2.20
   5   9   2    9.68    1.93
  -6  -9  -2    9.59    1.83
   6   9  -2   12.87    2.29
  -9   6  -2   12.25    2.57
  -9   6  -2   12.58    2.43
   6   9  -2   12.07    2.24
  -9   6  -2   15.87    2.57
   6   9  -2   11.23    2.32
   6   9   2   10.44    2.02
  -6  -9   2   14.35    2.45
  -9   6   2   15.00    2.55
   6   9   2    7.09    2.06
   6   9   2    8.76    2.09
  -7  -9  -2    4.05    1.85
   7   9  -2    9.22    2.65
  -9   7  -2    8.00    1.99
  -9   7  -2    8.23    1.98
   7   9  -2    3.47    2.33
   7   9  -2    8.35    2.66
  -9   7   2    7.24    1.96
  -7  -9   2    6.51    2.00
   8   9  -2   11.23    3.28
  -9   8  -2   10.39    2.66
  -9   8  -2    4.30    2.53
   8   9  -2   15.94    3.59
  -8  -9  -2    7.06    2.62
   8   9  -2    4.00    2.79
  -9   8   2   10.05    2.47
  -8  -9   2    9.94    3.65
  -6  10  -2   -0.38    2.55
  -6  10  -2   -3.06    2.38
  -6  10  -2   -0.82    1.91
 -10  -6  -2    0.24    1.66
 -10  -6   2    0.64    2.01
  -6  10   2    0.44    2.14
 -10  -5  -2    9.50    1.87
  -5  10  -2   15.62    2.62
  -5  10  -2    7.17    2.36
  -5  10  -2    8.06    1.92
   5 -10  -2   10.91    2.06
  10   5  -2    9.99    2.42
  -5  10   2   10.34    2.14
 -10  -5   2    9.98    1.99
  10   4  -2   -0.60    1.57
   4 -10  -2   -0.08    1.20
 -10  -4  -2   -0.92    1.07
  -4  10  -2    0.99    1.91
  -4  10  -2    0.80    1.95
 -10  -4   2   -0.95    1.46
  -4  10   2    0.64    1.54
  10   3  -2   11.72    1.91
  -3  10  -2   13.99    2.93
  -3  10  -2   11.32    1.87
  -3  10  -2   18.69    3.12
   3 -10  -2   14.34    2.10
 -10  -3  -2   14.62    1.79
  -3  10   2   12.82    2.06
   3 -10   2   12.75    1.71
  -2  10  -2   -1.08    1.63
  -2  10  -2   -2.81    1.62
  -2  10  -2   -1.70    1.27
   2 -10  -2   -0.35    1.21
 -10  -2  -2    1.16    0.89
 -10  -2  -2   -1.69    1.95
  -2  10   2   -0.34    1.35
   2 -10   2    0.07    1.03
 -10  -1  -2   14.97    1.75
  -1  10  -2   13.00    2.38
  -1  10  -2   18.50    3.08
  -1  10  -2   21.43    2.94
   1 -10  -2   14.90    2.22
 -10  -1  -2   20.46    2.92
 -10  -1   2   17.91    3.85
  -1  10   2   17.26    2.56
   1 -10   2   19.99    2.50
 -10  -1   2   14.45    2.76
   1 -10   2    9.62    3.36
   0 -10  -2   -1.02    1.25
   0  10  -2   -0.29    1.58
 -10   0  -2    1.42    0.89
   0  10  -2   -1.38    1.32
   0 -10   2    0.11    1.12
   0  10   2    0.92    1.34
 -10   0   2    2.83    1.20
 -10   0   2   -0.75    2.02
 -10   0   2    1.82    2.10
   1  10  -2   15.72    2.46
   1  10  -2   16.05    2.94
   1  10  -2   24.46    3.04
  -1 -10  -2   18.47    2.39
  -1 -10   2   19.80    2.32
 -10   1   2   16.96    2.39
   1  10   2   14.68    2.63
 -10   1   2   20.47    4.04
   2  10  -2    0.73    1.49
   2  10  -2    0.87    1.65
   2  10  -2    0.04    1.68
 -10   2  -2    1.09    0.88
  -2 -10  -2    1.64    1.39
   2  10   2    0.77    1.43
  -2 -10   2    0.19    1.26
 -10   2   2    2.36    1.33
   2  10   2   -0.79    1.76
   3  10  -2   11.80    2.07
   3  10  -2    8.03    2.00
  -3 -10  -2    9.65    1.82
   3  10   2   10.61    2.04
  -3 -10   2   13.98    2.20
 -10   3   2    9.11    2.74
   3  10   2    9.90    3.00
 -10   4  -2    0.54    1.13
   4  10  -2    1.52    1.87
  -4 -10  -2    0.54    1.49
   4  10  -2   -0.96    1.82
   4  10  -2   -0.32    1.80
   4  10   2   -0.37    2.61
   4  10   2    0.36    2.91
   4  10   2    0.43    1.69
 -10   4   2    3.01    1.81
  -4 -10   2    0.95    1.54
 -10   5  -2   11.60    1.64
  -5 -10  -2    8.30    1.85
   5  10  -2    6.27    2.20
 -10   5  -2   11.13    2.06
   5  10  -2    5.19    2.17
   5  10  -2    6.92    2.30
   5  10   2    9.20    2.24
   5  10   2    5.22    2.09
  -5 -10   2    9.35    1.96
   5  10   2    4.17    3.72
 -10   6  -2    2.86    2.17
  -6 -10  -2   -1.74    1.97
   6  10  -2   -2.27    2.44
   6  10  -2    0.15    2.44
   6  10  -2    0.31    2.29
   6  10   2    1.17    2.33
  -6 -10   2    0.04    1.98
   6  10   2   -3.38    2.80
 -10   6   2   -1.95    1.91
   5 -11  -2    5.50    1.98
 -11  -5  -2    3.50    2.58
  -5  11  -2   -0.51    3.02
  -5  11  -2    7.11    3.19
 -11  -5   2    2.55    2.38
  -4  11  -2    7.57    2.67
   4 -11  -2    4.54    1.70
  -4  11  -2    3.63    2.76
  -4  11  -2    4.75    2.23
  -4  11   2    6.02    2.29
 -11  -3  -2    5.28    2.22
  -3  11  -2    9.70    2.60
  -3  11  -2    3.14    1.93
  -3  11  -2    6.52    2.45
   3 -11  -2    4.88    1.66
  -3  11   2    3.16    1.88
  -2  11  -2    7.46    2.40
   2 -11  -2    6.20    1.70
  -2  11  -2   10.40    2.47
  -2  11  -2    5.68    1.95
   2 -11   2    7.18    1.84
  -2  11   2    7.33    2.00
  -1  11  -2    7.96    2.31
  -1  11  -2    3.79    2.26
  -1  11  -2    2.58    1.81
   1 -11  -2    3.29    1.65
   1 -11   2    7.02    1.70
  -1  11   2    6.08    1.92
 -11  -1   2    7.10    1.61
   0  11  -2    5.70    2.18
   0 -11  -2    6.40    1.78
   0  11  -2    8.38    2.34
   0  11  -2    3.79    1.88
   0 -11   2    9.67    1.65
   0  11   2    5.98    1.97
 -11   0   2    6.34    1.66
   1  11  -2    5.76    2.26
   1  11  -2    2.78    1.88
   1  11  -2    2.17    2.20
  -1 -11  -2    5.01    1.78
 -11   1   2    6.70    1.70
   1  11   2    7.67    1.98
  -1 -11   2    4.26    1.64
   2  11  -2    4.31    2.33
   2  11  -2    8.50    2.27
  -2 -11  -2    5.73    1.88
   2  11  -2    6.86    2.06
   2  11   2    5.47    2.05
  -2 -11   2    9.47    1.86
   2  11   2    5.32    2.05
  -3 -11  -2    2.74    1.91
   3  11  -2    3.24    2.35
   3  11  -2    2.07    2.09
   3  11   2    3.90    2.05
   3  11   2    3.41    2.11
 -11   3   2    5.23    1.98
  -3 -11   2    5.44    1.91
   3  11   2    0.27    2.05
   4  11  -2    3.59    2.68
   4  11  -2    4.99    2.50
  -4 -11  -2    3.01    2.11
   4  11  -2    0.44    2.50
   4  11   2    6.84    2.33
   4  11   2    3.55    2.29
  -4 -11   2    2.84    2.10
   4  11   2    4.62    2.36
 -11   4   2    6.55    2.21
   5  11  -2    5.81    2.92
  -5 -11  -2    7.04    4.18
   5  11  -2    5.78    2.77
  -5 -11   2    5.40    4.08
   5  11   2    2.75    3.15
   5  11   2    4.11    2.75
  -1  12  -2    5.74    2.71
   1 -12  -2    5.77    2.21
  -1  12  -2    8.18    3.03
  -1  12  -2    1.35    3.04
   1 -12   2    7.47    2.09
 -12  -1   2    7.68    2.36
  -1  12   2    3.83    3.74
   0  12  -2    4.25    3.04
   0  12  -2   -3.87    2.65
   0  12  -2   -2.61    3.22
   0 -12  -2    2.33    2.17
 -12   0   2    3.21    2.19
   0 -12   2    1.26    1.97
   0  12   2   -3.69    2.60
   0  12   2   -0.21    2.94
   1  12  -2    7.59    3.04
   1  12  -2    4.03    4.19
  -1 -12  -2    6.64    2.70
   1  12  -2    4.50    3.03
   1  12   2    5.52    2.84
  -1 -12   2    5.76    2.24
   1  12   2   10.13    2.91
 -12   1   2   11.32    2.52
   0   0  -3  253.21   17.47
   0   0  -3  263.19   17.46
   0   0  -3  246.71   17.44
   0   0  -3  249.13   17.47
   0   0   3  245.95   17.46
   0   0   3  254.92   17.43
   0   0   3  257.85   17.47
   0   0   3  280.97   17.45
   0   1  -3    2.71    0.61
   0   1  -3    4.92    1.01
   0   1  -3    2.59    0.65
   0  -1   3    3.44    0.69
   0  -1   3    2.05    0.57
   1  -1  -3  189.39   12.37
   1  -1  -3  169.94   12.35
  -1   1  -3  197.49   12.31
   1   1  -3  174.51   12.36
  -1  -1  -3  162.34   12.26
  -1  -1  -3  174.44   12.30
   1   1  -3  168.78   12.35
   1   1  -3  169.63   12.31
  -1   1  -3  167.74   12.29
   1   1  -3  180.79   12.35
  -1   1  -3  168.16   12.29
  -1   1  -3  183.52   12.27
  -1  -1   3  192.32   12.37
   1  -1   3  187.30   12.26
   1   1   3  177.45   12.29
  -1   1   3  176.58   12.33
  -1   1   3  176.17   12.32
  -1  -1   3  176.00   12.38
  -1  -1   3  181.17   12.30
  -1   1   3  191.72   12.36
   1   1   3  184.01   12.27
  -1   1   3  189.55   12.32
   1  -1   3  197.05   12.35
   1   1   3  173.71   12.29
   1  -1   3  206.83   12.36
  -1  -1   3  167.80   12.38
   2   1  -3    1.33    0.70
  -1   2  -3    2.25    0.56
   1  -2  -3    3.04    0.66
  -1   2  -3    1.80    0.51
   1  -2  -3    2.71    0.71
  -1   2  -3    1.39    0.58
   2   1  -3    2.14    0.80
  -1   2   3    3.20    0.59
  -2  -1   3    2.40    0.60
   1  -2   3    3.35    0.72
   1  -2   3    1.50    0.51
  -2  -1   3    1.79    0.78
   1  -2   3    3.36    0.75
  -1   2   3    2.49    0.66
   1  -2   3    3.07    0.53
   0   2  -3  348.17   22.54
  -2   0  -3  336.61   22.51
  -2   0  -3  328.20   22.51
   0  -2  -3  345.90   22.56
   0   2  -3  311.39   22.54
  -2   0  -3  286.18   22.45
   0  -2  -3  301.78   22.53
   0   2  -3  317.85   22.52
   0   2  -3  311.42   22.54
  -2   0  -3  350.40   22.53
   2   0  -3  313.03   22.60
  -2   0   3  337.84   22.63
   0   2   3  350.58   22.57
   0  -2   3  370.75   22.61
  -2   0   3  299.68   22.55
   0   2   3  328.91   22.51
   2   0   3  351.18   22.53
  -2   0   3  347.47   22.63
   0  -2   3  369.25   22.61
   2   0   3  335.83   22.53
   0   2   3  322.83   22.52
   0  -2   3  326.82   22.50
  -2   0   3  351.40   22.60
   1   2  -3    3.62    0.64
   1   2  -3    3.23    0.63
  -2   1  -3    1.37    0.55
  -1  -2  -3    2.35    0.55
   1   2  -3    2.97    0.67
   1   2  -3    2.67    0.72
  -1  -2  -3    2.05    0.55
  -2   1  -3    1.46    0.53
  -2   1  -3    1.45    0.56
   1   2   3    2.47    0.55
  -1  -2   3    2.71    0.95
  -1  -2   3    2.64    0.74
  -1  -2   3    2.70    0.93
   1   2   3    2.73    0.52
  -1  -2   3    3.39    0.58
   2  -2  -3  380.14   25.53
  -2   2  -3  369.34   25.46
  -2  -2  -3  390.33   25.46
   2  -2  -3  345.49   25.73
   2   2  -3  346.27   25.54
   2   2  -3  360.09   25.54
   2   2  -3  350.70   25.54
  -2   2  -3  365.47   25.46
  -2  -2  -3  380.44   25.44
  -2   2  -3  389.20   25.42
  -2   2   3  380.76   25.56
  -2  -2   3  377.82   25.63
   2   2   3  355.05   25.42
   2   2   3  379.19   25.42
   2   2   3  361.79   25.42
  -2  -2   3  377.21   25.58
  -2   2   3  422.64   25.60
  -2  -2   3  377.52   25.64
   2   2   3  434.79   25.45
   3   2  -3    2.54    0.96
  -3  -2  -3    3.12    0.55
  -2   3  -3    3.64    0.70
   3   2  -3    3.80    0.74
   3   2  -3    2.28    0.90
   2  -3  -3    3.46    0.73
  -3  -2  -3    4.09    0.70
  -2   3  -3    3.52    0.56
   3   2  -3    4.11    0.85
  -2   3  -3    2.58    0.67
  -2   3  -3    2.66    0.68
   2  -3  -3    3.65    0.88
   3   2   3    2.96    0.63
   3   2   3    4.22    0.68
  -2   3   3    2.38    0.76
  -3  -2   3    2.66    0.96
  -3  -2   3    3.19    0.99
  -3  -2   3    2.37    0.93
   3   2   3    4.96    0.93
  -2   3   3    3.69    0.67
   3   1  -3   72.87    6.39
  -1   3  -3   90.91    6.04
   3   1  -3   84.37    6.18
  -3  -1  -3   84.89    5.94
   3   1  -3   84.23    6.13
   1  -3  -3   83.53    6.03
   3   1  -3   86.81    6.21
  -3  -1  -3   81.50    5.89
  -1   3  -3   96.11    5.99
   1  -3  -3   83.55    6.09
  -1   3  -3   94.71    6.05
  -1   3  -3   83.32    5.96
   1  -3   3   91.32    5.94
  -1   3   3   83.71    6.08
  -3  -1   3   95.53    6.24
   3   1   3   84.89    5.95
  -3  -1   3   88.02    6.04
   3   1   3   79.24    5.96
  -3  -1   3   81.69    6.17
  -3  -1   3   86.20    6.20
   0   3  -3    4.20    0.80
  -3   0  -3    4.47    0.67
   0   3  -3    3.74    0.76
   3   0  -3    1.83    1.34
   0  -3  -3    4.36    0.72
   0   3  -3    5.77    0.91
   0   3  -3    5.79    0.84
   0   3   3    4.06    0.74
   0  -3   3    7.85    1.51
   0  -3   3    6.55    1.37
   0   3   3    4.46    0.87
   0  -3   3    4.78    0.97
  -3   1  -3   77.69    5.81
  -1  -3  -3   83.97    5.88
  -3   1  -3   81.01    5.76
   1   3  -3   89.66    5.98
  -3   1  -3   76.40    5.81
   3  -1  -3   80.64    5.97
   1   3  -3   85.29    6.06
   1   3  -3   91.56    5.95
   1   3  -3   90.94    5.99
  -3   1   3   73.11    5.94
  -3   1   3   79.83    5.98
  -3   1   3   80.55    5.98
   1   3   3   85.71    5.85
   1   3   3   95.38    5.92
  -3   1   3   91.13    5.97
  -3   2  -3    2.78    0.62
  -3   2  -3    2.35    0.60
  -2  -3  -3    2.79    1.19
  -3   2  -3    3.59    0.54
   2   3  -3    2.85    0.86
  -2  -3  -3    3.45    0.64
   2   3  -3    3.63    0.70
   2   3  -3    2.44    0.83
   3  -2  -3    3.88    0.98
   2   3  -3    3.48    0.81
   3  -2  -3    3.43    0.76
  -3   2   3    3.14    0.80
  -2  -3   3    3.85    0.70
   2   3   3    3.28    0.57
  -3   2   3    3.78    0.71
  -3   2   3    4.48    0.83
  -2  -3   3    3.17    1.06
  -2  -3   3    3.97    0.91
  -2  -3   3    2.39    0.91
   2   3   3    4.91    0.84
   3  -3  -3   41.96    3.45
   3   3  -3   47.45    3.49
  -3   3  -3   51.69    3.44
   3  -3  -3   45.38    3.65
  -3   3  -3   49.44    3.30
  -3   3  -3   51.55    3.43
  -3  -3  -3   43.64    3.37
   3   3  -3   42.03    3.54
   3   3  -3   43.88    3.65
   3   3  -3   48.30    3.66
  -3   3  -3   47.23    3.30
   3   3   3   49.54    3.37
  -3  -3   3   49.67    3.73
  -3   3   3   43.23    3.44
  -3  -3   3   50.84    3.47
   3   3   3   42.81    3.30
  -3  -3   3   48.06    3.68
  -3   3   3   41.49    3.55
   4   3  -3   -0.21    1.02
   3  -4  -3    0.86    0.96
  -4  -3  -3    1.30    0.57
   3  -4  -3    1.68    0.70
  -4  -3  -3    1.14    0.61
   4   3  -3    0.93    0.94
   4   3  -3    0.17    0.88
   4   3  -3    1.06    0.73
  -3   4   3    1.02    0.81
   4   3   3    1.30    0.69
  -4  -3   3    1.12    1.03
  -4  -3   3   -0.31    1.05
   4   3   3    0.94    0.43
  -4  -3   3    1.37    0.70
  -3   4   3    1.92    0.69
  -4  -3   3    0.09    1.02
  -2   4  -3  257.87   16.74
   4   2  -3  254.68   16.81
   4   2  -3  233.46   16.89
  -2   4  -3  253.56   16.80
   4   2  -3  261.47   16.96
   2  -4  -3  245.30   16.80
   4   2  -3  260.80   16.96
   2  -4  -3  211.49   16.85
  -4  -2  -3  252.78   16.71
  -4  -2  -3  230.60   16.68
  -2   4  -3  240.31   16.74
  -2   4  -3  251.51   16.80
  -4  -2   3  231.40   16.92
   2  -4   3  260.94   16.68
  -4  -2   3  222.78   16.91
  -2   4   3  264.49   16.82
  -4  -2   3  242.58   16.94
   2  -4   3  249.29   16.78
  -2   4   3  251.22   16.89
   1  -4  -3    1.37    0.65
   4   1  -3    1.19    1.05
   4   1  -3   -0.45    0.85
  -1   4  -3    2.97    0.98
   1  -4  -3    0.62    0.74
   4   1  -3   -0.02    0.71
  -1   4   3    1.57    0.72
  -4  -1   3    0.24    0.86
  -4  -1   3    0.72    1.00
  -4  -1   3    1.16    1.00
  -1   4   3    2.08    0.64
  -4   0  -3  210.73   15.52
   0  -4  -3  223.77   15.65
   0  -4  -3  226.07   15.67
   0   4  -3  238.32   15.69
   0   4  -3  239.06   15.69
   0   4  -3  230.27   15.63
  -4   0  -3  211.32   15.49
   4   0  -3  247.23   15.71
   4   0  -3  198.58   15.70
   0   4  -3  254.36   15.68
  -4   0   3  227.84   15.68
  -4   0   3  216.54   15.73
   0   4   3  260.85   15.74
  -4   0   3  234.89   15.75
   0   4   3  234.69   15.64
  -4   0   3  214.63   15.73
   1   4  -3    6.41    1.10
   1   4  -3    7.32    1.04
   1   4  -3    7.44    1.17
   1   4  -3    7.66    1.39
  -1  -4   3    7.94    1.49
  -1  -4   3    6.96    1.51
  -1  -4   3    6.49    1.71
  -1  -4   3    6.34    1.02
  -2  -4  -3  250.62   17.14
  -4   2  -3  241.62   17.07
  -4   2  -3  239.86   16.99
   2   4  -3  243.96   17.21
   2   4  -3  246.46   17.16
  -4   2  -3  242.54   17.07
   4  -2  -3  259.27   17.18
   2   4  -3  244.53   17.20
  -2  -4  -3  239.35   17.12
   2   4  -3  249.26   17.22
  -4   2   3  252.36   17.23
  -2  -4   3  278.27   17.26
  -2  -4   3  272.21   17.26
  -4   2   3  246.03   17.17
   2   4   3  270.32   17.17
  -2  -4   3  252.86   17.14
  -4   2   3  243.43   17.24
   2   4   3  251.73   17.10
  -4   2   3  232.09   17.41
  -2  -4   3  273.22   17.26
  -3  -4  -3    0.91    0.61
   4  -3  -3    0.70    0.67
  -4   3  -3    1.22    0.62
  -3  -4  -3    1.15    0.67
  -4   3  -3    1.20    0.63
  -4   3  -3    1.45    0.49
  -4   3   3    2.02    0.87
   3   4   3    1.87    0.68
   3   4   3    1.39    0.57
  -4   3   3    2.32    0.70
  -4  -4  -3  157.93   11.80
   4   4  -3  168.49   12.02
   4  -4  -3  177.61   11.87
   4   4  -3  176.81   11.91
  -4  -4  -3  166.76   11.82
   4   4  -3  165.40   12.02
  -4   4  -3  169.12   11.73
  -4   4  -3  164.83   11.73
  -4   4  -3  178.55   11.85
   4   4  -3  148.17   11.95
   4  -4  -3  189.94   12.09
  -4   4  -3  172.63   11.84
  -4  -4   3  176.57   11.90
  -4   4   3  167.68   11.99
  -4   4   3  170.01   11.89
   4   4   3  164.34   11.74
  -4  -4   3  175.98   12.07
  -4  -4   3  183.86   12.02
  -4  -4   3  190.75   12.06
   4   4   3  183.89   11.84
  -5  -4  -3   -0.29    0.64
  -4   5  -3    0.79    0.76
   5   4  -3    0.77    1.13
  -4   5  -3   -0.08    0.61
   4  -5  -3    0.69    1.26
  -5  -4  -3    0.13    0.72
  -4   5  -3    1.06    0.81
   4  -5  -3    1.51    0.77
   5   4  -3    2.92    0.97
   5   4  -3    2.83    1.26
   5   4  -3   -0.09    1.29
   5   4   3    0.81    0.48
   5   4   3   -0.63    0.77
  -4   5   3    1.12    0.77
  -5  -3  -3   48.05    3.66
  -5  -3  -3   43.01    3.65
  -3   5  -3   53.50    3.83
   3  -5  -3   48.44    3.77
  -3   5  -3   54.13    3.68
   5   3  -3   52.33    4.22
   5   3  -3   54.23    3.87
   5   3  -3   50.97    4.16
  -3   5  -3   57.96    3.86
   5   3  -3   42.61    4.00
  -3   5  -3   55.87    3.70
  -5  -3   3   47.48    4.17
  -5  -3   3   48.85    4.12
  -5  -3   3   53.44    3.83
  -3   5   3   49.50    3.95
  -2   5  -3    1.13    0.62
   5   2  -3   -0.39    0.95
   5   2  -3   -2.00    1.19
  -2   5  -3    1.30    0.62
  -5  -2  -3    0.81    0.47
   2  -5  -3    0.62    0.97
  -2   5  -3    0.84    0.75
  -5  -2  -3    0.78    0.47
   2  -5  -3   -0.38    0.64
   5   2  -3    1.27    0.77
  -2   5  -3    0.05    0.75
  -5  -2   3   -0.30    1.04
  -5  -2   3   -0.53    1.11
  -2   5   3    0.67    0.69
  -5  -2   3    0.57    1.13
   2  -5   3    1.20    0.63
  -2   5   3    0.70    0.75
  -1   5  -3   88.34    5.89
   5   1  -3   84.32    5.84
  -1   5  -3   88.85    5.81
  -1   5  -3   84.16    5.78
   1  -5  -3   80.60    5.82
  -5  -1  -3   71.21    5.65
   1  -5  -3   78.59    5.91
  -1   5  -3   89.99    5.89
   5   1  -3   70.81    5.93
  -1   5   3   81.01    5.82
  -5  -1   3   83.71    6.08
  -5  -1   3   82.55    6.04
  -1   5   3   86.26    5.93
  -5  -1   3   78.17    6.03
   5   0  -3    2.55    0.88
   0   5  -3    0.97    0.81
   0   5  -3    1.62    0.70
   0  -5  -3    1.63    0.83
   0   5  -3    1.65    0.72
   0   5  -3    0.66    0.79
   0  -5  -3    0.40    0.64
   0  -5   3    2.14    0.88
   0   5   3    1.05    0.68
   0  -5   3    0.89    0.62
   0   5   3    0.40    0.76
   1   5  -3   92.85    6.11
   1   5  -3   87.54    6.05
   5  -1  -3   84.84    6.11
  -1  -5  -3   79.61    6.01
   1   5  -3   94.42    6.17
   5  -1  -3   81.80    6.09
   1   5  -3   93.69    6.17
  -1  -5  -3   81.95    6.06
   1   5   3   86.93    6.10
  -1  -5   3   91.05    6.18
  -5   1   3   75.81    6.16
  -1  -5   3   94.60    6.23
   1   5   3   85.33    6.01
  -1  -5   3   87.23    5.99
  -5   1   3   76.03    6.16
  -5   1   3   78.36    6.11
  -5   1   3   78.23    6.09
   2   5  -3    1.51    0.78
   2   5  -3    1.54    0.81
   5  -2  -3   -0.15    0.96
  -5   2  -3    0.83    0.53
   2   5  -3    0.36    0.87
   5  -2  -3   -0.50    0.71
   2   5  -3    1.11    0.89
  -2  -5  -3    0.40    0.76
  -5   2  -3    1.12    0.52
  -2  -5  -3    0.22    0.64
  -5   2   3    0.38    0.79
  -5   2   3    0.52    0.86
  -2  -5   3    0.79    1.16
  -5   2   3    0.82    0.74
   2   5   3    1.14    0.77
   2   5   3    0.40    0.67
  -2  -5   3    1.30    0.70
  -2  -5   3    0.08    1.05
  -5   2   3    0.70    0.89
   3   5  -3   47.99    3.82
   3   5  -3   51.86    3.88
   3   5  -3   54.47    3.98
  -3  -5  -3   45.36    3.73
   5  -3  -3   47.11    3.68
  -5   3  -3   49.37    3.65
  -5   3  -3   50.96    3.65
   3   5  -3   54.76    3.98
  -5   3  -3   45.74    3.44
  -3  -5  -3   47.22    3.67
  -5   3  -3   46.68    3.43
  -3  -5   3   54.53    3.74
  -5   3   3   43.01    3.78
  -3  -5   3   52.31    4.01
  -3  -5   3   55.19    4.09
  -5   3   3   47.61    3.89
   3   5   3   49.91    3.76
   3   5   3   43.38    3.87
  -3  -5   3   58.61    4.06
   4   5  -3   -0.41    1.09
   4   5  -3    0.46    0.90
  -4  -5  -3   -0.11    0.80
   4   5  -3   -1.22    1.08
  -4  -5  -3   -0.28    0.67
   4   5  -3    0.75    0.99
   5  -4  -3    0.42    0.73
  -5   4   3    1.28    0.82
  -4  -5   3    1.33    1.29
   4   5   3   -0.26    0.64
  -4  -5   3   -0.67    1.21
   4   5   3   -1.04    0.80
  -4  -5   3   -0.01    0.78
  -4  -5   3   -0.77    1.15
  -5   4   3    0.18    0.91
  -5   5  -3   36.73    2.97
  -5  -5  -3   34.80    2.86
  -5   5  -3   41.55    3.03
  -5   5  -3   38.02    2.73
   5   5  -3   33.00    3.40
   5  -5  -3   37.46    2.92
   5  -5  -3   34.47    3.56
  -5   5  -3   38.67    2.79
   5   5  -3   33.41    3.47
  -5  -5  -3   32.71    2.98
  -5  -5   3   38.84    3.57
  -5   5   3   32.86    3.20
  -5  -5   3   39.07    3.03
   5   5   3   34.76    3.01
  -5  -5   3   40.18    3.55
  -5   5   3   35.76    3.13
   5   5   3   36.76    2.76
   6   5  -3   -0.13    1.55
   6   5  -3   -0.90    1.46
  -5   6  -3   -0.19    0.83
  -5   6  -3   -0.60    0.90
   5  -6  -3    0.96    0.82
   6   5  -3   -0.82    1.21
  -5   6  -3    1.91    1.00
  -6  -5  -3   -0.65    1.00
  -5   6  -3    0.12    0.70
  -6  -5  -3    0.07    0.81
   5  -6  -3   -1.36    1.61
  -6  -5   3   -0.26    0.96
   6   5   3    1.01    0.70
  -6  -5   3    1.47    1.62
  -6  -5   3    1.52    1.57
   6   5   3   -0.96    0.81
  -5   6   3   -0.31    1.07
  -4   6  -3   83.16    6.10
   6   4  -3   82.55    6.15
   4  -6  -3   85.45    6.08
  -4   6  -3   83.80    5.99
   6   4  -3   96.24    6.53
  -4   6  -3   86.08    6.11
   4  -6  -3   72.36    6.52
   6   4  -3   93.04    6.55
  -4   6  -3   80.22    5.97
  -6  -4  -3   72.91    5.99
   6   4  -3   73.21    6.32
  -6  -4  -3   85.58    6.00
  -6  -4   3   92.38    6.43
  -4   6   3   88.73    6.27
  -6  -4   3   89.15    6.14
  -6  -4   3   90.65    6.43
   6   3  -3    1.43    1.25
   3  -6  -3    1.37    1.34
  -6  -3  -3   -0.58    0.65
  -3   6  -3    0.92    0.85
  -3   6  -3    1.61    0.79
   6   3  -3    1.55    0.91
   6   3  -3   -1.49    1.35
  -3   6  -3    1.90    0.94
   3  -6  -3    1.89    0.83
  -3   6  -3    1.55    0.74
   6   3  -3    0.72    1.58
  -6  -3  -3    0.61    0.64
  -3   6   3    1.16    0.93
  -6  -3   3   -0.28    1.34
  -6  -3   3    0.47    1.29
  -6  -3   3   -0.37    1.31
  -6  -3   3    0.42    0.88
   2  -6  -3   92.62    7.60
  -6  -2  -3   94.19    7.31
  -6  -2  -3  110.29    7.29
  -2   6  -3  108.93    7.50
   2  -6  -3  112.04    7.46
  -2   6  -3  111.68    7.42
   6   2  -3  114.82    7.48
  -2   6  -3  107.33    7.41
  -2   6  -3  111.32    7.51
   6   2  -3  100.55    7.66
   2  -6   3  106.91    7.40
  -6  -2   3   99.57    7.70
  -6  -2   3   95.54    7.73
  -6  -2   3  101.26    7.71
  -2   6   3  116.24    7.60
   1  -6  -3    0.51    1.08
  -1   6  -3    0.97    0.75
   6   1  -3    1.12    0.86
  -1   6  -3    1.45    0.88
  -1   6  -3    1.49    0.81
   6   1  -3   -0.61    1.08
   1  -6  -3    1.75    0.81
  -1   6  -3    0.73    0.89
  -6  -1   3   -0.07    1.23
  -1   6   3    2.29    0.95
  -6  -1   3    1.33    1.28
   1  -6   3    1.18    0.89
   1  -6   3    2.22    0.68
  -1   6   3    2.21    0.85
  -6  -1   3    2.26    1.28
   0   6  -3  108.07    7.69
   0  -6  -3  106.95    7.61
   0   6  -3  110.17    7.63
   6   0  -3  102.64    7.69
  -6   0  -3  109.18    7.37
   0   6  -3  104.74    7.60
   6   0  -3  114.35    7.63
   0   6  -3  108.32    7.70
   0   6   3  106.05    7.60
  -6   0   3  101.72    7.80
  -6   0   3  110.55    7.79
  -6   0   3  104.75    7.80
  -6   0   3  111.13    7.65
   0  -6   3  104.53    7.53
   0  -6   3  114.82    7.71
   0   6   3  114.02    7.72
   1   6  -3    1.34    0.99
   6  -1  -3    5.02    1.04
   1   6  -3    3.22    0.95
  -1  -6  -3    2.22    0.80
   1   6  -3    2.45    0.91
   1   6  -3    1.12    0.95
   1   6   3    3.46    0.85
  -1  -6   3    2.28    0.80
  -1  -6   3    2.91    1.11
   1   6   3    2.40    0.95
   2   6  -3   99.84    7.72
  -6   2  -3  107.61    7.49
   2   6  -3  114.88    7.81
   6  -2  -3  122.72    7.76
   2   6  -3  116.74    7.82
  -6   2  -3  110.16    7.50
   6  -2  -3  118.29    7.66
  -2  -6  -3  113.79    7.67
  -2  -6   3  110.15    7.63
  -6   2   3   97.20    7.73
  -6   2   3  106.83    7.74
  -2  -6   3  102.15    7.81
   2   6   3  114.00    7.66
  -6   2   3   98.15    7.78
   2   6   3  108.05    7.74
  -6   2   3  100.11    7.78
   6  -3  -3   -0.05    0.76
   6  -3  -3    1.18    1.14
   3   6  -3    1.39    1.03
   3   6  -3    0.97    1.14
  -3  -6  -3    0.35    1.00
  -6   3  -3    0.96    0.68
  -3  -6  -3    1.24    0.79
   3   6  -3    1.43    1.13
  -6   3  -3    0.49    0.72
  -6   3   3    2.27    1.03
  -3  -6   3    2.08    0.84
  -3  -6   3   -0.54    1.47
   3   6   3    3.04    0.87
   3   6   3    2.71    0.97
  -6   3   3    0.87    0.90
  -6   3   3    0.76    0.99
  -4  -6  -3   77.22    6.04
   6  -4  -3   84.88    5.92
  -4  -6  -3   81.47    5.97
   4   6  -3   81.76    6.22
   4   6  -3   92.04    6.55
   6  -4  -3   82.25    6.24
  -6   4  -3   85.05    5.74
  -6   4  -3   92.67    5.95
   4   6  -3   81.49    6.21
  -6   4  -3   78.17    5.84
  -6   4  -3   85.68    5.92
  -4  -6   3   84.62    6.34
   4   6   3   78.14    6.06
  -6   4   3   78.06    6.06
  -6   4   3   86.48    6.19
  -4  -6   3   87.30    6.04
   4   6   3   81.49    5.92
  -4  -6   3   79.09    6.51
   5   6  -3    0.64    1.37
  -6   5  -3    0.60    0.73
  -6   5  -3    0.28    0.58
  -5  -6  -3   -0.22    0.82
   6  -5  -3   -0.02    0.79
  -5  -6  -3   -0.51    1.17
   5   6  -3    0.73    1.40
  -6   5  -3   -0.21    0.90
   5   6  -3    0.06    1.22
   5   6  -3   -1.53    1.65
   5   6   3    1.65    0.85
   5   6   3    1.47    1.40
  -5  -6   3   -0.16    1.00
   5   6   3    0.81    1.05
  -5  -6   3   -1.40    1.78
  -6   5   3   -0.79    1.04
  -6  -6  -3   48.07    3.80
   6   6  -3   47.49    4.36
  -6   6  -3   51.25    3.93
  -6   6  -3   46.53    3.83
  -6   6  -3   46.17    3.89
   6   6  -3   48.55    4.40
  -6   6  -3   49.18    3.66
   6  -6  -3   48.47    3.73
  -6   6   3   55.25    4.24
   6   6   3   45.81    3.64
  -6  -6   3   54.75    3.98
   7   6  -3    0.01    1.89
  -7  -6  -3    1.51    1.09
  -6   7  -3   -0.56    0.90
  -6   7  -3    0.29    1.14
   6  -7  -3   -0.03    0.97
   7   6  -3    0.27    1.81
   7   6  -3    0.39    1.52
  -6   7  -3   -0.77    1.29
  -7  -6   3    0.20    1.18
  -6   7   3   -1.61    1.32
  -7  -5  -3   17.28    1.89
  -5   7  -3   15.00    2.26
   7   5  -3   18.17    2.62
  -5   7  -3   22.09    2.41
  -5   7  -3   15.74    2.15
  -7  -5  -3   14.59    2.32
   7   5  -3   13.20    2.20
   7   5  -3   19.92    3.01
   5  -7  -3   19.06    1.98
   7   5  -3   15.03    3.09
  -5   7  -3   14.03    1.83
  -5   7   3   20.67    3.42
  -7  -5   3   20.52    2.20
  -7  -4  -3    0.06    0.78
   4  -7  -3   -0.47    0.87
   7   4  -3   -1.44    1.42
  -4   7  -3   -1.51    1.06
  -4   7  -3   -0.80    1.02
  -7  -4  -3   -0.91    0.94
   7   4  -3   -0.18    1.71
  -4   7  -3   -0.07    1.02
   7   4  -3   -0.73    1.84
  -7  -4   3    2.18    1.63
  -4   7   3   -1.02    1.08
  -3   7  -3   26.58    2.30
  -7  -3  -3   21.45    2.19
  -3   7  -3   22.85    2.45
  -3   7  -3   27.66    2.63
  -7  -3  -3   26.02    2.14
  -3   7  -3   22.86    2.48
   7   3  -3   26.98    2.54
   3  -7  -3   27.91    2.42
  -7  -3   3   25.88    3.18
  -3   7   3   27.23    2.60
  -7  -3   3   28.56    2.46
  -7  -3   3   24.03    3.18
  -2   7  -3    0.44    0.99
  -2   7  -3   -0.70    0.93
   2  -7  -3    0.02    0.88
  -2   7  -3   -0.10    0.95
  -7  -2  -3    0.10    0.58
   7   2  -3   -0.59    0.91
  -2   7  -3   -0.42    0.84
  -7  -2  -3    0.99    0.63
   7   2  -3   -1.20    1.25
   2  -7   3   -1.29    1.09
  -2   7   3   -0.03    0.96
  -7  -2   3   -0.61    1.51
   7   1  -3   34.06    2.85
  -7  -1  -3   31.70    2.47
  -1   7  -3   34.61    3.02
   1  -7  -3   36.89    2.86
  -1   7  -3   33.83    2.93
  -1   7  -3   34.57    3.05
  -1   7  -3   36.63    2.82
   1  -7   3   36.04    3.03
  -1   7   3   29.44    2.96
  -7  -1   3   38.33    3.42
  -1   7   3   32.19    3.35
   1  -7   3   36.49    2.67
  -7  -1   3   28.47    3.46
  -7  -1   3   25.66    3.46
   7   0  -3    2.27    1.07
   7   0  -3    1.13    0.91
   0  -7  -3   -0.10    0.85
   0   7  -3    0.34    1.04
   0   7  -3    0.19    1.03
  -7   0  -3    1.18    0.39
   0   7  -3   -1.02    1.00
   0   7  -3    0.48    0.93
   0   7   3   -0.59    0.98
  -7   0   3    2.67    1.43
  -7   0   3    3.61    1.43
  -7   0   3    2.71    1.35
   0  -7   3   -0.57    0.76
  -7   0   3    3.04    0.93
   0  -7   3   -0.54    1.22
   7  -1  -3   34.29    2.82
   1   7  -3   32.47    3.03
   1   7  -3   34.05    3.04
  -1  -7  -3   37.03    2.83
   7  -1  -3   33.15    2.75
   1   7  -3   30.30    2.83
   1   7   3   33.71    2.96
  -1  -7   3   30.98    3.32
  -1  -7   3   33.96    2.72
  -7   1   3   30.57    3.07
  -7   1   3   30.87    3.25
  -7   1   3   27.72    3.24
  -7   1   3   33.00    2.83
   7  -2  -3   -0.77    1.03
   2   7  -3    0.21    1.03
  -7   2  -3    1.01    0.59
   2   7  -3   -0.33    1.11
  -2  -7  -3   -1.22    0.83
   2   7  -3    0.39    1.12
  -7   2  -3    0.34    0.71
   2   7   3    1.08    0.99
  -7   2   3   -0.55    1.23
  -7   2   3   -0.32    0.94
   2   7   3    0.44    1.03
  -7   2   3   -1.62    1.05
  -7   2   3   -1.41    1.24
  -2  -7   3    0.71    0.85
  -3  -7  -3   25.36    2.34
   3   7  -3   25.03    2.85
   7  -3  -3   27.91    2.63
  -7   3  -3   25.44    2.15
   7  -3  -3   24.49    2.19
  -7   3  -3   26.93    2.16
   3   7  -3   25.10    2.76
   3   7  -3   19.84    2.55
  -7   3   3   23.36    3.05
  -3  -7   3   25.25    2.31
  -7   3   3   25.06    2.57
   3   7   3   24.43    2.44
  -3  -7   3   20.50    3.04
   3   7   3   23.50    2.51
  -7   3   3   23.71    2.56
   7  -4  -3   -0.29    0.76
  -4  -7  -3   -0.38    0.95
  -7   4  -3    1.87    0.58
  -7   4  -3    2.91    0.83
   4   7  -3   -0.06    1.35
   4   7  -3    0.48    1.91
   4   7  -3   -0.06    1.33
   7  -4  -3   -1.24    1.37
   4   7   3   -0.65    1.11
  -4  -7   3    1.56    1.38
   4   7   3    0.92    1.05
  -7   4   3   -0.50    1.09
   7  -5  -3   17.86    2.89
  -7   5  -3   18.47    2.09
   5   7  -3   13.52    2.46
   5   7  -3   12.72    2.68
  -5  -7  -3   17.02    2.01
   5   7  -3   12.88    2.60
   7  -5  -3   15.74    1.74
  -7   5  -3   17.36    1.53
  -7   5  -3   15.65    1.95
  -7   5  -3   15.88    1.66
  -7   5   3   15.54    2.33
   5   7   3   16.58    2.04
   5   7   3   13.23    2.21
   5   7   3   16.42    2.03
  -5  -7   3   17.86    2.06
   5   7   3   16.36    2.14
  -7   6  -3   -0.28    1.08
  -7   6  -3   -1.58    0.98
   6   7  -3   -0.10    2.27
  -6  -7  -3    0.96    1.58
   7  -6  -3    1.20    0.88
   6   7  -3    1.36    1.47
   6   7  -3   -1.63    2.82
  -7   6  -3    1.97    1.15
   7  -6  -3    4.96    2.00
  -7   6  -3    0.36    0.81
   6   7   3    0.45    1.32
  -6  -7   3    1.06    1.25
   6   7   3   -2.45    1.40
   6   7   3   -1.14    1.13
  -7   7  -3    9.72    1.41
   7  -7  -3   11.32    1.73
   7   7  -3    8.92    2.57
  -7  -7  -3    8.27    1.53
   7   7  -3    8.81    2.31
  -7   7  -3   12.10    2.26
   7   7  -3    8.12    2.00
   7   7   3    8.50    1.67
  -7  -7   3   10.55    1.80
  -7   7   3   10.15    1.98
  -7   8  -3   -2.01    1.57
  -8  -7  -3   -0.02    1.41
   8   7  -3    0.75    2.78
   7  -8  -3   -0.81    1.37
   8   7  -3   -0.06    2.84
   8   7  -3    0.88    2.12
  -7   8  -3    0.74    1.76
  -7   8  -3   -1.43    1.28
  -7   8   3   -1.29    1.76
  -8  -7   3   -0.54    1.72
  -6   8  -3   30.28    2.72
   8   6  -3   23.80    3.56
   6  -8  -3   28.38    3.93
  -6   8  -3   23.50    3.20
  -6   8  -3   30.36    3.33
  -8  -6  -3   20.44    3.47
  -6   8   3   29.10    3.20
  -8  -6   3   34.66    3.06
  -5   8  -3   -0.20    1.03
  -5   8  -3    0.01    1.49
  -8  -5  -3   -0.78    0.96
   5  -8  -3    0.43    2.48
   8   5  -3    0.93    1.97
  -5   8  -3   -1.83    1.31
   8   5  -3   -1.07    2.17
  -8  -5   3    0.51    1.27
  -5   8   3    1.01    1.36
  -8  -4  -3   45.20    4.02
  -4   8  -3   52.15    4.83
   8   4  -3   40.56    4.55
  -4   8  -3   52.16    3.99
  -8  -4  -3   50.84    3.89
  -8  -4   3   60.73    4.20
  -4   8   3   55.25    4.31
  -8  -3  -3   -0.18    0.75
   8   3  -3   -0.88    1.16
  -3   8  -3    1.78    1.62
   8   3  -3    0.21    1.53
  -8  -3  -3   -0.01    0.93
   3  -8  -3    0.76    1.40
  -3   8  -3   -3.16    1.92
  -3   8  -3    1.14    1.00
  -8  -3   3   -1.32    1.80
  -8  -3   3   -0.25    1.84
  -3   8   3   -0.21    1.15
   3  -8   3    2.92    1.22
  -8  -2  -3   57.98    4.80
  -2   8  -3   69.30    5.03
   8   2  -3   71.72    5.07
  -2   8  -3   75.47    5.32
  -8  -2  -3   69.04    4.78
   2  -8  -3   69.27    5.31
  -8  -2   3   64.82    5.61
  -2   8   3   61.71    6.01
  -8  -2   3   64.58    5.54
  -1   8  -3    2.72    1.29
   8   1  -3   -0.48    1.22
  -1   8  -3    2.25    1.23
   8   1  -3   -0.15    1.01
   1  -8  -3    1.96    1.16
  -1   8  -3    1.93    1.08
  -1   8   3    0.97    1.77
  -8  -1   3    1.51    0.99
   1  -8   3    1.60    1.52
   1  -8   3    1.95    0.88
  -8   0  -3   68.15    5.44
   8   0  -3   85.74    5.81
   8   0  -3   84.78    5.77
   0   8  -3   72.75    5.85
   0   8  -3   83.00    6.00
   0   8  -3   83.21    6.02
  -8   0  -3   66.50    5.44
   0  -8  -3   93.14    6.08
  -8   0   3   76.46    6.31
   0  -8   3   82.58    5.71
   0   8   3   80.14    6.05
  -8   0   3   79.25    6.20
  -8   0   3   85.78    5.89
   0  -8   3   70.08    6.08
   1   8  -3    0.81    1.15
  -1  -8  -3    3.52    1.38
   1   8  -3    2.58    1.41
   8  -1  -3    1.24    1.03
   1   8   3    0.42    1.19
  -8   1   3    3.06    1.84
  -8   1   3    3.29    1.71
   8  -2  -3   73.00    5.01
   2   8  -3   72.24    5.59
   2   8  -3   74.36    5.58
  -2  -8   3   60.13    5.98
  -8   2   3   61.98    5.26
  -2  -8   3   73.62    5.16
   2   8   3   65.14    5.36
   2   8   3   69.94    5.38
  -8   3  -3    1.09    0.73
   3   8  -3    1.89    2.30
   8  -3  -3    0.07    1.43
  -3  -8  -3    0.22    1.18
   3   8  -3    0.11    1.29
   8  -3  -3   -1.08    0.74
  -8   3  -3    0.41    0.77
   3   8  -3   -0.47    2.47
   3   8   3    2.46    1.28
  -8   3   3    0.62    1.23
   3   8   3    0.78    1.33
  -3  -8   3    1.43    1.12
  -4  -8  -3   52.72    4.24
  -8   4  -3   53.24    4.03
   4   8  -3   54.78    5.37
   8  -4  -3   53.11    3.95
   8  -4  -3   60.97    4.56
  -8   4  -3   46.90    3.80
  -8   4  -3   56.00    4.05
  -4  -8   3   50.37    4.20
   4   8   3   52.96    4.26
  -8   4   3   57.37    4.56
  -8   5  -3    0.32    1.06
   5   8  -3    0.47    1.58
   5   8  -3   -0.94    1.67
   8  -5  -3    0.26    0.84
   5   8  -3    0.75    1.75
  -5  -8  -3    2.24    1.23
  -8   5  -3    0.39    0.71
   5   8   3    2.49    1.33
   5   8   3   -1.38    1.38
  -5  -8   3    0.30    1.30
  -8   5   3    0.37    1.38
   5   8   3    0.70    1.33
   6   8  -3   32.38    3.83
  -8   6  -3   27.74    3.03
  -8   6  -3   36.46    3.15
  -8   6  -3   27.43    2.65
   8  -6  -3   32.54    2.65
   6   8  -3   31.20    3.72
  -6  -8  -3   33.49    3.07
   6   8   3   31.52    3.14
  -8   6   3   26.89    3.41
  -6  -8   3   33.03    3.17
   7   8  -3    2.56    2.08
   7   8  -3    2.67    2.35
   8  -7  -3    0.70    1.20
  -8   7  -3   -0.06    1.76
  -7  -8  -3   -0.34    1.50
   7   8  -3    1.01    2.13
  -8   7   3   -2.21    1.77
   7   8   3   -1.03    2.17
  -7  -8   3   -1.99    1.62
  -8   8  -3   13.77    2.39
   8   8  -3   11.32    3.05
   8   8  -3   16.73    2.96
  -8  -8  -3   10.91    2.23
  -8   8   3   12.36    2.68
  -8  -8   3   16.93    3.20
   9   7  -3    2.83    2.78
  -7   9  -3    2.01    2.30
  -7   9  -3    2.66    2.41
   7  -9  -3    3.34    2.45
   9   7  -3   -2.61    3.33
  -7   9   3    3.82    2.38
  -9  -7   3    6.72    2.32
   9   6  -3    1.80    2.41
   6  -9  -3   -2.05    1.32
  -6   9  -3   -1.15    1.96
  -6   9  -3   -3.13    2.17
  -9  -6   3   -1.27    1.88
  -6   9   3   -1.84    1.87
  -5   9  -3    3.75    1.89
  -9  -5  -3    4.15    1.30
   9   5  -3    7.86    2.25
  -5   9  -3    1.58    1.74
   5  -9  -3    5.52    1.40
  -9  -5   3    7.03    1.82
  -5   9   3    8.12    1.83
   4  -9  -3    2.00    1.22
   9   4  -3    3.88    2.23
  -9  -4  -3    0.43    1.01
  -4   9  -3   -0.86    1.58
  -4   9   3    0.97    1.53
  -9  -3  -3    5.33    1.37
  -3   9  -3    7.02    1.72
  -3   9  -3   10.54    1.80
   3  -9  -3    8.34    1.45
   9   3  -3    5.38    1.82
  -9  -3  -3    7.86    1.44
  -3   9   3    5.93    1.58
  -9  -2  -3   -0.06    1.00
   9   2  -3   -0.08    1.23
  -2   9  -3   -1.40    1.87
   2  -9  -3    1.28    1.19
   9   2  -3   -1.79    1.35
  -2   9  -3   -0.99    1.47
  -9  -2  -3    0.03    0.75
   2  -9   3    1.56    0.91
  -2   9   3   -0.91    1.32
   2  -9   3    0.68    2.07
  -9  -1  -3    6.27    1.07
   1  -9  -3   11.35    1.93
   9   1  -3   10.08    1.87
  -1   9  -3    8.68    1.71
  -1   9  -3    9.94    1.76
   9   1  -3    8.33    1.48
  -1   9  -3    9.92    2.05
  -9  -1  -3    6.41    1.13
  -1   9   3    7.17    1.64
   1  -9   3    8.69    1.56
   1  -9   3   10.72    2.32
   0  -9  -3    0.26    1.15
  -9   0  -3    1.36    0.95
  -9   0  -3    0.79    0.68
   9   0  -3   -0.19    1.03
   9   0  -3    0.02    1.28
   0   9  -3    1.05    1.48
   0   9  -3   -1.58    1.18
   0   9  -3   -1.27    1.44
   0   9   3   -0.76    1.29
   0  -9   3    1.54    1.03
  -9   0   3    2.40    1.34
   9  -1  -3    5.35    1.98
   1   9  -3    5.26    1.68
  -1  -9  -3    8.03    1.48
   1   9  -3    9.20    1.82
   1   9  -3    7.11    1.54
   9  -1  -3    7.57    1.17
   1   9   3    5.83    1.57
  -9   1   3    8.91    1.81
   9  -2  -3   -0.23    0.76
   9  -2  -3    0.03    1.16
   2   9  -3   -1.63    1.59
   2   9  -3   -2.68    1.54
   2   9   3    1.09    1.41
  -2  -9   3   -0.83    1.16
  -9   2   3    1.61    1.76
   3   9  -3    6.65    1.92
   3   9  -3    9.21    1.97
   3   9  -3    7.74    1.79
   9  -3  -3    7.18    1.26
  -3  -9  -3    8.51    1.56
  -9   3   3    7.43    2.20
  -3  -9   3    8.00    1.51
   3   9   3    4.85    1.73
  -4  -9  -3    2.01    1.38
   4   9  -3   -1.05    1.74
  -9   4  -3    2.56    1.06
   9  -4  -3   -0.32    0.76
   4   9  -3    1.57    1.66
  -9   4  -3    1.11    0.99
  -4  -9   3    2.45    1.37
   4   9   3   -0.50    1.53
   4   9   3   -1.07    1.51
  -9   4   3   -1.80    1.40
   5   9  -3    6.67    2.07
   5   9  -3    7.94    2.17
  -5  -9  -3    3.56    1.60
  -9   5  -3    6.12    1.29
   5   9  -3    5.23    2.00
   5   9   3    5.25    1.76
  -5  -9   3    7.67    1.72
   5   9   3    5.64    1.81
  -9   5   3    7.21    1.81
   6   9  -3   -1.48    2.20
   6   9  -3   -1.37    2.09
   6   9  -3    5.03    2.34
  -6  -9  -3    1.17    1.69
  -9   6  -3    2.89    1.56
  -9   6  -3   -0.99    1.48
  -6  -9   3    1.08    1.79
   6   9   3   -1.37    3.09
  -9   6   3   -1.58    1.74
   6   9   3   -0.84    2.05
  -7  -9  -3    3.04    1.97
   7   9  -3    1.99    2.73
   7   9  -3    2.77    2.81
  -9   7  -3    4.20    2.10
   7   9  -3    4.15    2.58
  -9   7  -3    5.63    2.01
  -7  -9   3    5.93    2.21
  -9   7   3   -1.31    2.32
  -6  10  -3   14.12    3.11
 -10  -6  -3    6.41    2.20
  -6  10  -3   10.20    2.79
  -6  10  -3   11.27    2.49
   6 -10  -3    7.77    2.16
  10   6  -3   12.15    3.51
 -10  -6   3   10.34    2.84
   5 -10  -3   -0.29    1.54
 -10  -5  -3   -2.44    1.62
  -5  10  -3   -0.22    2.23
  -5  10  -3    2.31    2.47
  10   5  -3    1.22    2.62
  -5  10  -3   -0.66    1.86
  -5  10   3   -2.40    2.09
   4 -10  -3   22.78    2.71
  10   4  -3   28.64    4.72
  -4  10  -3   17.96    3.57
 -10  -4  -3   13.51    2.40
  -4  10  -3   22.18    3.62
  -4  10  -3   16.50    2.86
  -4  10   3   21.49    3.39
  -3  10  -3    2.61    1.60
   3 -10  -3   -0.09    1.39
  -3  10  -3    0.07    1.88
  10   3  -3    0.82    1.81
  -3  10  -3    0.16    1.80
 -10  -3  -3   -0.68    1.09
  -3  10   3   -2.70    1.69
  10   2  -3   29.75    2.90
  -2  10  -3   24.01    3.55
  -2  10  -3   29.50    3.43
  -2  10  -3   18.17    2.96
   2 -10  -3   26.71    2.83
 -10  -2  -3   23.08    2.32
  -2  10   3   18.93    3.30
 -10  -2   3   31.80    3.03
  -1  10  -3    0.94    1.51
 -10  -1  -3    1.57    0.90
  10   1  -3   -1.15    1.18
   1 -10  -3   -0.79    1.38
  -1  10  -3   -0.62    1.77
  -1  10  -3   -0.29    1.82
   1 -10   3    1.99    1.40
  -1  10   3    1.25    1.60
 -10  -1   3    0.32    1.36
   0  10  -3   26.43    3.26
   0  10  -3   31.26    3.80
   0  10  -3   28.72    3.80
   0 -10  -3   33.88    3.24
  10   0  -3   30.45    2.68
   0 -10   3   33.09    2.95
   0  10   3   28.06    3.55
 -10   0   3   37.26    3.27
   1  10  -3   -2.87    1.78
   1  10  -3   -1.48    1.55
  10  -1  -3   -1.00    1.19
   1  10  -3    0.25    1.94
  -1 -10  -3    0.76    1.45
   1  10   3   -0.82    1.55
  -1 -10   3    1.13    1.31
 -10   1   3    3.64    1.45
   2  10  -3   17.53    3.20
   2  10  -3   31.08    3.60
  -2 -10  -3   28.14    3.03
   2  10  -3   23.67    3.54
 -10   2   3   26.18    2.99
  -2 -10   3   25.35    2.74
   2  10   3   22.36    3.24
  -3 -10  -3    3.50    1.65
   3  10  -3    0.81    2.12
   3  10  -3   -1.08    2.04
   3  10  -3   -0.68    1.90
  -3 -10   3   -0.73    1.50
   3  10   3   -2.48    2.28
 -10   3   3   -0.75    1.60
   4  10  -3   13.27    2.64
   4  10  -3   21.84    3.69
   4  10  -3   20.49    3.64
  -4 -10  -3   17.14    2.87
   4  10   3   22.74    4.20
   4  10   3   16.49    2.99
 -10   4   3   24.55    3.18
  -4 -10   3   21.68    2.91
  -5 -10  -3   -1.01    1.83
   5  10  -3    3.08    2.56
   5  10  -3    3.60    2.34
   5  10  -3    5.78    2.51
  -5 -10   3    1.81    1.95
   5  10   3   -1.16    2.17
   5  10   3    0.38    3.88
   5  10   3    3.06    2.80
   6  10  -3   14.80    3.19
   6  10  -3    9.99    3.12
  -6 -10  -3   19.02    3.76
   6  10  -3   10.44    3.13
  -6 -10   3   19.19    4.39
   6  10   3   12.52    3.11
  -4  11  -3   -4.27    3.16
  -4  11  -3    4.47    3.00
  -3  11  -3    2.60    2.70
   3 -11  -3    4.13    1.97
  -3  11  -3    8.48    2.49
  -3  11  -3    5.34    2.37
  -3  11   3    4.87    2.42
  -2  11  -3   -1.51    2.42
  -2  11  -3    1.55    2.02
  -2  11  -3    4.72    2.41
 -11  -2   3    3.08    1.96
  -2  11   3   -1.36    2.09
   1 -11  -3    3.63    1.93
  -1  11  -3    4.45    2.54
  -1  11  -3    5.01    2.48
  -1  11  -3    6.69    2.23
 -11  -1   3    6.36    1.95
   1 -11   3    7.49    1.66
  -1  11   3    6.02    2.20
   0 -11  -3   -1.34    1.79
   0  11  -3    0.47    1.92
   0  11  -3   -2.32    2.34
   0  11  -3    1.44    2.41
   0 -11   3    2.25    1.57
 -11   0   3    1.05    1.72
   0  11   3   -1.96    2.03
   1  11  -3    6.98    2.54
   1  11  -3    5.55    2.23
  -1 -11  -3    5.71    2.02
   1  11  -3    6.05    2.44
   1  11   3    4.69    2.16
  -1 -11   3    8.85    1.86
 -11   1   3    8.08    2.01
   2  11  -3    3.17    2.55
  -2 -11  -3   -0.52    1.87
   2  11  -3   -1.86    2.53
   2  11  -3   -2.48    2.12
   2  11   3    4.08    2.24
  -2 -11   3    1.40    1.90
 -11   2   3    3.80    1.96
   3  11  -3    0.59    2.73
   3  11  -3    0.53    2.43
   3  11  -3    5.86    2.83
  -3 -11  -3    2.83    2.09
 -11   3   3    1.59    2.17
  -3 -11   3    6.25    2.18
   3  11   3    2.48    2.49
   3  11   3    7.09    2.46
   4  11  -3    3.29    2.92
   4  11   3   -2.81    2.66
   4  11   3   -1.03    2.72
   0   0  -4   45.23    3.54
   0   0  -4   48.99    3.62
   0   0  -4   45.16    3.61
   0   0  -4   47.59    3.60
   0   0   4   44.99    3.44
   0   0   4   46.76    3.92
   0   0   4   49.72    4.28
   0   0   4   45.30    3.49
   0   1  -4  114.64    8.48
   1   0  -4  130.31    8.62
  -1   0  -4  132.15    8.53
   0  -1  -4  115.59    8.51
  -1   0  -4  137.47    8.50
   1   0  -4  128.13    8.55
   0   1  -4  110.16    8.50
   0  -1  -4  112.74    8.48
  -1   0  -4  139.36    8.54
  -1   0  -4  121.62    8.49
   0   1  -4  111.95    8.50
   0   1   4  127.25    8.49
   1   0   4  118.83    8.41
   0  -1   4  115.04    8.58
   1   0   4  136.21    8.58
  -1   0   4  125.39    8.58
   0   1   4  111.45    8.95
   0  -1   4  120.04    8.49
   0   1   4  122.88    8.46
   1   0   4  140.84    8.58
  -1   0   4  120.72    8.55
  -1   0   4  129.91    8.54
   0   1   4  109.83    8.65
  -1   0   4  117.15    8.47
   0  -1   4  112.18    8.58
   0  -1   4  109.03    8.42
   1   1  -4  121.30    8.84
  -1   1  -4  122.23    8.73
   1  -1  -4  132.77    8.85
   1   1  -4  129.59    8.81
  -1   1  -4  113.31    8.75
   1   1  -4  115.37    8.78
   1  -1  -4  143.33    8.86
   1   1  -4  119.30    8.84
  -1  -1  -4  136.80    8.80
  -1   1  -4  112.07    8.75
   1   1   4  140.26    8.80
   1   1   4  125.85    8.72
  -1   1   4  123.85    8.82
   1   1   4  145.84    8.81
   1  -1   4  105.02    9.39
  -1  -1   4  136.95    8.84
   1  -1   4  132.94    8.69
  -1  -1   4  123.86    8.89
  -1   1   4  114.57    8.77
  -1  -1   4  128.78    8.93
   1  -1   4  123.38    8.71
   2   1  -4   59.79    5.08
   2   1  -4   69.90    5.19
   1  -2  -4   69.19    5.11
   2   1  -4   70.55    5.12
  -1   2  -4   66.35    4.97
   1  -2  -4   65.28    5.09
  -2  -1  -4   67.93    5.05
  -1   2  -4   61.28    5.03
  -1   2  -4   61.84    5.04
   2   1  -4   75.07    5.23
   1  -2   4   72.09    5.23
   1  -2   4   73.82    5.23
   2   1   4   78.56    4.90
  -2  -1   4   75.79    5.26
  -2  -1   4   79.10    5.20
  -2  -1   4   77.80    5.34
  -1   2   4   65.88    5.01
  -2  -1   4   63.16    5.01
  -1   2   4   68.13    5.06
  -1   2   4   71.54    5.07
  -1   2   4   68.46    5.10
   1  -2   4   74.98    4.98
   1  -2   4   72.53    4.92
   0  -2  -4   19.31    2.07
   0  -2  -4   25.30    2.14
   2   0  -4   24.62    2.26
  -2   0  -4   24.14    1.97
   0   2  -4   19.02    2.13
   0   2  -4   18.75    2.15
   0   2   4   21.61    2.05
   2   0   4   27.54    1.85
   0   2   4   23.12    1.99
   0  -2   4   21.52    2.41
   0   2   4   23.48    2.11
  -2   0   4   22.74    2.06
  -2   0   4   27.63    2.39
   0  -2   4   19.48    2.12
   2   0   4   22.70    2.09
  -2   0   4   24.72    2.22
   0  -2   4   22.09    2.49
   2   0   4   25.84    2.29
   0   2   4   23.36    2.14
   2   0   4   26.15    2.30
  -1  -2  -4   64.45    4.78
   1   2  -4   60.16    4.89
  -2   1  -4   75.58    4.78
   1   2  -4   63.37    4.84
   1   2  -4   59.10    4.88
  -1  -2  -4   74.46    4.86
  -2   1  -4   62.19    4.79
  -2   1  -4   65.97    4.71
   2  -1  -4   66.66    4.92
   1   2  -4   66.03    4.82
  -2   1  -4   62.32    4.79
  -1  -2   4   60.95    5.06
   1   2   4   68.33    4.81
  -1  -2   4   62.82    4.73
  -2   1   4   65.54    4.90
  -1  -2   4   65.93    5.06
  -2   1   4   74.68    4.87
   1   2   4   66.69    4.91
  -2   1   4   65.42    4.83
   2  -1   4   76.92    4.93
   1   2   4   66.44    4.72
  -1  -2   4   55.78    4.99
   1   2   4   71.57    4.79
   2  -1   4   72.75    4.92
  -2   1   4   63.44    4.87
   2   2  -4   11.76    1.85
   2  -2  -4   14.27    1.73
  -2   2  -4   13.99    1.58
  -2   2  -4   13.80    1.58
   2  -2  -4   13.73    1.82
   2   2  -4   13.03    1.62
  -2  -2  -4   13.66    1.44
   2   2  -4   10.78    1.84
   2   2  -4   10.71    1.69
  -2  -2  -4   15.88    1.52
  -2  -2   4   12.62    1.52
  -2   2   4   13.35    1.80
   2   2   4   13.92    1.63
  -2  -2   4   12.36    1.73
   2   2   4   15.40    1.34
   2   2   4   14.83    1.38
  -2   2   4   16.22    1.65
  -2  -2   4   13.80    2.13
  -2   2   4   13.26    1.58
   2  -2   4   16.26    2.19
   2   2   4   13.41    1.64
  -2   2   4   12.85    1.69
  -2  -2   4   12.20    1.86
   3   2  -4   80.56    6.10
   3   2  -4   82.75    6.11
  -2   3  -4   81.12    5.80
  -2   3  -4   77.50    5.89
   2  -3  -4   86.27    5.99
  -2   3  -4   81.85    6.07
   2  -3  -4   76.91    6.02
  -3  -2  -4   80.82    5.80
   3   2  -4   78.51    5.99
   3   2  -4   83.47    5.98
  -2   3  -4   79.86    5.90
  -3  -2  -4   85.18    5.84
  -3  -2   4   73.45    6.15
  -2   3   4   81.40    5.97
   2  -3   4   93.19    6.07
   3   2   4   93.52    5.90
  -2   3   4   81.11    5.97
  -3  -2   4   84.66    5.92
  -2   3   4   83.11    5.98
  -3  -2   4   82.28    6.11
  -3  -2   4   75.71    6.13
   3   2   4   86.65    5.72
  -2   3   4   80.62    5.91
   3   2   4   90.08    5.76
   3   1  -4   96.13    7.69
  -3  -1  -4  106.24    7.49
  -1   3  -4  107.83    7.51
  -1   3  -4   99.61    7.51
   3   1  -4  109.04    7.66
   1  -3  -4  109.28    7.61
   3   1  -4  118.33    7.78
  -1   3  -4   98.38    7.56
   3   1  -4  114.59    7.76
  -1   3  -4   98.08    7.55
  -3  -1  -4  107.83    7.43
  -1   3   4   99.95    7.52
   3   1   4  114.53    7.57
  -3  -1   4   99.44    7.55
   1  -3   4  115.93    7.69
  -1   3   4  106.56    7.58
  -1   3   4  103.27    7.58
   1  -3   4  120.96    7.72
  -3  -1   4  109.22    7.74
   1  -3   4  112.57    7.49
  -3  -1   4  111.86    7.77
  -3  -1   4  119.53    7.72
  -1   3   4   96.04    7.58
   0   3  -4  116.29    8.58
   3   0  -4  112.29    8.62
   3   0  -4  135.46    8.69
   0  -3  -4  121.22    8.58
   0   3  -4  123.19    8.54
  -3   0  -4  135.08    8.48
   0   3  -4  121.17    8.55
  -3   0  -4  103.37    8.41
   0  -3  -4  108.94    8.57
   0   3  -4  111.91    8.56
   0   3   4  116.86    8.57
  -3   0   4  108.28    8.56
   0   3   4  122.33    8.56
   0  -3   4  112.67    8.46
   3   0   4  132.98    8.58
   3   0   4  140.28    8.58
  -3   0   4  124.49    8.66
   0  -3   4  133.75    8.74
   0  -3   4  129.47    8.72
   0   3   4  118.24    8.50
  -3   0   4  135.77    8.67
  -3   0   4  121.08    8.67
   0   3   4  125.60    8.55
   0  -3   4  132.82    8.59
  -3   1  -4   99.53    7.16
   1   3  -4   98.08    7.35
  -3   1  -4  105.46    7.19
   3  -1  -4  111.62    7.43
  -3   1  -4   88.60    7.20
  -1  -3  -4   99.39    7.28
   1   3  -4   98.51    7.36
  -3   1  -4   92.03    7.20
  -1  -3  -4  109.08    7.31
   1   3  -4   98.34    7.31
   1   3  -4  102.29    7.32
   3  -1   4  117.50    7.33
   3  -1   4  120.17    7.31
  -1  -3   4  104.36    7.50
  -1  -3   4  100.28    7.54
   1   3   4  102.53    7.23
  -1  -3   4  104.96    7.49
  -3   1   4  100.16    7.33
   1   3   4  101.91    7.31
  -1  -3   4  109.42    7.25
  -3   1   4  103.53    7.41
   1   3   4  104.14    7.30
  -3   1   4  101.22    7.37
  -3   1   4  114.55    7.38
   2   3  -4   74.70    5.62
  -3   2  -4   76.88    5.42
   2   3  -4   79.33    5.62
   2   3  -4   72.23    5.69
   3  -2  -4   81.13    5.70
  -2  -3  -4   75.89    5.51
   2   3  -4   74.04    5.69
   3  -2  -4   90.75    5.82
  -3   2  -4   74.98    5.51
  -2  -3  -4   78.44    5.54
  -3   2  -4   75.90    5.51
   2   3   4   75.77    5.52
   2   3   4   77.92    5.45
  -2  -3   4   69.88    5.84
  -3   2   4   77.13    5.71
  -3   2   4   87.89    5.68
  -3   2   4   76.99    5.62
   2   3   4   84.04    5.53
  -3   2   4   75.60    5.65
  -2  -3   4   76.36    5.87
   2   3   4   74.92    5.52
  -2  -3   4   83.52    5.57
  -2  -3   4   69.51    5.70
  -3   3  -4   90.44    6.26
   3   3  -4   81.73    6.47
  -3   3  -4   93.10    6.38
   3  -3  -4  102.45    6.52
  -3   3  -4   92.23    6.38
  -3   3  -4   84.62    6.29
  -3  -3  -4   88.81    6.32
   3  -3  -4   99.06    6.60
   3   3  -4   94.94    6.50
   3   3  -4   85.31    6.55
   3   3  -4   83.40    6.53
  -3  -3  -4   87.11    6.32
  -3   3   4   99.12    6.52
   3   3   4   86.98    6.30
  -3  -3   4   76.35    6.57
  -3  -3   4   82.52    6.70
   3   3   4   87.12    6.23
  -3   3   4   88.45    6.41
  -3  -3   4   80.53    6.67
  -3   3   4   98.65    6.65
   3   3   4   96.91    6.29
   3   3   4   87.47    6.31
  -3   3   4   95.93    6.53
  -4  -3  -4   54.97    3.99
   3  -4  -4   52.27    4.37
  -4  -3  -4   52.33    3.97
   4   3  -4   53.33    4.66
  -3   4  -4   54.79    3.96
  -3   4  -4   51.57    3.96
  -3   4  -4   58.88    4.11
   4   3  -4   53.00    4.60
  -3   4  -4   58.81    4.12
   4   3  -4   48.02    4.24
   4   3  -4   57.83    4.24
   3  -4  -4   58.54    4.19
   4   3   4   61.92    4.04
  -4  -3   4   47.89    4.64
  -3   4   4   54.65    4.24
  -4  -3   4   46.28    4.56
  -4  -2  -4   11.59    1.26
  -2   4  -4   11.13    1.33
   2  -4  -4   10.64    1.56
   2  -4  -4    9.04    1.82
  -2   4  -4    9.60    1.60
   4   2  -4    8.87    1.63
   4   2  -4    9.26    1.49
  -2   4  -4   10.01    1.60
   4   2  -4    8.73    1.40
  -4  -2  -4   10.13    1.19
  -2   4  -4    8.96    1.34
   4   2  -4    9.00    1.70
  -4  -2   4    7.15    1.81
   2  -4   4    8.25    1.45
  -2   4   4   10.41    1.64
  -4  -2   4    9.12    2.27
  -4  -2   4    9.27    1.63
  -4  -2   4   11.45    1.54
  -2   4   4   11.09    1.52
   4   2   4    8.01    1.55
   4   2   4    7.84    1.16
  -1   4  -4   53.79    3.92
   4   1  -4   54.43    4.15
   1  -4  -4   57.08    4.04
  -4  -1  -4   55.12    3.79
  -4  -1  -4   55.00    3.83
  -1   4  -4   51.55    4.04
   1  -4  -4   46.16    4.13
  -1   4  -4   49.99    3.93
   4   1  -4   47.49    4.08
  -1   4  -4   53.88    4.05
  -1   4   4   46.81    4.03
  -4  -1   4   55.67    4.24
   1  -4   4   50.54    3.81
   4   1   4   52.66    3.89
  -4  -1   4   52.61    4.00
  -4  -1   4   50.81    4.29
   1  -4   4   54.53    3.93
   4   1   4   55.59    3.84
  -4  -1   4   54.90    4.35
   1  -4   4   56.82    4.33
  -1   4   4   54.46    3.97
   0   4  -4   14.84    1.95
   4   0  -4   17.87    2.07
  -4   0  -4   16.13    1.49
   0  -4  -4   15.60    1.89
   0   4  -4   17.41    1.78
   0   4  -4   17.59    1.75
   4   0  -4   14.15    2.08
   0  -4  -4   15.72    1.82
   0   4  -4   17.34    1.96
  -4   0  -4   20.83    1.59
   0   4   4   15.50    1.85
   0  -4   4   13.35    2.36
  -4   0   4   19.60    2.25
  -4   0   4   21.51    2.27
  -4   0   4   19.90    2.13
   0   4   4   18.15    1.77
   0  -4   4   15.84    2.34
  -4   0   4   20.21    1.87
   0  -4   4   16.93    1.97
   0  -4   4   15.81    1.65
   4  -1  -4   42.80    3.83
   1   4  -4   48.08    3.73
  -4   1  -4   51.48    3.51
  -1  -4  -4   52.13    3.71
  -4   1  -4   45.96    3.56
   4  -1  -4   39.71    3.87
   1   4  -4   48.88    3.74
  -4   1  -4   46.59    3.50
  -1  -4  -4   49.02    3.72
   1   4  -4   51.96    3.85
  -4   1  -4   48.47    3.57
   1   4  -4   51.19    3.85
  -1  -4   4   58.16    4.11
  -4   1   4   46.11    3.77
  -4   1   4   47.12    3.90
  -4   1   4   43.25    3.88
  -4   1   4   49.01    3.83
   1   4   4   54.90    3.68
  -1  -4   4   47.59    3.92
   1   4   4   50.90    3.76
  -4   2  -4    8.45    1.37
   2   4  -4    9.76    1.80
   2   4  -4    9.03    1.60
  -2  -4  -4    7.62    1.47
   2   4  -4    6.84    1.48
  -2  -4  -4    9.23    1.43
  -4   2  -4    9.48    1.07
  -4   2  -4    7.41    1.34
   2   4  -4    8.68    1.37
   4  -2  -4    9.98    1.60
  -4   2   4    9.00    1.51
  -2  -4   4    9.64    1.53
   2   4   4    9.20    1.45
   3   4  -4   47.34    4.28
   3   4  -4   50.25    4.28
  -4   3  -4   52.70    3.82
  -4   3  -4   53.91    3.86
  -3  -4  -4   54.70    4.01
   4  -3  -4   53.89    4.14
  -3  -4  -4   58.31    4.00
   3   4  -4   44.97    4.13
  -4   3  -4   55.60    4.00
  -4   3  -4   57.22    4.00
   3   4   4   52.19    3.94
   3   4   4   56.56    3.99
   3   4   4   50.85    3.99
   3   4   4   53.62    3.89
  -4   3   4   57.69    4.20
  -4   4  -4    7.48    1.12
   4  -4  -4   11.61    1.84
  -4  -4  -4    7.42    1.40
  -4  -4  -4    6.98    1.27
   4  -4  -4    9.06    1.34
  -4   4  -4    7.24    1.51
   4   4  -4    5.47    1.39
  -4   4  -4    8.29    1.55
  -4   4  -4    8.53    1.53
   4   4  -4    5.67    1.57
   4   4   4    9.44    1.47
   4   4   4    7.10    1.43
  -4   4   4    7.00    1.36
   4   4   4    8.10    1.14
  -4  -4   4    4.54    1.80
  -4  -4   4    4.39    1.74
   4   4   4    5.84    1.06
  -5  -4  -4   23.22    2.37
   5   4  -4   23.48    2.99
  -5  -4  -4   25.39    2.32
   4  -5  -4   32.01    2.61
   5   4  -4   22.13    2.76
  -4   5  -4   31.31    2.56
  -4   5  -4   28.65    2.24
  -4   5  -4   28.15    2.30
   5   4  -4   22.73    3.10
   5   4  -4   28.43    3.13
  -4   5  -4   27.65    2.56
  -5  -4   4   23.22    3.51
  -4   5   4   27.00    2.72
  -5  -4   4   21.47    3.40
  -5  -4   4   23.67    3.59
  -3   5  -4   52.61    3.91
   3  -5  -4   58.68    4.09
  -5  -3  -4   51.47    3.87
  -3   5  -4   55.44    4.07
  -3   5  -4   50.48    4.05
  -5  -3  -4   54.55    3.87
   5   3  -4   58.04    4.46
   5   3  -4   53.85    4.48
  -3   5  -4   53.06    3.89
  -3   5   4   48.29    4.17
  -5  -3   4   45.75    4.65
  -5  -3   4   43.73    4.67
  -2   5  -4   41.16    3.12
  -5  -2  -4   39.33    2.82
   5   2  -4   35.89    3.18
   5   2  -4   36.38    3.55
  -5  -2  -4   31.95    2.78
   5   2  -4   39.75    3.56
   2  -5  -4   29.77    3.49
  -2   5  -4   34.34    2.94
   5   2  -4   32.43    3.24
  -2   5  -4   42.29    3.14
   2  -5  -4   43.61    3.12
  -2   5  -4   36.67    2.93
  -5  -2   4   33.99    3.71
  -5  -2   4   36.19    3.67
  -2   5   4   33.97    3.14
   2  -5   4   36.65    2.71
  -5  -2   4   36.46    3.07
  -5  -1  -4   62.97    4.37
   5   1  -4   58.20    4.71
  -1   5  -4   59.48    4.56
  -1   5  -4   58.67    4.67
  -1   5  -4   61.18    4.69
  -1   5  -4   63.52    4.57
  -5  -1  -4   71.48    4.41
   1  -5  -4   67.26    4.65
   5   1  -4   56.66    4.78
   1  -5   4   60.30    4.57
  -5  -1   4   62.73    5.02
  -5  -1   4   62.89    4.65
  -1   5   4   58.87    4.59
  -1   5   4   55.98    4.66
   1  -5   4   62.89    4.43
  -5  -1   4   62.19    4.98
   0   5  -4   50.55    3.94
   0  -5  -4   57.85    3.97
   0   5  -4   52.28    3.93
   0   5  -4   54.81    4.04
  -5   0  -4   44.80    3.68
   5   0  -4   49.71    4.07
   0   5  -4   54.17    4.04
  -5   0  -4   49.05    3.62
   5   0  -4   45.80    4.09
   0   5   4   51.63    3.92
  -5   0   4   49.18    4.24
   0  -5   4   52.44    4.32
  -5   0   4   49.09    4.24
  -5   0   4   50.02    3.96
   0   5   4   47.03    3.98
   0  -5   4   60.93    4.40
  -5   1  -4   55.75    4.21
   1   5  -4   58.18    4.45
   5  -1  -4   63.28    4.64
   1   5  -4   62.38    4.59
  -5   1  -4   51.34    4.21
   5  -1  -4   59.14    4.63
   1   5  -4   57.71    4.57
   1   5  -4   59.62    4.45
  -1  -5  -4   53.84    4.46
  -1  -5  -4   64.85    4.44
   1   5   4   60.01    4.50
  -5   1   4   55.59    4.68
  -5   1   4   57.95    4.71
  -1  -5   4   55.40    4.60
  -5   1   4   61.23    4.51
   1   5   4   65.10    4.41
   2   5  -4   40.98    3.34
   5  -2  -4   39.33    3.19
   5  -2  -4   32.14    3.36
   2   5  -4   41.07    3.34
   2   5  -4   36.96    3.15
  -2  -5  -4   38.55    3.00
  -2  -5  -4   39.06    3.08
  -5   2  -4   31.44    2.86
  -5   2   4   35.47    3.37
  -5   2   4   39.76    3.19
  -5   2   4   32.84    3.30
  -2  -5   4   34.33    3.44
   2   5   4   37.27    3.10
   2   5   4   40.55    3.00
  -5   3  -4   54.31    3.85
  -5   3  -4   54.21    3.83
   3   5  -4   50.04    4.19
  -3  -5  -4   48.99    3.91
   3   5  -4   42.75    4.01
  -3  -5  -4   56.30    3.90
  -5   3  -4   49.48    3.64
   5  -3  -4   56.89    4.06
  -5   3  -4   47.61    3.64
   3   5  -4   50.89    4.18
  -5   3   4   57.15    4.11
  -3  -5   4   47.18    4.47
  -5   3   4   47.10    4.21
   3   5   4   54.23    3.84
   3   5   4   50.09    3.93
  -3  -5   4   43.38    4.39
   4   5  -4   30.92    2.88
  -4  -5  -4   27.32    2.40
  -5   4  -4   25.52    2.12
  -4  -5  -4   26.85    2.56
   4   5  -4   27.14    3.04
   4   5  -4   28.57    3.04
  -5   4  -4   27.66    2.46
  -5   4  -4   24.91    2.46
   5  -4  -4   26.42    2.59
   4   5  -4   20.20    2.72
  -4  -5   4   21.70    3.46
   4   5   4   24.69    2.46
   4   5   4   28.35    2.30
  -5   4   4   27.74    2.73
  -4  -5   4   30.47    2.54
   5   5  -4   30.27    3.41
  -5   5  -4   35.70    2.95
  -5   5  -4   33.65    2.63
  -5   5  -4   32.08    2.68
  -5  -5  -4   37.66    2.84
  -5   5  -4   34.68    2.90
   5  -5  -4   35.70    3.00
   5   5  -4   28.91    3.47
  -5  -5  -4   32.18    2.98
  -5  -5   4   39.76    3.05
   5   5   4   32.07    2.61
  -5   5   4   34.51    3.24
   5   5   4   34.03    2.81
   5   5   4   28.42    2.79
  -5   6  -4   17.14    2.28
   5  -6  -4   25.39    2.44
  -5   6  -4   22.20    2.47
  -5   6  -4   21.92    2.03
   6   5  -4   24.86    3.15
  -5   6  -4   22.40    2.40
  -6  -5  -4   19.06    3.26
  -6  -5  -4   22.96    2.22
   5  -6  -4   19.37    3.85
   6   5  -4   21.79    3.29
  -5   6   4   21.85    2.74
   6   4  -4    4.91    1.63
  -6  -4  -4    4.88    0.98
  -4   6  -4    4.79    1.13
  -6  -4  -4    5.11    1.11
  -4   6  -4    3.23    1.20
   4  -6  -4    4.81    1.26
   6   4  -4    2.61    1.77
   6   4  -4    3.22    1.76
   4  -6  -4    1.18    1.95
   6   4  -4    5.19    1.99
  -4   6  -4    5.62    0.99
  -4   6  -4    4.94    1.09
  -4   6   4    3.90    1.57
  -3   6  -4   42.01    3.39
  -3   6  -4   36.34    3.36
   6   3  -4   42.34    3.98
  -6  -3  -4   34.32    3.06
   6   3  -4   41.80    3.93
   3  -6  -4   31.86    3.85
   6   3  -4   36.12    3.67
  -6  -3  -4   43.57    3.07
  -3   6  -4   39.40    3.24
  -3   6  -4   39.10    3.13
   3  -6  -4   47.35    3.37
  -3   6   4   39.92    3.52
  -6  -2  -4    8.21    1.17
  -2   6  -4    7.21    1.30
   6   2  -4    4.02    1.80
  -2   6  -4    5.65    1.19
   2  -6  -4    7.03    1.29
   6   2  -4    4.82    1.64
  -6  -2  -4    8.66    1.17
   2  -6  -4    4.65    1.78
  -2   6  -4    6.87    1.39
   2  -6   4    4.34    1.22
  -2   6   4    5.90    1.30
  -6  -2   4   10.02    1.97
   2  -6   4    8.73    1.14
  -6  -2   4    5.63    1.89
  -2   6   4    7.07    1.37
  -6  -2   4    8.49    1.68
  -6  -1  -4   53.35    3.38
  -1   6  -4   43.58    3.77
   1  -6  -4   41.03    4.35
  -1   6  -4   51.81    3.82
  -6  -1  -4   45.12    3.34
   1  -6  -4   51.81    3.71
   6   1  -4   45.63    3.88
  -1   6  -4   45.85    3.60
   6   1  -4   38.03    3.92
  -1   6  -4   47.63    3.78
  -6  -1   4   47.70    4.37
  -1   6   4   42.64    3.77
  -6  -1   4   47.17    3.72
  -6  -1   4   47.88    4.30
   1  -6   4   40.17    3.74
   0  -6  -4    8.17    1.32
   0   6  -4    7.40    1.44
   0   6  -4    7.83    1.66
   0   6  -4    5.90    1.35
   6   0  -4   10.09    1.59
   0   6  -4    8.14    1.29
   6   0  -4    8.33    1.53
   0   6   4    6.77    1.38
   0  -6   4    5.03    1.51
  -6   0   4   13.11    2.42
   0   6   4    8.37    1.64
   1   6  -4   50.17    3.84
  -1  -6  -4   49.28    3.59
   6  -1  -4   41.88    3.78
  -6   1  -4   44.93    3.21
   1   6  -4   45.25    3.68
   6  -1  -4   51.77    4.09
   1   6  -4   46.77    3.79
   1   6  -4   42.45    3.62
  -6   1   4   44.01    3.66
   1   6   4   43.32    3.68
  -1  -6   4   38.43    3.93
   1   6   4   45.92    3.63
  -6   1   4   40.59    4.02
  -6   1   4   41.25    3.99
   6  -2  -4    4.84    1.84
  -6   2  -4    5.73    0.89
  -2  -6  -4    6.18    1.37
  -2  -6  -4    7.26    1.22
   2   6  -4    6.23    1.35
   2   6  -4    5.76    1.48
   6  -2  -4    8.01    1.48
   2   6  -4    7.23    1.51
  -6   2  -4    8.15    1.27
  -6   2  -4    6.56    1.23
  -2  -6   4    4.09    1.75
   2   6   4    5.57    1.20
  -2  -6   4    8.38    1.50
   2   6   4    7.34    1.38
  -6   2   4    6.11    1.31
  -6   2   4    7.08    1.44
  -6   2   4    9.14    1.80
  -6   2   4    7.36    1.66
   6  -3  -4   39.48    3.24
  -6   3  -4   34.11    2.79
  -3  -6  -4   43.15    3.19
  -6   3  -4   40.87    3.09
   3   6  -4   32.89    3.40
  -6   3  -4   37.63    2.95
  -6   3  -4   38.66    3.07
  -3  -6  -4   41.10    3.89
   3   6  -4   38.05    3.60
   3   6  -4   42.20    3.62
   6  -3  -4   29.94    3.68
  -3  -6   4   41.56    3.19
  -6   3   4   41.34    3.41
   3   6   4   36.59    3.30
   3   6   4   39.54    3.36
   4   6  -4    4.58    1.69
  -6   4  -4    5.36    0.77
  -6   4  -4    6.12    1.09
  -6   4  -4    5.25    1.08
  -6   4  -4    5.27    1.07
   4   6  -4    3.29    1.84
   4   6  -4    3.35    1.68
   6  -4  -4    5.87    2.30
   6  -4  -4    3.36    1.20
  -4  -6  -4    4.29    1.10
  -6   4   4    4.40    1.33
  -4  -6   4    5.47    1.34
   4   6   4    4.04    1.28
   4   6   4    4.71    1.14
  -6   5  -4   19.39    2.05
   6  -5  -4   23.96    2.36
   5   6  -4   19.21    3.41
  -5  -6  -4   22.84    2.25
  -6   5  -4   23.20    2.34
  -6   5  -4   22.76    2.36
  -6   5  -4   21.65    1.89
   5   6  -4   22.67    3.65
  -6   5   4   22.86    2.99
   5   6   4   18.16    2.28
  -5  -6   4   21.61    2.40
   6   6  -4   -0.12    1.98
   6   6  -4    2.89    1.64
  -6   6  -4    2.11    1.17
  -6  -6  -4    2.62    1.18
   6   6  -4    2.04    2.14
   6  -6  -4    0.55    1.91
  -6   6  -4    3.51    1.25
  -6   6  -4    2.80    0.90
  -6   6  -4    2.37    1.12
  -6   6   4    1.28    1.48
  -6  -6   4    3.91    1.38
   7   6  -4   12.20    2.68
   7   6  -4   15.43    2.68
  -6   7  -4   13.98    1.89
  -6   7  -4   15.32    2.84
  -7  -6   4   15.94    2.47
   7   5  -4   15.59    2.91
  -5   7  -4   23.06    3.08
   7   5  -4   21.18    3.49
  -7  -5  -4   17.40    2.11
   5  -7  -4   18.50    2.35
  -5   7  -4   19.54    2.57
  -5   7  -4   22.27    2.03
  -5   7   4   16.65    2.73
   7   4  -4   10.96    2.64
  -4   7  -4   18.14    1.83
  -7  -4  -4   11.65    1.83
   7   4  -4   15.12    3.18
   4  -7  -4   15.58    2.09
  -4   7  -4   16.01    2.32
   7   4  -4   16.98    3.27
  -7  -4  -4   13.35    2.03
  -4   7  -4   19.09    2.32
  -4   7  -4   19.99    2.34
  -4   7   4   14.11    2.40
  -7  -3  -4   24.51    2.45
  -3   7  -4   27.23    2.49
  -3   7  -4   30.85    2.91
   7   3  -4   27.19    3.18
  -7  -3  -4   30.09    2.36
  -3   7  -4   24.50    2.81
   7   3  -4   28.95    3.19
  -3   7  -4   29.72    2.82
  -3   7   4   26.55    2.87
  -2   7  -4   24.64    2.66
  -7  -2  -4   22.09    2.03
   2  -7  -4   19.35    3.07
  -2   7  -4   26.74    2.74
  -2   7  -4   26.45    2.80
   2  -7   4   22.75    2.01
  -7  -2   4   23.99    2.63
  -1   7  -4   37.01    3.41
   7   1  -4   39.75    3.82
   1  -7  -4   39.46    3.30
  -1   7  -4   39.80    3.48
  -7  -1  -4   41.94    2.82
  -1   7  -4   34.17    3.14
  -7  -1   4   40.66    3.34
  -1   7   4   31.03    3.39
   1  -7   4   34.41    3.67
   0  -7  -4   28.01    2.67
   0   7  -4   30.13    2.67
   0   7  -4   32.62    3.02
   7   0  -4   27.85    2.98
   7   0  -4   24.97    2.94
  -7   0   4   30.97    2.76
   0   7   4   27.85    2.96
   0   7   4   20.79    2.83
   0  -7   4   25.10    3.25
   1   7  -4   32.13    3.33
   7  -1  -4   42.02    3.64
   7  -1  -4   42.93    3.49
   1   7  -4   36.35    3.56
   1   7  -4   35.98    3.61
  -1  -7  -4   40.90    3.33
   1   7   4   36.52    3.48
  -1  -7   4   39.62    3.15
   1   7   4   35.84    4.40
  -7   1   4   43.57    3.48
   2   7  -4   28.54    2.99
   7  -2  -4   26.10    3.15
   2   7  -4   27.71    3.02
   2   7  -4   23.46    3.12
   7  -2  -4   27.07    2.64
  -2  -7  -4   25.71    2.58
   2   7   4   18.65    2.66
  -2  -7   4   17.39    4.28
  -2  -7   4   24.09    2.46
  -7   2   4   27.31    2.68
   3   7  -4   26.25    3.04
   3   7  -4   19.86    4.45
  -3  -7  -4   33.37    3.25
   7  -3  -4   29.39    3.46
  -7   3  -4   30.62    2.48
  -7   3  -4   28.41    2.43
   7  -3  -4   29.92    2.77
  -3  -7   4   19.63    3.73
   3   7   4   26.24    2.81
   3   7   4   24.93    2.85
  -7   3   4   31.98    3.28
  -7   4  -4   14.43    1.97
  -7   4  -4   14.80    2.00
   4   7  -4   15.50    2.52
  -4  -7  -4   12.79    2.45
  -7   4  -4   15.87    1.50
   4   7  -4   21.31    3.34
  -7   4  -4   14.15    1.73
   7  -4  -4   12.40    2.98
   4   7  -4   22.66    3.32
   7  -4  -4   14.50    2.11
  -7   4   4   16.34    2.54
   4   7   4   15.70    2.29
   4   7   4   12.12    2.31
  -4  -7   4   17.57    2.11
  -7   5  -4   20.18    1.84
   5   7  -4   14.77    3.18
  -7   5  -4   22.04    2.29
  -5  -7  -4   21.25    2.49
  -7   5  -4   21.47    2.36
  -7   5  -4   21.30    2.06
   5   7  -4   15.09    2.79
   7  -5  -4   20.33    2.38
   5   7  -4   19.83    3.19
  -5  -7   4   20.79    2.44
  -7   5   4   17.88    2.69
   5   7   4   24.23    2.32
   5   7   4   19.39    2.53
   6   7  -4   19.62    3.31
   6   7  -4   12.82    2.46
  -7   6  -4   11.29    1.67
  -7   6  -4   14.82    2.20
  -7   6  -4   12.76    2.24
   6   7  -4    7.23    2.05
   7  -6  -4   11.98    2.30
  -6  -7   4   12.89    2.47
  -7   6   4   10.33    2.06
  -7   7  -4   10.16    1.96
   7  -7  -4   10.95    2.28
   7   7  -4    9.72    2.71
  -7   7  -4   15.47    2.58
   7   7  -4   11.64    2.47
   7   7  -4   10.13    2.47
  -7  -7  -4   15.10    2.41
  -7   7  -4   13.07    2.21
  -7   7   4   17.19    3.10
  -7  -7   4   13.19    2.68
  -7   8  -4    6.50    1.97
   8   7  -4    5.80    2.95
  -8  -7  -4    8.98    1.95
   8   7  -4    8.17    3.09
   7  -8  -4    5.74    1.75
  -7   8  -4    3.91    2.03
   8   7  -4    7.43    2.70
  -7   8   4    2.62    2.41
  -8  -7   4    8.67    2.30
   6  -8  -4    0.37    1.46
   8   6  -4    1.04    2.63
   8   6  -4    1.57    2.58
  -6   8  -4   -0.63    1.63
  -8  -6  -4    3.13    1.53
  -6   8  -4    3.53    1.36
  -6   8  -4    3.15    1.59
   8   6  -4    1.79    2.13
  -6   8   4    2.29    1.99
  -8  -5  -4   10.17    1.91
  -5   8  -4    6.72    1.66
  -5   8  -4    6.48    1.74
   5  -8  -4    6.85    1.56
   8   5  -4   11.10    2.68
   8   5  -4    5.36    2.17
  -5   8  -4    8.03    1.42
  -5   8   4    7.36    1.93
  -4   8  -4    3.15    1.15
  -4   8  -4    3.28    1.44
  -4   8  -4    2.02    1.47
   4  -8  -4    0.57    1.28
   8   4  -4    3.40    1.93
  -8  -4  -4    1.19    1.05
  -4   8   4   -0.64    1.41
  -8  -3  -4    9.40    1.52
   8   3  -4    7.68    2.36
   3  -8  -4   11.00    2.15
  -3   8  -4   11.31    1.89
  -3   8  -4   11.86    1.80
  -3   8  -4    8.86    1.75
  -3   8   4   11.33    1.89
  -2   8  -4    1.54    1.34
  -8  -2  -4    1.94    0.82
  -8  -2  -4    1.04    1.08
   8   2  -4   -1.65    1.71
  -2   8  -4    1.83    1.20
   2  -8  -4    1.89    1.30
   8   2  -4    1.88    1.90
  -2   8  -4    0.77    1.38
  -2   8   4    1.09    1.43
   2  -8   4    0.14    1.72
  -8  -2   4    1.67    1.31
  -8  -1  -4    9.25    1.48
  -1   8  -4    9.32    1.80
  -8  -1  -4   13.73    1.31
   8   1  -4   11.57    2.11
  -1   8  -4   15.09    2.42
  -1   8  -4   10.80    1.79
  -1   8   4   11.30    1.87
   1  -8   4    8.68    2.12
  -8  -1   4   15.02    2.17
   0  -8  -4    3.50    1.33
   0   8  -4    2.90    1.47
   8   0  -4    1.18    1.47
   8   0  -4    1.71    1.52
   0   8  -4    2.37    1.52
  -8   0  -4    2.85    0.71
   0  -8   4   -1.75    1.93
  -8   0   4    4.28    1.42
   0   8   4    0.43    1.42
   1   8  -4   15.95    2.66
   8  -1  -4   13.03    2.70
   1   8  -4   11.31    2.23
  -1  -8  -4   13.54    2.13
   8  -1  -4   10.38    1.78
   1   8  -4   11.86    2.58
   1   8   4   11.15    1.89
  -8   1   4   17.55    2.70
  -1  -8   4    4.23    4.02
   2   8  -4    0.97    1.59
   8  -2  -4    3.25    1.32
   8  -2  -4    1.89    1.66
   2   8  -4    0.23    1.43
  -2  -8  -4    3.84    1.30
   2   8  -4    1.67    1.63
   2   8   4    1.50    1.54
  -2  -8   4    2.64    1.29
  -8   2   4    2.82    1.33
   8  -3  -4   10.55    2.22
   8  -3  -4   10.34    1.88
  -3  -8  -4   12.11    2.04
  -8   3  -4    8.85    1.53
   3   8  -4   11.37    2.14
   3   8  -4    8.92    2.03
   3   8  -4    9.64    1.85
  -8   3  -4   11.57    1.62
   3   8   4    6.63    3.12
  -8   3   4   10.69    2.25
   3   8   4    4.90    2.80
  -4  -8  -4    0.94    1.31
  -8   4  -4    1.72    1.10
   4   8  -4    1.43    1.90
  -8   4  -4    1.39    1.06
   8  -4  -4    0.89    1.17
   4   8  -4    3.38    1.94
   8  -4  -4    3.18    2.93
   4   8  -4    1.93    1.70
  -8   4   4    1.30    1.43
   4   8   4    0.66    2.50
   4   8   4    0.34    1.79
  -4  -8   4    1.43    1.33
  -8   5  -4   12.35    2.10
   5   8  -4   10.35    2.27
   5   8  -4    6.75    2.13
   5   8  -4    7.14    2.12
   8  -5  -4    6.33    1.54
  -8   5  -4   12.35    2.10
  -5  -8  -4    9.55    1.80
  -8   5   4    7.36    1.85
   5   8   4   10.72    1.80
  -5  -8   4   10.41    1.78
  -8   6  -4    2.22    1.44
  -6  -8  -4   -0.92    1.55
   6   8  -4    2.71    2.09
   6   8  -4    0.56    2.34
   6   8  -4    0.41    2.33
  -8   6  -4    1.00    1.46
   6   8   4    5.83    2.10
  -8   6   4    0.02    1.83
  -6  -8   4    1.48    1.79
  -7  -8  -4    2.53    1.93
  -8   7  -4    4.29    1.80
   8  -7  -4    2.81    1.76
   7   8  -4    6.77    2.70
   7   8  -4    9.16    2.95
  -8   7  -4    5.97    1.95
   7   8  -4   10.36    2.63
  -8   7   4    0.75    2.36
   6  -9  -4    5.51    1.95
   9   6  -4    4.26    2.86
  -6   9  -4    4.56    2.17
  -9  -6  -4    5.88    1.93
  -6   9  -4    4.39    2.21
  -6   9  -4    4.71    2.31
  -6   9   4    3.15    2.42
   9   5  -4   13.29    2.64
  -5   9  -4   12.06    2.22
  -9  -5  -4    7.64    2.50
  -5   9  -4    9.79    2.25
   5  -9  -4    9.80    1.96
  -5   9  -4   10.47    1.86
  -5   9   4    6.60    2.30
   9   4  -4   11.33    2.60
  -4   9  -4   12.53    2.20
   4  -9  -4   12.52    2.56
  -4   9  -4   14.24    2.37
  -4   9  -4   15.11    3.02
  -4   9   4    8.75    2.22
  -9  -3  -4   11.56    1.85
  -3   9  -4   16.75    2.99
   3  -9  -4   15.28    2.41
  -3   9  -4   11.33    2.10
  -3   9  -4   13.47    2.18
  -9  -3   4   15.31    2.68
  -3   9   4   10.93    2.19
  -2   9  -4   12.86    2.10
   2  -9  -4   10.03    1.88
  -2   9  -4   13.78    2.85
  -9  -2  -4   13.26    1.66
  -2   9  -4   11.70    2.33
   9   2  -4    8.66    3.06
  -9  -2   4   15.45    2.51
  -2   9   4   11.45    2.14
  -9  -1  -4   16.56    1.76
  -1   9  -4   15.28    2.49
   1  -9  -4   22.79    2.76
  -1   9  -4   20.36    3.01
   9   1  -4   18.54    3.04
  -1   9  -4   22.01    2.93
  -1   9   4   13.48    2.31
  -9  -1   4   23.56    2.76
   0   9  -4   20.65    3.00
   0  -9  -4   16.28    2.58
   0   9  -4   12.50    2.62
   9   0  -4   20.11    2.75
   0   9  -4   19.04    3.05
  -9   0   4   17.78    2.58
  -1  -9  -4   24.37    2.73
   1   9  -4   14.46    2.76
   9  -1  -4   20.96    2.69
   1   9  -4   19.62    3.36
   1   9  -4   28.09    3.35
  -9   1   4   17.86    2.76
   1   9   4   16.07    2.91
  -1  -9   4   22.92    2.40
  -2  -9  -4   14.85    2.39
   2   9  -4   15.11    3.10
   2   9  -4   13.44    2.15
   2   9  -4   10.42    2.29
   9  -2  -4   13.41    2.27
  -9   2   4   16.08    2.56
   2   9   4    9.93    2.07
   3   9  -4   11.82    2.27
   3   9  -4   10.52    2.42
   3   9  -4   15.55    3.26
  -3  -9  -4   14.23    2.45
   9  -3  -4   12.95    2.16
  -3  -9   4   17.74    2.45
  -9   3   4   17.98    2.70
   3   9   4   14.37    2.86
   4   9  -4   11.19    2.38
   4   9  -4   16.39    3.45
   9  -4  -4   10.22    2.09
   4   9  -4    9.28    2.49
  -9   4   4   17.08    2.75
  -4  -9   4   12.30    2.44
   5   9  -4    7.61    2.46
   5   9  -4   10.38    2.69
   9  -5  -4   13.52    2.29
   5   9  -4    9.23    2.66
  -5  -9  -4    8.04    2.03
   5   9   4    3.99    2.20
   5   9   4    9.72    2.35
  -5  -9   4    7.42    2.01
  -6  -9  -4    3.99    2.20
   6   9  -4    3.93    3.04
   6   9  -4    6.71    2.96
  -9   6   4    9.45    2.41
  -6  -9   4    2.69    2.19
   4 -10  -4    4.82    2.01
  -4  10  -4    1.36    2.30
  10   4  -4    3.34    2.88
  -4  10  -4    3.81    2.46
  -4  10  -4    1.60    2.05
  -4  10   4    1.74    2.42
  -3  10  -4    4.57    1.99
   3 -10  -4    4.43    1.89
  10   3  -4    5.78    2.61
  -3  10  -4    4.53    2.36
  -3  10  -4    8.18    2.35
 -10  -3   4    5.51    2.17
  -3  10   4    3.13    2.30
  10   2  -4   -0.40    2.34
   2 -10  -4    4.09    1.86
  -2  10  -4   -1.81    2.09
  -2  10  -4   -0.88    2.07
  -2  10  -4    1.49    1.83
  -2  10   4    0.24    2.06
 -10  -2   4   -0.31    1.90
   1 -10  -4    7.84    1.94
  -1  10  -4    4.22    2.00
  10   1  -4   10.47    3.66
  -1  10  -4    7.28    2.25
  -1  10  -4    7.29    2.25
 -10  -1   4    6.47    1.86
  -1  10   4    3.99    2.11
  10   0  -4    3.54    1.75
   0  10  -4    2.57    2.31
   0  10  -4    0.19    2.20
   0 -10  -4    5.20    1.80
   0  10   4   -0.71    1.97
 -10   0   4    2.80    1.74
   1  10  -4    4.55    2.11
   1  10  -4    9.76    2.42
  -1 -10  -4    5.44    1.97
   1  10  -4    9.18    2.39
  10  -1  -4    7.36    1.69
 -10   1   4    8.63    1.97
   1  10   4    6.89    2.13
  -1 -10   4    8.04    1.65
  10  -2  -4   -0.09    1.60
  -2 -10  -4    1.76    1.77
   2  10  -4    1.01    2.12
   2  10  -4   -3.25    2.35
   2  10  -4   -0.41    2.41
   2  10   4    0.00    2.03
 -10   2   4    1.76    1.75
  -2 -10   4    2.69    1.62
   3  10  -4    5.68    2.71
  -3 -10  -4    3.84    1.93
   3  10  -4    4.13    2.37
   3  10  -4    3.57    2.58
 -10   3   4    0.65    1.93
   3  10   4    1.02    2.22
  -3 -10   4    8.28    1.93
  -4 -10  -4    2.14    2.55
   4  10  -4   -1.65    2.75
   4  10  -4    6.82    2.79
   4  10  -4    2.90    2.59
   4  10   4    1.33    2.46
   4  10   4   -1.22    3.25
  -4 -10   4    3.54    2.04
 -10   4   4    1.93    2.10
  -1  11  -4    6.40    2.60
   1 -11  -4    2.62    2.47
  -1  11  -4    6.83    2.89
  -1  11  -4    7.63    3.04
  -1  11   4    5.65    3.55
 -11  -1   4    7.01    2.39
   0  11  -4    1.11    2.67
   0 -11  -4    2.36    2.54
   0  11  -4    3.67    2.72
   0  11  -4   -0.99    2.69
 -11   0   4    4.67    2.38
   0  11   4    2.32    2.71
   1  11  -4    4.23    2.81
  -1 -11  -4    7.09    3.14
   1  11  -4    6.39    3.22
   1  11  -4    9.57    3.17
 -11   1   4    8.56    2.41
   1  11   4    5.47    2.74
  -1 -11   4    7.47    2.13
   0   0  -5    4.04    1.14
   0   0   5    5.00    1.30
   0   0   5    4.64    1.30
   0   0   5    3.94    1.42
   0   0   5    6.63    1.28
  -1   0  -5   97.18    7.20
   0   1  -5   96.41    7.19
  -1   0  -5  105.56    7.22
   1   0  -5  104.22    7.27
   0  -1  -5  106.80    7.26
   0  -1  -5   99.76    7.22
   0   1  -5   93.56    7.24
   0   1  -5   95.16    7.25
   0  -1   5  101.87    7.25
   0  -1   5   98.96    7.11
  -1   0   5  102.26    7.24
   0   1   5   95.64    7.27
   0   1   5  104.61    7.22
   1   0   5  104.56    7.12
  -1   0   5  104.10    7.38
  -1   0   5   97.83    7.16
   1   0   5  108.47    7.35
   0   1   5  113.35    7.20
   1   0   5  109.59    7.36
   0   1   5   99.13    7.28
   1   0   5  108.98    7.17
   0  -1   5   94.81    7.40
   0  -1   5   89.01    7.35
  -1   0   5   98.57    7.31
   1   1  -5   57.66    4.02
   1   1  -5   57.41    4.02
  -1   1  -5   51.77    3.89
   1  -1  -5   57.41    3.98
  -1  -1  -5   43.78    3.80
  -1  -1  -5   53.06    3.86
   1   1  -5   48.61    3.89
   1   1  -5   42.07    3.89
  -1   1  -5   50.40    3.87
  -1   1  -5   47.38    3.79
   1   1   5   53.01    4.00
  -1  -1   5   46.29    4.01
   1  -1   5   46.90    3.67
  -1  -1   5   42.35    3.75
  -1  -1   5   48.65    4.18
  -1  -1   5   47.21    4.11
   1   1   5   50.85    3.75
   1   1   5   58.52    3.78
  -1   1   5   45.76    3.95
  -1   1   5   47.44    3.82
   1   1   5   56.84    4.05
  -1   1   5   50.03    4.01
   1  -1   5   43.64    4.16
   1  -1   5   41.59    3.74
   1  -1   5   46.16    4.21
  -1   2  -5   91.26    7.00
   2   1  -5  111.25    7.18
  -1   2  -5   91.34    7.01
  -1   2  -5   95.05    6.99
   2   1  -5  113.80    7.20
  -2  -1  -5   88.42    7.08
  -2  -1  -5  113.35    7.02
   1  -2  -5   86.92    7.03
  -1   2  -5   95.46    6.95
   2   1  -5  106.42    7.08
   1  -2  -5   99.20    7.12
   1  -2   5   90.20    6.92
  -1   2   5   84.18    7.02
  -1   2   5   91.83    7.07
  -2  -1   5   98.29    7.20
  -2  -1   5  106.01    7.30
  -2  -1   5   82.61    6.94
  -1   2   5  113.32    7.05
   1  -2   5   88.34    7.27
  -2  -1   5  104.64    7.11
  -1   2   5   95.31    6.99
   1  -2   5   91.72    7.24
   1  -2   5  113.83    6.87
   2   1   5   96.30    6.83
  -2   0  -5    2.95    1.00
   2   0   5    6.81    1.48
   0   2   5    1.63    1.09
  -2   0   5    4.26    1.16
  -2   0   5    4.39    1.01
  -2   0   5    3.83    1.29
   2   0   5    4.36    1.40
   1   2  -5   90.05    7.00
  -1  -2  -5  100.30    6.99
  -1  -2  -5   84.54    6.90
   1   2  -5  100.51    7.04
  -2   1  -5  107.51    6.87
  -2   1  -5  104.91    6.93
   1   2  -5   97.62    7.01
   1   2  -5  100.16    6.96
  -2   1  -5  103.99    6.92
  -2   1   5   98.11    7.05
   2  -1   5   92.66    7.17
  -2   1   5  100.10    6.97
   1   2   5   92.79    6.95
   1   2   5   93.29    6.87
   1   2   5   96.39    6.95
   1   2   5  105.68    6.97
  -1  -2   5   92.96    7.21
   2  -1   5   92.69    7.18
   2  -1   5   84.08    6.67
  -1  -2   5   90.82    7.19
  -1  -2   5  100.70    7.14
   2  -1   5   99.53    6.88
  -2   1   5   95.50    7.02
  -2   2  -5   -1.07    0.91
   2  -2  -5    1.55    1.18
  -2   2  -5   -0.05    1.02
   2   2  -5    2.64    1.29
   2   2  -5   -1.43    1.14
  -2  -2  -5    0.12    0.93
  -2   2  -5   -0.85    0.85
   2   2  -5    0.42    1.00
  -2  -2  -5    1.22    0.95
  -2   2   5    1.69    1.11
  -2   2   5    2.45    0.97
   2   2   5   -0.32    0.78
   2  -2   5   -0.91    1.36
  -2  -2   5   -2.85    2.63
   2  -2   5   -1.90    1.34
   2   2   5    1.06    1.07
  -2   2   5    1.94    1.20
  -2  -2   5    0.42    0.89
   2   2   5   -0.37    0.77
  -2  -2   5   -1.33    1.64
  -2   2   5    0.29    0.99
  -2  -2   5   -1.02    1.21
   3   2  -5   67.42    5.14
  -3  -2  -5   59.88    4.79
   3   2  -5   66.03    5.16
   2  -3  -5   59.79    5.02
  -2   3  -5   65.49    4.80
  -3  -2  -5   64.33    4.84
  -2   3  -5   66.40    4.90
   3   2  -5   63.14    4.97
  -2   3  -5   66.05    4.91
  -2   3  -5   59.31    4.90
   2  -3   5   71.38    5.32
  -2   3   5   69.19    5.33
  -3  -2   5   64.00    4.90
  -3  -2   5   60.40    5.16
   3   2   5   78.29    6.03
   3   2   5   76.04    4.63
  -2   3   5   60.22    4.96
   2  -3   5   70.54    5.35
  -2   3   5   66.37    5.14
   3   2   5   54.88    4.60
  -2   3   5   66.96    4.96
  -3  -1  -5   25.46    2.35
  -1   3  -5   27.23    2.36
   1  -3  -5   22.26    2.54
   3   1  -5   25.92    2.58
   3   1  -5   26.94    2.89
  -1   3  -5   24.17    2.57
  -1   3  -5   25.56    2.56
  -1   3  -5   27.45    2.56
  -3  -1   5   20.34    2.41
   1  -3   5   27.34    3.14
  -1   3   5   25.07    2.43
   1  -3   5   30.47    2.18
  -1   3   5   22.69    2.47
  -3  -1   5   25.34    2.76
   1  -3   5   23.27    2.40
   1  -3   5   22.28    3.04
   3   1   5   32.63    3.70
  -1   3   5   22.35    2.63
   3   1   5   29.47    3.09
  -1   3   5   23.51    2.73
   0   3  -5   56.22    4.30
  -3   0  -5   52.90    4.04
   0   3  -5   54.06    4.29
   0  -3  -5   45.50    4.19
   0   3  -5   55.02    4.26
   0  -3  -5   52.75    4.22
   0   3  -5   56.04    4.14
   0  -3   5   50.77    4.67
  -3   0   5   54.28    4.14
   0   3   5   54.80    4.26
   3   0   5   59.67    5.83
   3   0   5   67.04    5.89
  -3   0   5   56.31    4.31
   0  -3   5   52.49    4.01
   0   3   5   55.47    4.25
   0  -3   5   50.12    4.62
   0   3   5   51.74    4.17
   0  -3   5   51.42    4.67
   0   3   5   54.87    4.12
   1   3  -5   26.56    2.37
  -3   1  -5   29.24    2.35
  -1  -3  -5   20.90    2.38
   1   3  -5   25.80    2.63
   3  -1  -5   29.82    2.63
  -3   1  -5   25.72    2.30
  -1  -3  -5   22.47    2.38
  -3   1  -5   25.10    2.19
   1   3  -5   22.86    2.60
  -3   1  -5   24.69    2.28
   1   3  -5   23.84    2.59
   1   3   5   23.42    2.52
  -1  -3   5   25.85    2.25
   1   3   5   20.32    2.29
  -1  -3   5   22.87    3.16
   3  -1   5   22.48    2.82
  -3   1   5   25.55    2.56
   3  -1   5   18.23    2.85
  -1  -3   5   26.66    3.15
   1   3   5   22.68    2.25
   1   3   5   23.05    2.51
  -1  -3   5   23.54    2.73
  -2  -3  -5   59.08    4.58
   2   3  -5   63.51    4.82
  -3   2  -5   59.10    4.52
   2   3  -5   60.39    4.63
  -2  -3  -5   66.58    4.62
   2   3  -5   63.34    4.78
  -3   2  -5   60.76    4.42
   3  -2  -5   54.74    4.72
  -3   2  -5   59.26    4.54
   2   3   5   57.06    4.61
   2   3   5   57.61    4.41
  -3   2   5   71.42    4.66
   2   3   5   56.39    4.60
  -2  -3   5   57.20    4.84
  -2  -3   5   68.37    4.59
  -3   2   5   59.46    4.71
   2   3   5   52.64    4.47
  -3  -3  -5   12.01    1.82
  -3   3  -5   16.41    1.98
  -3   3  -5   16.19    1.99
  -3  -3  -5   12.11    1.87
  -3   3  -5   14.47    1.70
   3   3  -5   12.75    2.36
   3  -3  -5   13.22    2.25
  -3   3  -5   18.21    2.00
   3   3  -5   12.93    2.32
   3   3  -5   12.82    2.05
  -3  -3   5   13.36    2.12
  -3  -3   5   16.19    1.91
   3   3   5   12.90    2.64
   3   3   5   12.27    2.66
   3   3   5   12.34    1.57
  -3   3   5   16.14    1.97
  -4  -3  -5   39.88    3.73
   4   3  -5   47.08    4.35
   3  -4  -5   48.64    4.09
  -3   4  -5   48.58    3.91
  -3   4  -5   52.78    3.72
  -3   4  -5   45.98    3.79
  -3   4  -5   46.13    3.89
  -4  -3  -5   48.96    3.75
   4   3  -5   45.78    4.26
   3  -4  -5   47.00    4.29
   4   3  -5   40.01    3.97
   4   3  -5   50.99    4.24
  -4  -3   5   42.07    4.65
   4   3   5   56.58    3.98
  -3   4   5   46.14    3.96
  -3   4   5   44.10    4.01
   4   3   5   53.84    3.99
  -4  -3   5   53.43    3.93
   4   2  -5   -2.22    1.97
  -2   4  -5   -0.48    1.10
  -2   4  -5   -0.95    1.02
  -4  -2  -5   -1.24    0.96
   4   2  -5   -0.60    1.46
  -4  -2  -5   -0.56    0.90
  -2   4  -5   -1.36    1.03
   4   2  -5    0.89    1.23
  -2   4  -5    1.90    0.93
  -4  -2   5    0.91    1.04
  -2   4   5   -0.77    1.01
   4   2   5    0.33    1.34
   4   2   5   -0.72    1.29
  -1   4  -5   71.19    5.21
   1  -4  -5   69.19    5.23
  -1   4  -5   69.01    5.20
   4   1  -5   66.74    5.28
  -4  -1  -5   68.45    4.99
  -1   4  -5   71.50    5.07
  -4  -1  -5   63.80    4.96
  -1   4  -5   70.44    5.20
   4   1   5   66.91    5.18
  -1   4   5   67.67    5.18
  -1   4   5   72.61    5.40
  -4  -1   5   62.81    5.12
  -1   4   5   62.53    5.14
   4   1   5   69.27    5.24
   1  -4   5   73.73    5.83
  -1   4   5   68.21    5.26
   1  -4   5   76.55    5.91
   1  -4   5   63.41    4.88
  -4   0  -5    2.69    0.88
  -4   0  -5    1.93    0.92
   0  -4  -5    0.40    1.12
   0   4  -5   -1.09    1.10
   0   4  -5   -0.24    1.16
   0   4  -5    0.63    1.13
   0   4  -5    2.06    1.02
   0  -4  -5    0.13    1.05
   0  -4   5    0.68    0.84
   0   4   5   -0.74    0.93
   0  -4   5    0.61    1.56
   0   4   5    1.10    1.14
   0   4   5   -1.39    0.97
   0   4   5   -0.29    1.21
   4   0   5    0.68    1.29
   4   0   5    1.64    1.23
  -1  -4  -5   57.57    5.18
  -4   1  -5   69.66    5.03
   1   4  -5   68.52    5.19
  -1  -4  -5   72.19    5.25
  -4   1  -5   72.69    5.03
   1   4  -5   63.96    5.31
  -4   1  -5   71.12    5.05
   4  -1  -5   69.35    5.33
   1   4  -5   69.04    5.31
  -4   1  -5   76.91    4.99
   1   4  -5   68.26    5.31
  -4   1   5   75.40    5.25
   1   4   5   66.89    5.24
  -1  -4   5   67.68    5.05
   1   4   5   70.92    5.12
   1   4   5   63.02    5.17
   2   4  -5   -0.93    1.29
  -2  -4  -5   -0.43    1.03
  -4   2  -5   -0.42    0.79
   2   4  -5   -1.15    1.26
   2   4  -5   -0.11    1.05
  -2  -4  -5   -1.89    1.14
  -4   2  -5   -1.23    0.90
   4  -2  -5   -0.11    1.21
  -4   2   5   -0.96    1.46
   2   4   5    2.47    1.20
  -2  -4   5    0.90    0.96
  -2  -4   5   -1.49    1.46
   2   4   5    1.81    1.18
   2   4   5    0.38    0.94
  -4   3  -5   45.07    3.62
  -4   3  -5   47.62    3.63
  -3  -4  -5   52.06    3.69
   3   4  -5   35.52    3.75
   3   4  -5   39.30    4.03
  -4   3  -5   43.76    3.43
  -4   3  -5   42.15    3.57
   4  -3  -5   40.99    3.88
  -3  -4  -5   41.62    3.69
   3   4  -5   40.90    4.01
  -3  -4   5   53.24    3.78
   3   4   5   44.78    3.72
   3   4   5   41.45    3.45
  -4   3   5   50.93    4.22
  -4   3   5   50.09    3.78
   3   4   5   49.55    3.75
   4  -4  -5    1.66    3.35
  -4  -4  -5   -1.03    1.01
   4  -4  -5   -1.48    1.31
   4   4  -5   -1.14    1.55
  -4   4  -5    0.16    0.90
  -4  -4  -5    0.76    1.22
  -4   4  -5   -0.56    1.04
  -4   4  -5   -0.77    1.06
   4   4  -5   -0.36    1.31
   4   4  -5    0.77    1.59
   4   4   5   -0.50    1.43
   4   4   5   -1.00    0.77
   4   4   5    0.94    1.29
  -4   4   5   -1.06    1.13
   4   4   5   -1.35    0.86
  -4  -4   5   -0.34    1.13
  -5  -4  -5   32.83    3.20
   5   4  -5   29.91    3.61
   5   4  -5   26.59    5.07
  -5  -4  -5   38.16    3.09
  -4   5  -5   37.49    3.33
  -4   5  -5   36.81    3.29
   5   4  -5   40.81    4.47
   4  -5  -5   33.26    4.66
  -4   5  -5   34.70    3.00
   5   4   5   40.52    3.28
  -4   5   5   42.05    3.48
  -3   5  -5   11.65    2.21
   5   3  -5   15.66    2.88
   5   3  -5   17.35    2.85
   5   3  -5   14.41    2.46
  -5  -3  -5   16.02    1.92
  -3   5  -5   14.55    2.17
  -3   5  -5   13.56    1.88
   3  -5  -5   11.72    2.28
  -5  -3  -5   13.04    1.78
  -3   5  -5   17.70    2.26
  -3   5   5   13.43    2.29
  -5  -2  -5   54.27    4.10
  -2   5  -5   52.99    4.16
   2  -5  -5   61.44    4.46
   5   2  -5   58.79    5.30
   5   2  -5   47.45    4.44
  -5  -2  -5   58.72    4.11
  -2   5  -5   51.61    4.36
  -2   5  -5   53.80    4.37
  -2   5   5   53.28    4.60
  -5  -2   5   54.24    4.33
  -2   5   5   48.24    4.36
   5   1  -5   22.85    2.74
  -1   5  -5   21.91    2.64
  -5  -1  -5   27.43    2.21
  -5  -1  -5   25.05    2.21
  -1   5  -5   21.15    2.59
  -1   5  -5   21.50    2.65
   1  -5  -5   26.94    2.65
  -1   5  -5   25.24    2.40
  -5  -1   5   21.63    4.25
  -1   5   5   19.44    2.46
  -5  -1   5   20.89    2.47
   1  -5   5   18.77    2.06
   0   5  -5   53.45    4.07
   0   5  -5   52.45    4.25
   5   0  -5   52.44    4.33
   0   5  -5   49.87    4.30
  -5   0  -5   56.44    3.86
   0   5  -5   55.84    4.29
   5   0  -5   46.59    5.30
  -5   0  -5   44.69    3.82
   0   5   5   45.23    4.82
   0  -5   5   51.29    3.90
   0   5   5   53.66    4.16
  -5   0   5   50.81    4.14
  -5   1  -5   24.80    2.12
  -5   1  -5   22.04    2.67
   5  -1  -5   28.94    2.99
   1   5  -5   26.89    2.88
  -1  -5  -5   29.00    2.64
  -1  -5  -5   21.50    3.39
   1   5  -5   24.41    2.60
   1   5  -5   23.93    2.78
   5  -1  -5   19.77    3.36
   1   5   5   19.48    2.94
   1   5   5   22.39    2.60
   1   5   5   23.29    2.85
  -1  -5   5   22.40    2.32
  -5   1   5   29.66    2.64
  -5   2  -5   43.02    3.79
   5  -2  -5   51.69    4.61
   2   5  -5   46.33    4.07
  -5   2  -5   48.97    3.82
   2   5  -5   54.63    4.35
  -2  -5  -5   56.37    4.03
   5  -2  -5   49.46    4.29
  -5   2  -5   49.94    3.67
   2   5  -5   49.79    4.31
  -2  -5   5   54.10    3.94
   2   5   5   46.52    4.12
   2   5   5   49.04    4.19
   2   5   5   45.70    4.16
  -5   3  -5   17.51    1.95
   3   5  -5   11.01    1.91
   3   5  -5   11.71    2.62
  -5   3  -5   13.88    1.60
   5  -3  -5   16.41    2.48
  -3  -5  -5   16.35    2.02
  -5   3  -5   16.22    1.98
  -5   3  -5   11.72    1.88
   3   5  -5   10.78    2.08
  -3  -5   5   16.87    2.07
  -3  -5   5    8.54    2.43
   3   5   5   14.65    2.01
   3   5   5   16.67    2.51
   3   5   5   13.20    2.41
   4   5  -5   29.82    3.40
  -4  -5  -5   40.52    3.18
   5  -4  -5   31.17    4.44
  -5   4  -5   30.71    3.01
  -5   4  -5   38.91    2.88
  -5   4  -5   39.09    3.18
  -5   4  -5   39.12    3.18
  -5   4   5   38.62    3.44
   4   5   5   33.02    3.38
   4   5   5   32.53    2.95
   5   5  -5   11.81    2.06
  -5   5  -5   16.74    2.20
  -5  -5  -5   12.07    1.95
   5   5  -5   11.32    2.28
  -5   5  -5   12.58    2.19
  -5   5  -5   12.99    2.06
   5  -5  -5   10.15    1.90
  -5   5  -5   12.43    1.73
   5   5  -5   11.24    2.33
  -5   5   5   10.68    1.83
   5   5   5   13.19    2.44
  -5   6  -5   19.96    2.15
   6   5  -5   16.96    3.14
   5  -6  -5   23.27    2.81
  -5   6  -5   14.61    2.58
  -5   6  -5   23.51    2.72
  -5   6  -5   24.50    2.72
   6   5  -5   16.74    3.42
   6   5  -5   19.07    2.90
  -6  -5  -5   19.52    2.33
  -5   6   5   20.65    2.86
  -4   6  -5   -0.10    1.28
   6   4  -5   -1.09    1.56
   6   4  -5   -2.35    2.03
  -6  -4  -5   -0.81    1.03
  -4   6  -5   -0.19    1.05
   6   4  -5   -1.53    1.96
  -4   6  -5    0.34    1.28
  -4   6  -5    0.37    1.35
  -6  -4   5    0.04    1.40
  -4   6   5    0.56    1.43
   6   3  -5   24.46    3.07
  -3   6  -5   24.00    2.89
  -3   6  -5   25.78    2.90
  -3   6  -5   25.64    2.53
   3  -6  -5   30.28    2.94
  -6  -3  -5   27.18    2.43
  -6  -3  -5   21.05    2.58
  -6  -3   5   31.54    2.90
  -3   6   5   23.89    2.90
  -2   6  -5    1.71    1.31
  -6  -2  -5   -0.41    0.92
   2  -6  -5    4.76    1.54
  -6  -2  -5   -0.12    1.05
  -2   6  -5    1.14    1.27
  -2   6   5    1.44    1.49
  -6  -2   5    0.11    1.34
  -6  -1  -5   26.13    2.62
   6   1  -5   27.99    3.22
  -1   6  -5   33.18    2.90
  -1   6  -5   29.74    3.14
  -1   6  -5   34.98    3.21
  -6  -1  -5   32.67    2.59
  -1   6   5   25.18    3.10
   1  -6   5   31.58    2.57
   0   6  -5    2.22    1.23
   6   0  -5    0.29    1.54
   0  -6  -5    4.43    1.69
   0   6  -5    1.94    1.39
  -6   0  -5    0.04    0.95
   0   6  -5    1.97    1.43
   6   0  -5    2.20    2.44
  -6   0   5   -1.61    1.78
   0   6   5    1.75    1.30
   0   6   5    5.30    1.67
  -1  -6  -5   39.19    3.34
   1   6  -5   34.30    3.52
   1   6  -5   28.66    3.10
   6  -1  -5   35.92    4.16
  -6   1  -5   34.40    2.61
   6  -1  -5   28.88    3.44
   1   6  -5   34.89    3.68
  -1  -6   5   35.02    2.93
  -6   1   5   23.50    4.38
   6  -2  -5   -0.04    1.56
  -2  -6  -5    3.53    1.39
  -6   2  -5   -0.46    0.90
  -6   2  -5    0.05    0.74
   6  -2  -5    1.18    3.03
   2   6   5    2.63    1.34
  -6   2   5   -0.07    1.48
  -6   3  -5   24.87    2.37
  -6   3  -5   24.58    2.06
   3   6  -5   20.60    2.75
   3   6  -5   28.98    3.30
   6  -3  -5   16.96    3.80
  -3  -6  -5   25.45    3.02
  -6   3  -5   18.28    2.31
   3   6  -5   21.88    3.27
  -6   3  -5   22.08    2.39
   3   6   5   24.95    3.13
   3   6   5   23.91    2.68
   3   6   5   25.16    2.99
  -6   3   5   27.69    2.75
  -6   4  -5   -0.98    1.04
  -6   4  -5   -0.90    1.09
  -6   4  -5   -0.99    1.11
  -6   4  -5   -1.36    0.88
   4   6  -5   -0.95    1.85
   6  -4  -5   -1.88    1.42
   4   6  -5   -1.03    1.85
   4   6  -5   -0.83    1.53
   4   6   5    3.91    1.64
   4   6   5   -0.27    1.33
   4   6   5    1.64    1.32
   4   6   5    3.39    1.70
  -6   4   5    0.12    1.27
  -6   5  -5   22.79    2.48
   5   6  -5   16.69    3.29
  -6   5  -5   14.74    2.53
  -6   5  -5   20.80    2.51
  -5  -6  -5   20.12    2.91
   5   6  -5   16.44    3.05
   6  -5  -5   20.82    2.66
  -6   5  -5   18.24    2.12
   5   6  -5   18.14    3.36
  -6   5   5   21.19    2.77
   5   6   5   17.33    2.24
   6   6  -5    1.31    2.28
  -6   6  -5    0.42    1.71
  -6   6  -5   -0.05    1.45
   6   6  -5   -2.17    1.87
   6   6  -5    1.58    2.09
  -6  -6  -5   -0.92    1.36
  -6   6  -5   -1.33    1.20
   6  -6  -5    1.85    1.65
  -6   6   5    0.43    1.70
  -7  -6  -5    7.92    1.85
  -6   7  -5    9.22    2.01
   7   6  -5   11.75    2.95
  -6   7  -5   11.16    2.02
   7   6  -5    8.36    2.54
   7   6  -5   11.70    2.79
  -6   7  -5   10.37    1.75
   6  -7  -5    9.24    2.08
  -6   7   5   11.30    2.35
   7   5  -5    4.44    2.41
  -7  -5  -5    5.55    1.67
   7   5  -5    6.42    2.50
   5  -7  -5    5.17    1.83
  -5   7  -5    5.84    1.67
   7   5  -5    5.69    2.12
  -5   7  -5    5.02    1.65
  -5   7  -5    5.51    1.38
  -5   7   5    3.04    1.90
  -7  -4  -5   22.45    2.29
   4  -7  -5   19.77    2.77
  -4   7  -5   19.59    2.81
  -4   7  -5   19.17    2.33
   7   4  -5   19.38    3.70
  -4   7  -5   21.53    2.89
   7   4  -5   18.45    3.19
  -7  -4   5   25.45    2.97
  -4   7   5   18.31    2.95
   7   3  -5    7.33    2.14
  -3   7  -5   12.29    1.91
  -7  -3  -5    5.61    1.50
  -3   7  -5   12.32    2.44
  -7  -3  -5    8.30    1.65
   3  -7  -5    8.59    1.80
  -3   7  -5    9.59    1.76
  -3   7   5    4.85    1.68
  -7  -3   5   13.06    2.37
  -2   7  -5   24.06    3.09
  -2   7  -5   25.46    3.08
   2  -7  -5   27.91    2.97
  -7  -2  -5   25.46    2.59
   7   2  -5   23.13    3.34
  -2   7  -5   23.78    2.61
  -7  -2  -5   27.32    2.42
  -7  -2   5   29.42    2.96
  -1   7  -5   10.42    1.97
   7   1  -5   14.29    2.78
  -7  -1  -5   14.68    1.67
  -1   7  -5   11.71    1.81
  -7  -1  -5   13.15    2.07
   1  -7  -5   14.57    2.35
  -1   7  -5   11.92    2.57
   1  -7   5    8.61    4.31
   1  -7   5   13.11    1.76
  -7  -1   5   16.69    2.37
  -7   0  -5   27.41    2.33
   7   0  -5   25.88    3.83
   0   7  -5   28.32    3.24
  -7   0  -5   22.46    2.49
   0   7  -5   28.81    3.25
   0  -7  -5   28.80    2.97
  -7   0   5   33.41    3.03
   0  -7   5   29.82    2.61
  -1  -7  -5    9.92    1.83
  -7   1  -5   11.74    1.60
   1   7  -5   13.73    2.72
   1   7  -5   15.71    2.36
  -7   1  -5   14.91    1.74
   1   7  -5   16.14    2.75
   7  -1  -5   10.62    2.48
  -7   1   5   15.21    2.30
   2   7  -5   27.31    3.38
   2   7  -5   25.73    3.39
  -2  -7  -5   30.30    2.95
   7  -2  -5   25.49    3.47
  -7   2  -5   22.57    2.54
   2   7  -5   25.04    2.97
   2   7   5   24.75    3.23
  -7   2   5   28.87    2.96
   3   7  -5    5.98    2.03
   3   7  -5   10.08    2.15
  -7   3  -5    8.50    1.75
  -7   3  -5    7.61    1.43
  -7   3  -5    9.93    1.78
   3   7  -5    8.48    1.87
   7  -3  -5    7.45    1.86
  -3  -7  -5    7.78    1.60
  -7   3   5    9.34    1.74
   3   7   5    5.13    1.72
   4   7  -5   16.97    3.41
   4   7  -5   15.98    2.47
  -7   4  -5   20.57    2.41
  -7   4  -5   17.31    1.93
  -7   4  -5   20.44    2.39
   7  -4  -5   17.45    2.71
  -4  -7  -5   16.41    2.56
   4   7  -5   18.40    3.48
  -7   4   5   21.44    2.77
  -7   5  -5    6.95    1.56
   5   7  -5    5.36    2.41
   7  -5  -5    6.36    1.80
   5   7  -5    7.04    2.45
   5   7  -5    4.65    2.11
  -7   5  -5    5.55    1.47
  -5  -7  -5    5.18    1.64
   5   7   5    3.75    1.72
  -7   5   5    5.59    1.78
   6   7  -5   14.31    2.84
   6   7  -5    6.42    2.50
   6   7  -5   10.13    2.74
  -6  -7  -5    7.89    1.93
   7  -6  -5    9.56    2.02
  -7   6  -5   13.81    2.40
  -7   6   5   10.08    2.36
  -7  -7  -5    0.34    1.98
  -7   7  -5    5.01    2.09
   7   7  -5    8.18    3.03
   7   7  -5    1.96    3.06
   7   7  -5    2.53    2.64
   7  -7  -5    1.36    2.01
  -7   7  -5    2.25    2.03
  -7   7   5    1.06    2.53
   6  -8  -5   -2.94    2.00
  -6   8  -5   -1.07    2.12
   8   6  -5   -1.08    3.15
   8   6  -5   -2.26    2.61
  -6   8  -5   -0.48    2.11
  -6   8   5   -2.24    2.41
  -5   8  -5   10.41    2.08
   8   5  -5   10.57    2.69
  -8  -5  -5    6.53    2.18
   5  -8  -5    6.97    2.10
  -5   8  -5   10.41    2.08
  -5   8   5    8.60    2.34
  -8  -4  -5   -0.94    1.33
  -4   8  -5    0.34    1.70
   4  -8  -5   -2.08    1.70
   8   4  -5   -2.05    2.04
  -4   8  -5   -0.75    2.63
  -4   8  -5    2.29    1.65
  -8  -4   5   -0.94    1.86
  -4   8   5   -0.16    1.87
  -8  -3  -5   18.06    2.18
  -3   8  -5   21.20    2.94
   8   3  -5   13.66    2.59
  -3   8  -5   18.64    2.63
   3  -8  -5   16.99    3.00
  -3   8  -5   19.28    3.05
  -8  -3   5   21.89    3.01
  -3   8   5   12.36    2.42
   2  -8  -5   -1.09    1.62
   8   2  -5   -3.43    1.90
  -2   8  -5   -0.48    1.66
  -2   8  -5    1.24    1.75
  -2   8  -5    1.00    1.44
  -8  -2  -5   -0.61    1.03
  -8  -2   5    1.87    1.62
   1  -8  -5   27.71    3.11
  -1   8  -5   20.76    2.78
  -1   8  -5   25.61    3.14
  -1   8  -5   21.27    3.19
  -8  -1  -5   20.79    2.12
   8   1  -5   18.19    2.86
   1  -8   5   19.50    2.26
  -8  -1   5   24.19    2.95
  -8   0  -5   -0.45    0.91
   0   8  -5    2.38    1.58
   0  -8  -5   -0.71    1.51
   8   0  -5   -0.56    1.81
   0   8  -5   -0.10    1.71
   0   8  -5    2.75    1.73
  -8   0   5    4.70    1.54
   0  -8   5    1.13    1.26
   0   8   5   -1.87    1.58
   1   8  -5   20.10    2.93
  -1  -8  -5   20.35    2.85
   1   8  -5   21.51    3.47
   1   8  -5   22.82    3.38
   8  -1  -5   15.96    3.12
   1   8   5   14.71    2.90
  -8   1   5   26.42    2.86
  -2  -8  -5    1.53    1.55
   8  -2  -5    0.20    1.70
   2   8  -5    2.23    1.97
   2   8  -5    3.28    1.73
   2   8  -5    3.48    2.08
  -8   2   5    1.32    1.52
   2   8   5    0.23    1.64
  -3  -8  -5   21.18    2.73
   3   8  -5   22.08    3.71
   3   8  -5   14.67    3.09
   8  -3  -5   14.32    2.91
   3   8  -5   19.47    3.69
  -8   3   5   20.19    2.91
   4   8  -5   -0.47    2.32
  -8   4  -5   -1.18    1.49
  -4  -8  -5   -2.94    1.69
   4   8  -5    2.58    2.12
   8  -4  -5    1.51    1.77
   4   8  -5   -1.85    2.45
  -8   4   5   -0.98    1.61
  -8   5  -5   11.43    2.30
   5   8  -5   13.35    3.03
   5   8  -5    8.86    3.02
   8  -5  -5   11.32    2.10
   5   8  -5    5.36    2.47
  -5  -8  -5    7.74    2.09
  -8   5   5    8.97    2.19
   5   8   5    8.88    2.51
  -6  -8  -5   -1.53    2.07
   6   8  -5    3.82    2.84
   6   8  -5   -2.26    2.96
   6   8  -5    4.31    3.09
  -8   6   5   -1.16    2.27
  -5   9  -5    2.40    2.46
   9   5  -5    9.04    3.10
  -5   9  -5    3.55    2.55
  -5   9  -5   -0.97    2.26
   5  -9  -5   -1.56    2.24
  -9  -5   5    5.06    3.38
  -5   9   5    1.07    3.33
   9   4  -5    9.37    2.89
  -4   9  -5    8.11    2.29
   4  -9  -5    5.67    2.27
  -4   9  -5    5.36    2.09
  -4   9  -5    7.66    2.32
  -9  -4   5    6.28    2.41
  -4   9   5    1.95    2.36
  -3   9  -5    2.36    2.18
  -3   9  -5    3.05    1.83
   9   3  -5    3.42    2.52
   3  -9  -5    3.01    2.08
  -3   9  -5    4.75    2.19
  -3   9   5   -1.30    2.11
  -9  -3   5    3.20    2.20
  -2   9  -5   10.02    2.24
  -2   9  -5    9.24    2.03
   2  -9  -5    7.03    2.18
   9   2  -5    6.41    2.57
  -2   9  -5    7.62    2.24
  -2   9   5    4.43    2.29
  -9  -2   5    8.99    2.25
  -1   9  -5    1.03    1.87
   9   1  -5    3.43    2.26
  -1   9  -5    1.55    2.02
   1  -9  -5    3.27    1.98
  -1   9  -5    1.83    2.11
   1  -9   5    5.33    1.44
  -1   9   5    4.16    2.13
  -9  -1   5    4.43    1.90
   0   9  -5   10.18    2.23
   0   9  -5   14.10    2.42
   0   9  -5   10.26    2.42
   0  -9  -5    9.61    2.19
   9   0  -5   12.38    2.60
   0   9   5    8.27    2.26
   0  -9   5   11.96    2.87
   1   9  -5    4.81    2.42
   1   9  -5    4.48    2.37
  -1  -9  -5    2.05    1.91
   1   9  -5    5.62    2.09
   9  -1  -5    3.59    2.34
   1   9   5    1.13    2.03
  -9   1   5    7.13    1.89
   2   9  -5    9.65    2.30
   9  -2  -5    4.75    2.45
   2   9  -5   10.48    2.71
   2   9  -5   10.40    2.68
  -2  -9  -5   10.27    2.21
   2   9   5    6.05    2.26
  -9   2   5    6.38    2.03
   3   9  -5    1.17    2.65
   3   9  -5    4.33    2.27
   9  -3  -5    1.11    2.04
  -3  -9  -5   -0.43    1.98
   3   9   5   -1.98    2.07
  -9   3   5    3.53    2.03
   4   9  -5    6.34    2.88
   4   9  -5    9.37    2.71
   9  -4  -5    7.31    2.15
   4   9  -5    6.16    2.96
  -4  -9  -5    4.99    2.19
  -9   4   5    7.30    2.29
   4   9   5    3.86    2.42
  -5  -9  -5    1.83    2.41
   5   9  -5   -1.75    4.17
   5   9  -5    2.46    3.17
   5   9  -5    8.77    3.19
   9  -5  -5    4.77    2.70
  -9   5   5    6.03    2.56
  -2  10  -5   -0.70    2.42
  10   2  -5   -1.94    3.05
  -2  10  -5    1.29    2.74
   2 -10  -5    1.62    2.49
  -2  10  -5    4.04    3.21
  -2  10   5    1.84    2.67
 -10  -2   5    1.14    2.64
  -1  10  -5    7.89    2.85
  10   1  -5    8.85    3.09
   1 -10  -5    9.87    2.61
  -1  10  -5    6.91    2.72
  -1  10  -5    6.07    2.58
  -1  10   5    3.96    2.58
 -10  -1   5    6.48    2.59
   0  10  -5    1.92    2.65
   0  10  -5   -1.27    2.69
   0  10  -5   -1.29    2.38
  10   0  -5   -3.22    2.61
   0 -10  -5   -0.98    2.25
   0  10   5    1.52    2.39
 -10   0   5    0.55    2.30
  10  -1  -5    6.35    2.74
   1  10  -5    8.63    2.77
   1  10  -5    4.36    2.99
   1  10  -5    9.78    3.05
  -1 -10  -5    8.42    2.67
 -10   1   5   10.22    2.47
   1  10   5    3.75    2.61
   2  10  -5    4.43    3.15
   2  10  -5    1.61    3.18
   2  10  -5    8.82    3.19
  -2 -10  -5    0.08    2.66
  10  -2  -5   -2.46    2.79
   2  10   5    2.04    2.66
 -10   2   5   -2.06    2.25
   0   0  -6  156.66   10.10
   0   0   6  131.98   10.26
   0   0   6  150.28    9.99
   0   0   6  143.45   10.03
   0   0   6  131.08   10.24
   0   1  -6   11.79    2.13
   0   1  -6   12.26    1.81
  -1   0  -6    8.40    1.72
   1   0  -6   12.27    1.94
   1   0   6   11.12    1.63
  -1   0   6    7.22    1.57
   1   0   6    8.51    1.82
   0  -1   6   10.50    1.66
  -1   0   6   12.56    1.70
  -1  -1  -6   26.15    2.83
  -1   1  -6   25.66    2.81
  -1   1  -6   25.13    2.74
   1   1  -6   24.92    2.63
   1   1  -6   24.77    2.87
   1  -1  -6   29.10    2.73
  -1   1  -6   26.68    2.56
  -1  -1  -6   28.57    2.72
  -1   1   6   25.86    2.49
  -1   1   6   23.43    2.75
  -1  -1   6   23.49    2.40
   1  -1   6   28.16    2.37
   1   1   6   28.24    3.04
   1  -1   6   20.54    2.58
   1  -1   6   23.26    3.51
   1   1   6   28.49    2.48
   1  -1   6   23.00    3.42
   1   1   6   32.07    3.23
   1  -2  -6    7.49    1.58
   2   1  -6    3.06    2.49
  -1   2  -6    1.93    1.32
  -1   2  -6    3.73    1.29
  -1   2  -6    5.20    1.39
  -1   2  -6    2.85    1.54
   1  -2   6    4.37    0.98
  -2  -1   6    1.45    1.56
  -1   2   6    1.14    1.32
   1  -2   6    1.21    1.27
  -2  -1   6    3.30    1.13
   2   1   6    6.97    1.68
  -2   0  -6  102.89    7.33
   0  -2  -6  109.61    7.43
   0   2  -6  102.93    7.38
  -2   0  -6  115.13    7.29
   2   0  -6  110.91    7.41
   0   2  -6   99.92    7.29
   0   2  -6   95.59    7.43
   0   2  -6   99.36    7.41
   0  -2  -6   89.85    7.36
   2   0   6  112.38    7.70
   0   2   6   91.29    7.26
   2   0   6  104.73    7.66
   0   2   6   86.51    7.70
   0  -2   6  105.57    7.39
  -2   0   6  102.75    7.26
   0   2   6  107.56    7.29
   2   0   6   85.20    7.16
   2   0   6  104.33    7.04
   0  -2   6  102.43    7.16
   0   2   6   89.04    7.53
  -2   0   6   94.32    7.37
  -2   0   6  108.73    8.16
   1   2  -6    9.91    2.17
  -2   1  -6   12.19    2.14
   1   2  -6   12.75    2.61
   1   2  -6    8.87    1.74
   1   2  -6    9.09    1.61
   1   2   6   10.11    1.78
  -1  -2   6    5.55    2.35
  -1  -2   6    8.12    1.66
  -2   1   6   13.26    1.82
  -2  -2  -6   63.19    5.44
  -2   2  -6   75.69    5.41
   2   2  -6   72.76    5.62
  -2   2  -6   71.38    5.37
   2  -2  -6   76.95    5.57
  -2   2  -6   71.62    5.27
   2   2  -6   76.08    5.60
  -2   2  -6   66.60    5.45
   2   2  -6   70.75    5.43
  -2  -2  -6   78.14    5.44
   2   2   6   70.13    5.15
   2   2   6   68.92    5.18
   2  -2   6   59.62    5.99
   2   2   6   72.80    5.61
   2   2   6   76.02    5.58
  -2   2   6   78.44    5.36
  -2  -2   6   62.13    5.28
  -2  -2   6   58.49    5.58
  -2   3  -6    3.79    1.68
   3   2  -6    2.80    1.55
  -3  -2  -6    2.59    1.61
   3   2  -6    0.75    1.64
  -2   3  -6    1.29    1.32
   3   2  -6    2.68    1.45
  -2   3  -6    3.51    1.24
  -2   3  -6    1.58    1.35
   2  -3  -6    1.46    1.56
  -3  -2  -6    1.62    1.25
  -2   3   6    1.48    1.54
  -2   3   6    1.37    1.20
  -3  -2   6    1.17    1.90
   3   2   6    2.51    1.68
   3   2   6    2.73    1.69
  -3  -2   6    1.47    1.26
  -3  -1  -6   25.71    2.81
  -1   3  -6   25.02    2.96
  -1   3  -6   26.46    2.62
   3   1  -6   24.32    2.85
   1  -3  -6   24.46    2.99
  -1   3  -6   22.16    2.92
  -1   3  -6   32.77    3.25
  -3  -1  -6   30.44    2.69
  -3  -1   6   24.89    2.69
   1  -3   6   25.81    2.75
  -1   3   6   34.74    3.81
  -1   3   6   30.03    2.71
   3   1   6   32.99    3.51
  -3  -1   6   20.73    4.00
   0   3  -6    4.09    1.32
   3   0  -6    3.96    1.54
   0  -3  -6    2.83    1.48
   0   3  -6    1.40    1.38
  -3   0  -6    2.49    1.17
  -3   0  -6    1.12    1.36
   0   3  -6    4.60    2.17
   0   3  -6    2.33    1.46
   0   3   6    5.28    1.27
   0  -3   6    3.80    1.04
   0  -3   6    3.64    1.56
   3   0   6    3.67    2.23
  -3   0   6    2.78    2.01
   3   0   6    5.80    2.61
  -3   0   6    3.33    1.25
   0   3   6    1.55    1.30
   1   3  -6   30.97    2.82
   3  -1  -6   32.21    2.96
   1   3  -6   23.95    3.05
  -1  -3  -6   23.99    2.75
   1   3  -6   25.42    2.99
   3  -1   6   21.90    3.72
  -1  -3   6   25.01    2.47
   1   3   6   21.87    2.69
   1   3   6   25.17    3.07
  -1  -3   6   22.72    3.12
   1   3   6   28.22    2.58
  -3   1   6   26.47    3.07
   1   3   6   19.67    3.05
  -3   2  -6    0.61    1.44
  -2  -3  -6    1.09    1.27
  -3   2  -6   -0.74    1.10
   2   3  -6   -0.38    1.53
  -2  -3  -6    5.39    2.35
   3  -2  -6    2.85    1.62
  -3   2  -6    1.47    1.20
  -3   2  -6    0.52    1.20
   2   3  -6    1.54    1.53
  -2  -3   6    1.79    2.03
  -2  -3   6    2.24    1.14
   3  -2   6    1.68    2.22
   2   3   6    1.20    1.54
   3  -2   6   -0.89    2.09
   2   3   6    1.37    1.58
   2   3   6    0.98    1.12
  -3   3  -6   28.25    2.92
  -3   3  -6   31.27    3.08
  -3   3  -6   29.50    2.64
  -3   3  -6   25.66    2.92
   3   3  -6   31.16    4.14
  -3  -3  -6   26.10    2.85
  -3  -3  -6   21.28    3.75
   3   3   6   23.21    2.46
   3   3   6   23.71    3.32
   3   3   6   28.35    3.32
  -3  -3   6   29.82    2.91
  -3  -3   6   30.22    3.82
   3   3   6   27.89    2.43
  -3   4  -6    3.86    1.27
  -4  -3  -6    0.44    1.33
   4   3  -6    3.51    1.82
  -3   4  -6    1.78    1.42
  -3   4  -6    0.47    1.73
  -3   4  -6    2.54    1.42
   4   3  -6    1.79    1.89
   4   3  -6    0.98    1.48
   3  -4  -6    1.14    1.70
  -4  -3   6    4.42    1.47
  -3   4   6   -0.50    1.29
   4   3   6    3.29    1.87
  -2   4  -6   54.71    4.52
   4   2  -6   55.78    4.60
  -2   4  -6   54.89    4.26
  -4  -2  -6   51.23    4.22
  -2   4  -6   51.62    4.73
  -2   4  -6   52.34    4.47
   2  -4  -6   52.87    4.62
  -4  -2  -6   50.42    4.39
   4   2   6   56.60    5.02
  -4  -1  -6    5.73    1.48
   1  -4  -6    5.18    2.53
  -1   4  -6    5.01    1.55
   4   1  -6    8.86    2.80
  -1   4  -6    3.64    1.52
  -1   4  -6    4.06    1.34
  -1   4   6    4.47    1.71
   4   1   6    3.28    2.08
   4   1   6    5.58    2.17
  -4  -1   6    2.57    1.69
   1  -4   6    4.48    1.48
   0   4  -6   69.51    5.45
   0   4  -6   71.99    5.18
  -4   0  -6   68.79    5.15
   0  -4  -6   72.01    5.39
   0   4  -6   68.56    5.40
   0   4   6   70.17    6.06
   0   4   6   70.66    5.80
   0  -4   6   66.19    5.44
   4   0   6   55.30    5.63
   4   0   6   61.63    5.70
   0  -4   6   61.63    4.92
  -4   0   6   71.68    5.64
   0   4   6   63.34    5.16
   1   4  -6   11.98    1.97
   1   4  -6    6.05    1.85
   1   4  -6    8.80    1.67
   1   4   6    7.37    2.05
  -1  -4   6    8.74    1.76
  -1  -4   6    6.97    1.99
   4  -2  -6   52.87    4.77
  -2  -4  -6   51.93    4.37
  -4   2  -6   55.16    4.23
  -4   2  -6   59.37    4.22
  -4   2  -6   55.60    4.07
  -4   2  -6   54.60    4.30
   2   4   6   45.36    4.18
   2   4   6   45.35    4.61
   2   4   6   47.76    4.21
  -4   2   6   63.18    4.57
   2   4   6   49.50    4.68
  -2  -4   6   50.48    4.18
   3   4  -6    2.84    1.50
  -3  -4  -6    0.41    1.44
   3   4  -6    2.45    1.74
  -4   3  -6    1.70    1.12
   3   4  -6    1.58    1.82
   4  -3  -6    1.55    1.70
  -4   3  -6    2.28    1.32
  -4   3  -6    1.36    1.64
   3   4   6    3.00    1.80
  -4   3   6    2.16    1.23
   3   4   6    2.73    1.71
   3   4   6    0.89    1.28
  -4   4  -6   41.79    3.74
  -4   4  -6   40.18    3.40
  -4  -4  -6   44.47    3.71
   4   4  -6   41.16    4.21
   4  -4  -6   34.31    4.08
   4   4  -6   35.94    3.86
  -4   4  -6   39.68    3.73
   4   4  -6   45.02    4.36
  -4   4  -6   33.23    3.95
  -4   4   6   43.95    3.77
   4   4   6   41.67    4.28
  -4  -4   6   44.48    3.76
   4   4   6   45.17    4.16
  -4   5  -6    2.44    1.63
  -4   5  -6   -1.10    1.30
   5   4  -6    2.25    2.32
   5   4  -6    4.40    2.22
  -5  -4  -6    1.10    1.42
   4  -5  -6    0.26    1.90
  -4   5  -6    2.61    1.63
   5   4  -6    0.46    1.80
  -5  -4   6    0.89    1.62
  -4   5   6    1.32    1.57
   5   3  -6   15.59    2.67
  -3   5  -6   13.94    2.07
  -3   5  -6   13.33    2.07
  -5  -3  -6   12.42    2.18
  -3   5  -6   11.86    2.58
   3  -5  -6   11.49    2.23
   5   3  -6   15.17    2.63
  -3   5   6   13.37    2.39
  -5  -3   6   16.20    2.64
   5   3   6   10.09    2.44
  -5  -2  -6    3.32    1.67
  -2   5  -6    1.25    1.74
  -2   5  -6    2.08    1.35
  -2   5  -6    2.50    1.68
  -5  -2  -6    0.01    1.21
   2  -5  -6    2.65    1.72
   5   2  -6    0.30    1.58
  -5  -2   6   -0.50    1.47
  -2   5   6    1.11    1.35
   5   2   6   -3.13    1.75
  -1   5  -6   10.45    2.95
  -5  -1  -6   12.21    1.93
  -1   5  -6   12.15    2.45
  -5  -1  -6   10.15    1.78
  -1   5  -6   10.58    2.19
   1  -5  -6   11.80    2.04
   5   1  -6   12.29    2.44
   1  -5   6    8.76    1.83
  -1   5   6   10.55    2.35
   1  -5   6   11.35    1.60
  -5  -1   6    8.91    1.75
   5   0  -6   -0.39    1.58
  -5   0  -6    1.26    1.08
   0  -5  -6    0.87    1.65
   0   5  -6   -0.86    1.48
  -5   0  -6    1.21    1.40
   0  -5   6    0.41    1.10
  -5   0   6    0.66    1.36
   0   5   6    2.52    1.40
   0  -5   6   -1.52    1.88
   0   5   6    3.49    1.72
  -1  -5  -6   12.82    2.32
   1   5  -6   10.71    2.16
   5  -1  -6   13.46    2.17
  -5   1  -6   15.08    1.79
   1   5  -6   13.76    2.27
  -5   1   6   10.33    2.22
  -1  -5   6   10.42    1.93
   1   5   6    9.56    1.81
  -1  -5   6    8.02    2.41
   2   5  -6    0.14    1.53
  -5   2  -6    1.85    1.12
   5  -2  -6    0.56    1.71
   2   5  -6    1.88    1.80
  -2  -5  -6    1.63    2.30
   2   5  -6    3.27    1.77
  -5   2  -6    1.23    1.17
  -5   2  -6    1.57    1.19
  -2  -5   6   -0.76    2.36
   2   5   6    2.40    1.94
  -2  -5   6    2.32    1.35
  -5   2   6    0.60    1.32
   2   5   6    0.41    1.36
   2   5   6    1.25    1.48
   3   5  -6    9.53    2.02
  -5   3  -6   11.21    1.65
  -5   3  -6   10.52    1.81
  -3  -5  -6    9.50    2.57
  -5   3  -6   15.98    2.19
   3   5  -6    6.85    2.21
   5  -3  -6    6.25    2.16
  -5   3  -6   14.59    2.58
   3   5  -6   11.21    2.31
   3   5   6    9.75    1.71
   3   5   6   16.97    4.30
  -5   3   6   11.36    2.21
   3   5   6   13.69    2.37
  -3  -5   6   12.63    2.32
  -5   4  -6    2.29    1.40
  -5   4  -6    0.46    1.24
  -4  -5  -6    0.11    1.81
   5  -4  -6   -0.34    1.89
   4   5  -6    0.86    2.01
   4   5  -6    1.24    1.79
   4   5  -6    0.55    1.97
  -5   4   6    1.42    1.50
   4   5   6    0.10    1.19
   5   5  -6    6.20    2.53
   5   5  -6    4.87    2.41
  -5   5  -6    8.23    1.75
  -5   5  -6    4.62    1.54
  -5  -5  -6    3.92    1.72
   5   5  -6    7.49    2.23
  -5   5  -6    7.70    1.83
  -5  -5   6    8.50    1.98
  -5   5   6    8.93    1.89
  -6  -5  -6    0.49    1.63
   6   5  -6    2.25    2.68
  -5   6  -6   -0.57    1.82
   6   5  -6    0.48    2.27
   6   5  -6    0.63    2.65
  -5   6  -6    3.06    1.58
  -5   6  -6    0.86    1.82
   5  -6  -6    3.33    2.22
  -5   6   6   -0.95    1.82
  -6  -5   6    1.03    2.03
   6   4  -6   30.09    3.84
   6   4  -6   33.77    4.40
  -4   6  -6   34.65    3.65
  -4   6  -6   30.00    3.72
  -4   6  -6   26.88    3.11
   4  -6  -6   31.12    3.86
  -6  -4  -6   31.39    3.20
  -4   6   6   34.37    3.60
  -6  -4   6   33.72    3.80
  -3   6  -6    3.02    1.44
  -6  -3  -6    0.49    1.31
   3  -6  -6    3.05    2.01
  -3   6  -6   -0.35    1.65
   6   3  -6    0.56    1.89
  -3   6  -6   -2.16    1.58
  -3   6   6    1.30    1.61
  -6  -3   6    0.72    1.75
   2  -6  -6   43.66    4.26
   6   2  -6   42.59    4.19
  -2   6  -6   45.12    4.19
  -2   6  -6   43.88    3.79
  -6  -2  -6   46.87    3.69
  -6  -2  -6   34.58    3.99
  -2   6  -6   47.91    4.22
  -2   6   6   41.69    3.99
  -6  -2   6   42.13    4.08
  -6  -1  -6    7.66    1.73
   1  -6  -6    7.92    1.91
  -1   6  -6    3.70    1.76
   6   1  -6    3.81    1.95
  -1   6  -6    3.15    1.78
  -6  -1  -6    2.89    1.24
  -1   6   6    3.78    1.55
  -6  -1   6    6.77    1.73
   1  -6   6    0.69    2.40
  -6   0  -6   50.35    3.90
   0  -6  -6   54.47    4.49
   6   0  -6   52.24    4.63
   0   6  -6   53.51    4.68
   0   6  -6   50.68    4.57
   0   6  -6   45.07    4.29
  -6   0  -6   47.82    4.09
   0  -6   6   38.76    4.82
  -6   0   6   55.14    4.32
   0  -6   6   43.07    3.83
  -1  -6  -6    1.76    1.69
   1   6  -6    2.83    1.64
   1   6  -6    2.61    1.88
   1   6  -6    4.17    1.96
  -6   1  -6    2.04    1.16
  -1  -6   6    3.46    1.37
   1   6   6    4.31    3.26
   1   6   6    6.41    3.13
   2   6  -6   40.76    4.63
  -2  -6  -6   50.78    4.21
   2   6  -6   40.95    4.58
  -6   2  -6   48.70    3.64
   2   6  -6   37.04    4.12
  -6   2   6   50.86    4.13
  -2  -6   6   48.51    3.98
   3   6  -6   -0.12    2.15
  -6   3  -6    2.66    1.34
  -6   3  -6    0.37    1.31
  -6   3  -6    1.86    1.20
   6  -3  -6    0.51    1.91
  -3  -6  -6    1.09    1.70
   3   6  -6    1.15    2.12
   3   6  -6    1.33    1.77
  -6   3   6    1.53    1.44
  -3  -6   6    0.76    1.53
   3   6   6    2.37    1.60
   4   6  -6   23.83    3.89
   4   6  -6   28.81    4.17
  -6   4  -6   31.99    3.26
  -6   4  -6   30.97    2.95
  -6   4  -6   31.25    3.29
  -4  -6  -6   35.99    3.39
   6  -4  -6   23.09    3.89
   4   6  -6   34.51    4.29
  -6   4   6   33.85    3.41
  -4  -6   6   34.58    3.52
   4   6   6   31.43    3.22
   5   6  -6    6.71    2.34
  -5  -6  -6    0.44    1.69
   6  -5  -6   -2.50    2.09
  -6   5  -6    4.47    1.79
   5   6  -6    0.70    2.66
   5   6  -6    7.05    2.73
  -6   5  -6   -0.79    2.04
  -6   5  -6    2.01    1.82
  -5  -6   6    2.58    1.97
  -6   5   6    0.18    1.77
  -6  -6  -6   18.78    3.24
  -6   6  -6   21.73    3.53
   6   6  -6   18.50    3.55
   6  -6  -6   20.01    3.71
   6   6  -6   16.67    3.14
   6   6  -6   21.31    4.49
  -6   6  -6   24.80    3.62
  -6   6   6   13.89    2.75
  -6  -6   6   24.06    3.58
  -7  -6  -6    1.29    2.38
   7   6  -6   -0.28    3.64
   7   6  -6    0.56    3.49
  -6   7  -6   -1.83    2.52
  -6   7  -6    4.55    2.57
   7   6  -6    5.11    3.32
   6  -7  -6   -0.12    2.81
  -6   7   6    0.51    3.47
  -7  -6   6    0.19    3.83
  -7  -5  -6    2.61    2.02
  -5   7  -6    6.78    2.25
   7   5  -6    7.37    3.18
   5  -7  -6    3.96    2.59
   7   5  -6    4.31    2.70
  -5   7  -6    5.63    2.30
  -7  -5   6    0.96    2.37
  -5   7   6    5.72    2.25
  -7  -4  -6    0.32    2.53
   7   4  -6    0.63    2.40
  -4   7  -6    2.72    1.97
  -4   7  -6    0.39    2.97
   4  -7  -6    3.27    2.40
  -4   7   6    1.35    2.01
  -7  -4   6   -0.22    2.15
  -3   7  -6    6.76    2.04
   3  -7  -6    7.46    2.38
   7   3  -6    6.39    2.35
  -7  -3  -6    5.86    1.59
  -3   7  -6    6.57    1.88
  -3   7  -6    6.08    2.02
  -3   7   6    4.60    1.93
  -7  -3   6    6.11    2.23
  -2   7  -6   -1.38    1.85
  -2   7  -6   -1.24    1.81
  -2   7  -6   -0.30    1.60
   7   2  -6    4.67    2.27
  -7  -2  -6    2.19    1.45
   2  -7  -6   -0.18    2.04
  -7  -2   6    3.33    1.96
  -2   7   6   -1.14    1.64
  -1   7  -6    6.36    2.05
   7   1  -6   10.49    2.29
  -7  -1  -6   10.76    2.07
  -1   7  -6    8.65    2.14
  -1   7  -6   11.69    2.35
   1  -7  -6    5.34    2.20
  -7  -1   6    6.20    2.03
   1  -7   6    7.40    1.37
  -1   7   6    6.48    1.90
   0   7  -6    2.96    2.03
   0   7  -6    0.97    1.97
   0   7  -6    2.70    1.72
   7   0  -6    0.57    2.07
   0  -7  -6   -0.76    1.94
  -7   0   6    2.42    1.78
   0   7   6    1.67    1.72
   0  -7   6    2.76    1.34
  -7   1  -6    7.91    1.38
   1   7  -6    3.11    1.89
   1   7  -6    6.28    2.26
   7  -1  -6    5.53    2.16
   1   7  -6    5.63    2.14
  -1  -7  -6    7.01    2.04
   1   7   6    5.71    1.90
  -1  -7   6    8.26    3.02
  -7   1   6    4.83    1.81
   2   7  -6    3.76    2.21
   2   7  -6   -0.09    2.30
   2   7  -6    1.97    1.95
  -2  -7  -6   -0.08    1.89
   7  -2  -6    4.51    2.27
  -7   2   6    3.90    1.66
  -2  -7   6    4.68    1.61
   3   7  -6    5.04    2.77
   3   7  -6    3.11    2.15
  -3  -7  -6    5.43    2.08
   7  -3  -6    7.54    2.39
  -7   3  -6    7.47    1.82
   3   7  -6    8.96    2.76
  -7   3   6    8.00    1.89
  -3  -7   6    4.61    1.84
   3   7   6    6.25    3.84
  -7   4  -6    3.43    2.00
   4   7  -6    1.20    2.87
   4   7  -6    0.53    2.32
   7  -4  -6   -2.13    2.20
   4   7  -6    5.86    2.84
  -4  -7  -6    3.35    2.01
  -7   4   6    0.71    1.80
   4   7   6   -1.27    1.90
  -4  -7   6    3.32    2.01
  -5  -7  -6    3.92    2.14
  -7   5  -6    2.90    2.82
   5   7  -6    8.12    2.74
  -7   5  -6    3.51    2.21
   7  -5  -6    4.57    2.58
   5   7  -6    6.87    3.05
   5   7  -6    4.21    2.86
  -7   5   6    2.29    2.15
  -5  -7   6    4.15    2.28
   6   7  -6    5.61    3.35
  -7   6  -6    4.52    3.34
   6   7  -6    5.47    3.43
   7  -6  -6    3.50    2.88
   6   7  -6    5.77    4.20
  -6  -7   6   -1.33    2.71
  -7   6   6    2.76    3.05
  -4   8  -6   12.60    2.77
  -4   8  -6   15.17    2.55
   4  -8  -6   10.11    3.01
  -4   8  -6   21.22    4.09
   8   4  -6    7.80    3.09
  -8  -4   6   12.68    2.92
   8   3  -6    4.20    2.70
  -3   8  -6   -0.85    2.25
  -3   8  -6    0.48    2.03
   3  -8  -6    0.96    2.53
  -3   8  -6   -1.78    2.22
  -8  -3   6    1.57    2.43
  -3   8   6    1.44    2.05
  -2   8  -6   17.28    3.70
   2  -8  -6   17.51    3.64
  -2   8  -6   20.07    3.11
  -2   8  -6   12.80    2.75
   8   2  -6   16.64    2.99
  -8  -2   6   15.34    2.76
  -2   8   6   12.03    2.52
  -1   8  -6    1.63    1.96
   1  -8  -6    2.58    2.35
   8   1  -6   -1.60    2.40
  -1   8  -6    3.80    2.33
  -1   8  -6   -1.95    2.21
  -8  -1   6    4.55    2.13
  -1   8   6   -2.90    1.97
   0   8  -6   16.18    3.25
   0   8  -6   24.04    3.90
   0  -8  -6   21.40    3.54
   0   8  -6   18.61    3.84
   8   0  -6   14.13    2.88
  -8   0   6   19.20    3.34
   0  -8   6   15.96    2.56
   0   8   6   11.39    2.54
   1   8  -6    4.25    2.21
   1   8  -6    5.81    2.48
  -1  -8  -6    0.71    2.21
   8  -1  -6   -4.38    2.41
   1   8   6   -2.28    1.96
  -1  -8   6    1.80    1.65
  -8   1   6    0.93    1.93
   2   8  -6   17.17    3.09
   8  -2  -6    9.74    2.85
   2   8  -6   12.54    2.66
   2   8   6    9.58    2.44
  -8   2   6   20.00    3.27
  -2  -8   6   13.99    2.20
   3   8  -6    3.04    3.02
   3   8  -6    2.70    2.47
   8  -3  -6    1.31    2.57
  -3  -8  -6    0.19    2.28
   3   8  -6    4.75    2.98
  -3  -8   6    1.30    2.05
   3   8   6    2.80    2.20
  -8   3   6    0.07    2.01
   8  -4  -6   13.55    3.12
   4   8  -6   16.49    3.90
   4   8  -6    9.67    3.18
   4   8  -6   23.92    5.03
  -4  -8   6   13.84    2.68
  -8   4   6   20.36    3.37
   2  -9  -6   -3.05    3.83
  -2   9  -6   -0.31    2.48
  -2   9  -6    3.91    2.88
   9   2  -6    2.68    3.11
  -9  -2   6    8.45    3.61
  -1   9  -6   -0.69    2.85
   9   1  -6    4.75    3.12
  -1   9  -6   12.22    3.27
   1  -9  -6    5.93    3.01
  -1   9  -6    4.41    2.54
  -9  -1   6    8.50    2.79
  -1   9   6    5.03    2.64
   0   9  -6    4.93    2.88
   0   9  -6   -3.77    2.87
   0   9  -6    2.19    2.50
   0  -9  -6    1.48    2.76
   9   0  -6    2.55    3.07
   0   9   6   -2.26    2.39
  -9   0   6    3.03    2.51
   1   9  -6    5.32    2.81
  -1  -9  -6    1.57    2.87
   1   9  -6   11.94    3.32
   1   9  -6   12.25    3.30
   9  -1  -6    2.37    3.16
  -1  -9   6    4.50    2.11
  -9   1   6   10.23    3.02
   2   9  -6    2.22    3.27
  -2  -9  -6   -1.58    3.69
   2   9  -6    5.93    3.51
   2   9  -6   -0.51    3.00
   9  -2  -6   -0.51    3.08
  -9   2   6    0.96    2.91
   2   9   6    0.28    2.62
  -2  -9   6    4.51    2.33
   0   0  -7    9.57    1.88
   0   0   7   10.30    1.86
   0   0   7    5.93    1.77
   0   1  -7   24.49    2.75
   1   0  -7   28.36    3.68
   0   1   7   21.77    2.35
  -1   0   7   22.58    2.39
   0  -1   7   20.80    2.23
   1   0   7   20.02    2.23
   0  -1   7   16.22    2.91
  -1   0   7   18.46    3.68
   0   1   7   17.12    2.80
  -1  -1  -7   54.18    4.09
  -1   1  -7   50.41    4.02
   1  -1  -7   56.65    4.33
   1   1  -7   53.80    4.46
  -1  -1   7   40.39    3.79
   1  -1   7   43.37    3.64
   1  -1   7   49.05    4.24
   1   1   7   47.08    3.80
  -1   1   7   41.80    3.90
   1   1   7   38.16    4.03
  -1   2  -7   26.01    3.23
  -1   2  -7   25.15    2.66
   2   1  -7   21.76    2.82
  -2  -1  -7   22.53    2.80
  -1   2  -7   22.43    2.99
  -2  -1   7   23.69    2.79
  -1   2   7   28.99    2.70
  -1   2   7   16.73    3.33
  -2  -1   7   20.52    3.61
   1  -2   7   18.53    2.78
   2   1   7   24.76    2.26
   1  -2   7   25.96    2.28
   2   1   7   20.57    2.46
   0   2  -7    8.35    2.13
  -2   0  -7    8.57    1.63
   0  -2  -7   10.49    2.07
   0   2  -7   10.77    3.11
   0   2  -7    7.27    2.33
   0   2   7    7.82    1.84
   0   2   7   10.01    2.03
   0  -2   7    9.16    1.98
  -2   0   7    5.95    2.44
  -2   0   7    8.19    1.89
   0  -2   7    8.47    1.71
   2  -1  -7   28.98    3.05
  -2   1  -7   24.19    2.61
   1   2  -7   21.52    4.01
   1   2  -7   27.17    2.88
   1   2   7   24.81    2.91
  -1  -2   7   22.35    2.53
  -1  -2   7   22.69    3.48
   1   2   7   28.18    2.61
  -2   2  -7    7.58    1.84
   2   2  -7    8.97    1.90
  -2   2  -7    9.96    1.92
  -2  -2  -7   13.64    2.52
   2  -2  -7    9.38    1.95
  -2   2  -7    8.85    1.68
   2   2   7    7.52    1.45
  -2  -2   7    9.14    1.98
   2   2   7    6.11    1.61
   2  -3  -7   14.31    2.97
  -2   3  -7   12.70    2.31
  -2   3  -7   11.32    2.17
  -2   3  -7   11.18    2.31
   3   2  -7   13.37    2.55
   3   2   7   13.60    2.82
  -2   3   7   12.43    2.29
  -3  -2   7   13.25    2.48
   3   2   7   10.54    2.75
   3   1  -7   31.20    3.30
  -3  -1  -7   35.05    3.19
   1  -3  -7   30.69    3.61
  -1   3  -7   27.85    3.20
  -3  -1   7   30.71    3.05
   3   1   7   29.70    4.53
   1  -3   7   28.46    3.06
   3   1   7   31.86    4.60
   1  -3   7   29.67    2.59
   0  -3  -7   11.94    2.14
   0   3  -7   13.36    2.66
  -3   0  -7   12.55    2.26
   0   3  -7   17.39    3.08
   0   3  -7   18.84    3.19
   3   0  -7   17.08    2.59
   0  -3   7   12.53    1.86
   0  -3   7   16.89    3.10
   0   3   7   10.21    1.78
   3   0   7    7.17    3.24
  -3   0   7   13.60    2.27
  -3   1  -7   35.72    3.09
   1   3  -7   25.20    3.72
   1   3  -7   31.13    3.34
   3  -1  -7   40.20    3.54
  -1  -3  -7   35.41    3.53
   1   3  -7   32.25    3.83
   1   3   7   33.19    3.08
  -1  -3   7   29.66    4.01
   1   3   7   24.98    3.53
  -1  -3   7   31.22    3.02
  -3   1   7   34.38    3.26
   2   3  -7   18.56    2.64
  -2  -3  -7   11.31    2.29
   2   3  -7   17.67    3.15
  -3   2  -7   14.26    2.73
  -3   2  -7   14.92    2.61
  -3   2  -7   10.64    2.21
   2   3  -7   15.98    3.31
   3  -2  -7   19.14    2.84
  -2  -3   7   11.16    3.09
  -2  -3   7   13.68    3.38
   2   3   7   10.44    2.12
  -3   3  -7   29.07    3.20
  -3   3  -7   22.34    2.67
   3   3  -7   25.01    3.80
   3  -3  -7   21.28    3.38
  -3   3  -7   23.13    3.16
   3   3  -7   24.11    3.13
   3   3  -7   24.17    3.57
  -3   3   7   24.92    2.87
  -3  -3   7   20.62    2.95
  -3   4  -7    9.76    1.82
   3  -4  -7    5.35    2.35
   4   3  -7   10.18    2.27
  -3   4  -7   10.20    2.50
  -3   4   7    8.16    1.83
  -4  -3   7    7.42    1.96
   2  -4  -7    3.14    2.05
  -2   4  -7    2.44    1.85
  -4  -2  -7    4.37    1.57
  -2   4  -7    7.68    2.04
   4   2  -7    3.58    1.93
  -2   4  -7    4.70    1.95
  -4  -2   7    4.72    1.75
  -2   4   7    6.09    1.61
  -1   4  -7   14.22    2.56
   4   1  -7   14.54    2.80
  -4  -1  -7   19.52    2.42
  -1   4  -7   17.16    3.20
  -1   4  -7   12.15    2.31
   1  -4  -7   10.19    2.38
  -4  -1   7   15.50    2.58
  -1   4   7   16.09    2.51
   1  -4   7   14.66    1.78
   0   4  -7    4.41    1.78
   0   4  -7    5.60    2.10
   0   4  -7    8.00    2.06
  -4   0  -7    6.11    1.47
   4   0  -7    8.54    2.01
   0  -4  -7    2.63    2.00
   0  -4   7    2.87    3.66
   4   0   7    3.95    4.27
  -4   0   7    6.16    1.61
   0  -4   7    9.27    1.70
   0   4   7    8.23    2.17
   0   4   7    6.43    2.94
   1   4  -7   17.53    3.26
   4  -1  -7   13.93    2.90
   1   4  -7   13.31    2.42
   1   4  -7   15.18    2.28
  -1  -4   7   13.00    2.23
  -4   1   7   14.46    2.44
   1   4   7   14.03    2.47
   2   4  -7    3.74    2.17
   2   4  -7    6.32    1.94
  -4   2  -7    4.70    1.48
   2   4  -7    4.90    2.18
   4  -2  -7    2.56    2.01
  -2  -4  -7    2.22    1.86
  -4   2   7    4.68    1.56
   2   4   7    4.39    1.53
  -2  -4   7    5.28    1.61
   4  -3  -7    7.93    2.47
   3   4  -7    6.88    2.48
  -3  -4  -7    4.10    1.98
   3   4  -7    2.99    2.27
  -4   3  -7    7.35    1.87
   3   4  -7    8.82    2.09
  -4   3   7    4.43    1.70
  -3  -4   7    9.31    1.88
   3   4   7    8.11    1.58
   4   4  -7    5.53    2.21
   4   4  -7    1.89    2.55
  -4  -4  -7    1.08    1.82
  -4   4  -7    4.00    1.67
   4   4  -7    2.23    2.45
   4  -4  -7    1.11    2.33
  -4   4   7    2.85    1.72
  -4  -4   7    4.24    1.92
   4  -5  -7    3.96    2.73
   5   4  -7    6.03    3.06
  -5  -4  -7    3.10    2.11
   5   4  -7    9.67    2.60
  -4   5  -7   11.23    2.80
  -4   5  -7    8.65    2.33
  -5  -4   7    8.51    2.34
  -4   5   7    6.05    2.02
  -3   5  -7   24.87    4.76
   5   3  -7   13.21    2.68
  -3   5  -7   15.55    2.54
   3  -5  -7   14.86    2.96
  -3   5  -7   21.66    3.61
  -3   5   7   17.85    2.95
  -5  -3   7   18.23    3.35
  -2   5  -7   12.68    2.38
  -2   5  -7   16.62    3.41
  -2   5  -7    9.10    2.16
  -5  -2  -7   12.48    2.53
   2  -5  -7    7.57    2.64
   5   2  -7   15.09    3.11
  -5  -2   7   10.02    2.20
  -2   5   7   15.81    2.57
  -1   5  -7   25.82    3.09
  -5  -1  -7   26.07    2.84
   1  -5  -7   25.49    3.66
   5   1  -7   23.82    3.63
  -1   5  -7   26.61    3.87
  -1   5  -7   21.71    3.59
  -5  -1   7   21.66    3.23
  -1   5   7   23.92    3.05
   0   5  -7   11.55    2.26
   0   5  -7   11.53    2.53
   5   0  -7   15.73    3.02
  -5   0  -7   16.74    2.30
   0  -5  -7    7.99    2.42
   0   5  -7   11.11    2.44
  -5   0   7   15.87    2.82
   0   5   7   12.19    2.01
   0  -5   7   11.74    1.98
   5  -1  -7   30.57    3.55
  -1  -5  -7   19.52    3.43
  -5   1  -7   23.45    2.73
   1   5  -7   26.13    3.84
   1   5  -7   26.11    3.41
   1   5  -7   27.66    3.87
   1   5   7   18.83    3.15
  -5   1   7   26.72    3.14
  -1  -5   7   21.55    2.88
  -5   2  -7   12.45    2.18
   2   5  -7   20.25    3.88
   2   5  -7   11.70    2.36
   2   5  -7   13.04    2.65
  -2  -5  -7    6.54    2.27
   2   5   7   11.83    2.50
   3   5  -7   21.23    3.43
  -5   3  -7   21.30    2.57
   3   5  -7   21.14    4.17
  -5   3  -7   18.47    2.96
   3   5  -7   17.64    3.23
   5  -3  -7   13.16    2.88
  -5   3  -7   20.66    3.02
   3   5   7   19.85    2.64
  -5   3   7   17.90    2.90
  -3  -5   7   16.93    3.04
   4   5  -7   10.46    3.07
   4   5  -7    7.71    3.02
  -4  -5  -7    7.56    2.32
  -5   4  -7    9.05    1.93
   4   5  -7    6.31    2.47
   5  -4  -7    7.34    2.84
  -4  -5   7    7.26    2.21
  -5   4   7    3.91    1.98
  -5   5  -7   25.62    4.01
  -5   5  -7   19.97    3.93
   5   5  -7   18.36    3.72
   5   5  -7   14.08    3.35
   5   5  -7   22.11    4.08
  -5  -5   7   18.53    3.90
  -5   5   7   22.45    3.50
   6   5  -7    2.35    4.03
   6   5  -7    6.89    4.03
  -5   6  -7    8.11    2.93
   5  -6  -7    2.10    3.53
  -5   6  -7   12.04    2.97
  -5   6   7    9.29    3.75
  -6  -5   7    2.36    3.01
  -6  -4  -7    0.73    2.36
  -4   6  -7    8.53    2.59
   4  -6  -7    2.06    2.98
  -4   6  -7    1.97    2.35
  -4   6  -7    7.70    2.62
   6   4  -7    1.06    2.75
  -6  -4   7    4.57    2.61
  -4   6   7    7.61    2.18
  -3   6  -7    5.80    2.41
  -6  -3  -7    1.89    2.62
   3  -6  -7    7.26    2.94
  -3   6  -7    5.03    2.38
  -3   6  -7    7.78    2.24
   6   3  -7    5.02    2.58
  -6  -3   7    2.11    2.37
  -3   6   7    4.41    2.03
   6   2  -7    2.54    2.56
  -2   6  -7    5.84    2.37
  -2   6  -7    3.52    2.36
   2  -6  -7    2.87    2.70
  -2   6  -7    4.80    2.15
  -6  -2  -7    4.31    1.92
  -2   6   7    3.38    1.85
  -6  -2   7    2.68    2.24
  -6  -1  -7    3.49    1.75
  -1   6  -7    9.31    2.18
   1  -6  -7    8.27    2.60
  -1   6  -7    8.57    2.49
  -1   6  -7    8.00    2.49
  -6  -1   7    6.48    2.26
  -1   6   7    6.46    1.87
  -6   0  -7    4.04    1.63
   0   6  -7    7.04    2.53
   0   6  -7    4.01    2.11
   6   0  -7    4.18    2.35
   0   6  -7    3.56    2.45
   0  -6  -7    3.53    2.42
   0   6   7    2.80    1.82
  -6   0   7    1.41    1.99
   0  -6   7    5.67    1.49
   6  -1  -7    6.84    2.48
   1   6  -7    5.35    2.60
  -1  -6  -7    5.07    2.52
   1   6  -7    9.87    2.72
  -6   1  -7    7.05    1.78
   1   6  -7    6.67    2.34
  -1  -6   7    5.09    2.06
  -6   1   7    8.68    2.13
   1   6   7    3.91    2.32
   2   6  -7    2.04    2.70
   6  -2  -7   -0.08    2.49
  -2  -6  -7    2.40    2.50
   2   6  -7    1.15    2.28
  -2  -6   7    1.19    1.81
  -6   2   7    4.67    1.94
   2   6   7    0.97    1.86
   6  -3  -7    2.08    2.75
   3   6  -7    5.71    2.58
   3   6  -7    6.47    2.86
  -3  -6  -7    5.82    2.55
   3   6  -7    3.57    3.01
  -3  -6   7    4.78    2.07
   3   6   7    3.41    2.24
  -6   3   7    4.79    1.98
   6  -4  -7   -1.21    2.95
  -4  -6  -7   -0.60    2.42
   4   6  -7    1.46    3.30
   4   6  -7    5.30    2.62
   4   6  -7    4.47    2.98
  -6   4   7    1.51    2.06
  -4  -6   7    4.46    2.31
   5   6  -7    7.67    3.67
   5   6  -7    5.15    3.53
  -5  -6  -7    0.05    2.65
   6  -5  -7   -1.42    3.38
  -5  -6   7    5.43    2.74
   3  -7  -7    9.77    3.62
  -3   7  -7   11.62    2.99
  -3   7  -7   14.94    3.07
   7   3  -7   13.70    3.32
  -3   7  -7    5.39    2.70
  -7  -3   7    7.59    3.00
  -3   7   7    5.33    2.41
   2  -7  -7    0.76    3.06
  -2   7  -7    4.19    2.49
  -2   7  -7    8.58    2.93
   7   2  -7    7.95    2.91
  -2   7  -7    8.24    2.86
  -2   7   7    5.29    2.26
  -7  -2   7    8.00    2.73
  -1   7  -7   11.54    3.00
   1  -7  -7    8.07    3.16
  -1   7  -7   14.34    2.72
   7   1  -7   14.11    3.06
  -7  -1   7    9.73    2.63
  -1   7   7    8.77    2.43
   0  -7  -7    1.20    2.76
   0   7  -7   11.41    2.94
   0   7  -7    9.52    2.66
   7   0  -7    9.30    2.79
   0   7  -7    6.48    2.75
   0   7   7    3.32    2.23
  -7   0   7    5.21    2.41
   1   7  -7   13.17    2.87
   1   7  -7   13.89    3.05
  -1  -7  -7    6.43    3.01
   7  -1  -7   14.46    3.10
  -7   1   7   11.18    2.44
  -1  -7   7    8.67    2.09
   7  -2  -7   10.13    3.17
   2   7  -7    5.66    2.78
   2   7  -7    9.96    3.26
  -2  -7  -7    0.45    2.75
   2   7  -7    3.31    3.15
  -2  -7   7    6.07    2.20
  -7   2   7    7.60    2.32
   3   7  -7    9.02    3.63
   3   7  -7    9.70    3.50
   3   7  -7   10.69    3.38
   7  -3  -7   10.91    3.42
  -3  -7  -7    7.68    3.12
  -3  -7   7   17.28    3.52
  -7   3   7   10.34    2.73
   0   0  -8    4.86    1.90
   0   0   8    4.41    1.48
  -1   0  -8   25.20    3.19
   0  -1  -8   22.81    3.45
   0   1  -8   24.11    3.05
   1   0  -8   25.81    3.16
   0   1   8   17.77    2.69
   1   0   8   22.56    2.47
   0  -1   8   16.74    2.57
  -1   0   8   24.68    2.74
  -1  -1  -8    6.33    1.96
   1   1  -8    2.58    2.09
   1  -1  -8    7.96    2.11
   1   1   8    5.77    1.46
  -1  -1   8    2.42    1.63
   1  -1   8    4.71    1.55
  -1   1   8    5.97    1.57
  -1   2  -8   24.09    3.12
   1  -2  -8   21.55    3.29
   2   1  -8   16.32    3.17
  -2  -1  -8   19.39    3.08
  -2  -1   8   19.11    2.67
  -1   2   8   14.70    2.66
   2   0  -8    1.65    2.09
   0  -2  -8    6.48    2.12
  -2   0  -8   -0.03    1.76
   0   2  -8    1.66    1.96
  -2   0   8    3.21    1.58
   0  -2   8    1.50    1.33
   0   2   8    2.17    2.66
   2  -1  -8   19.09    3.50
   1   2  -8   21.17    3.12
  -2   1  -8   16.46    2.68
  -1  -2  -8   20.04    3.09
  -2   1   8   19.38    2.75
   1   2   8   13.14    2.49
   2   2  -8    4.28    2.16
   2  -2  -8    5.17    2.20
  -2  -2  -8    2.59    1.94
  -2   2  -8    0.18    1.88
  -2   2   8   -0.80    1.52
  -2  -2   8   -1.02    1.57
  -2   3  -8   20.85    4.11
  -2   3  -8   13.95    2.55
  -2   3  -8   18.61    3.71
   2  -3  -8   12.92    2.89
  -3  -2  -8   19.15    3.27
   3   2  -8   17.23    3.39
  -2   3   8   16.36    2.94
  -3  -2   8   18.44    3.09
  -1   3  -8    5.24    2.46
  -3  -1  -8    8.61    2.03
  -1   3  -8    6.30    2.20
   3   1  -8    6.31    2.47
   1  -3  -8    8.66    2.46
  -1   3  -8    7.80    2.62
  -3  -1   8    5.72    1.88
  -1   3   8    4.50    1.68
   0   3  -8   29.92    4.37
   0  -3  -8   22.16    3.60
   0   3  -8   24.64    3.35
   3   0  -8   20.56    3.48
  -3   0  -8   24.65    3.14
   0   3  -8   22.83    4.28
  -3   0   8   22.56    3.05
   0   3   8   17.25    2.83
   0  -3   8   22.00    2.54
   1   3  -8    4.00    2.87
  -3   1  -8    8.21    1.94
  -1  -3  -8    2.87    2.18
   1   3  -8    7.30    2.43
  -1  -3   8    4.31    1.80
   1   3   8    4.48    1.81
  -3   2  -8   15.23    2.93
   3  -2  -8   19.43    3.61
   2   3  -8   17.55    3.43
  -2  -3  -8   16.59    3.37
  -2  -3   8   14.33    2.82
  -3   2   8   14.96    2.33
   3   3  -8    5.49    2.54
   3  -3  -8    3.86    2.73
  -3  -3  -8    2.93    2.40
  -3   3  -8    9.14    2.27
  -3  -3   8    7.16    2.13
  -3   3   8    6.62    2.03
   3  -4  -8    7.84    3.14
  -4  -3  -8    9.28    2.69
   4   3  -8   11.32    2.95
  -3   4  -8    7.48    2.93
  -3   4   8    6.99    2.24
  -2   4  -8    4.88    2.67
   2  -4  -8    0.05    2.79
   4   2  -8    1.63    2.53
  -2   4  -8    1.57    2.65
  -4  -2  -8    1.16    2.18
  -2   4  -8    2.03    2.41
  -2   4   8    0.72    1.91
  -4  -2   8    2.64    2.17
   4   1  -8   13.75    2.90
  -1   4  -8   14.64    3.00
  -1   4  -8   15.92    3.13
  -1   4  -8   12.92    2.73
  -4  -1   8   18.22    3.33
  -1   4   8    8.87    2.09
   4   0  -8    2.29    2.36
  -4   0  -8    5.84    2.03
   0   4  -8   -1.33    2.52
   0   4  -8    1.50    2.68
   0   4  -8    0.61    2.41
   0  -4  -8   -4.08    2.49
  -4   0   8    3.01    1.94
   0   4   8    5.70    1.81
   0  -4   8    1.58    2.19
   1   4  -8   14.32    2.78
   1   4  -8   14.56    3.25
  -4   1  -8   12.42    2.30
   1   4  -8   18.00    3.50
  -1  -4  -8    9.43    2.87
   4  -1  -8   13.51    2.96
  -1  -4   8   12.62    2.59
  -4   1   8   10.36    2.20
   1   4   8    9.44    2.18
   2   4  -8    2.67    2.56
  -4   2  -8    1.97    2.13
  -2  -4  -8   -3.48    2.61
   2   4  -8    5.69    3.14
   4  -2  -8    0.67    2.54
  -4   2   8    1.17    1.96
  -2  -4   8    0.63    1.89
  -4   3  -8   10.89    2.50
   3   4  -8   15.36    3.22
   4  -3  -8   12.22    3.13
  -3  -4  -8    6.21    3.05
   3   4  -8   11.94    3.60
  -3  -4   8   10.01    2.42
  -4   3   8   19.08    3.40
  -4   4  -8    0.94    3.48
  -4  -4  -8   -1.48    2.86
   4  -4  -8   -1.97    4.30
  -4   4  -8   -0.46    2.89
  -4   4  -8    1.57    2.95
  -4  -4   8   -1.35    2.54
  -4   4   8   -1.83    2.28
  -3   5  -8    5.53    2.97
  -3   5  -8    4.41    3.26
  -5  -3  -8    2.74    2.88
  -3   5  -8    0.76    3.28
  -3   5   8    0.95    2.30
  -5  -3   8    3.95    2.82
  -2   5  -8    8.98    2.95
   2  -5  -8    8.89    3.49
  -2   5  -8   11.98    3.23
  -5  -2  -8    5.92    2.66
   5   2  -8   13.27    3.30
  -2   5  -8    8.69    3.21
  -5  -2   8   10.63    2.75
   1  -5  -8    2.37    3.20
  -5  -1  -8    1.11    2.21
  -1   5  -8    3.79    3.22
  -1   5  -8    6.74    3.14
   5   1  -8    1.60    2.70
  -1   5  -8   -1.03    2.73
  -5  -1   8   -0.57    2.26
  -1   5   8    2.97    2.01
   0   5  -8    3.84    2.95
   0  -5  -8    9.14    3.16
   5   0  -8   10.97    2.90
   0   5  -8    8.18    3.29
   0   5  -8   12.56    3.33
  -5   0  -8    9.36    2.50
   0   5   8   10.17    2.31
   1   5  -8    6.99    3.28
   1   5  -8    2.73    2.92
   5  -1  -8    2.58    2.76
  -1  -5  -8   -1.13    3.15
   1   5  -8    7.31    3.02
  -1  -5   8    1.79    2.19
   1   5   8    1.26    2.09
  -5   1   8    3.59    2.27
   5  -2  -8    8.43    3.21
   2   5  -8    4.67    3.14
  -2  -5  -8    4.96    3.19
   2   5  -8   10.32    3.60
   2   5  -8   12.30    4.31
  -5   2   8    8.62    2.39
   5  -3  -8    0.75    5.37
  -3  -5  -8    2.19    3.35
   3   5  -8    1.95    3.94
   3   5  -8   -3.04    3.29
   3   5  -8    5.80    4.12
  -3  -5   8    6.69    2.55
  -5   3   8    7.81    2.82
   0   0  -9   10.88    3.23
   1   0  -9    2.65    3.01
   0   1  -9    1.45    2.88
  -1   0  -9   -0.31    2.69
   0  -1  -9    1.94    2.81
  -1   0   9    1.69    2.13
   1   1  -9    2.82    3.06
  -1   1  -9    9.94    2.89
  -1  -1  -9    8.06    3.00
   1  -1  -9    5.55    3.11
  -1  -1   9    2.80    2.85
  -1   1   9    6.86    2.21
   0   0   0    0.00    0.00
;
_shelx_hkl_checksum              60157
_olex2_submission_special_instructions 'No special instructions were received'
loop_
_space_group_symop_operation_xyz
'x, y, z'
'-y+1/2, x, z'
'-x+1/2, -y+1/2, z'
'y, -x+1/2, z'
'x+1/2, -y, -z'
'-x, y+1/2, -z'
'y+1/2, x+1/2, -z'
'-y, -x, -z'
'-x, -y, -z'
'y-1/2, -x, -z'
'x-1/2, y-1/2, -z'
'-y, x-1/2, -z'
'-x-1/2, y, z'
'x, -y-1/2, z'
'-y-1/2, -x-1/2, z'
'y, x, z'
loop_
_atom_site_label
_atom_site_type_symbol
_atom_site_fract_x
_atom_site_fract_y
_atom_site_fract_z
_atom_site_U_iso_or_equiv
_atom_site_adp_type
_atom_site_occupancy
_atom_site_site_symmetry_order
_atom_site_calc_flag
_atom_site_refinement_flags_posn
_atom_site_refinement_flags_adp
_atom_site_refinement_flags_occupancy
_atom_site_disorder_assembly
_atom_site_disorder_group
I1 I 0.2500 0.2500 0.16010(13) 0.0279(2) Uani 1 8 d S T P . .
P1 P 0.2500 -0.2500 0.5000 0.0211(5) Uani 1 8 d S T P . .
C1 C 0.2500 -0.0772(9) 0.6743(12) 0.064(3) Uani 1 2 d S T P . .
H1A H 0.2195 0.0193 0.5875 0.096 Uiso 0.5 1 calc GR . . A -1
H1C H 0.3592 -0.0617 0.7373 0.096 Uiso 0.5 1 calc GR . . A -1
H1B H 0.1712 -0.0931 0.7952 0.096 Uiso 0.5 1 calc GR . . A -1
loop_
_atom_site_aniso_label
_atom_site_aniso_U_11
_atom_site_aniso_U_22
_atom_site_aniso_U_33
_atom_site_aniso_U_23
_atom_site_aniso_U_13
_atom_site_aniso_U_12
I1 0.0291(3) 0.0291(3) 0.0256(4) 0.000 0.000 0.000
P1 0.0222(7) 0.0222(7) 0.0187(11) 0.000 0.000 0.000
C1 0.136(9) 0.023(3) 0.033(3) -0.007(3) 0.000 0.000
loop_
_atom_type_symbol
_atom_type_description
_atom_type_scat_dispersion_real
_atom_type_scat_dispersion_imag
_atom_type_scat_source
C C 0.0033 0.0016 'International Tables Vol C Tables 4.2.6.8 and 6.1.1.4'
H H 0.0000 0.0000 'International Tables Vol C Tables 4.2.6.8 and 6.1.1.4'
I I -0.4742 1.8119 'International Tables Vol C Tables 4.2.6.8 and 6.1.1.4'
P P 0.1023 0.0942 'International Tables Vol C Tables 4.2.6.8 and 6.1.1.4'
loop_
_geom_angle_atom_site_label_1
_geom_angle_atom_site_label_2
_geom_angle_atom_site_label_3
_geom_angle
_geom_angle_site_symmetry_1
_geom_angle_site_symmetry_3
C1 P1 C1 110.7(2) 12_556 3_545
C1 P1 C1 110.7(2) 10_656 .
C1 P1 C1 107.1(5) 12_556 10_656
C1 P1 C1 107.1(5) 3_545 .
C1 P1 C1 110.7(2) 3_545 10_656
C1 P1 C1 110.7(2) 12_556 .
loop_
_geom_bond_atom_site_label_1
_geom_bond_atom_site_label_2
_geom_bond_distance
_geom_bond_site_symmetry_2
P1 C1 1.761(7) 12_556
P1 C1 1.761(7) 10_656
P1 C1 1.761(7) .
P1 C1 1.761(7) 3_545
