#------------------------------------------------------------------------------
#$Date: 2019-11-24 21:30:50 +0200 (Sun, 24 Nov 2019) $
#$Revision: 239471 $
#$URL: file:///home/coder/svn-repositories/cod/cif/4/51/67/4516702.cif $
#------------------------------------------------------------------------------
#
# This file is available in the Crystallography Open Database (COD),
# http://www.crystallography.net/
#
# All data on this site have been placed in the public domain by the
# contributors.
#
data_4516702
loop_
_publ_author_name
'Zhang, Baoxin'
'Jiao, Haijun'
'Michalik, Dirk'
'Klo\&s, Svenja'
'Deter, Lisa Marie'
'Selent, Detlef'
'Spannenberg, Anke'
'Franke, Robert'
'B\"orner, Armin'
_publ_section_title
;
 Hydrolysis Stability of Bidentate Phosphites Utilized as Modifying
 Ligands in the Rh-Catalyzedn-Regioselective Hydroformylation of Olefins
;
_journal_issue                   11
_journal_name_full               'ACS Catalysis'
_journal_page_first              7554
_journal_paper_doi               10.1021/acscatal.6b02185
_journal_volume                  6
_journal_year                    2016
_chemical_formula_sum            'C7 H5 O4 P'
_chemical_formula_weight         184.08
_space_group_crystal_system      monoclinic
_space_group_IT_number           14
_space_group_name_Hall           '-P 2yn'
_space_group_name_H-M_alt        'P 1 21/n 1'
_atom_sites_solution_hydrogens   mixed
_audit_creation_method           SHELXL-2014/7
_cell_angle_alpha                90
_cell_angle_beta                 100.6306(8)
_cell_angle_gamma                90
_cell_formula_units_Z            4
_cell_length_a                   4.5729(2)
_cell_length_b                   14.1363(5)
_cell_length_c                   11.7191(4)
_cell_measurement_reflns_used    8072
_cell_measurement_temperature    150(2)
_cell_measurement_theta_max      28.80
_cell_measurement_theta_min      2.88
_cell_volume                     744.57(5)
_computing_cell_refinement       'SAINT (Bruker, 2013)'
_computing_data_collection       'APEX2 (Bruker, 2014)'
_computing_data_reduction        SAINT
_computing_structure_refinement  'SHELXL-2014/7 (Sheldrick, 2014)'
_computing_structure_solution    'SHELXS-97 (Sheldrick, 2008)'
_diffrn_ambient_temperature      150(2)
_diffrn_detector_area_resol_mean 8.3333
_diffrn_measured_fraction_theta_full 0.999
_diffrn_measured_fraction_theta_max 0.999
_diffrn_measurement_device_type  'Bruker APEX-II CCD'
_diffrn_measurement_method       '\f and \w scans'
_diffrn_radiation_type           MoK\a
_diffrn_radiation_wavelength     0.71073
_diffrn_reflns_av_R_equivalents  0.0195
_diffrn_reflns_av_unetI/netI     0.0109
_diffrn_reflns_Laue_measured_fraction_full 0.999
_diffrn_reflns_Laue_measured_fraction_max 0.999
_diffrn_reflns_limit_h_max       6
_diffrn_reflns_limit_h_min       -6
_diffrn_reflns_limit_k_max       18
_diffrn_reflns_limit_k_min       -18
_diffrn_reflns_limit_l_max       15
_diffrn_reflns_limit_l_min       -15
_diffrn_reflns_number            13016
_diffrn_reflns_point_group_measured_fraction_full 0.999
_diffrn_reflns_point_group_measured_fraction_max 0.999
_diffrn_reflns_theta_full        25.242
_diffrn_reflns_theta_max         27.992
_diffrn_reflns_theta_min         2.281
_diffrn_source                   'fine-focus sealed tube'
_exptl_absorpt_coefficient_mu    0.335
_exptl_absorpt_correction_T_max  0.94
_exptl_absorpt_correction_T_min  0.88
_exptl_absorpt_correction_type   multi-scan
_exptl_absorpt_process_details   'SADABS (Bruker, 2014)'
_exptl_crystal_colour            colourless
_exptl_crystal_density_diffrn    1.642
_exptl_crystal_description       prism
_exptl_crystal_F_000             376
_exptl_crystal_size_max          0.469
_exptl_crystal_size_mid          0.325
_exptl_crystal_size_min          0.183
_refine_diff_density_max         0.948
_refine_diff_density_min         -0.519
_refine_diff_density_rms         0.065
_refine_ls_extinction_method     none
_refine_ls_goodness_of_fit_ref   1.120
_refine_ls_hydrogen_treatment    mixed
_refine_ls_matrix_type           full
_refine_ls_number_parameters     112
_refine_ls_number_reflns         1787
_refine_ls_number_restraints     0
_refine_ls_restrained_S_all      1.120
_refine_ls_R_factor_all          0.0491
_refine_ls_R_factor_gt           0.0474
_refine_ls_shift/su_max          0.000
_refine_ls_shift/su_mean         0.000
_refine_ls_structure_factor_coef Fsqd
_refine_ls_weighting_details
'w=1/[\s^2^(Fo^2^)+(0.0577P)^2^+0.8393P] where P=(Fo^2^+2Fc^2^)/3'
_refine_ls_weighting_scheme      calc
_refine_ls_wR_factor_gt          0.1305
_refine_ls_wR_factor_ref         0.1317
_reflns_Friedel_coverage         0.000
_reflns_number_gt                1699
_reflns_number_total             1787
_reflns_threshold_expression     'I > 2\s(I)'
_cod_data_source_file            cs6b02185_si_004.cif
_cod_data_source_block           AX0850
_cod_original_sg_symbol_H-M      'P 21/n'
_cod_database_code               4516702
_shelx_shelxl_version_number     2014/7
_shelx_space_group_comment
;
The symmetry employed for this shelxl refinement is uniquely defined
by the following loop, which should always be used as a source of
symmetry information in preference to the above space-group names.
They are only intended as comments.
;
_shelx_res_file
;

    AX0850_multiscan_m.res created by SHELXL-2014/7


TITL AX0850_multiscan_m in P2(1)/n
CELL 0.71073 4.5729 14.1363 11.7191 90.000 100.6306 90.000
ZERR 4.00 0.0002 0.0005 0.0004 0.000 0.0008 0.000
LATT 1
SYMM -x+1/2, y+1/2, -z+1/2
SFAC C  H  O  P
UNIT 28 20 16 4
L.S. 14
ACTA
OMIT -4 56
OMIT     -1   0   5
OMIT     -2   0   4
BOND $H
FMAP 2
PLAN -10
SIZE 0.183 0.325 0.469
HTAB
CONF
TEMP -123.150
WGHT    0.057700    0.839300
FVAR       0.18636
C1    1    0.464362    0.696737    0.273103    11.00000    0.02926    0.02332 =
         0.02839   -0.00345    0.00515    0.00102
C2    1    0.568812    0.788576    0.283023    11.00000    0.05028    0.02248 =
         0.04022   -0.00282    0.01846   -0.00114
AFIX  43
H2    2    0.474473    0.836669    0.232678    11.00000   -1.20000
AFIX   0
C3    1    0.813109    0.809084    0.367584    11.00000    0.05250    0.03179 =
         0.04630   -0.01466    0.02450   -0.01746
AFIX  43
H3    2    0.887879    0.871923    0.374848    11.00000   -1.20000
AFIX   0
C4    1    0.951321    0.739645    0.442100    11.00000    0.03862    0.04852 =
         0.03629   -0.01709    0.00913   -0.01687
AFIX  43
H4    2    1.117273    0.755154    0.500638    11.00000   -1.20000
AFIX   0
C5    1    0.847040    0.648087    0.430910    11.00000    0.03123    0.03868 =
         0.02720   -0.00484    0.00225   -0.00167
AFIX  43
H5    2    0.942303    0.600238    0.481417    11.00000   -1.20000
AFIX   0
C6    1    0.601274    0.625399    0.345379    11.00000    0.02703    0.02304 =
         0.02594   -0.00311    0.00499   -0.00127
C7    1    0.501252    0.526518    0.333646    11.00000    0.03217    0.02467 =
         0.03173   -0.00007    0.00239   -0.00051
O1    3    0.212939    0.679475    0.189118    11.00000    0.03540    0.02700 =
         0.03790   -0.00043   -0.00521    0.00629
O2    3   -0.196704    0.565361    0.104706    11.00000    0.02248    0.06017 =
         0.05993   -0.01467   -0.00270    0.00340
O3    3    0.251943    0.509453    0.247565    11.00000    0.03488    0.02478 =
         0.04714   -0.00140   -0.00487   -0.00660
O4    3    0.607909    0.460942    0.389757    11.00000    0.05930    0.02792 =
         0.04795    0.00670   -0.00352    0.00237
P1    4    0.122830    0.577106    0.142410    11.00000    0.02160    0.03430 =
         0.03636   -0.00824   -0.00175    0.00305
H1    2    0.281265    0.548548    0.070937    11.00000   -1.20000
HKLF 4 1 1 0 0 0 1 0 0 0 1

REM  AX0850_multiscan_m in P2(1)/n
REM R1 =  0.0474 for    1699 Fo > 4sig(Fo)  and  0.0491 for all    1787 data
REM    112 parameters refined using      0 restraints

END

WGHT      0.0577      0.8393

REM Instructions for potential hydrogen bonds
EQIV $1 -x, -y+1, -z
HTAB P1 O2_$1

REM Highest difference peak  0.948,  deepest hole -0.519,  1-sigma level  0.065
Q1    1   0.0947  0.5576  0.2016  11.00000  0.05    0.45
Q2    1   0.5487  0.5798  0.3465  11.00000  0.05    0.33
Q3    1   0.1779  0.5211  0.3004  11.00000  0.05    0.32
Q4    1   0.5399  0.7406  0.2776  11.00000  0.05    0.30
Q5    1   0.1936  0.6271  0.1648  11.00000  0.05    0.30
Q6    1   0.5169  0.6624  0.3197  11.00000  0.05    0.29
Q7    1   0.9035  0.6946  0.4270  11.00000  0.05    0.29
Q8    1   0.7284  0.6390  0.3893  11.00000  0.05    0.27
Q9    1  -0.1740  0.6147  0.1181  11.00000  0.05    0.22
Q10   1  -0.2274  0.5349  0.1641  11.00000  0.05    0.21
;
_shelx_res_checksum              15661
_shelx_hkl_file
;
  -1   0   0    0.01    0.01
  -1   0   0    0.06    0.02
  -1   0   0    0.01    0.01
   2   0   0    8.64    0.21
   2   0   0    8.47    0.20
  -2   0   0    8.34    0.20
   2   0   0    8.35    0.19
   3   0   0   -0.01    0.02
  -3   0   0    0.06    0.03
  -3   0   0    0.02    0.03
   3   0   0    0.05    0.03
   3   0   0    0.08    0.03
  -4   0   0    4.65    0.16
   4   0   0    4.73    0.16
   4   0   0    4.58    0.16
  -4   0   0    4.58    0.16
   5   0   0   -0.04    0.03
   5   0   0   -0.03    0.04
  -5   0   0    0.01    0.04
  -5   0   0    0.00    0.03
   6   0   0    0.09    0.05
  -6   0   0    0.06    0.06
  -6   0   0    0.07    0.05
   0   1   0   -0.03    0.00
   1  -1   0    0.58    0.03
   1  -1   0    0.60    0.03
   1  -1   0    0.64    0.03
   1  -1   0    0.66    0.03
   1   1   0    0.64    0.03
  -1   1   0    0.65    0.03
  -1   1   0    0.61    0.03
  -1   1   0    0.70    0.04
   1   1   0    0.67    0.04
  -2  -1   0    0.38    0.03
  -2  -1   0    0.37    0.04
   2  -1   0    0.32    0.03
   2  -1   0    0.33    0.03
   2  -1   0    0.34    0.03
   2   1   0    0.30    0.03
  -2   1   0    0.36    0.03
   2   1   0    0.34    0.03
   2   1   0    0.45    0.04
  -2   1   0    0.34    0.04
  -3  -1   0   34.54    0.74
  -3  -1   0   34.23    0.74
   3  -1   0   35.26    0.73
   3  -1   0   36.40    0.74
   3  -1   0   34.97    0.74
   3   1   0   33.83    0.75
   3   1   0   33.60    0.72
   3   1   0   33.77    0.74
  -3   1   0   35.35    0.74
  -3   1   0   35.26    0.74
  -4  -1   0    0.06    0.03
   4  -1   0    0.09    0.04
  -4  -1   0    0.09    0.04
   4  -1   0    0.05    0.03
   4  -1   0    0.10    0.03
   4  -1   0    0.09    0.04
   4   1   0    0.12    0.04
  -4   1   0    0.07    0.04
   4   1   0    0.06    0.04
  -4   1   0    0.06    0.04
  -5  -1   0    0.74    0.08
   5  -1   0    0.45    0.06
   5  -1   0    0.48    0.07
  -5  -1   0    0.58    0.07
   5   1   0    0.51    0.07
  -5   1   0    0.49    0.07
  -5   1   0    0.66    0.08
  -6  -1   0    2.19    0.13
  -6  -1   0    1.98    0.14
   6  -1   0    1.96    0.13
  -6   1   0    1.93    0.14
  -6   1   0    1.74    0.12
   6   1   0    2.28    0.14
   0  -2   0   32.43    0.67
   0  -2   0   33.74    0.66
   0   2   0   32.87    0.66
  -1  -2   0   39.16    0.79
   1  -2   0   38.48    0.78
   1  -2   0   38.80    0.78
   1  -2   0   38.30    0.78
  -1  -2   0   39.06    0.78
   1  -2   0   38.19    0.79
   1  -2   0   37.64    0.79
   1   2   0   39.65    0.79
  -1   2   0   39.50    0.78
  -1   2   0   39.42    0.78
   1   2   0   39.31    0.78
   2  -2   0   19.02    0.40
  -2  -2   0   18.79    0.41
   2  -2   0   19.18    0.41
  -2  -2   0   19.04    0.41
   2  -2   0   19.56    0.41
   2  -2   0   18.95    0.41
  -2   2   0   18.70    0.41
   2   2   0   19.04    0.41
  -2   2   0   19.34    0.42
   2   2   0   18.77    0.40
   2   2   0   19.21    0.42
   3  -2   0    3.15    0.12
  -3  -2   0    3.33    0.11
   3  -2   0    3.03    0.11
  -3  -2   0    3.19    0.12
   3  -2   0    2.93    0.11
   3  -2   0    2.93    0.11
  -3   2   0    3.00    0.11
  -3   2   0    3.07    0.12
   3   2   0    3.30    0.10
   3   2   0    3.40    0.11
   3   2   0    3.37    0.12
  -4  -2   0    1.80    0.10
  -4  -2   0    1.59    0.09
   4  -2   0    1.71    0.09
   4  -2   0    1.84    0.09
   4  -2   0    1.75    0.10
   4   2   0    1.57    0.09
   4   2   0    1.62    0.10
  -4   2   0    1.76    0.10
  -4   2   0    1.75    0.09
  -5  -2   0    0.17    0.05
   5  -2   0    0.18    0.05
  -5  -2   0    0.17    0.05
   5  -2   0    0.24    0.05
  -5   2   0    0.16    0.05
   5   2   0    0.17    0.05
  -5   2   0    0.19    0.05
   6  -2   0    0.04    0.04
  -6  -2   0    0.05    0.05
  -6  -2   0    0.10    0.05
   6   2   0    0.08    0.05
  -6   2   0    0.09    0.06
  -6   2   0    0.04    0.05
   0  -3   0    0.19    0.02
   0  -3   0    0.19    0.02
   0  -3   0    0.19    0.02
   0   3   0    0.22    0.02
   0   3   0    0.18    0.02
  -1  -3   0   17.94    0.37
   1  -3   0   17.08    0.37
  -1  -3   0   17.88    0.36
  -1  -3   0   17.98    0.36
   1  -3   0   17.31    0.37
   1  -3   0   17.84    0.36
   1  -3   0   17.09    0.37
  -1   3   0   17.40    0.37
   1   3   0   17.93    0.36
  -1   3   0   17.42    0.36
   2  -3   0   11.08    0.27
   2  -3   0   11.54    0.27
  -2  -3   0   11.37    0.26
  -2  -3   0   11.24    0.27
   2  -3   0   11.47    0.26
   2  -3   0   11.73    0.26
   2  -3   0   12.04    0.26
   2   3   0   11.43    0.26
  -2   3   0   11.71    0.27
   2   3   0   11.27    0.28
   2   3   0   11.55    0.25
  -2   3   0   11.52    0.26
  -2   3   0   11.74    0.24
  -3  -3   0    0.09    0.03
   3  -3   0    0.05    0.03
   3  -3   0    0.20    0.04
   3  -3   0    0.04    0.03
   3  -3   0    0.04    0.03
  -3  -3   0    0.06    0.03
   3   3   0    0.06    0.03
  -3   3   0    0.05    0.03
   3   3   0    0.09    0.03
  -4  -3   0    4.24    0.14
   4  -3   0    4.14    0.15
   4  -3   0    4.49    0.15
  -4  -3   0    4.52    0.16
   4  -3   0    4.26    0.16
   4   3   0    4.46    0.15
  -4   3   0    4.18    0.16
  -4   3   0    4.21    0.15
   4   3   0    4.26    0.17
   5  -3   0    0.62    0.08
   5  -3   0    0.65    0.07
  -5  -3   0    0.52    0.07
  -5  -3   0    0.63    0.07
  -5   3   0    0.68    0.08
   5   3   0    0.51    0.08
  -5   3   0    0.69    0.08
   5   3   0    0.55    0.07
  -6  -3   0    3.87    0.19
   6  -3   0    4.01    0.18
  -6  -3   0    4.20    0.19
  -6   3   0    4.00    0.18
  -6   3   0    4.19    0.20
   6   3   0    4.41    0.19
   0  -4   0   25.95    0.54
   0  -4   0   26.08    0.54
   0  -4   0   27.07    0.54
   0   4   0   26.35    0.54
   0   4   0   26.31    0.54
   1  -4   0    3.52    0.08
   1  -4   0    3.37    0.09
  -1  -4   0    3.31    0.09
   1  -4   0    3.40    0.10
  -1  -4   0    3.42    0.09
  -1  -4   0    3.45    0.09
  -1   4   0    3.50    0.09
   1   4   0    3.41    0.08
  -1   4   0    3.63    0.08
  -1   4   0    3.56    0.10
  -2  -4   0    2.15    0.06
   2  -4   0    2.08    0.06
   2  -4   0    2.11    0.07
   2  -4   0    1.96    0.08
   2  -4   0    2.04    0.07
   2  -4   0    2.02    0.08
  -2  -4   0    2.11    0.07
  -2  -4   0    2.15    0.08
  -2   4   0    2.06    0.05
  -2   4   0    2.08    0.07
   2   4   0    2.17    0.07
   2   4   0    2.03    0.09
  -2   4   0    2.07    0.08
   2   4   0    2.19    0.06
  -3  -4   0   25.94    0.55
   3  -4   0   26.51    0.56
   3  -4   0   25.90    0.57
  -3  -4   0   25.09    0.57
   3  -4   0   25.90    0.58
   3  -4   0   26.38    0.56
   3  -4   0   25.51    0.55
   3   4   0   25.12    0.59
   3   4   0   25.44    0.56
  -3   4   0   25.73    0.57
  -3   4   0   25.67    0.57
   4  -4   0   14.52    0.38
   4  -4   0   14.05    0.36
   4  -4   0   14.58    0.37
  -4  -4   0   14.66    0.37
  -4  -4   0   14.28    0.35
  -4   4   0   14.37    0.36
  -4   4   0   14.68    0.37
   4   4   0   14.59    0.39
   4   4   0   15.18    0.37
   5  -4   0    5.50    0.19
   5  -4   0    5.63    0.21
  -5  -4   0    5.86    0.21
  -5  -4   0    5.19    0.18
  -5   4   0    5.36    0.20
   5   4   0    5.68    0.20
  -5   4   0    5.45    0.21
   0  -5   0    0.28    0.03
   0  -5   0    0.27    0.03
   0   5   0    0.33    0.03
   0   5   0    0.28    0.02
  -1  -5   0   28.29    0.59
  -1  -5   0   28.57    0.59
   1  -5   0   27.42    0.59
  -1  -5   0   28.40    0.59
   1  -5   0   28.17    0.60
  -1   5   0   28.53    0.60
   1   5   0   28.34    0.61
   1   5   0   28.64    0.58
  -1   5   0   29.13    0.58
  -1   5   0   29.68    0.58
   1   5   0   28.85    0.58
  -1   5   0   28.50    0.58
   2  -5   0    0.16    0.03
   2  -5   0    0.11    0.03
   2  -5   0    0.18    0.03
  -2  -5   0    0.22    0.02
  -2  -5   0    0.24    0.03
   2  -5   0    0.19    0.02
  -2  -5   0    0.19    0.02
  -2   5   0    0.10    0.03
   2   5   0    0.23    0.02
   2   5   0    0.22    0.03
  -2   5   0    0.21    0.02
   2   5   0    0.16    0.03
  -2   5   0    0.18    0.03
  -3  -5   0    4.17    0.12
   3  -5   0    4.23    0.15
   3  -5   0    4.06    0.14
   3  -5   0    4.24    0.13
  -3  -5   0    4.23    0.14
   3  -5   0    4.22    0.13
   3   5   0    4.00    0.15
  -3   5   0    4.24    0.14
  -3   5   0    4.24    0.15
   3   5   0    4.14    0.13
  -4  -5   0    0.27    0.04
  -4  -5   0    0.29    0.05
   4  -5   0    0.31    0.05
   4  -5   0    0.29    0.06
  -4   5   0    0.36    0.06
   4   5   0    0.17    0.04
   4   5   0    0.28    0.04
  -4   5   0    0.31    0.05
   4   5   0    0.27    0.06
   5  -5   0    0.03    0.03
  -5  -5   0    0.12    0.04
   5  -5   0    0.13    0.05
  -5   5   0    0.08    0.05
   5   5   0    0.04    0.04
  -5   5   0    0.08    0.04
   0  -6   0    0.74    0.04
   0  -6   0    0.72    0.04
   0   6   0    0.74    0.04
   0   6   0    0.70    0.04
  -1  -6   0   87.97    1.77
   1  -6   0   84.95    1.79
  -1  -6   0   89.61    1.77
   1  -6   0   85.83    1.78
  -1   6   0   87.86    1.78
  -1   6   0   88.23    1.76
   1   6   0   86.41    1.78
   1   6   0   92.20    1.80
   1   6   0   91.56    1.76
  -1   6   0   88.83    1.77
  -1   6   0   86.74    1.76
  -1   6   0   91.64    1.76
   1   6   0   90.61    1.76
   2  -6   0   13.87    0.33
  -2  -6   0   13.58    0.30
  -2  -6   0   13.88    0.29
   2  -6   0   13.40    0.32
   2  -6   0   13.72    0.33
  -2  -6   0   13.95    0.32
   2  -6   0   13.85    0.30
   2   6   0   13.47    0.30
  -2   6   0   13.67    0.31
  -2   6   0   13.52    0.29
  -2   6   0   13.61    0.32
   2   6   0   13.85    0.34
   3  -6   0   11.81    0.30
   3  -6   0   11.98    0.29
  -3  -6   0   11.28    0.29
  -3  -6   0   11.11    0.27
   3  -6   0   11.86    0.28
   3  -6   0   11.94    0.31
  -3   6   0   11.70    0.30
   3   6   0   11.34    0.28
   3   6   0   11.08    0.31
  -3   6   0   11.79    0.29
   4  -6   0   19.15    0.45
   4  -6   0   18.99    0.48
  -4  -6   0   18.84    0.47
   4   6   0   19.06    0.49
   4   6   0   19.21    0.46
  -4   6   0   20.04    0.46
   4   6   0   19.57    0.46
  -4   6   0   19.03    0.47
   5  -6   0    0.08    0.05
   5  -6   0    0.12    0.04
  -5  -6   0    0.10    0.04
  -5   6   0    0.08    0.05
   5   6   0    0.11    0.04
  -5   6   0    0.11    0.05
   5   6   0    0.09    0.04
   0  -7   0    0.31    0.03
   0  -7   0    0.30    0.03
   0   7   0    0.28    0.03
   0   7   0    0.31    0.03
  -1  -7   0   35.37    0.73
  -1  -7   0   34.92    0.73
   1  -7   0   34.65    0.74
   1  -7   0   34.88    0.74
   1   7   0   34.00    0.74
  -1   7   0   34.40    0.74
   1   7   0   35.58    0.75
  -1   7   0   35.87    0.72
   1   7   0   35.77    0.71
  -1   7   0   35.61    0.72
   1   7   0   35.99    0.72
  -1   7   0   35.35    0.71
   2  -7   0   14.50    0.35
  -2  -7   0   15.27    0.34
   2  -7   0   14.49    0.34
   2  -7   0   14.75    0.31
  -2  -7   0   14.78    0.32
   2   7   0   14.51    0.36
  -2   7   0   14.78    0.33
  -2   7   0   14.61    0.35
   2   7   0   14.16    0.34
   2   7   0   14.39    0.32
   3  -7   0    4.62    0.15
   3  -7   0    4.52    0.17
   3  -7   0    4.65    0.14
  -3  -7   0    5.18    0.16
   3   7   0    4.88    0.16
  -3   7   0    4.64    0.15
   3   7   0    5.06    0.15
  -3   7   0    4.63    0.16
   3   7   0    4.82    0.18
   4  -7   0    0.09    0.04
   4  -7   0    0.09    0.05
  -4  -7   0    0.11    0.04
   4   7   0    0.13    0.05
   4   7   0    0.04    0.03
  -4   7   0    0.08    0.04
   4   7   0    0.07    0.04
  -4   7   0    0.15    0.05
  -5  -7   0    2.04    0.12
   5  -7   0    2.33    0.14
  -5   7   0    2.26    0.12
   5   7   0    2.04    0.12
   5   7   0    2.21    0.12
  -5   7   0    2.44    0.14
   0  -8   0   49.41    1.01
   0  -8   0   48.65    1.01
   0   8   0   49.49    1.01
   0   8   0   51.12    1.02
   0   8   0   47.64    1.02
  -1  -8   0    0.13    0.02
   1  -8   0    0.10    0.03
  -1  -8   0    0.14    0.03
   1  -8   0    0.11    0.03
  -1   8   0    0.09    0.02
  -1   8   0    0.10    0.02
   1   8   0    0.19    0.03
  -1   8   0    0.13    0.02
  -1   8   0    0.17    0.03
   1   8   0    0.15    0.03
   1   8   0    0.12    0.02
  -2  -8   0    2.18    0.09
   2  -8   0    2.20    0.10
   2  -8   0    2.06    0.09
  -2  -8   0    2.27    0.08
   2   8   0    2.25    0.11
   2   8   0    2.26    0.08
  -2   8   0    2.14    0.08
   2   8   0    2.32    0.10
  -2   8   0    2.17    0.10
   3  -8   0    8.33    0.25
   3  -8   0    8.96    0.24
  -3  -8   0    8.70    0.24
   3   8   0    8.53    0.24
  -3   8   0    8.58    0.25
   3   8   0    8.30    0.23
   3   8   0    8.80    0.27
  -3   8   0    8.36    0.23
  -4  -8   0    1.68    0.10
   4  -8   0    1.93    0.12
   4  -8   0    1.90    0.10
  -4   8   0    1.62    0.11
   4   8   0    1.83    0.10
   4   8   0    1.69    0.10
   4   8   0    1.60    0.12
  -4   8   0    1.95    0.10
   5  -8   0    1.84    0.13
  -5  -8   0    1.83    0.12
  -5   8   0    1.84    0.11
   5   8   0    1.75    0.11
   5   8   0    1.84    0.11
  -5   8   0    1.73    0.13
   0  -9   0    0.15    0.03
   0  -9   0    0.25    0.03
   0   9   0    0.15    0.03
   0   9   0    0.32    0.04
   0   9   0    0.20    0.03
   1  -9   0    1.10    0.07
  -1  -9   0    1.16    0.06
   1  -9   0    1.10    0.07
  -1  -9   0    1.01    0.06
  -1   9   0    1.01    0.05
  -1   9   0    1.07    0.06
   1   9   0    1.04    0.05
  -1   9   0    1.03    0.05
   1   9   0    1.00    0.07
   1   9   0    1.06    0.06
   2  -9   0   19.99    0.48
   2  -9   0   20.44    0.47
  -2  -9   0   20.64    0.45
  -2   9   0   19.38    0.44
  -2   9   0   20.22    0.47
   2   9   0   21.27    0.47
   2   9   0   20.67    0.49
   3  -9   0    7.31    0.23
   3  -9   0    7.15    0.21
  -3  -9   0    6.49    0.21
   3   9   0    6.47    0.21
   3   9   0    6.81    0.19
  -3   9   0    7.29    0.20
  -3   9   0    7.43    0.22
   3   9   0    7.10    0.23
  -4  -9   0    0.11    0.04
   4  -9   0    0.16    0.05
   4  -9   0    0.10    0.04
  -4   9   0    0.15    0.04
   4   9   0    0.11    0.04
  -4   9   0    0.16    0.05
   4   9   0    0.19    0.05
  -5  -9   0    0.06    0.04
   5  -9   0    0.04    0.05
  -5   9   0    0.04    0.04
   5   9   0    0.04    0.04
   5   9   0    0.02    0.04
  -5   9   0   -0.04    0.05
   0 -10   0    1.51    0.08
   0 -10   0    1.42    0.07
   0  10   0    1.44    0.07
   0  10   0    1.60    0.07
   0  10   0    1.34    0.07
   1 -10   0    7.67    0.22
  -1 -10   0    7.84    0.20
   1 -10   0    7.58    0.21
  -1 -10   0    8.07    0.21
   1  10   0    7.90    0.20
  -1  10   0    7.73    0.19
  -1  10   0    7.55    0.21
   1  10   0    7.71    0.21
   1  10   0    8.16    0.23
   2 -10   0    0.50    0.06
  -2 -10   0    0.54    0.05
   2 -10   0    0.46    0.06
  -2  10   0    0.59    0.06
   2  10   0    0.59    0.06
   2  10   0    0.54    0.07
   3 -10   0    5.97    0.20
   3 -10   0    6.29    0.19
  -3 -10   0    5.72    0.19
  -3  10   0    6.07    0.18
  -3  10   0    5.99    0.20
   3  10   0    5.93    0.22
   3  10   0    5.92    0.20
   4 -10   0    1.28    0.09
   4 -10   0    1.19    0.10
  -4 -10   0    1.18    0.09
  -4  10   0    1.24    0.09
   4  10   0    1.23    0.09
  -4  10   0    1.30    0.11
   5 -10   0    1.06    0.11
  -5 -10   0    1.08    0.10
   5  10   0    1.17    0.10
  -5  10   0    0.81    0.10
   5  10   0    1.04    0.10
  -5  10   0    1.00    0.09
   0 -11   0    0.04    0.03
   0 -11   0    0.04    0.03
   0  11   0    0.04    0.03
   0  11   0    0.05    0.03
   0  11   0    0.08    0.03
   1 -11   0    3.28    0.13
   1 -11   0    2.85    0.12
  -1 -11   0    2.86    0.11
  -1 -11   0    3.18    0.12
   1  11   0    3.19    0.12
  -1  11   0    2.95    0.10
   1  11   0    3.22    0.13
  -1  11   0    3.20    0.12
  -2 -11   0    2.55    0.10
   2 -11   0    2.65    0.12
   2 -11   0    2.85    0.12
   2  11   0    2.49    0.12
   2  11   0    2.66    0.12
  -2  11   0    2.61    0.12
   3 -11   0    2.72    0.12
   3 -11   0    2.67    0.14
  -3  11   0    2.66    0.13
   3  11   0    2.75    0.13
   3  11   0    2.73    0.14
   4 -11   0    0.01    0.04
  -4 -11   0    0.14    0.04
   4 -11   0    0.09    0.05
  -4  11   0    0.04    0.05
   4  11   0    0.12    0.04
  -4  11   0    0.06    0.04
  -5 -11   0    1.33    0.11
   5 -11   0    1.32    0.12
  -5  11   0    1.38    0.13
   5  11   0    1.14    0.10
   0 -12   0    1.11    0.08
   0 -12   0    1.12    0.07
   0  12   0    1.15    0.07
   0  12   0    1.09    0.07
   0  12   0    1.10    0.08
  -1 -12   0   11.85    0.29
   1 -12   0   11.68    0.31
   1 -12   0   11.46    0.31
  -1 -12   0   11.88    0.30
   1  12   0   11.87    0.31
  -1  12   0   12.00    0.31
   1  12   0   11.85    0.31
   2 -12   0    7.07    0.22
  -2 -12   0    6.98    0.20
   2 -12   0    7.02    0.22
   2  12   0    7.22    0.22
   2  12   0    7.15    0.23
  -2  12   0    7.08    0.22
   3 -12   0    3.89    0.16
   3 -12   0    4.05    0.17
   3  12   0    4.24    0.27
  -3  12   0    4.02    0.17
   3  12   0    3.60    0.16
   4 -12   0    0.45    0.08
   4 -12   0    0.25    0.06
   4  12   0    0.32    0.07
  -4  12   0    0.36    0.07
   0 -13   0    0.03    0.03
   0 -13   0    0.04    0.03
   0  13   0   -0.03    0.03
   0  13   0    0.02    0.03
   1 -13   0   32.05    0.71
   1 -13   0   30.91    0.71
  -1 -13   0   30.83    0.70
   1  13   0   31.97    0.72
   1  13   0   32.51    0.71
  -1  13   0   32.15    0.71
   2 -13   0    0.02    0.04
   2 -13   0    0.01    0.03
  -2  13   0    0.02    0.04
   2  13   0    0.02    0.03
   2  13   0    0.04    0.04
   3 -13   0    2.94    0.14
   3 -13   0    2.88    0.15
  -3  13   0    2.77    0.14
   3  13   0    2.81    0.14
   4 -13   0    2.55    0.14
   4 -13   0    2.66    0.16
   4  13   0    2.48    0.14
  -4  13   0    2.58    0.15
   0 -14   0    2.54    0.12
   0 -14   0    2.55    0.12
   0  14   0    2.77    0.12
   0  14   0    2.61    0.12
   1 -14   0    0.85    0.08
   1 -14   0    0.81    0.08
  -1 -14   0    0.83    0.07
   1  14   0    0.93    0.07
   1  14   0    0.75    0.08
  -1  14   0    0.90    0.08
   2 -14   0    0.01    0.04
   2 -14   0    0.04    0.04
   2  14   0    0.04    0.04
   2  14   0    0.05    0.04
  -2  14   0    0.06    0.04
   3 -14   0    0.03    0.04
   3 -14   0    0.05    0.04
  -3  14   0    0.05    0.04
   3  14   0   -0.02    0.04
   4 -14   0    2.69    0.16
   4 -14   0    2.75    0.15
   4  14   0    2.72    0.15
  -4  14   0    2.54    0.16
   0 -15   0    0.08    0.04
   0 -15   0    0.02    0.03
   0  15   0    0.11    0.04
   0  15   0    0.03    0.03
   1 -15   0    0.53    0.07
  -1 -15   0    0.51    0.06
   1 -15   0    0.62    0.07
   1  15   0    0.51    0.06
  -1  15   0    0.63    0.07
   1  15   0    0.50    0.06
   2 -15   0    3.44    0.16
   2 -15   0    3.23    0.15
  -2  15   0    3.38    0.15
   2  15   0    3.34    0.15
   3 -15   0    0.23    0.06
   3 -15   0    0.25    0.06
  -3  15   0    0.22    0.06
   3  15   0    0.21    0.06
   0 -16   0    2.10    0.12
   0  16   0    2.32    0.12
  -1 -16   0    1.43    0.10
   1 -16   0    1.34    0.10
   1 -16   0    1.39    0.10
   1  16   0    1.43    0.10
   1  16   0    1.51    0.10
  -1  16   0    1.33    0.10
   2 -16   0    1.89    0.13
   2 -16   0    2.01    0.13
  -2  16   0    1.85    0.12
   2  16   0    1.94    0.12
   3 -16   0    1.70    0.13
   3 -16   0    1.78    0.13
   3  16   0    1.70    0.12
  -3  16   0    1.67    0.13
   0 -17   0    0.04    0.04
   0  17   0    0.03    0.04
   1 -17   0    0.04    0.04
  -1 -17   0    0.13    0.05
   1 -17   0    0.06    0.05
   1  17   0    0.01    0.04
  -1  17   0    0.07    0.05
   1  17   0    0.06    0.04
   2 -17   0    1.55    0.12
   2 -17   0    1.64    0.13
  -2  17   0    1.72    0.12
   2  17   0    1.75    0.12
   0 -18   0    5.82    0.22
   0  18   0    6.10    0.22
   1 -18   0    1.17    0.11
  -1 -18   0    0.99    0.10
   1  18   0    0.88    0.10
  -1  18   0    0.73    0.09
   1  18   0    1.07    0.10
   2 -18   0    1.15    0.11
   2 -18   0    1.12    0.12
   2  18   0    0.94    0.11
  -2  18   0    1.10    0.11
   0 -19   0    0.08    0.05
   0  19   0    0.05    0.04
  -6   0   1    0.05    0.04
   6   0  -1    0.04    0.04
  -6   0   1    0.00    0.05
   5   0  -1    1.13    0.09
  -5   0   1    1.20    0.10
  -5   0   1    1.10    0.09
   4   0  -1   -0.02    0.03
  -4   0   1    0.04    0.04
  -4   0   1   -0.01    0.03
   4   0  -1    0.01    0.03
   4   0  -1    0.00    0.03
   3   0  -1   27.30    0.58
  -3   0   1   27.20    0.59
   3   0  -1   27.19    0.60
   2   0  -1    0.10    0.02
   2   0  -1    0.11    0.02
  -2   0   1    0.14    0.02
  -2   0   1    0.17    0.03
   2   0  -1    0.15    0.03
   1   0  -1   89.30    1.76
   1   0  -1   84.85    1.71
  -1   0   1   85.10    1.75
  -1   0   1   84.24    1.74
   1   0  -1   85.67    1.74
  -1   0   1   85.19    1.75
  -1   0  -1    6.20    0.14
   1   0   1    6.25    0.14
   1   0   1    6.24    0.14
  -1   0  -1    6.33    0.14
   1   0   1    6.22    0.14
  -1   0  -1    6.05    0.14
  -1   0  -1    6.41    0.14
   2   0   1    0.07    0.02
   2   0   1    0.07    0.02
  -2   0  -1    0.08    0.03
  -2   0  -1    0.08    0.02
  -2   0  -1    0.13    0.02
   2   0   1    0.08    0.02
   3   0   1    0.36    0.05
   3   0   1    0.28    0.04
  -3   0  -1    0.35    0.05
  -3   0  -1    0.34    0.04
   3   0   1    0.33    0.04
  -4   0  -1    0.05    0.03
   4   0   1    0.00    0.03
   4   0   1    0.03    0.03
  -4   0  -1    0.04    0.03
   4   0   1   -0.01    0.03
   5   0   1    0.89    0.08
  -5   0  -1    0.95    0.10
  -5   0  -1    0.83    0.08
   6   0   1    0.06    0.05
  -6   0  -1    0.06    0.06
  -6   0  -1    0.06    0.05
  -6  -1   1    3.31    0.17
   6  -1  -1    3.52    0.16
  -6  -1   1    3.43    0.16
  -6   1   1    3.68    0.18
  -6   1   1    3.47    0.16
   6   1  -1    3.74    0.17
  -5  -1   1    0.72    0.08
   5  -1  -1    0.75    0.09
  -5  -1   1    0.56    0.07
   5  -1  -1    0.77    0.08
  -5   1   1    0.68    0.08
   5   1  -1    0.70    0.08
  -5   1   1    0.73    0.08
   4  -1  -1    0.15    0.04
   4  -1  -1    0.09    0.04
   4  -1  -1    0.05    0.03
  -4  -1   1    0.05    0.04
  -4  -1   1    0.16    0.04
  -4   1   1    0.16    0.05
   4   1  -1    0.08    0.04
   4   1  -1    0.05    0.04
   4   1  -1    0.11    0.04
  -4   1   1    0.07    0.03
  -3  -1   1   56.72    1.15
   3  -1  -1   55.14    1.15
   3  -1  -1   55.67    1.15
  -3  -1   1   55.72    1.14
   3  -1  -1   55.95    1.15
   3  -1  -1   53.95    1.14
   3   1  -1   55.83    1.15
  -3   1   1   55.32    1.15
   3   1  -1   55.70    1.13
  -3   1   1   55.00    1.15
   3   1  -1   55.19    1.16
   2  -1  -1    1.55    0.06
   2  -1  -1    1.66    0.07
  -2  -1   1    1.50    0.06
   2  -1  -1    1.52    0.06
   2  -1  -1    1.64    0.06
   2   1  -1    1.54    0.05
   2   1  -1    1.55    0.06
  -2   1   1    1.53    0.06
   2   1  -1    1.57    0.07
  -2   1   1    1.55    0.06
  -1  -1   1   86.10    1.70
   1  -1  -1   85.33    1.77
   1  -1  -1   85.40    1.72
   1  -1  -1   83.11    1.74
  -1  -1   1   85.56    1.75
   1   1  -1   84.95    1.72
  -1   1   1   86.72    1.73
  -1   1   1   83.86    1.73
   1   1  -1   87.15    1.72
  -1   1   1   86.21    1.70
   1   1  -1   85.56    1.71
   0  -1   1    4.60    0.10
   0   1  -1    4.59    0.10
   1  -1   1   36.38    0.75
   1  -1   1   36.41    0.75
   1  -1   1   37.53    0.74
   1  -1   1   35.86    0.74
  -1  -1  -1   37.51    0.75
  -1  -1  -1   36.91    0.75
  -1  -1  -1   36.99    0.75
   1   1   1   37.08    0.75
   1   1   1   36.97    0.75
  -1   1  -1   37.79    0.74
   1   1   1   37.97    0.76
  -1   1  -1   36.77    0.75
  -1   1  -1   36.61    0.74
  -1   1  -1   37.29    0.75
   2  -1   1  129.25    2.51
   2  -1   1  128.85    2.50
   2  -1   1  127.63    2.50
   2  -1   1  123.36    2.49
  -2  -1  -1  121.64    2.51
  -2  -1  -1  121.85    2.50
   2   1   1  126.29    2.51
  -2   1  -1  126.08    2.50
   2   1   1  124.91    2.49
  -2   1  -1  124.28    2.49
   2   1   1  122.07    2.50
  -2   1  -1  126.31    2.50
   3  -1   1    8.35    0.21
   3  -1   1    8.12    0.22
  -3  -1  -1    8.57    0.22
   3  -1   1    8.05    0.21
  -3  -1  -1    8.25    0.21
   3   1   1    8.37    0.22
  -3   1  -1    7.89    0.21
  -3   1  -1    8.24    0.22
   3   1   1    8.03    0.20
   3   1   1    8.18    0.22
  -4  -1  -1    2.73    0.11
  -4  -1  -1    2.72    0.12
   4  -1   1    2.83    0.11
   4  -1   1    2.61    0.11
   4   1   1    2.60    0.12
  -4   1  -1    2.77    0.11
  -4   1  -1    2.59    0.12
   4   1   1    2.77    0.12
  -5  -1  -1    0.08    0.05
   5  -1   1    0.08    0.04
   5  -1   1   -0.01    0.04
  -5  -1  -1    0.07    0.04
  -5   1  -1    0.11    0.05
  -5   1  -1    0.04    0.04
   5   1   1    0.08    0.04
  -6  -1  -1    2.93    0.16
   6  -1   1    3.07    0.16
  -6  -1  -1    2.97    0.15
   6   1   1    3.28    0.16
  -6   1  -1    3.28    0.17
  -6   1  -1    3.27    0.16
  -6  -2   1    1.76    0.12
   6  -2  -1    1.44    0.11
  -6  -2   1    1.43    0.13
  -6   2   1    1.68    0.13
  -6   2   1    1.55    0.12
   6   2  -1    1.92    0.13
  -5  -2   1    0.38    0.06
  -5  -2   1    0.21    0.05
   5  -2  -1    0.27    0.05
   5  -2  -1    0.33    0.06
  -5   2   1    0.29    0.06
   5   2  -1    0.32    0.06
  -5   2   1    0.48    0.07
   5   2  -1    0.25    0.06
   4  -2  -1    4.79    0.16
   4  -2  -1    5.14    0.17
  -4  -2   1    5.00    0.16
   4  -2  -1    4.71    0.17
  -4  -2   1    4.92    0.17
   4   2  -1    5.07    0.15
  -4   2   1    4.37    0.16
  -4   2   1    4.62    0.17
   4   2  -1    5.01    0.16
   4   2  -1    4.99    0.18
   3  -2  -1    2.10    0.09
   3  -2  -1    2.12    0.09
  -3  -2   1    2.12    0.08
  -3  -2   1    1.89    0.09
   3  -2  -1    1.92    0.08
   3   2  -1    2.04    0.09
   3   2  -1    2.00    0.08
   3   2  -1    1.98    0.10
  -3   2   1    2.20    0.10
  -3   2   1    2.08    0.09
   3   2  -1    2.05    0.07
   2  -2  -1   30.67    0.66
  -2  -2   1   32.12    0.66
   2  -2  -1   30.98    0.66
  -2  -2   1   31.57    0.66
   2  -2  -1   33.66    0.66
   2  -2  -1   31.54    0.66
   2   2  -1   31.84    0.64
   2   2  -1   32.28    0.68
  -2   2   1   31.03    0.66
  -2   2   1   31.39    0.66
   2   2  -1   31.91    0.66
  -1  -2   1  202.85    4.18
  -1  -2   1  202.02    4.13
   1  -2  -1  198.64    4.14
   1  -2  -1  199.73    4.18
   1  -2  -1  207.06    4.16
   1  -2  -1  207.22    4.12
   1   2  -1  205.26    4.18
   1   2  -1  201.72    4.16
  -1   2   1  215.17    4.12
  -1   2   1  203.23    4.14
  -1   2   1  205.10    4.15
   1   2  -1  209.84    4.13
   0  -2  -1  258.24    5.05
   0  -2   1  253.26    5.01
   0  -2   1  250.54    5.03
   0  -2  -1  246.82    5.05
   0   2  -1  247.30    5.03
   0   2   1  245.52    5.03
   0   2  -1  253.00    5.01
   1  -2   1   31.93    0.67
   1  -2   1   31.98    0.66
   1  -2   1   32.49    0.66
  -1  -2  -1   33.86    0.66
  -1  -2  -1   32.63    0.66
  -1   2  -1   32.37    0.66
   1   2   1   32.99    0.66
   1   2   1   33.52    0.68
   1   2   1   33.12    0.66
  -1   2  -1   32.32    0.67
  -1   2  -1   32.13    0.66
   2  -2   1    2.89    0.09
   2  -2   1    3.00    0.09
  -2  -2  -1    2.97    0.09
   2  -2   1    3.03    0.09
   2  -2   1    3.07    0.08
  -2  -2  -1    2.75    0.09
  -2   2  -1    3.07    0.08
   2   2   1    2.78    0.08
  -2   2  -1    3.05    0.10
   2   2   1    2.81    0.09
   2   2   1    2.95    0.10
  -3  -2  -1    6.56    0.19
   3  -2   1    6.69    0.18
  -3  -2  -1    6.43    0.18
   3  -2   1    6.66    0.18
   3  -2   1    6.62    0.18
   3   2   1    6.46    0.19
  -3   2  -1    7.00    0.19
   3   2   1    6.06    0.17
   3   2   1    6.30    0.18
  -4  -2  -1    1.43    0.08
  -4  -2  -1    1.58    0.09
   4  -2   1    1.45    0.08
   4  -2   1    1.40    0.08
  -4   2  -1    1.48    0.09
   4   2   1    1.38    0.09
   4   2   1    1.60    0.09
  -4   2  -1    1.40    0.08
  -5  -2  -1    0.10    0.04
  -5  -2  -1    0.03    0.04
   5  -2   1    0.09    0.04
   5  -2   1    0.06    0.05
   5   2   1    0.04    0.04
  -5   2  -1    0.02    0.04
  -5   2  -1    0.01    0.04
   6  -3  -1    0.20    0.06
  -6  -3   1    0.14    0.05
  -6  -3   1    0.12    0.06
   6   3  -1    0.18    0.06
  -6   3   1    0.22    0.06
  -6   3   1    0.16    0.07
   5  -3  -1    0.10    0.04
  -5  -3   1    0.11    0.04
  -5  -3   1    0.08    0.04
   5  -3  -1    0.08    0.04
  -5   3   1    0.06    0.04
   5   3  -1    0.03    0.05
   5   3  -1    0.05    0.04
  -5   3   1    0.03    0.05
  -4  -3   1    1.86    0.09
   4  -3  -1    1.93    0.10
  -4  -3   1    1.84    0.10
   4  -3  -1    1.74    0.09
   4   3  -1    1.70    0.09
  -4   3   1    1.82    0.09
  -4   3   1    1.78    0.10
   4   3  -1    1.63    0.10
   4   3  -1    1.82    0.08
  -3  -3   1   28.21    0.62
   3  -3  -1   28.65    0.62
   3  -3  -1   28.98    0.62
  -3  -3   1   28.84    0.61
   3  -3  -1   28.65    0.63
   3   3  -1   29.31    0.62
   3   3  -1   29.14    0.61
   3   3  -1   27.69    0.64
  -3   3   1   28.35    0.62
  -3   3   1   28.70    0.63
  -2  -3   1    0.13    0.02
   2  -3  -1    0.07    0.02
  -2  -3   1    0.04    0.02
   2  -3  -1    0.06    0.02
   2  -3  -1    0.03    0.02
   2  -3  -1    0.10    0.03
  -2   3   1    0.04    0.02
   2   3  -1    0.03    0.02
   2   3  -1    0.02    0.02
  -2   3   1    0.07    0.03
   2   3  -1    0.02    0.02
   1  -3  -1   50.83    1.07
  -1  -3   1   54.07    1.05
   1  -3  -1   51.78    1.06
   1  -3  -1   52.85    1.06
  -1  -3   1   52.95    1.06
  -1  -3   1   52.21    1.06
   1  -3  -1   53.05    1.05
   1   3  -1   53.13    1.07
  -1   3   1   53.41    1.06
  -1   3   1   53.06    1.06
   1   3  -1   53.59    1.07
  -1   3   1   52.62    1.06
   1   3  -1   53.17    1.06
   0  -3   1    1.27    0.04
   0  -3   1    1.21    0.05
   0  -3  -1    1.52    0.05
   0  -3  -1    1.25    0.05
   0  -3   1    1.30    0.04
   0  -3   1    1.24    0.04
   0   3  -1    1.31    0.04
   0   3   1    1.57    0.05
   0   3  -1    1.39    0.05
   1  -3   1   34.15    0.71
   1  -3   1   34.26    0.72
   1  -3   1   35.22    0.71
  -1  -3  -1   35.98    0.70
  -1  -3  -1   34.79    0.71
  -1  -3  -1   35.35    0.71
   1   3   1   35.07    0.73
  -1   3  -1   34.82    0.72
   1   3   1   36.03    0.71
  -1   3  -1   36.04    0.71
  -1   3  -1   34.06    0.71
   1   3   1   35.77    0.71
   2  -3   1    0.29    0.03
   2  -3   1    0.24    0.03
   2  -3   1    0.26    0.03
  -2  -3  -1    0.25    0.03
  -2  -3  -1    0.21    0.02
   2  -3   1    0.24    0.03
  -2  -3  -1    0.21    0.02
   2   3   1    0.23    0.04
  -2   3  -1    0.26    0.03
   2   3   1    0.22    0.02
  -2   3  -1    0.28    0.03
  -2   3  -1    0.22    0.02
   2   3   1    0.21    0.03
   3  -3   1    1.11    0.06
   3  -3   1    1.21    0.07
   3  -3   1    1.13    0.07
   3  -3   1    1.21    0.06
  -3  -3  -1    1.21    0.08
  -3  -3  -1    1.16    0.06
   3   3   1    1.20    0.06
  -3   3  -1    1.17    0.08
   3   3   1    1.21    0.07
  -3   3  -1    1.13    0.07
   3   3   1    1.13    0.08
  -3   3  -1    1.14    0.07
   4  -3   1    8.91    0.24
  -4  -3  -1    8.53    0.23
   4  -3   1    8.41    0.24
  -4  -3  -1    8.17    0.24
   4  -3   1    9.04    0.26
   4   3   1    8.11    0.24
  -4   3  -1    8.46    0.25
   4   3   1    7.89    0.25
  -4   3  -1    8.56    0.24
  -5  -3  -1    7.05    0.22
   5  -3   1    7.54    0.23
   5  -3   1    7.26    0.25
  -5  -3  -1    7.38    0.24
  -5   3  -1    7.15    0.23
   5   3   1    7.23    0.24
   5   3   1    6.57    0.29
  -5   3  -1    7.28    0.24
  -6  -4   1    2.85    0.16
   6  -4  -1    3.02    0.15
  -6   4   1    2.86    0.16
   6   4  -1    2.87    0.16
  -6   4   1    2.77    0.17
   5  -4  -1    2.05    0.11
  -5  -4   1    2.08    0.11
   5  -4  -1    2.12    0.12
  -5  -4   1    2.43    0.13
  -5   4   1    1.93    0.13
   5   4  -1    2.32    0.12
  -5   4   1    1.97    0.12
   4  -4  -1   11.89    0.30
  -4  -4   1   11.69    0.32
  -4  -4   1   11.74    0.30
   4  -4  -1   12.34    0.32
  -4   4   1   12.47    0.32
  -4   4   1   11.88    0.31
   4   4  -1   12.54    0.31
   4   4  -1   12.22    0.31
   4   4  -1   11.95    0.34
   3  -4  -1    5.21    0.15
  -3  -4   1    5.25    0.15
   3  -4  -1    5.22    0.16
   3  -4  -1    5.37    0.15
  -3  -4   1    5.34    0.16
   3   4  -1    4.97    0.17
  -3   4   1    5.08    0.16
   3   4  -1    5.24    0.15
  -3   4   1    5.08    0.15
   3   4  -1    5.26    0.16
  -2  -4   1    8.88    0.22
   2  -4  -1    9.21    0.23
   2  -4  -1    9.04    0.22
   2  -4  -1    9.22    0.21
   2  -4  -1    9.48    0.21
  -2  -4   1    9.28    0.21
  -2   4   1    9.27    0.22
   2   4  -1    9.13    0.22
   2   4  -1    8.98    0.21
   2   4  -1    8.88    0.23
  -2   4   1    9.25    0.22
  -1  -4   1    2.87    0.08
  -1  -4   1    2.93    0.07
  -1  -4   1    2.95    0.07
   1  -4  -1    2.80    0.08
  -1  -4   1    2.94    0.08
   1   4  -1    2.89    0.08
   1   4  -1    2.84    0.07
  -1   4   1    2.84    0.08
  -1   4   1    2.88    0.07
   1   4  -1    2.91    0.09
  -1   4   1    2.91    0.08
   0  -4  -1   41.09    0.83
   0  -4   1   42.37    0.83
   0  -4   1   40.74    0.83
   0  -4   1   40.33    0.83
   0  -4  -1   40.02    0.83
   0   4  -1   41.45    0.83
   0   4  -1   41.24    0.83
   0   4   1   41.47    0.84
   1  -4   1   11.81    0.27
  -1  -4  -1   12.44    0.26
   1  -4   1   11.92    0.27
   1  -4   1   11.76    0.27
   1  -4   1   11.75    0.26
  -1  -4  -1   12.17    0.27
   1   4   1   12.17    0.28
  -1   4  -1   12.31    0.27
   1   4   1   12.36    0.26
   1   4   1   12.75    0.26
  -1   4  -1   11.84    0.26
  -1   4  -1   11.89    0.26
  -2  -4  -1    4.26    0.10
  -2  -4  -1    4.22    0.12
  -2  -4  -1    4.08    0.11
   2  -4   1    4.16    0.12
   2  -4   1    4.19    0.13
   2  -4   1    4.10    0.11
   2  -4   1    4.12    0.13
   2   4   1    4.17    0.12
  -2   4  -1    4.04    0.12
  -2   4  -1    4.10    0.13
   2   4   1    4.28    0.11
  -2   4  -1    4.22    0.10
   2   4   1    4.05    0.13
   3  -4   1    7.74    0.21
  -3  -4  -1    7.94    0.20
   3  -4   1    7.86    0.22
   3  -4   1    7.42    0.19
  -3  -4  -1    7.96    0.22
   3  -4   1    7.68    0.22
   3   4   1    7.94    0.21
   3   4   1    7.72    0.23
  -3   4  -1    7.55    0.21
  -3   4  -1    7.97    0.22
  -4  -4  -1    1.34    0.08
  -4  -4  -1    1.42    0.09
   4  -4   1    1.64    0.11
   4  -4   1    1.55    0.09
   4  -4   1    1.48    0.09
   4   4   1    1.27    0.10
  -4   4  -1    1.48    0.10
  -4   4  -1    1.44    0.09
   4   4   1    1.37    0.09
   5  -4   1    0.02    0.03
   5  -4   1    0.00    0.03
  -5  -4  -1    0.04    0.03
  -5  -4  -1    0.04    0.04
   5  -4   1    0.04    0.04
  -5   4  -1    0.01    0.04
  -5   4  -1    0.03    0.05
   5   4   1   -0.03    0.03
   5  -5  -1    4.34    0.16
   5  -5  -1    4.41    0.18
  -5  -5   1    4.22    0.18
  -5   5   1    4.42    0.18
  -5   5   1    4.17    0.17
   5   5  -1    4.12    0.17
  -4  -5   1    2.46    0.12
   4  -5  -1    2.66    0.11
   4  -5  -1    2.62    0.12
  -4  -5   1    2.46    0.10
   4   5  -1    2.55    0.13
   4   5  -1    2.46    0.11
   4   5  -1    2.54    0.11
  -4   5   1    2.77    0.12
  -4   5   1    2.82    0.13
   3  -5  -1   12.12    0.31
   3  -5  -1   12.74    0.29
  -3  -5   1   11.84    0.28
   3  -5  -1   12.44    0.29
  -3  -5   1   11.78    0.30
  -3  -5   1   12.09    0.28
   3   5  -1   11.88    0.29
   3   5  -1   11.67    0.32
  -3   5   1   12.35    0.30
   3   5  -1   12.07    0.30
  -3   5   1   12.59    0.31
   2  -5  -1   27.50    0.56
  -2  -5   1   27.31    0.56
  -2  -5   1   27.13    0.56
   2  -5  -1   27.84    0.56
  -2  -5   1   26.89    0.58
   2  -5  -1   26.00    0.57
   2  -5  -1   26.19    0.58
   2   5  -1   27.41    0.60
   2   5  -1   26.40    0.57
  -2   5   1   26.61    0.57
  -2   5   1   26.98    0.58
   2   5  -1   27.60    0.58
   1  -5  -1   70.12    1.45
  -1  -5   1   73.53    1.43
  -1  -5   1   70.18    1.43
   1  -5  -1   70.96    1.44
  -1  -5   1   71.59    1.44
  -1   5   1   72.91    1.42
  -1   5   1   71.92    1.44
   1   5  -1   72.97    1.45
   1   5  -1   71.34    1.42
  -1   5   1   71.05    1.42
   1   5  -1   69.85    1.44
   0  -5   1    9.36    0.21
   0  -5   1    9.65    0.22
   0  -5   1    9.64    0.22
   0  -5  -1    9.49    0.22
   0  -5  -1    9.78    0.22
   0   5   1    9.74    0.22
   0   5  -1    9.72    0.22
   0   5  -1   10.00    0.22
   1  -5   1    0.60    0.04
   1  -5   1    0.65    0.03
  -1  -5  -1    0.56    0.04
   1  -5   1    0.63    0.04
  -1  -5  -1    0.57    0.04
  -1  -5  -1    0.60    0.03
   1  -5   1    0.63    0.04
  -1   5  -1    0.71    0.04
   1   5   1    0.57    0.03
   1   5   1    0.59    0.04
  -1   5  -1    0.61    0.03
   1   5   1    0.64    0.03
  -1   5  -1    0.63    0.04
  -2  -5  -1    4.42    0.11
   2  -5   1    3.98    0.13
   2  -5   1    4.23    0.14
   2  -5   1    3.96    0.12
   2  -5   1    4.23    0.12
  -2  -5  -1    4.55    0.13
  -2  -5  -1    4.63    0.11
  -2   5  -1    4.09    0.11
   2   5   1    4.46    0.11
   2   5   1    4.31    0.14
   2   5   1    4.40    0.12
  -2   5  -1    4.30    0.13
  -2   5  -1    4.29    0.12
  -3  -5  -1    0.59    0.04
   3  -5   1    0.48    0.06
   3  -5   1    0.51    0.05
   3  -5   1    0.52    0.05
  -3  -5  -1    0.58    0.06
   3  -5   1    0.41    0.06
  -3   5  -1    0.47    0.06
   3   5   1    0.53    0.05
  -3   5  -1    0.48    0.05
   3   5   1    0.45    0.06
   4  -5   1   12.36    0.33
  -4  -5  -1   12.47    0.33
   4  -5   1   12.17    0.31
   4  -5   1   12.38    0.34
  -4  -5  -1   11.94    0.30
   4   5   1   12.20    0.32
  -4   5  -1   12.41    0.32
   4   5   1   12.49    0.35
  -4   5  -1   12.21    0.33
  -5  -5  -1    2.06    0.12
   5  -5   1    1.94    0.11
   5  -5   1    2.10    0.13
   5   5   1    1.85    0.11
  -5   5  -1    1.96    0.12
  -5   5  -1    2.13    0.13
  -5  -6   1    9.79    0.30
   5  -6  -1   10.14    0.31
   5   6  -1    9.54    0.29
  -5   6   1    9.56    0.29
  -5   6   1    9.76    0.30
   4  -6  -1    0.28    0.06
  -4  -6   1    0.40    0.06
   4  -6  -1    0.35    0.05
  -4   6   1    0.54    0.06
  -4   6   1    0.44    0.06
   4   6  -1    0.43    0.06
   4   6  -1    0.51    0.08
   4   6  -1    0.39    0.05
   3  -6  -1    0.25    0.05
   3  -6  -1    0.24    0.04
  -3  -6   1    0.28    0.04
  -3  -6   1    0.28    0.05
   3  -6  -1    0.24    0.03
  -3   6   1    0.34    0.05
   3   6  -1    0.27    0.04
   3   6  -1    0.31    0.04
  -3   6   1    0.32    0.04
   3   6  -1    0.25    0.05
   2  -6  -1    6.76    0.16
  -2  -6   1    7.00    0.18
   2  -6  -1    6.40    0.19
   2  -6  -1    6.93    0.16
  -2  -6   1    6.75    0.17
   2  -6  -1    6.58    0.18
  -2  -6   1    6.93    0.16
   2   6  -1    6.94    0.20
  -2   6   1    6.71    0.18
   2   6  -1    6.61    0.17
   2   6  -1    6.91    0.18
  -2   6   1    6.48    0.17
  -1  -6   1    2.14    0.08
   1  -6  -1    2.32    0.08
   1  -6  -1    2.43    0.09
  -1  -6   1    2.23    0.07
  -1   6   1    2.27    0.06
   1   6  -1    2.04    0.06
   1   6  -1    2.20    0.09
  -1   6   1    2.31    0.06
  -1   6   1    2.40    0.08
   0  -6   1    1.98    0.07
   0  -6   1    1.91    0.07
   0  -6   1    1.91    0.07
   0  -6  -1    2.07    0.07
   0  -6  -1    1.95    0.07
   0   6   1    2.04    0.07
   0   6   1    2.09    0.07
   0   6  -1    1.99    0.07
   0   6  -1    1.92    0.07
   1  -6   1   16.56    0.37
  -1  -6  -1   16.90    0.37
  -1  -6  -1   16.49    0.36
   1  -6   1   16.85    0.38
   1  -6   1   17.08    0.38
   1   6   1   16.58    0.36
  -1   6  -1   16.80    0.36
   1   6   1   17.12    0.35
  -1   6  -1   17.18    0.36
   1   6   1   17.09    0.39
  -1   6  -1   17.12    0.38
   2  -6   1    1.01    0.06
   2  -6   1    0.93    0.06
   2  -6   1    1.02    0.06
  -2  -6  -1    0.91    0.03
  -2  -6  -1    0.85    0.04
  -2  -6  -1    0.91    0.06
   2  -6   1    1.00    0.05
  -2   6  -1    0.95    0.04
   2   6   1    0.92    0.04
  -2   6  -1    0.99    0.05
  -2   6  -1    1.04    0.06
   2   6   1    0.83    0.06
   2   6   1    0.94    0.05
  -3  -6  -1   61.12    1.33
   3  -6   1   63.29    1.29
   3  -6   1   63.77    1.32
  -3  -6  -1   63.23    1.31
   3  -6   1   62.22    1.32
   3  -6   1   63.06    1.30
   3   6   1   63.40    1.30
   3   6   1   62.32    1.34
  -3   6  -1   64.92    1.32
  -3   6  -1   62.97    1.31
   4  -6   1   16.03    0.41
   4  -6   1   15.69    0.38
  -4  -6  -1   16.10    0.40
   4  -6   1   16.17    0.40
   4   6   1   15.70    0.39
  -4   6  -1   15.69    0.39
  -4   6  -1   15.55    0.40
   4   6   1   15.36    0.42
   5  -6   1    2.29    0.14
   5  -6   1    2.32    0.12
  -5  -6  -1    2.28    0.13
  -5   6  -1    2.24    0.14
  -5   6  -1    2.41    0.13
   5   6   1    2.57    0.13
   5   6   1    2.27    0.12
  -5  -7   1    0.11    0.05
   5  -7  -1    0.03    0.04
  -5   7   1    0.00    0.05
   5   7  -1    0.07    0.04
   5   7  -1    0.06    0.04
  -5   7   1    0.02    0.04
   4  -7  -1   11.77    0.33
  -4  -7   1   11.22    0.31
   4   7  -1   11.25    0.34
  -4   7   1   11.31    0.32
   4   7  -1   11.18    0.31
  -4   7   1   11.15    0.30
   4   7  -1   11.85    0.31
   3  -7  -1    0.33    0.05
  -3  -7   1    0.27    0.05
   3  -7  -1    0.25    0.05
   3  -7  -1    0.33    0.06
  -3   7   1    0.29    0.05
   3   7  -1    0.25    0.04
  -3   7   1    0.31    0.05
   3   7  -1    0.16    0.05
   3   7  -1    0.23    0.04
  -2  -7   1    0.13    0.03
   2  -7  -1    0.06    0.03
   2  -7  -1    0.09    0.03
  -2  -7   1    0.09    0.03
   2   7  -1    0.12    0.02
  -2   7   1    0.12    0.02
   2   7  -1    0.15    0.04
  -2   7   1    0.12    0.03
   2   7  -1    0.10    0.03
   1  -7  -1    0.05    0.02
  -1  -7   1    0.05    0.02
   1  -7  -1    0.05    0.02
  -1  -7   1    0.08    0.02
  -1   7   1    0.07    0.01
   1   7  -1    0.06    0.01
  -1   7   1    0.06    0.02
  -1   7   1    0.06    0.02
   1   7  -1    0.06    0.02
   1   7  -1    0.06    0.02
   0  -7  -1   73.50    1.51
   0  -7  -1   73.02    1.50
   0  -7   1   76.07    1.50
   0  -7   1   74.22    1.51
   0   7  -1   73.57    1.48
   0   7  -1   74.67    1.50
   0   7   1   74.84    1.50
   0   7   1   74.56    1.51
   0   7  -1   75.36    1.50
   1  -7   1    2.38    0.09
  -1  -7  -1    2.45    0.08
  -1  -7  -1    2.40    0.08
   1  -7   1    2.31    0.09
  -1   7  -1    2.46    0.08
  -1   7  -1    2.41    0.09
  -1   7  -1    2.33    0.07
   1   7   1    2.53    0.06
   1   7   1    2.62    0.08
   1   7   1    2.43    0.10
   2  -7   1   13.12    0.31
   2  -7   1   13.12    0.32
  -2  -7  -1   13.25    0.31
  -2  -7  -1   12.73    0.29
   2  -7   1   13.62    0.29
  -2   7  -1   13.23    0.30
   2   7   1   12.93    0.29
  -2   7  -1   13.04    0.29
  -2   7  -1   12.83    0.32
   2   7   1   12.92    0.33
   3  -7   1   31.26    0.68
   3  -7   1   31.15    0.71
   3  -7   1   32.34    0.70
  -3  -7  -1   31.35    0.69
   3  -7   1   31.48    0.67
   3   7   1   31.38    0.72
  -3   7  -1   32.15    0.70
   3   7   1   30.43    0.68
  -3   7  -1   31.39    0.68
   4  -7   1    2.82    0.14
   4  -7   1    2.84    0.13
   4  -7   1    2.62    0.11
  -4  -7  -1    2.40    0.12
  -4   7  -1    2.65    0.12
   4   7   1    2.35    0.11
  -4   7  -1    2.32    0.13
   4   7   1    2.43    0.14
  -5  -7  -1    0.10    0.04
   5  -7   1    0.08    0.05
   5   7   1    0.07    0.04
  -5   7  -1    0.04    0.04
  -5   7  -1    0.03    0.05
   5   7   1    0.04    0.04
   5  -8  -1    0.71    0.09
  -5  -8   1    0.66    0.08
   5   8  -1    0.69    0.08
   5   8  -1    0.64    0.08
  -5   8   1    0.62    0.08
  -5   8   1    0.76    0.09
  -4  -8   1    8.32    0.26
   4  -8  -1    8.52    0.27
  -4   8   1    8.47    0.25
  -4   8   1    8.73    0.26
   4   8  -1    8.99    0.25
   4   8  -1    8.34    0.28
   4   8  -1    8.47    0.25
   3  -8  -1    4.85    0.17
  -3  -8   1    4.55    0.16
   3  -8  -1    5.03    0.16
   3   8  -1    4.50    0.18
   3   8  -1    4.61    0.15
  -3   8   1    4.93    0.15
   3   8  -1    4.37    0.16
  -3   8   1    4.91    0.17
  -2  -8   1    1.03    0.07
   2  -8  -1    1.26    0.07
   2  -8  -1    1.17    0.07
  -2  -8   1    1.04    0.06
   2   8  -1    1.04    0.05
   2   8  -1    1.03    0.07
  -2   8   1    1.10    0.05
  -2   8   1    1.13    0.07
   2   8  -1    1.07    0.07
   1  -8  -1   18.08    0.42
   1  -8  -1   18.31    0.41
  -1  -8   1   18.64    0.40
  -1  -8   1   18.22    0.41
   1   8  -1   18.43    0.38
  -1   8   1   18.35    0.38
  -1   8   1   18.54    0.39
   1   8  -1   18.95    0.42
  -1   8   1   18.62    0.40
  -1   8   1   18.50    0.41
   1   8  -1   18.42    0.42
   0  -8  -1    0.40    0.04
   0  -8   1    0.49    0.04
   0  -8   1    0.45    0.04
   0  -8  -1    0.41    0.04
   0   8   1    0.45    0.04
   0   8   1    0.45    0.04
   0   8   1    0.40    0.04
   0   8  -1    0.47    0.02
   0   8  -1    0.41    0.04
   0   8  -1    0.48    0.04
   0   8  -1    0.46    0.04
   1  -8   1    6.66    0.18
   1  -8   1    6.77    0.18
  -1  -8  -1    6.57    0.17
  -1  -8  -1    6.86    0.18
   1  -8   1    6.84    0.18
   1   8   1    6.62    0.18
  -1   8  -1    6.75    0.17
   1   8   1    6.81    0.17
  -1   8  -1    6.80    0.18
   1   8   1    6.67    0.19
  -1   8  -1    6.72    0.16
  -2  -8  -1    0.63    0.05
  -2  -8  -1    0.60    0.04
   2  -8   1    0.62    0.06
   2  -8   1    0.67    0.07
   2  -8   1    0.64    0.06
  -2   8  -1    0.67    0.06
   2   8   1    0.58    0.04
   2   8   1    0.61    0.06
  -2   8  -1    0.65    0.05
   3  -8   1   26.34    0.57
   3  -8   1   25.83    0.59
   3  -8   1   25.71    0.59
  -3  -8  -1   24.21    0.57
   3   8   1   23.92    0.55
   3   8   1   24.37    0.60
  -3   8  -1   25.71    0.56
  -3   8  -1   25.81    0.58
   4  -8   1    1.92    0.12
  -4  -8  -1    1.73    0.10
   4   8   1    1.72    0.10
  -4   8  -1    1.82    0.12
  -4   8  -1    1.87    0.10
   4   8   1    1.62    0.13
   4   8   1    1.87    0.10
   5  -8   1    0.19    0.06
  -5  -8  -1    0.15    0.05
   5   8   1    0.18    0.05
   5   8   1    0.12    0.05
  -5   8  -1    0.08    0.05
  -5   8  -1    0.07    0.06
  -5  -9   1    0.19    0.06
   5  -9  -1    0.12    0.05
   5   9  -1    0.11    0.05
  -5   9   1    0.10    0.05
  -5   9   1    0.16    0.06
   5   9  -1    0.16    0.05
   4  -9  -1    0.56    0.07
  -4  -9   1    0.48    0.06
   4  -9  -1    0.49    0.07
   4   9  -1    0.45    0.06
   4   9  -1    0.42    0.06
  -4   9   1    0.44    0.07
  -4   9   1    0.54    0.07
  -3  -9   1   11.48    0.30
   3  -9  -1   11.38    0.30
   3  -9  -1   11.77    0.32
  -3   9   1   12.00    0.31
   3   9  -1   11.68    0.33
   3   9  -1   10.95    0.30
  -3   9   1   11.43    0.29
   3   9  -1   11.77    0.29
   2  -9  -1    1.39    0.08
  -2  -9   1    1.16    0.06
   2  -9  -1    1.43    0.08
   2   9  -1    1.33    0.06
  -2   9   1    1.36    0.06
   2   9  -1    1.43    0.08
  -2   9   1    1.48    0.08
   2   9  -1    1.29    0.09
  -1  -9   1    0.19    0.03
   1  -9  -1    0.20    0.04
   1  -9  -1    0.11    0.03
  -1  -9   1    0.13    0.02
   1   9  -1    0.18    0.03
  -1   9   1    0.15    0.03
  -1   9   1    0.14    0.02
   1   9  -1    0.19    0.04
  -1   9   1    0.13    0.02
   0  -9   1    6.88    0.18
   0  -9   1    6.81    0.18
   0  -9  -1    6.89    0.18
   0  -9  -1    6.82    0.18
   0   9   1    6.87    0.18
   0   9  -1    6.48    0.18
   0   9   1    6.33    0.18
   0   9  -1    6.43    0.18
   0   9   1    6.42    0.17
   0   9  -1    6.86    0.18
  -1  -9  -1   11.75    0.28
   1  -9   1   12.06    0.29
  -1  -9  -1   12.03    0.28
   1  -9   1   11.32    0.29
   1   9   1   11.63    0.27
  -1   9  -1   11.54    0.26
   1   9   1   11.56    0.29
  -1   9  -1   11.54    0.29
  -1   9  -1   11.65    0.27
   1   9   1   12.11    0.30
   2  -9   1    6.41    0.20
   2  -9   1    6.74    0.19
  -2  -9  -1    6.51    0.17
   2  -9   1    6.63    0.20
  -2   9  -1    6.66    0.20
  -2   9  -1    6.45    0.17
   2   9   1    6.87    0.20
   2   9   1    6.38    0.21
   3  -9   1    2.26    0.12
  -3  -9  -1    2.43    0.11
   3  -9   1    2.35    0.11
   3   9   1    2.27    0.11
   3   9   1    2.45    0.13
  -3   9  -1    2.40    0.10
  -3   9  -1    2.36    0.12
   4  -9   1    0.02    0.04
  -4  -9  -1    0.07    0.04
   4  -9   1    0.05    0.04
  -4   9  -1    0.13    0.04
   4   9   1    0.05    0.04
   4   9   1    0.04    0.03
  -4   9  -1    0.05    0.05
   5  -9   1    1.48    0.13
  -5  -9  -1    1.61    0.11
  -5   9  -1    1.43    0.13
  -5   9  -1    1.33    0.11
   5   9   1    1.34    0.10
   5   9   1    1.51    0.11
   5 -10  -1    0.09    0.05
  -5 -10   1    0.10    0.05
   5  10  -1    0.22    0.06
  -5  10   1    0.16    0.05
  -5  10   1    0.11    0.06
   5  10  -1    0.11    0.05
   4 -10  -1    6.69    0.21
  -4 -10   1    6.23    0.22
   4 -10  -1    6.59    0.23
   4  10  -1    6.15    0.22
  -4  10   1    6.38    0.22
  -4  10   1    6.35    0.21
   4  10  -1    6.47    0.21
   3 -10  -1    0.11    0.04
  -3 -10   1    0.07    0.04
   3 -10  -1    0.09    0.04
  -3  10   1    0.10    0.03
   3  10  -1    0.06    0.04
   3  10  -1    0.08    0.04
  -3  10   1    0.03    0.04
   2 -10  -1    5.21    0.17
  -2 -10   1    5.19    0.15
   2 -10  -1    5.09    0.18
   2  10  -1    5.17    0.18
   2  10  -1    5.36    0.17
  -2  10   1    5.08    0.17
  -1 -10   1   10.94    0.26
   1 -10  -1   10.56    0.28
  -1 -10   1   11.15    0.27
   1  10  -1   10.58    0.27
  -1  10   1   10.80    0.26
  -1  10   1   10.37    0.25
  -1  10   1   11.04    0.27
   1  10  -1   11.56    0.29
   0 -10   1   12.93    0.31
   0 -10  -1   13.09    0.31
   0 -10   1   12.57    0.31
   0 -10  -1   13.28    0.32
   0  10  -1   12.57    0.32
   0  10  -1   12.90    0.31
   0  10   1   12.94    0.31
   0  10   1   13.93    0.32
   0  10   1   13.25    0.31
   0  10  -1   12.89    0.31
  -1 -10  -1    5.95    0.17
   1 -10   1    5.67    0.17
   1 -10   1    5.50    0.17
  -1 -10  -1    5.97    0.16
   1  10   1    5.71    0.15
   1  10   1    5.69    0.18
  -1  10  -1    5.68    0.16
   1  10   1    5.71    0.17
  -1  10  -1    5.82    0.17
   2 -10   1    0.62    0.06
   2 -10   1    0.60    0.07
  -2 -10  -1    0.53    0.07
  -2  10  -1    0.72    0.07
  -2  10  -1    0.54    0.05
   2  10   1    0.74    0.07
   2  10   1    0.63    0.07
   3 -10   1    0.44    0.06
   3 -10   1    0.45    0.06
  -3 -10  -1    0.43    0.06
   3  10   1    0.43    0.06
  -3  10  -1    0.38    0.05
  -3  10  -1    0.46    0.07
   3  10   1    0.39    0.07
   4 -10   1    3.30    0.16
   4 -10   1    3.34    0.14
  -4 -10  -1    3.16    0.14
  -4  10  -1    3.11    0.15
  -4  10  -1    3.28    0.14
   4  10   1    3.15    0.15
   5 -10   1    0.52    0.09
  -5 -10  -1    0.50    0.08
  -5  10  -1    0.61    0.09
   5  10   1    0.61    0.08
  -5  10  -1    0.43    0.07
  -5 -11   1    0.06    0.04
   5 -11  -1    0.10    0.06
  -5  11   1    0.03    0.06
  -5  11   1    0.13    0.05
   5  11  -1    0.04    0.04
  -4 -11   1    4.68    0.18
   4 -11  -1    5.02    0.20
   4 -11  -1    4.97    0.18
  -4  11   1    4.54    0.19
  -4  11   1    4.98    0.23
   4  11  -1    4.68    0.19
   3 -11  -1    3.19    0.15
   3 -11  -1    3.36    0.14
  -3  11   1    3.37    0.14
   3  11  -1    3.33    0.16
   3  11  -1    3.20    0.14
   2 -11  -1    1.28    0.09
  -2 -11   1    1.23    0.07
   2 -11  -1    1.43    0.09
   2  11  -1    1.32    0.08
   2  11  -1    1.24    0.09
  -2  11   1    1.16    0.08
   1 -11  -1   15.38    0.37
  -1 -11   1   15.07    0.36
   1 -11  -1   15.46    0.37
  -1 -11   1   14.73    0.35
  -1  11   1   15.21    0.36
   1  11  -1   15.60    0.37
   1  11  -1   14.87    0.37
  -1  11   1   15.10    0.36
   0 -11  -1   21.84    0.51
   0 -11  -1   21.87    0.50
   0 -11   1   22.63    0.50
   0 -11   1   23.04    0.51
   0  11   1   22.07    0.50
   0  11  -1   22.67    0.50
   0  11   1   22.75    0.51
   0  11  -1   22.53    0.50
   0  11  -1   21.94    0.51
   0  11   1   22.09    0.50
   1 -11   1   31.84    0.70
  -1 -11  -1   32.48    0.69
  -1 -11  -1   32.33    0.69
   1 -11   1   31.30    0.70
  -1  11  -1   30.30    0.68
   1  11   1   32.61    0.70
  -1  11  -1   31.78    0.70
   1  11   1   32.09    0.71
   2 -11   1    1.79    0.10
   2 -11   1    1.90    0.10
   2  11   1    1.69    0.10
  -2  11  -1    1.82    0.10
   2  11   1    1.73    0.09
   3 -11   1    1.80    0.10
   3 -11   1    1.83    0.11
   3  11   1    1.51    0.10
   3  11   1    1.72    0.12
  -3  11  -1    1.77    0.11
  -4 -11  -1    0.09    0.04
   4 -11   1   -0.04    0.04
   4 -11   1   -0.03    0.03
  -4  11  -1    0.02    0.05
   4  11   1    0.00    0.03
  -4  11  -1    0.01    0.03
   4 -12  -1    4.68    0.19
   4 -12  -1    5.13    0.21
  -4  12   1    4.42    0.19
   4  12  -1    4.80    0.19
   3 -12  -1    0.12    0.05
   3 -12  -1    0.08    0.04
   3  12  -1    0.06    0.04
  -3  12   1    0.11    0.05
   3  12  -1    0.00    0.04
   2 -12  -1    2.27    0.11
   2 -12  -1    2.37    0.12
  -2 -12   1    2.11    0.10
   2  12  -1    2.04    0.12
  -2  12   1    2.29    0.11
   2  12  -1    2.16    0.11
  -1 -12   1   14.52    0.36
   1 -12  -1   14.62    0.37
   1 -12  -1   14.38    0.37
   1  12  -1   15.37    0.38
  -1  12   1   15.38    0.37
   1  12  -1   15.43    0.37
   0 -12   1    0.38    0.05
   0 -12   1    0.47    0.05
   0 -12  -1    0.43    0.05
   0 -12  -1    0.39    0.05
   0  12   1    0.39    0.05
   0  12   1    0.36    0.05
   0  12  -1    0.35    0.05
   0  12  -1    0.45    0.05
   0  12   1    0.42    0.05
   1 -12   1   21.59    0.52
   1 -12   1   22.28    0.52
  -1 -12  -1   23.13    0.51
  -1 -12  -1   23.21    0.51
   1  12   1   22.52    0.53
   1  12   1   23.38    0.52
  -1  12  -1   22.87    0.53
  -1  12  -1   21.67    0.52
   2 -12   1    0.57    0.07
   2 -12   1    0.67    0.07
   2  12   1    0.58    0.07
   2  12   1    0.63    0.07
  -2  12  -1    0.48    0.06
   3 -12   1    6.81    0.22
   3 -12   1    6.93    0.24
  -3  12  -1    6.90    0.23
   3  12   1    7.03    0.23
   4 -12   1    2.84    0.16
   4 -12   1    2.54    0.13
  -4  12  -1    2.73    0.15
   4  12   1    2.69    0.14
   4 -13  -1    0.23    0.07
   4 -13  -1    0.23    0.06
  -4  13   1    0.30    0.07
   4  13  -1    0.20    0.06
   3 -13  -1    0.11    0.05
   3 -13  -1    0.04    0.04
  -3  13   1   -0.02    0.04
   3  13  -1    0.02    0.04
  -2 -13   1    1.53    0.09
   2 -13  -1    1.81    0.10
   2 -13  -1    1.46    0.10
  -2  13   1    1.60    0.10
   2  13  -1    1.64    0.11
   2  13  -1    1.66    0.10
   1 -13  -1    0.24    0.05
   1 -13  -1    0.18    0.05
  -1 -13   1    0.30    0.05
  -1  13   1    0.27    0.05
   1  13  -1    0.22    0.05
   1  13  -1    0.17    0.05
   0 -13  -1    3.92    0.14
   0 -13   1    4.04    0.14
   0 -13   1    4.21    0.15
   0 -13  -1    3.73    0.14
   0  13   1    3.89    0.14
   0  13   1    3.98    0.14
   0  13  -1    3.98    0.15
   0  13   1    4.27    0.21
   0  13   1    3.88    0.14
   0  13  -1    4.23    0.14
  -1 -13  -1    1.35    0.08
   1 -13   1    1.43    0.09
  -1 -13  -1    1.38    0.08
   1 -13   1    1.38    0.09
   1  13   1    1.45    0.09
   1  13   1    1.59    0.10
  -1  13  -1    1.62    0.09
   2 -13   1    0.07    0.04
   2 -13   1    0.01    0.04
   2  13   1    0.00    0.03
   2  13   1    0.00    0.03
  -2  13  -1    0.04    0.04
   3 -13   1    1.18    0.10
   3 -13   1    1.11    0.09
  -3  13  -1    1.14    0.10
   3  13   1    1.25    0.10
   4 -13   1    5.02    0.22
   4 -13   1    4.95    0.19
   4  13   1    4.82    0.20
  -4  13  -1    4.69    0.21
   4 -14  -1    0.10    0.06
   4 -14  -1    0.08    0.06
   4  14  -1    0.05    0.05
  -4  14   1    0.09    0.06
   3 -14  -1    0.17    0.05
   3 -14  -1    0.12    0.05
   3  14  -1    0.16    0.05
  -3  14   1    0.16    0.05
   2 -14  -1    4.91    0.18
  -2 -14   1    5.08    0.17
   2 -14  -1    5.01    0.19
  -2  14   1    5.19    0.18
   2  14  -1    5.10    0.20
   2  14  -1    4.95    0.18
  -1 -14   1    1.70    0.10
   1 -14  -1    1.52    0.10
   1 -14  -1    1.60    0.10
   1  14  -1    1.93    0.10
  -1  14   1    1.75    0.10
   0 -14  -1    2.19    0.11
   0 -14  -1    2.03    0.11
   0 -14   1    1.98    0.10
   0 -14   1    2.04    0.11
   0  14   1    2.09    0.10
   0  14   1    2.25    0.11
   0  14  -1    2.16    0.10
   0  14   1    2.17    0.10
   0  14  -1    2.20    0.11
  -1 -14  -1    0.18    0.04
   1 -14   1    0.19    0.05
   1 -14   1    0.13    0.04
   1  14   1    0.27    0.05
  -1  14  -1    0.26    0.05
   1  14   1    0.16    0.05
   2 -14   1    0.56    0.08
   2 -14   1    0.82    0.08
  -2  14  -1    0.52    0.07
   2  14   1    0.69    0.09
   2  14   1    0.73    0.08
   3 -14   1    1.49    0.12
   3 -14   1    1.52    0.11
   3  14   1    1.41    0.11
  -3  14  -1    1.57    0.12
   4 -14   1    0.10    0.05
   4 -14   1    0.15    0.06
  -4  14  -1    0.06    0.06
   4  14   1    0.12    0.05
   3 -15  -1    2.68    0.15
   3 -15  -1    2.46    0.15
  -3  15   1    2.45    0.14
   3  15  -1    2.66    0.15
   2 -15  -1    0.45    0.07
   2 -15  -1    0.55    0.08
  -2 -15   1    0.42    0.06
   2  15  -1    0.45    0.07
  -2  15   1    0.50    0.07
   2  15  -1    0.41    0.07
   1 -15  -1    0.19    0.05
   1 -15  -1    0.25    0.05
  -1 -15   1    0.22    0.05
   1  15  -1    0.19    0.05
   1  15  -1    0.13    0.04
  -1  15   1    0.22    0.05
   0 -15  -1    4.27    0.16
   0 -15   1    4.09    0.16
   0 -15  -1    4.07    0.16
   0  15  -1    4.33    0.16
   0  15  -1    4.24    0.16
   0  15   1    4.21    0.15
   0  15   1    4.29    0.16
   1 -15   1    0.52    0.07
  -1 -15  -1    0.63    0.07
   1 -15   1    0.56    0.07
   1  15   1    0.43    0.07
   1  15   1    0.45    0.06
  -1  15  -1    0.45    0.06
   1  15   1    0.50    0.06
   2 -15   1   -0.01    0.04
   2 -15   1    0.02    0.04
   2  15   1   -0.03    0.03
  -2  15  -1    0.01    0.04
   3 -15   1    0.01    0.05
   3 -15   1    0.03    0.05
   3  15   1    0.01    0.04
  -3  15  -1    0.02    0.05
   3 -16  -1    0.11    0.05
   3 -16  -1    0.12    0.06
   3  16  -1    0.15    0.06
  -3  16   1    0.10    0.06
   2 -16  -1    0.25    0.06
   2 -16  -1    0.24    0.06
   2  16  -1    0.41    0.07
  -2  16   1    0.25    0.06
   1 -16  -1    0.28    0.06
   1 -16  -1    0.35    0.06
  -1 -16   1    0.25    0.05
   1  16  -1    0.19    0.05
  -1  16   1    0.25    0.05
   1  16  -1    0.28    0.05
   0 -16  -1    5.39    0.19
   0 -16   1    5.17    0.19
   0 -16  -1    5.31    0.19
   0  16  -1    5.60    0.20
   0  16   1    5.62    0.19
   0  16  -1    5.44    0.19
  -1 -16  -1    0.86    0.08
   1 -16   1    0.84    0.08
   1 -16   1    1.03    0.10
   1  16   1    0.96    0.08
  -1  16  -1    0.89    0.09
   1  16   1    0.85    0.08
   2 -16   1    0.93    0.10
   2 -16   1    0.84    0.09
  -2  16  -1    0.73    0.09
   2  16   1    0.90    0.09
   3 -16   1    0.25    0.07
   3 -16   1    0.20    0.06
  -3  16  -1    0.12    0.06
   3  16   1    0.12    0.06
   2 -17  -1   -0.03    0.04
   2 -17  -1    0.01    0.04
  -2  17   1   -0.04    0.04
   2  17  -1   -0.07    0.04
  -1 -17   1    1.14    0.10
   1 -17  -1    1.18    0.11
   1 -17  -1    1.07    0.10
   1  17  -1    1.25    0.10
  -1  17   1    1.13    0.10
   1  17  -1    1.25    0.10
   0 -17   1    0.13    0.05
   0 -17  -1    0.18    0.05
   0  17  -1    0.17    0.05
   0  17   1    0.12    0.04
   1 -17   1    1.87    0.13
   1 -17   1    2.11    0.13
  -1 -17  -1    2.08    0.12
  -1  17  -1    2.00    0.12
   1  17   1    1.94    0.12
   1  17   1    2.00    0.12
   2 -17   1    0.82    0.10
   2 -17   1    0.61    0.08
  -2  17  -1    0.68    0.09
   2  17   1    0.69    0.09
   2 -18  -1   -0.02    0.04
   2 -18  -1    0.03    0.05
  -2  18   1    0.06    0.05
   2  18  -1    0.04    0.05
  -1 -18   1    0.54    0.08
   1 -18  -1    0.42    0.08
   1 -18  -1    0.36    0.07
   1  18  -1    0.36    0.07
   1  18  -1    0.39    0.07
  -1  18   1    0.44    0.07
   0 -18  -1    9.89    0.30
   0 -18   1    9.38    0.30
   0  18  -1    9.79    0.30
   0  18   1    9.64    0.30
   1 -18   1    0.17    0.06
  -1 -18  -1    0.13    0.06
   1  18   1    0.08    0.05
   1  18   1    0.13    0.05
  -1  18  -1    0.17    0.06
   2 -18   1    0.21    0.06
   2 -18   1    0.18    0.06
   2  18   1    0.23    0.07
  -2  18  -1    0.19    0.06
   0 -19  -1    0.18    0.06
   0 -19   1    0.14    0.06
   0  19  -1    0.21    0.06
   0  19   1    0.20    0.06
   6   0  -2    0.66    0.09
  -6   0   2    0.70    0.09
  -6   0   2    0.95    0.11
  -5   0   2    0.01    0.04
   5   0  -2   -0.02    0.03
  -5   0   2    0.05    0.04
   4   0  -2    4.68    0.15
  -4   0   2    4.68    0.16
   4   0  -2    4.59    0.16
  -4   0   2    4.66    0.16
   4   0  -2    4.37    0.17
   3   0  -2    0.05    0.04
   3   0  -2    0.05    0.02
   3   0  -2    0.06    0.03
  -3   0   2    0.07    0.03
  -3   0   2    0.09    0.03
   3   0  -2    0.08    0.03
   2   0  -2   24.06    0.52
   2   0  -2   24.32    0.49
  -2   0   2   23.11    0.50
   2   0  -2   23.69    0.50
  -2   0   2   24.00    0.50
   2   0  -2   23.26    0.50
   1   0  -2    0.27    0.03
   1   0  -2    0.27    0.02
  -1   0   2    0.23    0.02
  -1   0   2    0.25    0.02
   1   0  -2    0.30    0.03
   1   0  -2    0.28    0.02
  -1   0   2    0.29    0.03
   0   0   2  178.74    3.54
   0   0   2  178.24    3.51
   0   0  -2  172.16    3.53
   0   0  -2  176.29    3.51
   0   0   2  172.81    3.53
   0   0  -2  170.34    3.55
  -1   0  -2    0.01    0.02
   1   0   2    0.02    0.02
   1   0   2    0.03    0.02
  -1   0  -2    0.04    0.01
   1   0   2    0.02    0.01
  -1   0  -2    0.03    0.02
   2   0   2    5.96    0.15
  -2   0  -2    5.84    0.15
   2   0   2    6.13    0.16
   2   0   2    5.88    0.15
  -2   0  -2    5.70    0.15
  -2   0  -2    5.78    0.15
   3   0   2    0.07    0.03
   3   0   2   -0.03    0.02
   3   0   2    0.00    0.02
  -3   0  -2   -0.04    0.03
  -3   0  -2   -0.01    0.02
   4   0   2    1.23    0.08
  -4   0  -2    1.13    0.08
   4   0   2    1.16    0.08
  -4   0  -2    1.10    0.08
  -5   0  -2    0.08    0.05
  -5   0  -2    0.01    0.03
   5   0   2    0.08    0.04
  -6  -1   2    0.05    0.05
   6  -1  -2   -0.01    0.04
  -6  -1   2    0.03    0.05
  -6   1   2    0.08    0.06
  -6   1   2    0.10    0.05
   6   1  -2    0.05    0.05
  -5  -1   2    0.91    0.08
  -5  -1   2    0.84    0.09
   5  -1  -2    0.87    0.08
  -5   1   2    0.92    0.09
  -5   1   2    0.96    0.08
   5   1  -2    0.97    0.08
   5   1  -2    0.83    0.09
  -4  -1   2    1.19    0.08
   4  -1  -2    1.02    0.08
   4  -1  -2    0.96    0.07
   4  -1  -2    0.91    0.07
  -4  -1   2    1.17    0.08
   4   1  -2    1.03    0.09
   4   1  -2    1.09    0.08
  -4   1   2    0.88    0.08
  -4   1   2    1.04    0.08
   4   1  -2    1.13    0.08
  -3  -1   2   48.41    1.01
   3  -1  -2   49.57    0.98
   3  -1  -2   48.75    1.01
   3  -1  -2   49.68    1.01
   3  -1  -2   48.84    1.02
  -3  -1   2   46.92    1.01
   3   1  -2   48.98    0.99
   3   1  -2   47.66    1.00
  -3   1   2   48.63    1.01
  -3   1   2   49.11    1.01
   3   1  -2   47.29    1.02
   3   1  -2   47.65    1.01
   2  -1  -2    0.56    0.04
   2  -1  -2    0.49    0.04
  -2  -1   2    0.52    0.04
   2  -1  -2    0.54    0.04
  -2  -1   2    0.52    0.04
   2  -1  -2    0.58    0.02
   2   1  -2    0.48    0.03
   2   1  -2    0.51    0.04
  -2   1   2    0.48    0.04
   2   1  -2    0.48    0.05
  -2   1   2    0.52    0.04
  -1  -1   2   75.67    1.52
   1  -1  -2   78.29    1.58
  -1  -1   2   74.20    1.51
   1  -1  -2   76.86    1.51
   1  -1  -2   76.43    1.51
  -1   1   2   76.44    1.51
  -1   1   2   78.64    1.51
   1   1  -2   74.50    1.54
   1   1  -2   74.32    1.52
   1   1  -2   73.74    1.52
   0  -1   2    8.86    0.19
   0  -1   2    8.90    0.19
   0  -1  -2    8.95    0.19
   0  -1   2    8.75    0.19
   0  -1  -2    8.92    0.19
   0   1   2    9.02    0.19
   0   1  -2    8.72    0.19
   0   1  -2    8.61    0.19
   0   1  -2    8.82    0.19
   0   1   2    9.13    0.19
  -1  -1  -2   26.80    0.57
   1  -1   2   27.96    0.57
  -1  -1  -2   27.73    0.56
   1  -1   2   27.57    0.56
  -1  -1  -2   27.32    0.56
   1  -1   2   27.94    0.56
   1  -1   2   27.30    0.57
  -1   1  -2   28.07    0.57
  -1   1  -2   27.17    0.56
   1   1   2   27.86    0.57
  -1   1  -2   27.70    0.57
   1   1   2   27.95    0.57
   1   1   2   27.62    0.57
  -2  -1  -2   66.32    1.34
  -2  -1  -2   66.59    1.35
   2  -1   2   66.25    1.32
   2  -1   2   67.23    1.34
   2  -1   2   66.07    1.35
   2  -1   2   64.95    1.35
  -2  -1  -2   66.81    1.34
  -2   1  -2   66.02    1.35
  -2   1  -2   65.32    1.34
   2   1   2   69.09    1.36
   2   1   2   67.15    1.35
  -2   1  -2   65.05    1.35
   2   1   2   66.14    1.34
   3  -1   2   18.54    0.43
  -3  -1  -2   19.05    0.43
  -3  -1  -2   18.86    0.44
   3  -1   2   19.51    0.43
   3  -1   2   19.37    0.43
  -3   1  -2   19.47    0.44
  -3   1  -2   18.91    0.42
   3   1   2   18.97    0.43
  -3   1  -2   19.07    0.43
   3   1   2   18.78    0.44
   3   1   2   19.22    0.44
  -4  -1  -2    0.20    0.05
  -4  -1  -2    0.26    0.05
   4  -1   2    0.28    0.05
   4  -1   2    0.17    0.04
   4   1   2    0.24    0.05
  -4   1  -2    0.27    0.05
  -4   1  -2    0.17    0.05
   4   1   2    0.22    0.04
  -5  -1  -2    5.55    0.19
  -5  -1  -2    5.55    0.20
   5  -1   2    5.42    0.20
  -5   1  -2    5.59    0.21
  -5   1  -2    5.53    0.20
   5   1   2    5.61    0.20
  -6  -2   2    2.50    0.14
   6  -2  -2    2.81    0.15
  -6  -2   2    2.66    0.15
   6   2  -2    2.53    0.14
  -6   2   2    2.76    0.16
  -6   2   2    2.49    0.14
  -5  -2   2    0.47    0.07
   5  -2  -2    0.55    0.07
   5  -2  -2    0.58    0.09
  -5  -2   2    0.46    0.06
  -5   2   2    0.68    0.08
   5   2  -2    0.53    0.07
  -5   2   2    0.58    0.08
   5   2  -2    0.40    0.07
   4  -2  -2    1.11    0.08
  -4  -2   2    1.02    0.08
   4  -2  -2    0.97    0.08
  -4  -2   2    1.09    0.07
   4  -2  -2    1.02    0.07
  -4   2   2    1.04    0.08
  -4   2   2    0.99    0.07
   4   2  -2    0.88    0.08
   4   2  -2    0.99    0.07
   3  -2  -2   14.83    0.36
  -3  -2   2   15.33    0.35
   3  -2  -2   14.82    0.35
   3  -2  -2   15.29    0.35
  -3  -2   2   15.24    0.36
   3   2  -2   15.14    0.37
  -3   2   2   14.95    0.36
   3   2  -2   15.28    0.35
  -3   2   2   14.48    0.35
   3   2  -2   15.55    0.34
   3   2  -2   15.64    0.34
   2  -2  -2    1.50    0.06
   2  -2  -2    1.55    0.07
  -2  -2   2    1.97    0.07
   2  -2  -2    1.46    0.06
  -2  -2   2    1.61    0.06
   2   2  -2    1.67    0.08
  -2   2   2    1.49    0.06
   2   2  -2    1.64    0.06
   2   2  -2    1.53    0.06
  -2   2   2    1.56    0.06
   1  -2  -2  197.85    4.03
  -1  -2   2  198.04    3.99
   1  -2  -2  196.41    4.05
   1  -2  -2  199.16    3.98
  -1  -2   2  195.74    4.01
  -1   2   2  197.01    3.97
  -1   2   2  199.13    3.97
   1   2  -2  204.90    4.05
   1   2  -2  193.21    3.99
   1   2  -2  193.99    3.99
   0  -2   2    0.96    0.04
   0  -2  -2    0.97    0.04
   0  -2  -2    0.98    0.04
   0  -2  -2    0.93    0.04
   0  -2   2    1.04    0.04
   0  -2   2    0.95    0.04
   0  -2   2    0.96    0.04
   0   2  -2    0.90    0.04
   0   2  -2    0.95    0.04
  -1  -2  -2    0.89    0.04
   1  -2   2    0.91    0.03
   1  -2   2    0.89    0.04
   1  -2   2    0.95    0.04
  -1  -2  -2    0.97    0.04
  -1  -2  -2    0.93    0.04
   1  -2   2    0.93    0.05
   1   2   2    0.98    0.05
  -1   2  -2    0.91    0.04
   1   2   2    0.96    0.04
   1   2   2    0.97    0.04
  -1   2  -2    0.89    0.04
  -1   2  -2    0.99    0.04
  -2  -2  -2   19.93    0.43
   2  -2   2   19.00    0.41
   2  -2   2   20.75    0.42
  -2  -2  -2   19.23    0.42
   2  -2   2   19.53    0.43
   2  -2   2   19.93    0.43
  -2   2  -2   19.97    0.43
   2   2   2   20.10    0.42
  -2   2  -2   19.60    0.42
  -2   2  -2   19.95    0.43
   2   2   2   19.37    0.44
   2   2   2   19.76    0.43
  -3  -2  -2   15.54    0.36
   3  -2   2   15.03    0.36
  -3  -2  -2   15.59    0.36
   3  -2   2   15.71    0.35
   3  -2   2   15.27    0.36
  -3   2  -2   14.86    0.34
   3   2   2   15.44    0.35
  -3   2  -2   15.17    0.36
   3   2   2   15.39    0.37
  -3   2  -2   15.45    0.37
   3   2   2   15.72    0.36
   4  -2   2    2.33    0.11
  -4  -2  -2    1.91    0.10
  -4  -2  -2    2.03    0.10
   4  -2   2    1.97    0.10
  -4   2  -2    2.06    0.10
  -4   2  -2    2.05    0.11
   4   2   2    2.05    0.10
   4   2   2    1.97    0.11
  -5  -2  -2    0.48    0.07
   5  -2   2    0.44    0.08
   5  -2   2    0.45    0.07
  -5  -2  -2    0.40    0.07
  -5   2  -2    0.45    0.06
   5   2   2    0.59    0.08
  -5   2  -2    0.43    0.07
   6  -3  -2    0.25    0.06
  -6  -3   2    0.34    0.07
  -6  -3   2    0.21    0.06
  -6   3   2    0.31    0.07
  -6   3   2    0.32    0.08
   6   3  -2    0.28    0.07
   5  -3  -2    0.46    0.06
   5  -3  -2    0.45    0.07
  -5  -3   2    0.49    0.07
  -5  -3   2    0.61    0.07
   5   3  -2    0.46    0.07
  -5   3   2    0.50    0.07
  -5   3   2    0.40    0.07
   5   3  -2    0.32    0.07
   4  -3  -2   16.13    0.39
   4  -3  -2   15.87    0.38
  -4  -3   2   15.43    0.39
  -4  -3   2   15.89    0.38
  -4   3   2   15.87    0.39
   4   3  -2   15.06    0.40
   4   3  -2   15.93    0.37
  -4   3   2   15.40    0.38
   4   3  -2   15.27    0.38
   3  -3  -2    2.63    0.09
  -3  -3   2    2.39    0.10
   3  -3  -2    2.57    0.10
  -3  -3   2    2.30    0.09
   3  -3  -2    2.59    0.10
  -3   3   2    2.60    0.10
  -3   3   2    2.61    0.10
   3   3  -2    2.41    0.10
   3   3  -2    2.37    0.11
   3   3  -2    2.41    0.09
  -2  -3   2    0.56    0.04
   2  -3  -2    0.53    0.04
  -2  -3   2    0.55    0.04
   2  -3  -2    0.54    0.04
   2  -3  -2    0.52    0.04
  -2   3   2    0.58    0.04
   2   3  -2    0.55    0.05
  -2   3   2    0.53    0.04
   2   3  -2    0.56    0.04
   2   3  -2    0.53    0.04
   1  -3  -2    4.96    0.12
  -1  -3   2    4.69    0.12
   1  -3  -2    4.88    0.12
   1  -3  -2    4.91    0.12
  -1  -3   2    4.70    0.11
   1  -3  -2    4.78    0.11
   1   3  -2    4.77    0.13
  -1   3   2    4.96    0.12
  -1   3   2    5.00    0.11
   1   3  -2    4.69    0.12
   1   3  -2    4.60    0.12
   0  -3   2  250.38    4.88
   0  -3  -2  242.71    4.95
   0  -3   2  240.39    4.87
   0  -3  -2  246.07    4.86
   0  -3  -2  237.86    4.88
   0  -3   2  244.35    4.89
   0  -3   2  247.19    4.85
   0   3   2  233.33    4.90
   0   3  -2  246.23    4.89
   0   3  -2  245.06    4.87
   0   3  -2  232.91    4.89
   1  -3   2    0.13    0.02
  -1  -3  -2    0.11    0.02
   1  -3   2    0.10    0.02
   1  -3   2    0.06    0.02
  -1  -3  -2    0.08    0.01
  -1   3  -2    0.11    0.02
  -1   3  -2    0.05    0.02
   1   3   2    0.07    0.02
  -1   3  -2    0.09    0.02
   1   3   2    0.08    0.02
   1   3   2    0.09    0.02
  -2  -3  -2   10.87    0.26
   2  -3   2   11.31    0.27
  -2  -3  -2   11.39    0.26
   2  -3   2   11.98    0.27
   2  -3   2   11.61    0.25
   2  -3   2   11.43    0.25
  -2   3  -2   11.19    0.27
  -2   3  -2   11.88    0.26
  -2   3  -2   11.43    0.25
   2   3   2   11.29    0.26
   2   3   2   11.47    0.28
  -2   3  -2   11.66    0.27
   2   3   2   11.50    0.26
  -3  -3  -2    2.66    0.11
  -3  -3  -2    2.63    0.10
   3  -3   2    3.11    0.11
   3  -3   2    2.97    0.09
   3  -3   2    2.91    0.11
  -3   3  -2    2.69    0.09
  -3   3  -2    2.97    0.12
  -3   3  -2    2.84    0.11
   3   3   2    2.65    0.12
   3   3   2    2.48    0.09
   3   3   2    2.48    0.10
   4  -3   2    7.13    0.21
  -4  -3  -2    6.97    0.20
  -4  -3  -2    7.31    0.22
   4  -3   2    6.60    0.21
  -4   3  -2    6.71    0.21
   4   3   2    7.20    0.21
   4   3   2    6.53    0.22
  -4   3  -2    6.43    0.21
  -5  -3  -2    0.22    0.05
   5  -3   2    0.29    0.07
  -5  -3  -2    0.19    0.05
   5  -3   2    0.29    0.06
   5   3   2    0.28    0.06
  -5   3  -2    0.23    0.06
  -5   3  -2    0.33    0.06
  -6  -4   2    0.52    0.08
   6  -4  -2    0.32    0.06
   6   4  -2    0.54    0.09
  -6   4   2    0.38    0.08
  -6   4   2    0.47    0.08
   5  -4  -2    5.46    0.20
  -5  -4   2    5.04    0.19
  -5  -4   2    4.79    0.17
   5  -4  -2    5.14    0.18
  -5   4   2    5.56    0.20
   5   4  -2    5.35    0.19
  -5   4   2    5.51    0.19
  -4  -4   2    0.14    0.04
  -4  -4   2    0.19    0.04
   4  -4  -2    0.12    0.04
   4  -4  -2    0.18    0.04
  -4   4   2    0.15    0.04
   4   4  -2    0.18    0.04
  -4   4   2    0.16    0.05
   4   4  -2    0.18    0.04
   4   4  -2    0.12    0.05
   3  -4  -2    5.96    0.17
  -3  -4   2    5.83    0.17
   3  -4  -2    5.83    0.16
  -3  -4   2    6.02    0.16
   3  -4  -2    5.84    0.18
   3   4  -2    6.23    0.17
   3   4  -2    5.73    0.19
   3   4  -2    5.96    0.17
  -3   4   2    5.69    0.17
  -3   4   2    5.90    0.18
  -2  -4   2    0.05    0.02
   2  -4  -2    0.03    0.02
   2  -4  -2    0.09    0.02
  -2  -4   2    0.09    0.03
   2  -4  -2    0.06    0.02
   2   4  -2    0.04    0.02
   2   4  -2    0.05    0.03
  -2   4   2    0.05    0.02
  -2   4   2    0.06    0.02
   2   4  -2    0.07    0.02
   1  -4  -2    1.05    0.05
  -1  -4   2    1.08    0.05
  -1  -4   2    1.11    0.05
  -1  -4   2    1.05    0.04
   1  -4  -2    1.16    0.05
  -1   4   2    1.03    0.04
   1   4  -2    1.03    0.05
   1   4  -2    1.09    0.05
   1   4  -2    1.06    0.04
  -1   4   2    1.08    0.04
   0  -4   2   16.93    0.34
   0  -4  -2   16.26    0.35
   0  -4   2   16.21    0.33
   0  -4   2   15.81    0.34
   0  -4  -2   15.87    0.34
   0  -4   2   16.14    0.34
   0  -4   2   15.59    0.34
   0   4  -2   16.10    0.34
   0   4   2   15.60    0.34
   0   4  -2   16.08    0.34
   0   4  -2   16.22    0.34
   1  -4   2   43.26    0.90
   1  -4   2   43.94    0.89
  -1  -4  -2   44.84    0.88
   1  -4   2   43.88    0.91
  -1  -4  -2   44.45    0.89
   1   4   2   44.28    0.92
  -1   4  -2   43.74    0.90
   1   4   2   43.08    0.89
   1   4   2   44.20    0.89
  -1   4  -2   45.38    0.91
  -1   4  -2   43.87    0.90
   2  -4   2   21.08    0.48
   2  -4   2   21.31    0.46
   2  -4   2   21.42    0.46
  -2  -4  -2   21.82    0.47
  -2  -4  -2   22.19    0.45
  -2   4  -2   21.42    0.45
   2   4   2   21.03    0.49
  -2   4  -2   21.41    0.47
   2   4   2   22.24    0.46
  -2   4  -2   21.37    0.47
   2   4   2   21.54    0.46
   3  -4   2    2.53    0.10
  -3  -4  -2    2.71    0.11
  -3  -4  -2    2.57    0.09
   3  -4   2    2.53    0.11
   3  -4   2    2.53    0.09
  -3   4  -2    2.73    0.11
   3   4   2    2.42    0.11
   3   4   2    2.74    0.10
  -3   4  -2    2.61    0.11
  -4  -4  -2    4.95    0.16
   4  -4   2    5.18    0.18
   4  -4   2    4.99    0.17
   4  -4   2    4.62    0.18
  -4  -4  -2    5.14    0.18
  -4   4  -2    4.85    0.17
   4   4   2    5.19    0.17
  -4   4  -2    4.84    0.18
   4   4   2    5.33    0.19
   5  -4   2    0.09    0.05
   5  -4   2    0.12    0.05
  -5  -4  -2    0.07    0.04
   5  -4   2    0.03    0.03
  -5   4  -2    0.08    0.05
  -5   4  -2    0.06    0.04
   5   4   2    0.07    0.04
   5  -5  -2    2.68    0.12
  -5  -5   2    2.25    0.11
   5  -5  -2    2.51    0.13
  -5  -5   2    2.13    0.13
   5   5  -2    2.22    0.12
  -5   5   2    2.46    0.13
  -5   5   2    2.33    0.14
   4  -5  -2    7.99    0.24
  -4  -5   2    8.13    0.22
  -4  -5   2    8.11    0.24
   4  -5  -2    7.86    0.22
   4   5  -2    8.33    0.24
  -4   5   2    8.13    0.24
   4   5  -2    8.24    0.26
  -4   5   2    8.06    0.23
   4   5  -2    8.14    0.23
   3  -5  -2    5.46    0.18
  -3  -5   2    6.23    0.16
   3  -5  -2    5.78    0.16
   3  -5  -2    5.77    0.16
  -3  -5   2    5.95    0.18
   3   5  -2    6.13    0.17
   3   5  -2    5.99    0.17
  -3   5   2    5.48    0.17
  -3   5   2    5.65    0.17
   3   5  -2    5.84    0.19
   2  -5  -2    3.57    0.12
   2  -5  -2    3.76    0.12
  -2  -5   2    4.12    0.12
  -2  -5   2    3.97    0.11
   2  -5  -2    3.99    0.11
  -2  -5   2    3.99    0.11
   2  -5  -2    3.82    0.10
  -2   5   2    3.86    0.11
  -2   5   2    3.81    0.12
   2   5  -2    4.02    0.11
   2   5  -2    4.09    0.12
   2   5  -2    4.06    0.13
  -1  -5   2    3.50    0.08
  -1  -5   2    3.47    0.09
   1  -5  -2    3.42    0.11
   1  -5  -2    3.45    0.10
  -1  -5   2    3.41    0.10
   1   5  -2    3.48    0.11
  -1   5   2    3.58    0.10
   1   5  -2    3.47    0.09
   1   5  -2    3.40    0.10
  -1   5   2    3.47    0.08
   0  -5   2  124.93    2.55
   0  -5  -2  131.55    2.55
   0  -5   2  126.86    2.54
   0  -5  -2  127.58    2.55
   0  -5   2  133.45    2.53
   0  -5   2  126.64    2.55
   0   5   2  130.22    2.54
   0   5  -2  123.13    2.55
   0   5  -2  127.10    2.57
   0   5  -2  124.88    2.56
  -1  -5  -2    8.39    0.20
   1  -5   2    8.31    0.20
   1  -5   2    8.06    0.19
   1  -5   2    7.84    0.19
  -1  -5  -2    8.15    0.18
   1  -5   2    8.17    0.20
  -1  -5  -2    8.41    0.19
  -1   5  -2    8.30    0.20
  -1   5  -2    8.05    0.19
  -1   5  -2    8.25    0.19
   1   5   2    8.36    0.18
   1   5   2    8.55    0.21
   1   5   2    8.37    0.19
   2  -5   2   10.93    0.25
  -2  -5  -2   10.78    0.25
   2  -5   2   10.46    0.26
   2  -5   2   10.64    0.27
   2  -5   2   10.79    0.25
  -2  -5  -2   10.67    0.24
  -2  -5  -2   10.78    0.23
   2   5   2   10.42    0.25
  -2   5  -2   10.45    0.25
   2   5   2   10.79    0.28
  -2   5  -2   11.26    0.27
  -2   5  -2   10.60    0.24
   2   5   2   10.77    0.24
  -3  -5  -2   26.31    0.56
   3  -5   2   25.02    0.56
  -3  -5  -2   25.98    0.58
   3  -5   2   26.15    0.59
   3  -5   2   26.22    0.60
   3  -5   2   26.34    0.57
  -3   5  -2   26.26    0.59
  -3   5  -2   26.45    0.58
   3   5   2   25.34    0.60
   3   5   2   26.67    0.58
   4  -5   2   22.02    0.54
  -4  -5  -2   20.52    0.52
   4  -5   2   23.09    0.53
   4  -5   2   22.64    0.52
  -4   5  -2   21.75    0.53
   4   5   2   22.14    0.55
   4   5   2   22.29    0.52
  -4   5  -2   22.35    0.52
   5  -5   2    1.41    0.11
  -5  -5  -2    1.41    0.10
   5  -5   2    1.35    0.10
   5  -5   2    1.20    0.09
  -5   5  -2    1.32    0.10
   5   5   2    1.27    0.10
  -5   5  -2    1.40    0.11
   5  -6  -2    6.86    0.24
  -5  -6   2    7.08    0.24
  -5   6   2    6.68    0.23
  -5   6   2    6.79    0.24
   5   6  -2    6.94    0.23
   4  -6  -2   23.61    0.56
  -4  -6   2   23.45    0.53
   4  -6  -2   24.24    0.53
  -4  -6   2   23.09    0.56
  -4   6   2   24.51    0.55
   4   6  -2   23.74    0.55
   4   6  -2   23.61    0.58
   4   6  -2   23.86    0.55
  -4   6   2   23.79    0.56
  -3  -6   2    0.07    0.04
   3  -6  -2    0.02    0.03
  -3  -6   2    0.04    0.03
  -3  -6   2    0.10    0.03
   3  -6  -2    0.05    0.02
   3  -6  -2    0.06    0.03
  -3   6   2    0.04    0.03
  -3   6   2    0.05    0.04
   3   6  -2    0.02    0.04
   3   6  -2    0.07    0.03
   3   6  -2    0.07    0.03
  -2  -6   2    0.29    0.03
  -2  -6   2    0.25    0.03
   2  -6  -2    0.25    0.02
   2  -6  -2    0.23    0.04
   2  -6  -2    0.25    0.03
  -2  -6   2    0.29    0.04
   2  -6  -2    0.29    0.04
  -2   6   2    0.30    0.04
   2   6  -2    0.36    0.05
   2   6  -2    0.29    0.04
   2   6  -2    0.29    0.03
  -2   6   2    0.28    0.03
   1  -6  -2    7.40    0.19
  -1  -6   2    7.82    0.17
  -1  -6   2    7.70    0.19
   1  -6  -2    7.98    0.20
   1   6  -2    7.86    0.20
  -1   6   2    7.66    0.19
   1   6  -2    7.50    0.19
  -1   6   2    7.98    0.17
   1   6  -2    7.47    0.18
  -1   6   2    7.82    0.17
   0  -6   2   56.09    1.15
   0  -6  -2   56.32    1.15
   0  -6   2   57.37    1.14
   0  -6  -2   56.19    1.14
   0  -6   2   56.90    1.14
   0   6  -2   56.73    1.13
   0   6   2   55.23    1.15
   0   6  -2   55.41    1.15
   0   6   2   56.67    1.16
   0   6  -2   57.67    1.14
   1  -6   2   12.09    0.26
   1  -6   2   11.70    0.28
  -1  -6  -2   11.97    0.28
  -1  -6  -2   11.96    0.26
   1  -6   2   12.01    0.28
   1  -6   2   11.73    0.27
   1   6   2   11.98    0.29
   1   6   2   12.20    0.27
  -1   6  -2   11.92    0.28
  -1   6  -2   12.28    0.27
  -1   6  -2   11.54    0.27
   1   6   2   12.10    0.25
   2  -6   2   21.30    0.48
   2  -6   2   22.10    0.45
  -2  -6  -2   20.99    0.46
   2  -6   2   20.77    0.46
   2  -6   2   21.21    0.48
  -2   6  -2   21.02    0.45
   2   6   2   20.92    0.45
   2   6   2   20.76    0.45
  -2   6  -2   21.55    0.47
   2   6   2   20.41    0.49
  -2   6  -2   20.58    0.46
   3  -6   2    2.52    0.12
   3  -6   2    2.58    0.10
   3  -6   2    2.73    0.13
  -3  -6  -2    2.23    0.10
   3  -6   2    2.64    0.10
   3   6   2    2.23    0.10
  -3   6  -2    2.56    0.11
   3   6   2    2.28    0.12
  -3   6  -2    2.53    0.12
   4  -6   2    0.26    0.06
  -4  -6  -2    0.24    0.05
   4  -6   2    0.35    0.05
   4  -6   2    0.27    0.05
  -4   6  -2    0.41    0.07
   4   6   2    0.21    0.06
   4   6   2    0.32    0.05
  -4   6  -2    0.29    0.05
  -5  -6  -2    0.11    0.05
   5  -6   2    0.09    0.04
   5  -6   2    0.09    0.05
   5  -6   2    0.08    0.04
   5   6   2    0.06    0.04
  -5   6  -2    0.06    0.05
  -5   6  -2    0.09    0.05
   5  -7  -2    0.08    0.05
  -5  -7   2    0.08    0.05
  -5   7   2    0.00    0.05
  -5   7   2    0.02    0.04
   5   7  -2    0.06    0.04
   5   7  -2    0.05    0.04
   4  -7  -2    2.95    0.14
  -4  -7   2    2.56    0.13
  -4   7   2    2.70    0.13
   4   7  -2    2.50    0.12
   4   7  -2    2.76    0.15
   4   7  -2    2.35    0.12
  -4   7   2    2.98    0.12
  -3  -7   2   14.05    0.33
   3  -7  -2   14.20    0.36
  -3  -7   2   14.00    0.35
   3  -7  -2   14.00    0.34
  -3   7   2   14.83    0.35
  -3   7   2   13.62    0.33
   3   7  -2   13.88    0.35
   3   7  -2   13.90    0.34
   3   7  -2   14.14    0.37
  -2  -7   2    0.95    0.06
  -2  -7   2    0.93    0.06
  -2  -7   2    1.04    0.04
   2  -7  -2    1.08    0.06
  -2   7   2    0.86    0.06
   2   7  -2    0.95    0.05
   2   7  -2    1.06    0.07
   2   7  -2    1.02    0.06
  -2   7   2    0.97    0.05
   1  -7  -2    5.72    0.16
  -1  -7   2    5.57    0.13
  -1  -7   2    5.49    0.15
   1  -7  -2    5.74    0.15
   1   7  -2    5.50    0.14
  -1   7   2    5.68    0.15
   1   7  -2    5.78    0.16
  -1   7   2    5.50    0.12
  -1   7   2    5.65    0.13
   0  -7  -2   10.98    0.26
   0  -7  -2   10.84    0.26
   0  -7   2   11.02    0.25
   0  -7   2   10.88    0.25
   0  -7   2   10.71    0.26
   0   7   2   11.37    0.26
   0   7   2   11.77    0.27
   0   7  -2   11.23    0.26
   0   7  -2   11.28    0.25
   0   7   2   11.05    0.25
   0   7  -2   11.22    0.26
   0   7  -2   10.99    0.24
  -1  -7  -2    0.71    0.04
   1  -7   2    0.58    0.03
   1  -7   2    0.59    0.05
   1  -7   2    0.55    0.05
  -1  -7  -2    0.71    0.05
   1  -7   2    0.49    0.05
  -1   7  -2    0.56    0.04
   1   7   2    0.74    0.03
   1   7   2    0.69    0.05
  -1   7  -2    0.54    0.04
   1   7   2    0.68    0.04
  -1   7  -2    0.63    0.05
   2  -7   2    1.14    0.08
   2  -7   2    1.12    0.07
  -2  -7  -2    1.05    0.06
   2  -7   2    1.06    0.05
   2  -7   2    1.04    0.07
  -2   7  -2    1.09    0.06
  -2   7  -2    1.03    0.06
   2   7   2    1.04    0.05
   2   7   2    1.07    0.07
   2   7   2    1.08    0.06
  -2   7  -2    1.26    0.07
   3  -7   2    1.45    0.07
   3  -7   2    1.39    0.08
   3  -7   2    1.24    0.09
   3  -7   2    1.52    0.10
  -3  -7  -2    1.21    0.08
   3   7   2    0.98    0.07
   3   7   2    1.15    0.09
  -3   7  -2    1.35    0.08
   4  -7   2    1.19    0.10
   4  -7   2    1.22    0.10
  -4  -7  -2    1.33    0.09
   4  -7   2    1.12    0.07
   4   7   2    1.30    0.09
   4   7   2    1.12    0.10
  -4   7  -2    1.11    0.10
  -4   7  -2    1.15    0.09
   5  -7   2    3.03    0.17
   5  -7   2    2.88    0.15
  -5  -7  -2    3.17    0.15
   5   7   2    3.15    0.15
  -5   7  -2    2.86    0.16
  -5   7  -2    3.12    0.15
  -5  -8   2    1.30    0.10
   5  -8  -2    1.34    0.11
   5   8  -2    1.22    0.09
   5   8  -2    1.14    0.09
  -5   8   2    1.12    0.11
  -5   8   2    1.10    0.10
   4  -8  -2    0.57    0.07
  -4  -8   2    0.51    0.07
   4   8  -2    0.47    0.06
  -4   8   2    0.66    0.08
   4   8  -2    0.59    0.07
  -4   8   2    0.68    0.07
   4   8  -2    0.59    0.09
   3  -8  -2    2.02    0.11
   3  -8  -2    2.10    0.10
  -3  -8   2    2.10    0.09
  -3  -8   2    2.10    0.10
   3   8  -2    1.97    0.09
   3   8  -2    2.05    0.12
   3   8  -2    2.00    0.10
  -3   8   2    1.94    0.09
  -3   8   2    2.13    0.11
  -2  -8   2    0.74    0.05
   2  -8  -2    0.92    0.07
   2  -8  -2    0.80    0.06
   2   8  -2    0.76    0.06
  -2   8   2    0.79    0.05
  -2   8   2    0.78    0.06
   2   8  -2    0.74    0.07
   2   8  -2    0.64    0.05
  -1  -8   2    3.52    0.11
   1  -8  -2    3.26    0.12
  -1  -8   2    3.39    0.09
   1  -8  -2    3.45    0.11
  -1   8   2    3.37    0.11
  -1   8   2    3.32    0.09
   1   8  -2    3.21    0.09
   1   8  -2    3.30    0.11
   1   8  -2    3.44    0.12
   0  -8   2    5.80    0.16
   0  -8  -2    6.34    0.17
   0  -8  -2    6.28    0.16
   0  -8   2    5.79    0.16
   0  -8   2    5.86    0.16
   0   8   2    6.41    0.17
   0   8  -2    6.03    0.17
   0   8  -2    6.07    0.16
   0   8  -2    6.13    0.16
   0   8  -2    6.05    0.14
   0   8   2    6.22    0.16
   0   8   2    6.33    0.16
  -1  -8  -2    9.89    0.25
   1  -8   2    9.67    0.25
   1  -8   2   10.23    0.25
   1  -8   2   10.00    0.25
  -1  -8  -2    9.60    0.23
   1   8   2   10.15    0.23
  -1   8  -2    9.89    0.24
   1   8   2    9.90    0.26
  -1   8  -2    9.83    0.23
  -1   8  -2    9.88    0.25
  -2  -8  -2   26.17    0.59
   2  -8   2   27.06    0.59
   2  -8   2   27.16    0.61
   2  -8   2   27.12    0.60
   2   8   2   26.85    0.62
  -2   8  -2   26.87    0.60
  -2   8  -2   27.65    0.58
   2   8   2   27.20    0.58
   3  -8   2   32.01    0.72
  -3  -8  -2   32.52    0.71
   3  -8   2   33.50    0.70
   3  -8   2   31.63    0.73
  -3   8  -2   32.57    0.70
   3   8   2   31.37    0.69
  -3   8  -2   30.68    0.72
   3   8   2   32.39    0.74
  -4  -8  -2    0.15    0.04
   4  -8   2    0.10    0.05
   4  -8   2    0.12    0.05
  -4   8  -2    0.06    0.04
  -4   8  -2    0.08    0.05
   4   8   2    0.10    0.04
   5  -8   2    3.59    0.18
  -5  -8  -2    3.20    0.16
  -5   8  -2    3.58    0.16
   5   8   2    3.50    0.16
   5   8   2    3.43    0.16
  -5   8  -2    3.19    0.17
  -5  -9   2    0.39    0.07
   5  -9  -2    0.40    0.07
   5   9  -2    0.45    0.07
  -5   9   2    0.40    0.08
  -5   9   2    0.40    0.07
   5   9  -2    0.39    0.06
   4  -9  -2    6.45    0.23
  -4  -9   2    6.40    0.22
   4   9  -2    6.41    0.20
  -4   9   2    6.51    0.22
   4   9  -2    6.41    0.21
  -4   9   2    6.53    0.20
  -3  -9   2    2.03    0.11
   3  -9  -2    2.34    0.11
  -3  -9   2    2.02    0.10
   3  -9  -2    2.28    0.11
   3   9  -2    2.14    0.09
  -3   9   2    2.15    0.11
  -3   9   2    2.11    0.09
   3   9  -2    2.09    0.12
   3   9  -2    1.83    0.10
   2  -9  -2    0.07    0.03
  -2  -9   2    0.03    0.03
   2  -9  -2    0.07    0.03
   2   9  -2    0.06    0.02
  -2   9   2    0.05    0.03
   2   9  -2    0.05    0.03
   2   9  -2    0.01    0.03
  -1  -9   2    0.45    0.04
   1  -9  -2    0.41    0.05
  -1  -9   2    0.43    0.04
   1  -9  -2    0.53    0.06
   1   9  -2    0.43    0.05
   1   9  -2    0.43    0.05
  -1   9   2    0.41    0.04
  -1   9   2    0.45    0.04
   1   9  -2    0.43    0.03
  -1   9   2    0.42    0.03
   0  -9  -2   36.03    0.75
   0  -9   2   35.90    0.75
   0  -9  -2   35.97    0.76
   0  -9   2   34.94    0.76
   0   9   2   35.81    0.75
   0   9  -2   35.95    0.75
   0   9  -2   35.51    0.76
   0   9   2   35.34    0.76
   0   9  -2   35.65    0.76
   0   9  -2   34.82    0.73
   0   9   2   36.72    0.77
   0   9   2   35.98    0.75
  -1  -9  -2    4.99    0.15
   1  -9   2    5.02    0.15
   1  -9   2    5.02    0.15
  -1  -9  -2    5.13    0.14
   1  -9   2    4.91    0.15
   1   9   2    4.76    0.16
  -1   9  -2    4.91    0.15
  -1   9  -2    4.83    0.13
  -1   9  -2    4.79    0.14
   1   9   2    4.81    0.14
   2  -9   2    0.41    0.06
   2  -9   2    0.40    0.06
   2  -9   2    0.60    0.06
  -2   9  -2    0.46    0.05
  -2   9  -2    0.50    0.06
   2   9   2    0.41    0.06
  -3  -9  -2    1.13    0.08
   3  -9   2    1.03    0.08
   3  -9   2    1.18    0.09
   3  -9   2    1.14    0.09
  -3   9  -2    1.04    0.08
  -3   9  -2    1.12    0.07
   3   9   2    1.07    0.09
   4  -9   2    1.49    0.11
  -4  -9  -2    1.36    0.09
   4  -9   2    1.41    0.11
   4   9   2    1.27    0.09
  -4   9  -2    1.34    0.11
  -4   9  -2    1.51    0.09
   5  -9   2    0.07    0.06
  -5  -9  -2    0.19    0.05
  -5   9  -2    0.14    0.07
   5   9   2    0.09    0.05
  -5   9  -2    0.27    0.06
   5   9   2    0.15    0.05
   5 -10  -2    1.09    0.11
  -5 -10   2    1.14    0.10
  -5  10   2    0.99    0.09
  -5  10   2    0.94    0.11
   5  10  -2    0.95    0.09
   5  10  -2    1.02    0.09
   4 -10  -2    2.30    0.12
   4 -10  -2    2.35    0.13
  -4 -10   2    2.17    0.12
  -4  10   2    2.27    0.13
  -4  10   2    2.41    0.11
   4  10  -2    2.31    0.11
   4  10  -2    2.21    0.12
  -3 -10   2   10.43    0.29
   3 -10  -2   10.37    0.28
   3 -10  -2   10.34    0.30
  -3  10   2   10.11    0.28
   3  10  -2   10.46    0.29
   3  10  -2   10.23    0.31
   2 -10  -2    3.07    0.13
  -2 -10   2    3.20    0.12
   2 -10  -2    2.94    0.12
  -2  10   2    2.99    0.12
   2  10  -2    3.20    0.14
   2  10  -2    3.18    0.13
  -1 -10   2   18.12    0.46
   1 -10  -2   18.98    0.44
  -1 -10   2   18.39    0.43
   1 -10  -2   19.37    0.44
   1  10  -2   18.58    0.44
  -1  10   2   19.19    0.43
  -1  10   2   18.48    0.41
   1  10  -2   19.04    0.44
  -1  10   2   19.67    0.43
   0 -10   2   28.61    0.62
   0 -10   2   29.06    0.63
   0 -10  -2   28.70    0.63
   0 -10  -2   28.51    0.63
   0  10  -2   27.58    0.63
   0  10  -2   29.49    0.63
   0  10   2   28.73    0.63
   0  10   2   29.03    0.62
   0  10  -2   29.23    0.62
   0  10   2   28.80    0.62
   0  10   2   30.22    0.64
   1 -10   2    4.22    0.14
  -1 -10  -2    4.00    0.14
   1 -10   2    4.15    0.14
   1 -10   2    3.95    0.14
  -1 -10  -2    4.14    0.13
   1  10   2    3.86    0.12
  -1  10  -2    4.13    0.13
   1  10   2    4.01    0.15
  -1  10  -2    3.95    0.14
   2 -10   2    0.69    0.07
   2 -10   2    0.75    0.07
   2 -10   2    0.86    0.07
  -2  10  -2    0.81    0.07
   2  10   2    0.91    0.08
  -2  10  -2    0.78    0.06
   3 -10   2   13.07    0.36
   3 -10   2   13.16    0.37
   3 -10   2   13.43    0.34
  -3 -10  -2   13.78    0.34
  -3  10  -2   13.48    0.34
   3  10   2   14.42    0.39
  -3  10  -2   13.42    0.36
  -4 -10  -2    0.04    0.03
   4 -10   2   -0.01    0.04
   4  10   2    0.01    0.03
  -4  10  -2   -0.03    0.04
  -4  10  -2    0.04    0.04
   5 -10   2    0.03    0.06
  -5 -10  -2    0.08    0.04
  -5  10  -2    0.03    0.05
   5  10   2    0.06    0.05
  -5  10  -2    0.03    0.06
  -5 -11   2    0.32    0.07
   5 -11  -2    0.29    0.07
  -5  11   2    0.33    0.08
   5  11  -2    0.23    0.06
  -5  11   2    0.26    0.06
   4 -11  -2    1.93    0.12
  -4 -11   2    1.96    0.12
   4 -11  -2    1.88    0.12
  -4  11   2    1.86    0.12
   4  11  -2    1.93    0.12
   3 -11  -2    0.02    0.04
   3 -11  -2    0.16    0.05
   3  11  -2    0.08    0.05
   3  11  -2    0.07    0.04
  -3  11   2    0.08    0.04
  -2 -11   2    1.38    0.08
   2 -11  -2    1.51    0.09
   2 -11  -2    1.34    0.09
   2  11  -2    1.46    0.09
   2  11  -2    1.32    0.09
  -2  11   2    1.43    0.09
  -1 -11   2    0.02    0.03
   1 -11  -2    0.09    0.04
   1 -11  -2    0.05    0.04
  -1  11   2    0.03    0.03
   1  11  -2    0.04    0.03
  -1  11   2    0.08    0.03
   1  11  -2    0.06    0.04
   0 -11   2   28.20    0.64
   0 -11  -2   28.97    0.64
   0 -11   2   29.19    0.63
   0 -11  -2   29.20    0.63
   0  11  -2   28.68    0.64
   0  11   2   28.56    0.63
   0  11   2   28.85    0.63
   0  11  -2   29.24    0.63
   0  11   2   28.07    0.63
   0  11   2   29.49    0.64
   1 -11   2    0.22    0.04
   1 -11   2    0.29    0.05
  -1 -11  -2    0.29    0.04
  -1 -11  -2    0.27    0.04
   1  11   2    0.24    0.04
   1  11   2    0.26    0.05
  -1  11  -2    0.25    0.04
  -1  11  -2    0.29    0.05
   2 -11   2    0.28    0.05
   2 -11   2    0.26    0.05
   2 -11   2    0.25    0.05
   2  11   2    0.19    0.04
   2  11   2    0.31    0.06
  -2  11  -2    0.28    0.05
   3 -11   2    1.10    0.10
   3 -11   2    1.11    0.09
   3  11   2    1.03    0.08
   3  11   2    0.86    0.10
  -3  11  -2    0.91    0.07
  -3  11  -2    0.90    0.09
   4 -11   2    1.29    0.11
  -4 -11  -2    1.27    0.09
  -4  11  -2    1.34    0.09
  -4  11  -2    1.07    0.11
   4  11   2    1.32    0.10
   4 -12  -2    0.29    0.07
   4 -12  -2    0.24    0.06
  -4  12   2    0.30    0.07
   4  12  -2    0.37    0.07
   3 -12  -2    0.23    0.05
   3 -12  -2    0.13    0.05
  -3  12   2    0.06    0.04
   3  12  -2    0.12    0.05
   3  12  -2    0.10    0.04
   2 -12  -2   47.75    1.03
   2 -12  -2   46.42    1.04
  -2 -12   2   47.46    1.02
   2  12  -2   48.69    1.04
  -2  12   2   48.95    1.03
   2  12  -2   48.69    1.05
   1 -12  -2    1.55    0.10
  -1 -12   2    1.61    0.09
   1 -12  -2    1.40    0.09
  -1  12   2    1.65    0.09
   1  12  -2    1.56    0.09
   1  12  -2    1.60    0.09
   0 -12   2    0.10    0.04
   0 -12   2    0.06    0.03
   0 -12  -2    0.09    0.04
   0 -12  -2    0.14    0.04
   0  12  -2    0.08    0.03
   0  12   2    0.10    0.04
   0  12  -2    0.11    0.04
   0  12   2    0.11    0.03
   0  12   2    0.03    0.03
   0  12   2    0.15    0.04
  -1 -12  -2    0.18    0.04
   1 -12   2    0.11    0.04
   1 -12   2    0.24    0.04
  -1 -12  -2    0.26    0.05
   1  12   2    0.19    0.04
  -1  12  -2    0.14    0.04
   1  12   2    0.26    0.05
  -1  12  -2    0.21    0.04
   2 -12   2    3.96    0.16
   2 -12   2    4.07    0.16
   2  12   2    4.48    0.16
  -2  12  -2    4.20    0.16
   2  12   2    4.29    0.17
   3 -12   2    4.33    0.18
   3 -12   2    4.12    0.16
  -3  12  -2    4.11    0.17
   3  12   2    3.82    0.16
   4 -12   2    0.42    0.08
  -4  12  -2    0.34    0.07
   4  12   2    0.52    0.08
  -4  12  -2    0.58    0.07
   4 -13  -2    1.43    0.11
   4 -13  -2    1.44    0.12
   4  13  -2    1.31    0.11
  -4  13   2    1.20    0.11
   3 -13  -2    0.42    0.07
   3 -13  -2    0.46    0.07
  -3  13   2    0.42    0.07
   3  13  -2    0.35    0.06
   2 -13  -2    0.92    0.08
   2 -13  -2    0.97    0.09
  -2 -13   2    0.80    0.07
  -2  13   2    0.88    0.08
   2  13  -2    0.81    0.09
   2  13  -2    0.84    0.08
   1 -13  -2    0.26    0.05
  -1 -13   2    0.37    0.05
   1 -13  -2    0.23    0.05
   1  13  -2    0.30    0.05
   1  13  -2    0.32    0.05
  -1  13   2    0.27    0.05
   0 -13   2    0.16    0.04
   0 -13   2    0.17    0.04
   0 -13  -2    0.10    0.04
   0 -13  -2    0.18    0.04
   0  13  -2    0.22    0.04
   0  13   2    0.16    0.04
   0  13  -2    0.12    0.04
   0  13   2    0.20    0.04
   0  13   2    0.18    0.04
   0  13   2    0.13    0.04
   1 -13   2    3.75    0.15
  -1 -13  -2    3.85    0.14
  -1 -13  -2    3.89    0.14
   1 -13   2    3.85    0.15
   1  13   2    3.78    0.16
   1  13   2    3.64    0.14
  -1  13  -2    3.64    0.15
   2 -13   2    0.03    0.04
   2 -13   2    0.05    0.04
   2  13   2    0.00    0.03
   2  13   2   -0.02    0.04
  -2  13  -2   -0.03    0.03
   3 -13   2    3.23    0.16
   3 -13   2    3.08    0.14
  -3  13  -2    2.71    0.15
   3  13   2    3.07    0.15
   4 -13   2    0.25    0.07
   4 -13   2    0.15    0.07
  -4  13  -2    0.11    0.06
   4  13   2    0.21    0.06
   4 -14  -2    0.57    0.08
   4 -14  -2    0.57    0.09
   4  14  -2    0.56    0.08
  -4  14   2    0.47    0.08
   3 -14  -2    0.09    0.05
   3 -14  -2    0.07    0.04
   3  14  -2    0.03    0.04
  -3  14   2    0.10    0.05
   2 -14  -2    1.75    0.11
  -2 -14   2    1.75    0.10
   2 -14  -2    1.89    0.11
   2  14  -2    1.84    0.12
   2  14  -2    1.89    0.11
  -2  14   2    2.09    0.11
  -1 -14   2    0.98    0.08
   1 -14  -2    0.77    0.08
   1 -14  -2    0.77    0.08
  -1  14   2    0.82    0.07
   1  14  -2    0.94    0.08
   0 -14   2    0.74    0.08
   0 -14  -2    0.71    0.07
   0 -14  -2    0.76    0.07
   0  14   2    0.71    0.06
   0  14  -2    0.69    0.07
   0  14   2    0.75    0.07
   0  14  -2    0.77    0.07
   0  14   2    0.72    0.07
  -1 -14  -2    0.35    0.05
  -1 -14  -2    0.27    0.05
   1 -14   2    0.34    0.05
   1 -14   2    0.36    0.06
  -1  14  -2    0.25    0.05
   1  14   2    0.34    0.06
   1  14   2    0.43    0.06
   2 -14   2    6.37    0.22
   2 -14   2    6.02    0.22
  -2  14  -2    6.56    0.22
   2  14   2    6.41    0.33
   2  14   2    6.18    0.21
   3 -14   2    0.49    0.08
   3 -14   2    0.46    0.07
  -3  14  -2    0.42    0.07
   3  14   2    0.39    0.07
   3 -15  -2    0.20    0.06
   3 -15  -2    0.12    0.05
  -3  15   2    0.09    0.05
   3  15  -2    0.06    0.05
  -2 -15   2    0.36    0.06
   2 -15  -2    0.49    0.07
   2 -15  -2    0.33    0.06
   2  15  -2    0.30    0.07
  -2  15   2    0.33    0.06
   2  15  -2    0.34    0.06
   1 -15  -2    0.06    0.04
  -1 -15   2    0.02    0.04
   1 -15  -2    0.09    0.04
   1  15  -2    0.15    0.04
   1  15  -2    0.10    0.04
  -1  15   2    0.09    0.04
   0 -15   2    0.84    0.08
   0 -15  -2    0.69    0.07
   0 -15  -2    0.74    0.08
   0  15   2    0.67    0.07
   0  15   2    0.68    0.08
   0  15  -2    0.56    0.07
   0  15  -2    0.75    0.08
   1 -15   2    0.05    0.04
   1 -15   2    0.07    0.04
  -1 -15  -2    0.09    0.04
   1  15   2    0.06    0.04
   1  15   2    0.07    0.03
   1  15   2    0.06    0.04
  -1  15  -2    0.13    0.04
   2 -15   2    0.25    0.06
   2 -15   2    0.22    0.06
   2  15   2    0.19    0.05
  -2  15  -2    0.22    0.06
   3 -15   2    1.58    0.12
   3 -15   2    1.48    0.12
  -3  15  -2    1.30    0.12
   3  15   2    1.44    0.11
   3 -16  -2    0.05    0.05
   3 -16  -2    0.01    0.05
   3  16  -2    0.03    0.05
  -3  16   2   -0.05    0.04
   2 -16  -2    1.39    0.11
  -2 -16   2    1.31    0.10
   2 -16  -2    1.50    0.11
  -2  16   2    1.38    0.10
   2  16  -2    1.47    0.11
   1 -16  -2    8.92    0.28
   1 -16  -2    9.59    0.28
  -1 -16   2    9.06    0.27
   1  16  -2    9.20    0.28
  -1  16   2    9.26    0.27
   1  16  -2    9.41    0.28
  -1  16   2    9.08    0.27
   0 -16  -2    1.20    0.10
   0 -16  -2    1.23    0.09
   0 -16   2    1.10    0.09
   0  16  -2    1.22    0.09
   0  16  -2    1.18    0.09
   0  16   2    1.11    0.09
   1 -16   2    1.02    0.10
  -1 -16  -2    1.02    0.09
   1 -16   2    1.10    0.09
   1  16   2    1.01    0.09
  -1  16  -2    1.02    0.09
   1  16   2    1.07    0.08
   2 -16   2    0.23    0.06
   2 -16   2    0.12    0.05
  -2  16  -2    0.16    0.06
   2  16   2    0.21    0.06
   3 -16   2    0.66    0.09
   3 -16   2    0.74    0.10
  -3  16  -2    0.72    0.10
   3  16   2    0.80    0.10
  -2 -17   2    0.08    0.05
   2 -17  -2    0.10    0.05
   2 -17  -2    0.03    0.05
  -2  17   2    0.04    0.05
   2  17  -2   -0.05    0.04
  -1 -17   2    0.13    0.05
   1 -17  -2    0.10    0.05
   1 -17  -2    0.12    0.05
   1  17  -2    0.14    0.05
  -1  17   2    0.11    0.05
   1  17  -2    0.06    0.04
  -1  17   2    0.18    0.05
   0 -17  -2    0.01    0.04
   0 -17  -2    0.04    0.04
   0 -17   2    0.04    0.05
   0  17  -2   -0.01    0.03
   0  17   2    0.03    0.04
   1 -17   2    0.13    0.06
  -1  17  -2    0.12    0.05
   1  17   2    0.04    0.04
   2 -17   2    0.19    0.06
   2 -17   2    0.21    0.06
   2  17   2    0.30    0.07
  -2  17  -2    0.25    0.07
   2 -18  -2    0.22    0.07
   2 -18  -2    0.28    0.07
  -2  18   2    0.24    0.06
   2  18  -2    0.18    0.06
  -1 -18   2    6.87    0.24
   1 -18  -2    6.85    0.25
   1 -18  -2    6.96    0.25
   1  18  -2    6.65    0.24
   1  18  -2    6.98    0.24
  -1  18   2    6.64    0.29
   0 -18   2    0.07    0.05
   0 -18  -2    0.03    0.05
   0  18  -2    0.00    0.04
   1 -18   2    0.86    0.10
  -1  18  -2    1.02    0.11
   1  18   2    0.75    0.09
   0 -19  -2    0.14    0.06
   0 -19   2    0.12    0.06
   0  19  -2    0.14    0.06
  -6   0   3    0.00    0.05
   6   0  -3    0.06    0.04
  -6   0   3   -0.01    0.05
   5   0  -3    0.05    0.04
   5   0  -3   -0.03    0.04
  -5   0   3    0.02    0.03
  -5   0   3    0.03    0.04
   4   0  -3    0.11    0.04
   4   0  -3    0.16    0.04
  -4   0   3    0.10    0.04
   4   0  -3    0.10    0.05
  -4   0   3    0.10    0.04
  -3   0   3   23.18    0.51
   3   0  -3   23.15    0.50
  -3   0   3   23.03    0.51
   3   0  -3   23.54    0.49
   3   0  -3   22.82    0.53
   3   0  -3   23.33    0.51
   2   0  -3    0.02    0.01
   2   0  -3    0.02    0.02
   2   0  -3   -0.02    0.02
  -2   0   3    0.01    0.02
  -2   0   3    0.02    0.02
   2   0  -3    0.03    0.01
  -1   0   3  978.75   19.58
   1   0  -3  986.38   19.61
  -1   0   3  978.50   19.54
   1   0  -3 1000.00   19.56
   0   0  -3    0.00    0.02
   0   0   3   -0.01    0.01
   0   0  -3    0.00    0.02
   0   0   3    0.08    0.02
   0   0  -3   -0.01    0.01
  -1   0  -3    8.67    0.20
  -1   0  -3    8.50    0.19
   1   0   3    8.90    0.20
  -1   0  -3    8.62    0.20
   1   0   3    8.40    0.20
   1   0   3    8.36    0.20
   2   0   3    0.13    0.03
   2   0   3    0.16    0.03
  -2   0  -3    0.16    0.03
  -2   0  -3    0.16    0.03
  -2   0  -3    0.12    0.03
   2   0   3    0.13    0.03
   3   0   3    0.58    0.05
   3   0   3    0.60    0.06
  -3   0  -3    0.68    0.07
  -3   0  -3    0.67    0.05
   3   0   3    0.56    0.06
  -3   0  -3    0.70    0.06
  -4   0  -3    0.03    0.04
  -4   0  -3    0.01    0.03
   4   0   3    0.02    0.03
   4   0   3    0.01    0.03
  -5   0  -3    6.20    0.22
   5   0   3    6.55    0.22
  -5   0  -3    6.31    0.21
   6  -1  -3    1.16    0.10
  -6  -1   3    0.87    0.10
  -6  -1   3    1.02    0.10
  -6   1   3    1.35    0.12
  -6   1   3    1.00    0.10
   6   1  -3    0.96    0.10
  -5  -1   3    0.65    0.07
   5  -1  -3    0.65    0.07
  -5  -1   3    0.75    0.08
  -5   1   3    0.68    0.08
   5   1  -3    0.66    0.09
  -5   1   3    0.69    0.08
   5   1  -3    0.70    0.08
  -4  -1   3   21.82    0.51
   4  -1  -3   22.33    0.51
  -4  -1   3   21.54    0.50
   4  -1  -3   21.10    0.52
   4  -1  -3   22.99    0.50
  -4   1   3   22.79    0.51
   4   1  -3   21.10    0.53
   4   1  -3   21.61    0.51
  -4   1   3   22.44    0.51
   3  -1  -3    0.11    0.03
  -3  -1   3    0.13    0.03
   3  -1  -3    0.16    0.03
  -3  -1   3    0.09    0.03
   3  -1  -3    0.10    0.04
   3   1  -3    0.13    0.03
   3   1  -3    0.08    0.03
  -3   1   3    0.16    0.03
   3   1  -3    0.14    0.04
  -3   1   3    0.10    0.04
   3   1  -3    0.16    0.03
  -2  -1   3   57.44    1.12
   2  -1  -3   58.28    1.12
   2  -1  -3   55.47    1.13
   2  -1  -3   57.47    1.15
  -2  -1   3   54.83    1.14
  -2  -1   3   55.07    1.14
   2  -1  -3   55.87    1.13
   2   1  -3   55.66    1.15
  -2   1   3   54.28    1.13
   2   1  -3   56.34    1.13
   2   1  -3   54.66    1.12
  -2   1   3   55.12    1.13
   2   1  -3   55.25    1.14
  -1  -1   3  346.59    7.27
   1  -1  -3  355.43    7.26
   1  -1  -3  359.61    7.28
   1  -1  -3  361.66    7.35
   1  -1  -3  372.09    7.23
  -1  -1   3  356.75    7.25
  -1  -1   3  369.61    7.24
  -1   1   3  355.01    7.28
   1   1  -3  368.34    7.36
  -1   1   3  370.86    7.23
   1   1  -3  363.94    7.26
   1   1  -3  361.34    7.28
   0  -1  -3   23.62    0.47
   0  -1   3   22.68    0.48
   0  -1  -3   22.89    0.48
   0  -1   3   23.15    0.48
   0  -1  -3   23.20    0.48
   0   1  -3   23.82    0.47
   0   1   3   23.24    0.48
   0   1  -3   23.11    0.48
   0   1   3   23.65    0.47
   0   1  -3   22.81    0.48
   0   1  -3   22.67    0.48
  -1  -1  -3    6.80    0.17
   1  -1   3    7.17    0.15
   1  -1   3    6.89    0.17
   1  -1   3    6.88    0.17
  -1  -1  -3    7.11    0.16
  -1  -1  -3    6.81    0.16
  -1   1  -3    7.03    0.16
   1   1   3    6.97    0.17
   1   1   3    7.08    0.17
  -1   1  -3    7.01    0.17
   1   1   3    6.98    0.16
  -1   1  -3    6.75    0.17
   2  -1   3    4.02    0.12
  -2  -1  -3    3.73    0.12
   2  -1   3    4.14    0.13
   2  -1   3    4.17    0.10
  -2  -1  -3    4.08    0.12
  -2  -1  -3    4.01    0.12
   2  -1   3    4.30    0.12
   2   1   3    3.74    0.12
  -2   1  -3    4.22    0.12
  -2   1  -3    4.16    0.12
  -2   1  -3    4.25    0.12
   2   1   3    4.06    0.13
   2   1   3    4.10    0.12
  -3  -1  -3    1.56    0.08
   3  -1   3    1.39    0.08
   3  -1   3    1.52    0.07
  -3  -1  -3    1.58    0.09
   3  -1   3    1.46    0.08
  -3   1  -3    1.44    0.07
  -3   1  -3    1.61    0.09
  -3   1  -3    1.51    0.08
   3   1   3    1.54    0.08
   3   1   3    1.47    0.08
   3   1   3    1.51    0.08
  -4  -1  -3    0.53    0.07
   4  -1   3    0.55    0.06
   4  -1   3    0.47    0.06
  -4  -1  -3    0.56    0.06
  -4   1  -3    0.48    0.06
  -4   1  -3    0.55    0.07
   4   1   3    0.56    0.06
  -5  -1  -3    0.41    0.06
  -5  -1  -3    0.36    0.06
   5  -1   3    0.43    0.07
   5   1   3    0.44    0.07
  -5   1  -3    0.41    0.07
  -5   1  -3    0.41    0.07
  -6  -2   3    0.52    0.08
  -6  -2   3    0.55    0.08
   6  -2  -3    0.44    0.07
   6   2  -3    0.50    0.08
  -6   2   3    0.52    0.08
  -6   2   3    0.50    0.08
  -5  -2   3    0.01    0.03
  -5  -2   3    0.01    0.04
   5  -2  -3    0.02    0.03
  -5   2   3   -0.02    0.03
  -5   2   3    0.03    0.04
   5   2  -3   -0.06    0.04
   5   2  -3    0.00    0.03
   4  -2  -3    3.67    0.13
   4  -2  -3    3.47    0.14
   4  -2  -3    3.51    0.13
  -4  -2   3    3.37    0.13
  -4  -2   3    3.40    0.14
  -4   2   3    3.69    0.14
  -4   2   3    3.65    0.14
   4   2  -3    3.38    0.13
   4   2  -3    3.11    0.15
  -3  -2   3   16.21    0.37
   3  -2  -3   17.59    0.38
   3  -2  -3   16.79    0.38
  -3  -2   3   15.57    0.38
   3  -2  -3   16.66    0.39
  -3   2   3   17.05    0.38
   3   2  -3   16.18    0.37
   3   2  -3   15.96    0.36
  -3   2   3   16.81    0.38
   3   2  -3   15.69    0.40
   3   2  -3   16.06    0.38
   2  -2  -3    2.91    0.08
   2  -2  -3    2.93    0.09
   2  -2  -3    3.00    0.10
  -2  -2   3    2.96    0.10
  -2  -2   3    3.06    0.08
   2  -2  -3    2.89    0.09
   2   2  -3    3.10    0.11
  -2   2   3    2.98    0.09
   2   2  -3    3.39    0.09
   2   2  -3    3.05    0.08
   2   2  -3    2.80    0.09
  -2   2   3    2.87    0.09
   1  -2  -3   50.73    0.98
  -1  -2   3   48.01    0.99
  -1  -2   3   48.07    0.99
   1  -2  -3   49.93    0.99
  -1  -2   3   49.32    0.98
   1  -2  -3   48.34    0.98
   1  -2  -3   49.13    1.00
  -1   2   3   49.70    1.00
  -1   2   3   51.47    0.98
   1   2  -3   47.77    0.99
  -1   2   3   48.74    0.99
   1   2  -3   47.49    0.99
   1   2  -3   48.87    1.00
   0  -2  -3   25.63    0.51
   0  -2   3   24.55    0.52
   0  -2   3   24.95    0.51
   0  -2  -3   24.46    0.51
   0  -2   3   25.99    0.53
   0  -2  -3   24.82    0.52
   0   2   3   24.50    0.51
   0   2   3   24.76    0.52
   0   2  -3   25.05    0.52
   0   2  -3   25.42    0.51
   0   2  -3   24.80    0.51
   0   2  -3   24.77    0.51
   1  -2   3    0.04    0.01
  -1  -2  -3    0.03    0.01
   1  -2   3    0.02    0.01
   1  -2   3    0.02    0.02
   1  -2   3    0.05    0.02
  -1  -2  -3    0.04    0.02
  -1  -2  -3    0.05    0.02
  -1   2  -3    0.02    0.02
  -1   2  -3    0.03    0.02
  -1   2  -3    0.04    0.02
   1   2   3    0.04    0.02
   1   2   3    0.05    0.02
   1   2   3    0.04    0.02
  -2  -2  -3   14.32    0.32
   2  -2   3   14.01    0.30
   2  -2   3   14.50    0.32
   2  -2   3   14.27    0.31
  -2  -2  -3   13.77    0.32
  -2  -2  -3   14.36    0.32
   2  -2   3   13.93    0.33
  -2   2  -3   14.47    0.33
  -2   2  -3   13.85    0.31
   2   2   3   13.89    0.32
  -2   2  -3   14.02    0.32
   2   2   3   13.66    0.32
   2   2   3   14.45    0.33
   3  -2   3    0.31    0.06
  -3  -2  -3    0.43    0.05
   3  -2   3    0.41    0.05
  -3  -2  -3    0.54    0.06
   3  -2   3    0.43    0.06
  -3   2  -3    0.28    0.04
   3   2   3    0.42    0.05
  -3   2  -3    0.39    0.06
   3   2   3    0.42    0.05
   3   2   3    0.38    0.05
  -3   2  -3    0.40    0.05
   4  -2   3    3.40    0.14
  -4  -2  -3    3.53    0.14
  -4  -2  -3    3.41    0.13
   4  -2   3    3.29    0.13
   4   2   3    3.68    0.14
  -4   2  -3    3.17    0.14
  -4   2  -3    3.41    0.14
   4   2   3    3.44    0.14
   5  -2   3    1.34    0.10
  -5  -2  -3    1.36    0.09
  -5  -2  -3    1.17    0.10
   5   2   3    1.35    0.10
  -5   2  -3    1.53    0.10
  -5   2  -3    1.32    0.11
  -6  -3   3    0.01    0.04
   6  -3  -3    0.03    0.04
  -6  -3   3    0.10    0.05
  -6   3   3    0.07    0.05
  -6   3   3    0.07    0.06
   6   3  -3    0.03    0.05
   5  -3  -3    2.38    0.12
  -5  -3   3    2.33    0.11
  -5  -3   3    2.36    0.13
   5   3  -3    2.46    0.12
  -5   3   3    2.42    0.13
  -5   3   3    2.28    0.12
   5   3  -3    2.20    0.14
   4  -3  -3    0.91    0.07
  -4  -3   3    0.75    0.07
  -4  -3   3    0.63    0.06
   4  -3  -3    0.78    0.07
   4  -3  -3    0.90    0.07
   4   3  -3    0.60    0.08
   4   3  -3    0.59    0.06
   4   3  -3    0.54    0.05
  -4   3   3    0.83    0.07
  -4   3   3    0.90    0.08
   3  -3  -3    0.30    0.05
  -3  -3   3    0.25    0.04
   3  -3  -3    0.24    0.04
   3  -3  -3    0.29    0.04
  -3  -3   3    0.28    0.04
   3   3  -3    0.27    0.03
   3   3  -3    0.25    0.04
  -3   3   3    0.23    0.04
   3   3  -3    0.27    0.05
  -3   3   3    0.26    0.04
  -2  -3   3    0.33    0.03
   2  -3  -3    0.39    0.04
   2  -3  -3    0.31    0.03
   2  -3  -3    0.39    0.04
  -2  -3   3    0.42    0.04
  -2   3   3    0.33    0.03
   2   3  -3    0.36    0.04
   2   3  -3    0.34    0.03
  -2   3   3    0.41    0.04
   2   3  -3    0.38    0.04
  -1  -3   3    1.65    0.06
   1  -3  -3    1.62    0.05
   1  -3  -3    1.57    0.06
  -1  -3   3    1.67    0.05
   1  -3  -3    1.61    0.05
  -1  -3   3    1.56    0.05
   1  -3  -3    1.62    0.06
  -1   3   3    1.43    0.06
   1   3  -3    1.68    0.07
   1   3  -3    1.63    0.06
  -1   3   3    1.61    0.05
  -1   3   3    1.59    0.05
   1   3  -3    1.76    0.06
   0  -3   3   55.80    1.14
   0  -3   3   56.58    1.14
   0  -3   3   55.56    1.14
   0  -3  -3   56.40    1.14
   0   3  -3   56.37    1.14
   0   3   3   56.54    1.13
   0   3  -3   56.99    1.14
   0   3  -3   58.28    1.14
   0   3   3   56.90    1.15
   0   3  -3   57.51    1.14
   1  -3   3    0.54    0.03
  -1  -3  -3    0.47    0.04
   1  -3   3    0.49    0.03
   1  -3   3    0.51    0.04
  -1  -3  -3    0.46    0.03
  -1  -3  -3    0.51    0.03
   1   3   3    0.51    0.04
  -1   3  -3    0.49    0.04
  -1   3  -3    0.55    0.04
  -1   3  -3    0.50    0.04
   1   3   3    0.54    0.03
   1   3   3    0.54    0.04
  -2  -3  -3    8.05    0.20
   2  -3   3    8.40    0.19
  -2  -3  -3    8.01    0.20
   2  -3   3    8.06    0.21
   2  -3   3    8.41    0.19
   2  -3   3    8.40    0.21
   2   3   3    8.16    0.20
   2   3   3    7.93    0.20
  -2   3  -3    8.47    0.21
  -2   3  -3    8.18    0.20
  -2   3  -3    8.04    0.21
   2   3   3    8.17    0.22
   3  -3   3   61.57    1.26
   3  -3   3   60.01    1.27
  -3  -3  -3   62.06    1.25
  -3  -3  -3   59.85    1.26
  -3   3  -3   60.41    1.27
   3   3   3   59.65    1.25
  -3   3  -3   63.11    1.27
   3   3   3   64.02    1.27
  -3   3  -3   58.26    1.24
   3   3   3   59.99    1.28
  -4  -3  -3    3.57    0.13
   4  -3   3    3.89    0.15
   4  -3   3    3.43    0.14
  -4  -3  -3    3.57    0.14
  -4   3  -3    3.56    0.15
   4   3   3    3.74    0.15
   4   3   3    3.59    0.14
  -4   3  -3    3.81    0.15
   5  -3   3    0.54    0.08
  -5  -3  -3    0.73    0.08
  -5  -3  -3    0.70    0.07
   5  -3   3    0.75    0.09
   5  -3   3    0.73    0.08
  -5   3  -3    0.69    0.09
  -5   3  -3    0.82    0.09
   5   3   3    0.83    0.08
  -6  -4   3    3.01    0.16
  -6  -4   3    2.71    0.16
   6  -4  -3    2.91    0.15
   6   4  -3    2.93    0.16
  -6   4   3    2.90    0.17
  -6   4   3    3.03    0.16
   5  -4  -3    4.55    0.17
   5  -4  -3    4.50    0.18
  -5  -4   3    4.77    0.18
  -5  -4   3    4.73    0.17
  -5   4   3    4.48    0.18
   5   4  -3    5.00    0.18
  -5   4   3    4.78    0.18
  -4  -4   3    0.23    0.04
  -4  -4   3    0.25    0.05
   4  -4  -3    0.21    0.05
   4  -4  -3    0.24    0.04
   4   4  -3    0.24    0.04
  -4   4   3    0.25    0.05
   4   4  -3    0.23    0.05
   4   4  -3    0.21    0.06
  -4   4   3    0.17    0.05
   3  -4  -3    6.65    0.19
   3  -4  -3    7.07    0.19
   3  -4  -3    6.52    0.20
  -3  -4   3    7.46    0.20
  -3  -4   3    7.43    0.19
   3   4  -3    7.39    0.19
   3   4  -3    7.37    0.22
   3   4  -3    7.24    0.20
  -3   4   3    6.85    0.19
  -3   4   3    7.11    0.20
   2  -4  -3    1.54    0.07
   2  -4  -3    1.59    0.06
   2  -4  -3    1.69    0.07
  -2  -4   3    1.58    0.07
  -2  -4   3    1.49    0.06
   2   4  -3    1.61    0.08
  -2   4   3    1.50    0.06
   2   4  -3    1.61    0.07
  -2   4   3    1.53    0.07
   2   4  -3    1.62    0.07
  -1  -4   3   12.95    0.26
   1  -4  -3   12.79    0.26
   1  -4  -3   12.62    0.28
   1  -4  -3   12.56    0.29
   1  -4  -3   12.77    0.26
   1  -4  -3   12.31    0.28
  -1  -4   3   12.31    0.27
  -1   4   3   12.58    0.27
   1   4  -3   12.58    0.28
  -1   4   3   12.66    0.27
  -1   4   3   12.02    0.28
   1   4  -3   12.23    0.27
   1   4  -3   12.41    0.29
   0  -4   3   21.81    0.46
   0  -4  -3   21.85    0.46
   0  -4   3   21.57    0.45
   0  -4  -3   21.51    0.45
   0  -4   3   21.93    0.46
   0  -4  -3   21.89    0.47
   0   4  -3   21.80    0.46
   0   4  -3   22.24    0.46
   0   4   3   21.94    0.46
   0   4  -3   21.93    0.46
   0   4  -3   22.34    0.46
   1  -4   3    6.28    0.17
  -1  -4  -3    6.53    0.14
  -1  -4  -3    6.58    0.14
  -1  -4  -3    6.31    0.16
  -1  -4  -3    6.40    0.15
   1  -4   3    6.46    0.16
   1  -4   3    6.50    0.16
  -1   4  -3    6.11    0.16
   1   4   3    6.44    0.17
  -1   4  -3    6.40    0.16
   1   4   3    6.44    0.16
  -1   4  -3    6.49    0.16
   1   4   3    6.48    0.15
   2  -4   3   40.09    0.87
  -2  -4  -3   41.30    0.85
   2  -4   3   41.34    0.86
   2  -4   3   40.50    0.84
  -2  -4  -3   41.71    0.84
   2   4   3   41.32    0.85
  -2   4  -3   40.47    0.85
  -2   4  -3   42.10    0.87
  -2   4  -3   41.55    0.86
   2   4   3   41.12    0.88
   2   4   3   41.62    0.85
  -3  -4  -3    8.98    0.22
  -3  -4  -3    8.59    0.24
   3  -4   3    9.05    0.25
   3  -4   3    8.79    0.23
   3   4   3    8.96    0.24
   3   4   3    8.70    0.26
  -3   4  -3    9.20    0.25
  -3   4  -3    9.11    0.24
  -3   4  -3    8.76    0.22
   3   4   3    8.84    0.23
   4  -4   3    0.44    0.06
   4  -4   3    0.54    0.07
  -4  -4  -3    0.32    0.05
  -4  -4  -3    0.39    0.06
  -4   4  -3    0.35    0.06
   4   4   3    0.32    0.06
  -4   4  -3    0.47    0.06
   4   4   3    0.33    0.05
   5  -4   3    0.09    0.04
   5  -4   3    0.11    0.05
  -5  -4  -3    0.18    0.05
   5  -4   3    0.04    0.05
  -5   4  -3    0.10    0.05
  -5   4  -3    0.07    0.05
   5   4   3    0.15    0.05
  -5  -5   3    2.43    0.12
  -5  -5   3    2.61    0.13
   5  -5  -3    2.27    0.11
   5  -5  -3    2.23    0.12
  -5   5   3    2.42    0.14
  -5   5   3    2.31    0.12
   5   5  -3    2.49    0.13
   4  -5  -3    1.74    0.09
  -4  -5   3    1.77    0.09
  -4  -5   3    1.88    0.10
   4  -5  -3    1.83    0.10
   4   5  -3    1.61    0.11
   4   5  -3    1.87    0.10
  -4   5   3    1.64    0.10
   4   5  -3    1.75    0.09
  -4   5   3    1.75    0.10
   3  -5  -3    1.12    0.07
   3  -5  -3    1.19    0.06
  -3  -5   3    1.03    0.07
   3  -5  -3    1.23    0.07
  -3  -5   3    1.11    0.06
   3   5  -3    1.09    0.09
  -3   5   3    1.27    0.08
   3   5  -3    1.12    0.07
   3   5  -3    1.03    0.07
  -3   5   3    1.17    0.07
   2  -5  -3   16.11    0.37
   2  -5  -3   16.39    0.38
   2  -5  -3   16.57    0.35
  -2  -5   3   16.16    0.37
   2  -5  -3   16.63    0.37
  -2  -5   3   16.38    0.36
  -2   5   3   16.06    0.37
   2   5  -3   16.82    0.39
   2   5  -3   16.72    0.37
   2   5  -3   16.89    0.37
  -2   5   3   16.43    0.36
   1  -5  -3    6.01    0.16
  -1  -5   3    5.88    0.14
   1  -5  -3    5.97    0.16
  -1  -5   3    5.98    0.16
  -1  -5   3    6.13    0.14
   1   5  -3    6.00    0.16
  -1   5   3    6.04    0.14
   1   5  -3    5.96    0.15
  -1   5   3    6.17    0.15
   1   5  -3    5.93    0.16
   0  -5   3    0.51    0.04
   0  -5   3    0.57    0.04
   0  -5  -3    0.58    0.04
   0  -5   3    0.51    0.03
   0  -5   3    0.51    0.03
   0  -5  -3    0.61    0.04
   0   5   3    0.53    0.04
   0   5  -3    0.51    0.04
   0   5  -3    0.58    0.04
   0   5  -3    0.54    0.04
   0   5  -3    0.52    0.03
  -1  -5  -3   41.90    0.86
   1  -5   3   41.43    0.88
  -1  -5  -3   42.48    0.85
   1  -5   3   43.77    0.86
   1  -5   3   41.63    0.87
   1   5   3   42.60    0.87
   1   5   3   42.35    0.89
  -1   5  -3   42.46    0.87
  -1   5  -3   40.97    0.87
  -1   5  -3   42.39    0.87
   1   5   3   41.64    0.85
  -2  -5  -3    4.13    0.11
   2  -5   3    4.24    0.12
  -2  -5  -3    4.00    0.12
   2  -5   3    4.02    0.12
   2  -5   3    4.08    0.14
  -2   5  -3    3.87    0.12
   2   5   3    4.15    0.12
   2   5   3    4.06    0.14
   2   5   3    4.13    0.12
  -2   5  -3    4.07    0.13
  -2   5  -3    4.14    0.13
   3  -5   3    7.67    0.21
  -3  -5  -3    6.96    0.20
   3  -5   3    7.53    0.21
   3  -5   3    7.74    0.22
  -3  -5  -3    6.88    0.19
  -3   5  -3    7.68    0.22
   3   5   3    7.22    0.23
  -3   5  -3    7.88    0.21
   3   5   3    7.06    0.20
   4  -5   3    3.26    0.14
   4  -5   3    3.14    0.15
   4  -5   3    2.95    0.13
  -4  -5  -3    3.31    0.14
   4   5   3    3.34    0.14
  -4   5  -3    3.15    0.14
  -4   5  -3    3.14    0.14
   4   5   3    3.08    0.15
   5  -5   3    0.51    0.07
   5  -5   3    0.64    0.08
  -5  -5  -3    0.53    0.07
   5  -5   3    0.58    0.08
  -5   5  -3    0.48    0.07
   5   5   3    0.49    0.07
  -5   5  -3    0.46    0.08
  -5  -6   3    1.72    0.12
   5  -6  -3    2.01    0.12
  -5   6   3    1.80    0.11
  -5   6   3    1.84    0.12
   5   6  -3    1.51    0.11
  -4  -6   3    3.32    0.12
   4  -6  -3    3.06    0.12
  -4  -6   3    3.04    0.14
   4  -6  -3    3.37    0.14
  -4   6   3    3.35    0.13
   4   6  -3    2.91    0.15
  -4   6   3    3.14    0.14
   4   6  -3    2.91    0.13
   4   6  -3    3.10    0.13
   3  -6  -3    5.62    0.15
  -3  -6   3    5.88    0.16
  -3  -6   3    5.79    0.18
   3  -6  -3    5.73    0.18
   3  -6  -3    5.80    0.17
   3   6  -3    5.66    0.20
   3   6  -3    5.53    0.17
   3   6  -3    5.75    0.17
  -3   6   3    5.86    0.18
  -3   6   3    5.51    0.16
  -2  -6   3   18.05    0.40
   2  -6  -3   17.99    0.41
   2  -6  -3   17.98    0.38
   2  -6  -3   18.36    0.40
  -2  -6   3   18.22    0.41
  -2  -6   3   17.68    0.39
   2  -6  -3   18.19    0.42
   2   6  -3   18.42    0.43
   2   6  -3   17.94    0.40
  -2   6   3   18.25    0.40
  -2   6   3   18.61    0.39
   2   6  -3   18.19    0.41
  -1  -6   3    5.17    0.12
   1  -6  -3    5.42    0.15
  -1  -6   3    5.37    0.12
  -1  -6   3    5.07    0.14
   1  -6  -3    5.27    0.15
  -1  -6   3    5.28    0.12
   1   6  -3    5.27    0.15
   1   6  -3    5.69    0.15
   1   6  -3    5.36    0.13
  -1   6   3    5.26    0.13
  -1   6   3    5.41    0.12
   0  -6   3   16.66    0.36
   0  -6   3   17.10    0.37
   0  -6  -3   16.93    0.38
   0  -6  -3   16.42    0.36
   0  -6   3   16.81    0.35
   0  -6   3   16.87    0.37
   0   6  -3   16.98    0.36
   0   6  -3   17.07    0.36
   0   6  -3   16.53    0.37
   0   6   3   16.89    0.37
   0   6  -3   16.99    0.37
   0   6   3   16.46    0.36
   1  -6   3   71.19    1.41
  -1  -6  -3   70.51    1.41
   1  -6   3   69.77    1.43
  -1  -6  -3   71.66    1.43
   1  -6   3   70.66    1.44
   1  -6   3   71.03    1.43
  -1   6  -3   68.76    1.42
   1   6   3   69.03    1.40
   1   6   3   70.45    1.42
  -1   6  -3   69.35    1.42
   1   6   3   70.27    1.45
  -1   6  -3   71.09    1.43
  -2  -6  -3   10.53    0.25
   2  -6   3   10.43    0.25
   2  -6   3   10.48    0.25
   2  -6   3   10.67    0.27
   2  -6   3   10.28    0.27
   2   6   3   10.16    0.25
   2   6   3   10.34    0.28
  -2   6  -3   10.29    0.24
   2   6   3   10.69    0.25
  -2   6  -3   10.08    0.26
  -2   6  -3   10.13    0.26
   3  -6   3    5.89    0.20
   3  -6   3    5.88    0.20
   3  -6   3    5.58    0.17
   3  -6   3    6.16    0.18
  -3  -6  -3    6.81    0.19
  -3   6  -3    6.07    0.19
   3   6   3    6.18    0.21
  -3   6  -3    5.99    0.19
   3   6   3    6.47    0.18
   4  -6   3    0.52    0.07
   4  -6   3    0.68    0.06
   4  -6   3    0.66    0.08
  -4  -6  -3    0.62    0.07
  -4   6  -3    0.57    0.07
  -4   6  -3    0.59    0.07
   4   6   3    0.56    0.07
   4   6   3    0.60    0.08
  -5  -6  -3    5.29    0.20
   5  -6   3    5.47    0.21
   5  -6   3    5.41    0.22
   5  -6   3    4.80    0.19
   5   6   3    5.68    0.21
  -5   6  -3    5.72    0.22
  -5   6  -3    5.94    0.21
   5  -7  -3    0.56    0.08
  -5  -7   3    0.51    0.07
   5   7  -3    0.56    0.07
  -5   7   3    0.58    0.08
  -5   7   3    0.36    0.07
   4  -7  -3   12.41    0.34
  -4  -7   3   11.72    0.33
   4   7  -3   12.65    0.33
  -4   7   3   12.42    0.33
  -4   7   3   12.20    0.32
   4   7  -3   12.72    0.32
   4   7  -3   11.74    0.35
  -3  -7   3    6.80    0.19
  -3  -7   3    6.93    0.20
  -3  -7   3    6.57    0.17
   3  -7  -3    6.50    0.20
  -3   7   3    6.75    0.20
   3   7  -3    6.62    0.20
  -3   7   3    6.81    0.19
   3   7  -3    6.86    0.19
   3   7  -3    6.70    0.22
  -2  -7   3    6.20    0.15
   2  -7  -3    5.98    0.18
   2  -7  -3    5.96    0.17
  -2  -7   3    6.09    0.17
  -2  -7   3    6.03    0.17
  -2   7   3    6.04    0.16
  -2   7   3    5.96    0.17
   2   7  -3    6.17    0.18
   2   7  -3    6.06    0.16
   2   7  -3    6.44    0.19
  -1  -7   3    5.62    0.13
   1  -7  -3    5.55    0.16
   1  -7  -3    5.66    0.16
  -1  -7   3    5.58    0.13
  -1  -7   3    5.55    0.15
  -1  -7   3    5.76    0.13
   1   7  -3    5.95    0.16
  -1   7   3    5.61    0.13
  -1   7   3    5.67    0.15
   1   7  -3    5.46    0.16
   1   7  -3    5.54    0.14
   0  -7   3   69.05    1.41
   0  -7   3   68.32    1.42
   0  -7  -3   69.06    1.42
   0  -7   3   71.51    1.38
   0  -7  -3   68.85    1.41
   0  -7   3   67.45    1.41
   0   7  -3   69.91    1.42
   0   7   3   70.99    1.42
   0   7   3   69.85    1.40
   0   7  -3   69.82    1.40
   0   7   3   72.49    1.43
   0   7  -3   67.70    1.42
   0   7  -3   70.28    1.40
  -1  -7  -3    0.82    0.06
   1  -7   3    0.72    0.05
  -1  -7  -3    0.76    0.04
   1  -7   3    0.75    0.06
   1  -7   3    0.75    0.06
   1  -7   3    0.76    0.04
   1   7   3    0.81    0.03
  -1   7  -3    0.74    0.05
  -1   7  -3    0.80    0.05
  -1   7  -3    0.80    0.05
   1   7   3    0.76    0.05
   1   7   3    0.76    0.06
  -2  -7  -3   11.73    0.28
   2  -7   3   11.99    0.28
   2  -7   3   11.87    0.30
   2  -7   3   11.83    0.30
   2  -7   3   12.04    0.27
  -2   7  -3   11.91    0.29
   2   7   3   11.10    0.27
   2   7   3   11.27    0.31
  -2   7  -3   12.24    0.30
  -2   7  -3   11.85    0.27
   2   7   3   11.24    0.27
   3  -7   3    4.51    0.18
   3  -7   3    4.99    0.15
   3  -7   3    5.01    0.18
  -3  -7  -3    4.88    0.16
   3  -7   3    4.85    0.15
   3   7   3    4.77    0.15
  -3   7  -3    4.66    0.17
  -3   7  -3    4.85    0.16
   3   7   3    4.89    0.18
   4  -7   3    2.40    0.11
  -4  -7  -3    2.21    0.11
   4  -7   3    2.57    0.14
   4  -7   3    2.36    0.13
  -4   7  -3    2.40    0.12
   4   7   3    2.20    0.15
   4   7   3    2.33    0.11
  -4   7  -3    2.24    0.13
   5  -7   3    0.39    0.07
   5  -7   3    0.34    0.08
  -5  -7  -3    0.39    0.06
  -5   7  -3    0.32    0.07
   5   7   3    0.48    0.07
  -5   7  -3    0.34    0.07
   5  -8  -3    0.10    0.05
  -5  -8   3    0.14    0.05
   5   8  -3    0.07    0.04
   5   8  -3    0.11    0.04
  -5   8   3    0.06    0.04
  -5   8   3    0.13    0.06
  -4  -8   3    0.19    0.05
   4  -8  -3    0.06    0.04
  -4   8   3    0.03    0.05
   4   8  -3    0.13    0.04
   4   8  -3    0.04    0.05
  -4   8   3    0.09    0.04
   4   8  -3    0.05    0.04
   3  -8  -3    6.13    0.20
  -3  -8   3    6.07    0.18
  -3  -8   3    6.19    0.19
   3  -8  -3    6.09    0.19
  -3   8   3    6.34    0.19
  -3   8   3    5.94    0.18
   3   8  -3    6.06    0.21
   3   8  -3    6.21    0.19
   3   8  -3    6.06    0.18
  -2  -8   3    3.76    0.12
   2  -8  -3    3.76    0.13
   2  -8  -3    3.85    0.14
   2   8  -3    3.80    0.14
   2   8  -3    3.64    0.13
   2   8  -3    3.69    0.12
  -2   8   3    3.92    0.13
  -2   8   3    3.63    0.11
   1  -8  -3    1.34    0.07
   1  -8  -3    1.28    0.07
  -1  -8   3    1.19    0.07
  -1  -8   3    1.17    0.05
   1   8  -3    1.20    0.05
  -1   8   3    1.28    0.05
  -1   8   3    1.21    0.06
   1   8  -3    1.19    0.07
   1   8  -3    1.14    0.07
   0  -8   3   21.68    0.46
   0  -8  -3   21.68    0.48
   0  -8  -3   21.39    0.47
   0  -8   3   21.73    0.47
   0  -8   3   21.32    0.47
   0   8  -3   21.42    0.48
   0   8  -3   21.45    0.47
   0   8  -3   21.83    0.46
   0   8   3   21.74    0.49
   0   8   3   21.01    0.47
   0   8   3   21.09    0.46
   0   8  -3   21.54    0.46
  -1  -8  -3    6.08    0.17
   1  -8   3    6.01    0.17
   1  -8   3    5.84    0.17
   1  -8   3    6.05    0.17
  -1  -8  -3    5.90    0.15
  -1   8  -3    5.82    0.17
   1   8   3    6.20    0.16
  -1   8  -3    6.00    0.16
   1   8   3    5.68    0.18
  -1   8  -3    6.17    0.16
   2  -8   3    3.23    0.10
   2  -8   3    3.36    0.13
   2  -8   3    3.27    0.14
  -2  -8  -3    3.58    0.12
   2  -8   3    3.35    0.12
  -2   8  -3    3.27    0.11
  -2   8  -3    3.42    0.13
  -2   8  -3    3.32    0.12
   2   8   3    3.58    0.14
  -3  -8  -3    0.60    0.06
   3  -8   3    0.68    0.08
   3  -8   3    0.64    0.06
   3  -8   3    0.66    0.08
  -3   8  -3    0.60    0.07
   3   8   3    0.63    0.06
  -3   8  -3    0.68    0.07
   3   8   3    0.60    0.07
   4  -8   3    0.70    0.08
   4  -8   3    0.58    0.08
  -4  -8  -3    0.56    0.06
  -4   8  -3    0.59    0.08
  -4   8  -3    0.59    0.07
   4   8   3    0.61    0.07
   5  -8   3    0.21    0.07
  -5  -8  -3    0.14    0.05
   5  -8   3    0.17    0.06
  -5   8  -3    0.18    0.06
   5   8   3    0.11    0.05
  -5   8  -3    0.21    0.07
   5  -9  -3    1.16    0.11
  -5  -9   3    1.32    0.11
   5   9  -3    1.18    0.10
   5   9  -3    1.05    0.09
  -5   9   3    1.12    0.11
  -5   9   3    1.27    0.10
   4  -9  -3    2.34    0.13
  -4  -9   3    2.20    0.12
  -4   9   3    2.49    0.13
  -4   9   3    2.48    0.11
   4   9  -3    2.12    0.12
   4   9  -3    2.32    0.11
  -3  -9   3    0.45    0.06
   3  -9  -3    0.59    0.06
  -3  -9   3    0.47    0.05
   3  -9  -3    0.54    0.06
   3   9  -3    0.54    0.06
  -3   9   3    0.61    0.06
   3   9  -3    0.53    0.05
   3   9  -3    0.61    0.08
  -3   9   3    0.68    0.07
  -2  -9   3    0.56    0.05
   2  -9  -3    0.42    0.05
   2  -9  -3    0.49    0.06
   2   9  -3    0.44    0.04
   2   9  -3    0.53    0.06
  -2   9   3    0.58    0.06
   2   9  -3    0.52    0.06
  -1  -9   3   32.40    0.69
   1  -9  -3   30.79    0.69
   1  -9  -3   32.90    0.70
   1   9  -3   31.44    0.66
   1   9  -3   32.81    0.69
   1   9  -3   32.32    0.69
  -1   9   3   31.62    0.68
  -1   9   3   31.15    0.66
   0  -9  -3    8.37    0.21
   0  -9   3    7.87    0.20
   0  -9   3    8.14    0.22
   0  -9   3    7.83    0.20
   0  -9  -3    8.37    0.22
   0   9  -3    7.84    0.20
   0   9   3    8.17    0.22
   0   9   3    7.79    0.21
   0   9  -3    7.68    0.19
   0   9   3    8.52    0.20
   0   9  -3    8.11    0.22
   0   9  -3    7.89    0.21
   1  -9   3    8.40    0.23
   1  -9   3    8.67    0.23
   1  -9   3    8.48    0.23
  -1  -9  -3    8.70    0.21
  -1  -9  -3    8.78    0.23
  -1   9  -3    8.25    0.21
  -1   9  -3    8.50    0.23
  -1   9  -3    8.53    0.22
   1   9   3    8.99    0.25
   1   9   3    8.52    0.22
   2  -9   3    6.17    0.18
   2  -9   3    5.32    0.18
   2  -9   3    5.65    0.19
   2   9   3    5.65    0.20
  -2   9  -3    5.70    0.17
  -2   9  -3    5.75    0.18
   3  -9   3    2.69    0.11
   3  -9   3    2.60    0.13
  -3  -9  -3    2.59    0.11
   3  -9   3    2.70    0.13
  -3   9  -3    2.66    0.11
   3   9   3    2.47    0.14
  -3   9  -3    2.31    0.12
   4  -9   3    0.06    0.05
  -4  -9  -3    0.04    0.03
   4  -9   3    0.06    0.05
  -4   9  -3   -0.02    0.04
  -4   9  -3    0.03    0.04
  -5  -9  -3    1.07    0.10
   5  -9   3    1.24    0.13
   5  -9   3    1.20    0.11
   5   9   3    1.11    0.10
  -5   9  -3    1.33    0.11
  -5   9  -3    1.28    0.13
   5   9   3    1.08    0.10
  -5 -10   3    0.35    0.07
   5 -10  -3    0.44    0.08
   5  10  -3    0.41    0.07
  -5  10   3    0.28    0.07
  -5  10   3    0.46    0.07
   5  10  -3    0.47    0.07
  -4 -10   3    0.40    0.06
   4 -10  -3    0.41    0.07
   4  10  -3    0.37    0.06
  -4  10   3    0.37    0.06
  -4  10   3    0.47    0.07
   4  10  -3    0.38    0.06
  -3 -10   3    1.48    0.08
   3 -10  -3    1.52    0.10
   3 -10  -3    1.11    0.09
   3  10  -3    1.47    0.11
   3  10  -3    1.46    0.09
  -3  10   3    1.39    0.09
   3  10  -3    1.56    0.08
   2 -10  -3    6.72    0.20
  -2 -10   3    6.34    0.19
   2 -10  -3    6.45    0.20
   2  10  -3    6.48    0.19
   2  10  -3    6.55    0.20
  -2  10   3    6.51    0.19
   2  10  -3    6.29    0.21
   1 -10  -3    0.24    0.04
   1 -10  -3    0.25    0.05
  -1 -10   3    0.32    0.05
  -1  10   3    0.29    0.04
   1  10  -3    0.35    0.05
  -1  10   3    0.32    0.04
  -1  10   3    0.35    0.05
   1  10  -3    0.42    0.05
   0 -10   3    5.31    0.16
   0 -10   3    5.25    0.15
   0 -10  -3    5.11    0.15
   0 -10  -3    4.84    0.16
   0 -10   3    5.30    0.15
   0  10   3    4.84    0.15
   0  10  -3    5.18    0.16
   0  10  -3    4.98    0.16
   0  10   3    5.18    0.16
   0  10   3    4.99    0.16
   0  10  -3    5.19    0.15
  -1 -10  -3    0.01    0.03
   1 -10   3   -0.04    0.03
   1 -10   3   -0.02    0.03
   1 -10   3    0.03    0.03
  -1 -10  -3    0.04    0.03
  -1  10  -3   -0.02    0.03
  -1  10  -3    0.06    0.03
   1  10   3    0.02    0.03
  -1  10  -3    0.05    0.02
   1  10   3    0.00    0.02
   2 -10   3   25.41    0.55
   2 -10   3   23.94    0.57
   2 -10   3   24.54    0.57
   2  10   3   24.33    0.58
  -2  10  -3   23.95    0.56
  -2  10  -3   23.64    0.54
   3 -10   3    5.43    0.20
  -3 -10  -3    5.60    0.18
   3 -10   3    5.80    0.19
   3 -10   3    5.70    0.20
   3  10   3    5.55    0.21
  -3  10  -3    5.79    0.18
  -3  10  -3    5.43    0.20
  -4 -10  -3    1.41    0.09
   4 -10   3    1.36    0.12
   4 -10   3    1.53    0.11
  -4  10  -3    1.51    0.10
  -4  10  -3    1.50    0.12
  -5 -11   3    0.50    0.08
   5 -11  -3    0.59    0.09
   5  11  -3    0.62    0.08
  -5  11   3    0.65    0.09
  -5  11   3    0.47    0.08
   5  11  -3    0.55    0.08
   4 -11  -3    0.50    0.07
  -4 -11   3    0.55    0.07
   4  11  -3    0.54    0.07
  -4  11   3    0.53    0.08
  -3 -11   3    0.33    0.05
   3 -11  -3    0.27    0.05
   3 -11  -3    0.29    0.06
   3  11  -3    0.28    0.05
   3  11  -3    0.26    0.06
  -3  11   3    0.28    0.05
   2 -11  -3    3.73    0.14
   2 -11  -3    3.95    0.15
  -2 -11   3    3.93    0.14
   2  11  -3    3.97    0.16
  -2  11   3    3.95    0.14
   2  11  -3    3.86    0.15
   1 -11  -3    0.66    0.07
  -1 -11   3    0.66    0.06
   1 -11  -3    0.57    0.06
   1  11  -3    0.60    0.06
  -1  11   3    0.56    0.05
  -1  11   3    0.62    0.06
   1  11  -3    0.61    0.07
   0 -11  -3   17.44    0.41
   0 -11   3   17.89    0.40
   0 -11   3   17.14    0.42
   0 -11  -3   17.80    0.42
   0  11   3   17.49    0.41
   0  11   3   17.43    0.41
   0  11   3   17.56    0.42
   0  11   3   17.61    0.40
   0  11  -3   17.72    0.41
   0  11  -3   17.72    0.42
   1 -11   3    0.35    0.05
  -1 -11  -3    0.44    0.05
   1 -11   3    0.41    0.05
  -1 -11  -3    0.41    0.06
   1 -11   3    0.33    0.05
  -1  11  -3    0.31    0.05
   1  11   3    0.32    0.04
   1  11   3    0.28    0.05
  -1  11  -3    0.35    0.05
   2 -11   3    0.28    0.05
   2 -11   3    0.40    0.06
   2 -11   3    0.34    0.06
  -2  11  -3    0.28    0.04
   2  11   3    0.27    0.06
  -2  11  -3    0.32    0.05
   3 -11   3    6.02    0.22
   3 -11   3    5.85    0.21
   3 -11   3    6.22    0.20
  -3  11  -3    5.68    0.21
  -3  11  -3    5.53    0.19
   4 -11   3    1.67    0.13
  -4 -11  -3    1.54    0.10
   4 -11   3    1.63    0.13
  -4  11  -3    1.64    0.13
   4  11   3    1.81    0.12
  -4  11  -3    1.57    0.10
   4 -12  -3    0.25    0.06
   4  12  -3    0.22    0.06
  -4  12   3    0.20    0.06
   3 -12  -3   11.49    0.32
   3 -12  -3   11.45    0.33
   3  12  -3   11.27    0.34
   3  12  -3   11.83    0.33
  -3  12   3   11.65    0.32
  -2 -12   3    0.13    0.04
   2 -12  -3    0.10    0.04
   2 -12  -3    0.10    0.04
   2  12  -3    0.10    0.05
  -2  12   3    0.13    0.04
   2  12  -3    0.08    0.04
   1 -12  -3    0.03    0.03
   1 -12  -3    0.01    0.03
  -1 -12   3    0.09    0.04
   1  12  -3    0.03    0.03
  -1  12   3    0.03    0.03
   1  12  -3    0.00    0.03
  -1  12   3    0.02    0.03
   0 -12   3   24.82    0.58
   0 -12  -3   25.29    0.57
   0 -12   3   25.05    0.56
   0 -12  -3   24.96    0.58
   0  12   3   25.16    0.56
   0  12   3   25.44    0.57
   0  12   3   25.67    0.58
   0  12  -3   25.24    0.58
   0  12  -3   26.33    0.57
   0  12   3   25.04    0.56
   1 -12   3    0.04    0.03
  -1 -12  -3    0.05    0.03
   1 -12   3    0.06    0.03
  -1 -12  -3    0.00    0.03
   1 -12   3    0.03    0.03
  -1  12  -3   -0.03    0.03
   1  12   3   -0.01    0.02
   1  12   3    0.02    0.03
  -1  12  -3    0.01    0.03
   2 -12   3    2.96    0.14
   2 -12   3    2.89    0.14
   2 -12   3    3.38    0.14
   2  12   3    3.25    0.15
  -2  12  -3    3.27    0.14
   3 -12   3    0.04    0.04
   3 -12   3    0.06    0.04
   3 -12   3   -0.02    0.03
  -3  12  -3    0.03    0.04
   3  12   3    0.02    0.03
   4 -12   3    0.07    0.05
   4  12   3    0.02    0.04
  -4  12  -3    0.04    0.04
  -4  12  -3   -0.05    0.05
   4 -13  -3    2.13    0.13
   4 -13  -3    2.26    0.14
   4  13  -3    2.04    0.13
  -4  13   3    2.06    0.13
   3 -13  -3    1.27    0.10
   3 -13  -3    1.33    0.10
  -3  13   3    1.40    0.10
   3  13  -3    1.33    0.10
  -2 -13   3    6.87    0.21
   2 -13  -3    6.69    0.23
   2 -13  -3    6.76    0.22
   2  13  -3    7.14    0.23
  -2  13   3    7.09    0.21
   2  13  -3    7.06    0.23
   1 -13  -3    0.05    0.04
  -1 -13   3    0.08    0.04
   1 -13  -3    0.02    0.03
   1  13  -3    0.01    0.03
  -1  13   3    0.00    0.03
  -1  13   3    0.10    0.03
   0 -13   3   13.00    0.34
   0 -13  -3   12.62    0.34
   0 -13  -3   13.54    0.33
   0  13   3   13.09    0.33
   0  13  -3   12.75    0.34
   0  13   3   13.23    0.33
   0  13  -3   13.49    0.33
   0  13   3   12.91    0.34
   0  13   3   13.14    0.33
  -1 -13  -3    1.69    0.09
   1 -13   3    2.01    0.10
  -1 -13  -3    2.01    0.11
   1 -13   3    1.83    0.10
   1  13   3    1.90    0.10
  -1  13  -3    1.85    0.10
  -1  13  -3    1.87    0.12
   1  13   3    1.75    0.11
   2 -13   3    0.78    0.08
   2 -13   3    0.93    0.09
   2  13   3    0.83    0.09
  -2  13  -3    0.82    0.08
   2  13   3    0.83    0.08
   3 -13   3    3.18    0.16
   3 -13   3    3.12    0.15
   3  13   3    3.02    0.15
  -3  13  -3    3.32    0.16
   4 -13   3    3.40    0.18
   4  13   3    3.35    0.17
  -4  13  -3    3.10    0.17
   4 -14  -3    0.95    0.11
   4 -14  -3    1.02    0.11
  -4  14   3    0.73    0.09
   4  14  -3    0.78    0.10
   3 -14  -3    7.54    0.25
   3 -14  -3    7.38    0.26
  -3  14   3    7.10    0.24
   3  14  -3    7.65    0.25
   2 -14  -3    6.74    0.23
  -2 -14   3    6.13    0.20
   2 -14  -3    6.43    0.22
   2  14  -3    6.36    0.23
  -2  14   3    6.58    0.21
   2  14  -3    6.74    0.22
   1 -14  -3    0.22    0.05
   1 -14  -3    0.20    0.05
  -1 -14   3    0.28    0.05
  -1  14   3    0.24    0.05
   1  14  -3    0.19    0.05
  -1  14   3    0.21    0.04
   0 -14  -3    1.41    0.10
   0 -14  -3    1.27    0.09
   0 -14   3    1.34    0.10
   0  14   3    1.48    0.08
   0  14  -3    1.54    0.10
   0  14   3    1.49    0.08
   0  14   3    1.54    0.09
   0  14  -3    1.40    0.09
   0  14   3    1.32    0.09
   1 -14   3    1.71    0.11
   1 -14   3    1.80    0.10
  -1 -14  -3    1.63    0.10
  -1 -14  -3    1.59    0.13
   1  14   3    1.86    0.10
  -1  14  -3    1.79    0.11
   1  14   3    1.76    0.11
   2 -14   3    0.06    0.04
   2 -14   3    0.04    0.04
   2  14   3    0.07    0.04
  -2  14  -3   -0.01    0.04
   3 -14   3    0.59    0.08
   3 -14   3    0.41    0.08
  -3  14  -3    0.47    0.08
   3  14   3    0.34    0.07
   3 -15  -3    0.52    0.08
   3 -15  -3    0.41    0.08
   3  15  -3    0.46    0.08
  -3  15   3    0.37    0.07
   2 -15  -3    0.18    0.05
  -2 -15   3    0.16    0.04
   2 -15  -3    0.16    0.05
  -2  15   3    0.17    0.05
   2  15  -3    0.19    0.06
   1 -15  -3    0.70    0.08
  -1 -15   3    0.73    0.08
   1 -15  -3    0.69    0.08
   1  15  -3    0.72    0.08
  -1  15   3    0.73    0.07
   1  15  -3    0.72    0.08
  -1  15   3    0.71    0.07
   0 -15  -3    1.89    0.11
   0 -15  -3    1.83    0.11
   0 -15   3    1.99    0.11
   0  15  -3    2.11    0.12
   0  15  -3    1.91    0.11
   0  15   3    1.95    0.13
  -1 -15  -3    0.38    0.06
   1 -15   3    0.37    0.06
   1 -15   3    0.35    0.06
   1  15   3    0.33    0.06
  -1  15  -3    0.47    0.07
   1  15   3    0.43    0.07
   2 -15   3    0.63    0.08
   2 -15   3    0.53    0.07
  -2  15  -3    0.54    0.08
   2  15   3    0.46    0.07
   3 -15   3    4.80    0.20
   3 -15   3    4.63    0.20
   3  15   3    4.87    0.20
  -3  15  -3    4.61    0.21
   3 -16  -3    0.28    0.07
   3 -16  -3    0.35    0.08
  -3  16   3    0.34    0.08
   3  16  -3    0.31    0.07
   2 -16  -3    1.16    0.10
   2 -16  -3    1.20    0.11
  -2 -16   3    1.16    0.10
  -2  16   3    1.17    0.11
   2  16  -3    1.02    0.10
   1 -16  -3    0.92    0.09
  -1 -16   3    1.01    0.09
   1 -16  -3    1.02    0.10
   1  16  -3    1.04    0.09
  -1  16   3    1.24    0.09
   1  16  -3    1.23    0.10
   0 -16  -3    0.56    0.07
   0 -16   3    0.58    0.08
   0 -16  -3    0.47    0.07
   0  16  -3    0.61    0.08
   0  16  -3    0.63    0.08
   1 -16   3    1.41    0.11
   1  16   3    1.30    0.09
  -1  16  -3    1.41    0.11
   2 -16   3    0.93    0.10
   2 -16   3    1.15    0.11
  -2  16  -3    1.00    0.11
   2  16   3    1.18    0.10
   2 -17  -3    0.54    0.08
  -2 -17   3    0.56    0.07
   2 -17  -3    0.49    0.08
  -2  17   3    0.60    0.08
   2  17  -3    0.51    0.08
   1 -17  -3    4.73    0.20
  -1 -17   3    5.10    0.19
   1 -17  -3    4.89    0.20
   1  17  -3    4.84    0.20
   1  17  -3    4.82    0.19
  -1  17   3    5.00    0.20
   0 -17  -3    0.17    0.05
   0 -17  -3    0.19    0.05
   0 -17   3    0.20    0.06
   0  17  -3    0.22    0.06
   1 -17   3    1.37    0.12
  -1  17  -3    1.21    0.11
   1  17   3    1.23    0.10
   2 -17   3    0.73    0.10
   2 -17   3    0.64    0.09
   2  17   3    0.66    0.08
  -2  17  -3    0.67    0.10
  -2 -18   3    0.66    0.08
   2 -18  -3    0.68    0.09
   1 -18  -3    0.99    0.10
  -1 -18   3    1.01    0.10
   1 -18  -3    1.02    0.11
   1  18  -3    1.07    0.10
   1  18  -3    1.09    0.11
   0 -18  -3   -0.06    0.04
   0 -18   3    0.02    0.05
   0 -18  -3   -0.01    0.05
   0  18  -3    0.05    0.05
   1 -18   3    1.36    0.12
  -1  18  -3    1.32    0.12
   1  18   3    1.29    0.11
   6   0  -4    0.41    0.07
  -6   0   4    0.37    0.07
  -6   0   4    0.33    0.07
  -5   0   4   -0.03    0.04
   5   0  -4    0.02    0.04
   5   0  -4   -0.12    0.04
  -5   0   4    0.02    0.04
  -4   0   4   49.55    1.07
  -4   0   4   51.80    1.08
   4   0  -4   49.86    1.09
   4   0  -4   50.65    1.07
   3   0  -4    0.30    0.03
  -3   0   4    0.38    0.04
  -3   0   4    0.29    0.04
   3   0  -4    0.30    0.04
   3   0  -4    0.29    0.03
   3   0  -4    0.34    0.05
  -3   0   4    0.35    0.04
   2   0  -4    0.96    0.07
  -2   0   4    0.97    0.05
  -2   0   4    1.18    0.05
   2   0  -4    1.02    0.05
   2   0  -4    1.26    0.05
  -2   0   4    0.93    0.05
   2   0  -4    0.94    0.04
   1   0  -4    0.34    0.03
   1   0  -4    0.29    0.04
  -1   0   4    0.28    0.03
  -1   0   4    0.27    0.02
   1   0  -4    0.38    0.03
  -1   0   4    0.36    0.03
   1   0  -4    0.33    0.03
   0   0  -4  131.79    2.59
   0   0   4  128.31    2.58
   0   0  -4  130.00    2.58
   0   0  -4  128.51    2.58
   0   0   4  127.81    2.57
  -1   0  -4    0.16    0.03
  -1   0  -4    0.11    0.02
   1   0   4    0.11    0.03
   1   0   4    0.12    0.02
  -1   0  -4    0.10    0.02
   1   0   4    0.09    0.02
  -2   0  -4    4.04    0.12
   2   0   4    3.69    0.13
   2   0   4    4.05    0.12
  -2   0  -4    3.91    0.12
  -2   0  -4    3.86    0.12
   2   0   4    3.80    0.12
   3   0   4    0.02    0.03
   3   0   4    0.01    0.03
   3   0   4    0.04    0.04
  -3   0  -4    0.03    0.03
  -3   0  -4    0.02    0.04
  -3   0  -4    0.03    0.03
   4   0   4    9.87    0.28
  -4   0  -4    9.39    0.27
  -4   0  -4    9.72    0.27
   4   0   4    9.78    0.27
  -5   0  -4    0.01    0.04
   5   0   4    0.11    0.05
  -5   0  -4    0.06    0.05
   6  -1  -4    1.33    0.11
  -6  -1   4    1.53    0.12
  -6  -1   4    1.45    0.11
   6   1  -4    1.38    0.11
  -6   1   4    1.21    0.11
  -6   1   4    1.14    0.12
  -5  -1   4    1.17    0.10
  -5  -1   4    0.90    0.08
   5  -1  -4    0.93    0.08
   5   1  -4    0.93    0.10
   5   1  -4    1.04    0.09
  -5   1   4    1.20    0.09
  -5   1   4    0.88    0.09
  -4  -1   4    3.92    0.14
   4  -1  -4    3.63    0.14
   4  -1  -4    4.05    0.16
   4  -1  -4    3.62    0.15
  -4  -1   4    4.11    0.15
  -4   1   4    3.72    0.15
   4   1  -4    3.73    0.16
  -4   1   4    3.77    0.14
   4   1  -4    3.83    0.14
  -3  -1   4    8.12    0.20
   3  -1  -4    8.41    0.21
   3  -1  -4    8.40    0.21
  -3  -1   4    7.88    0.21
   3  -1  -4    8.62    0.24
  -3  -1   4    7.95    0.22
   3   1  -4    8.25    0.22
  -3   1   4    8.01    0.21
   3   1  -4    8.10    0.20
   3   1  -4    8.53    0.20
  -3   1   4    8.38    0.22
   3   1  -4    7.80    0.23
   2  -1  -4    8.67    0.20
  -2  -1   4    8.65    0.21
  -2  -1   4    8.93    0.20
   2  -1  -4    8.41    0.22
   2  -1  -4    8.16    0.21
  -2  -1   4    8.86    0.21
   2  -1  -4    8.56    0.19
   2   1  -4    8.69    0.23
   2   1  -4    8.75    0.19
  -2   1   4    8.34    0.20
   2   1  -4    8.67    0.21
   2   1  -4    8.64    0.20
  -2   1   4    8.52    0.21
  -2   1   4    8.75    0.21
   1  -1  -4    4.51    0.11
  -1  -1   4    4.16    0.11
  -1  -1   4    4.23    0.11
   1  -1  -4    4.46    0.11
   1  -1  -4    4.43    0.11
   1   1  -4    4.30    0.10
   1   1  -4    4.18    0.13
  -1   1   4    4.40    0.12
   1   1  -4    4.23    0.11
  -1   1   4    4.36    0.10
   0  -1   4   11.59    0.26
   0  -1  -4   11.55    0.26
   0  -1   4   11.63    0.25
   0  -1  -4   11.53    0.25
   0   1  -4   11.94    0.24
   0   1   4   11.34    0.26
   0   1  -4   11.22    0.26
   0   1  -4   11.27    0.25
   0   1   4   11.39    0.25
   0   1  -4   11.24    0.26
   1  -1   4    7.41    0.19
   1  -1   4    7.30    0.18
  -1  -1  -4    7.64    0.18
  -1  -1  -4    7.56    0.17
  -1  -1  -4    7.54    0.18
   1  -1   4    7.59    0.17
   1   1   4    7.51    0.18
   1   1   4    7.42    0.19
  -1   1  -4    7.77    0.18
  -1   1  -4    7.48    0.18
  -1   1  -4    7.26    0.18
  -2  -1  -4    2.74    0.09
  -2  -1  -4    2.84    0.10
   2  -1   4    2.81    0.07
   2  -1   4    2.78    0.10
  -2  -1  -4    2.66    0.10
   2  -1   4    2.85    0.11
   2  -1   4    2.82    0.09
   2   1   4    2.81    0.10
  -2   1  -4    2.97    0.10
  -2   1  -4    2.68    0.09
   2   1   4    2.78    0.10
  -2   1  -4    2.83    0.10
   2   1   4    2.82    0.10
   3  -1   4   10.21    0.27
   3  -1   4    9.86    0.26
  -3  -1  -4   10.47    0.26
   3  -1   4   10.14    0.27
  -3  -1  -4   10.18    0.26
  -3  -1  -4   10.63    0.26
   3   1   4   10.12    0.27
  -3   1  -4   10.17    0.27
  -3   1  -4    9.99    0.25
  -3   1  -4   10.28    0.27
   3   1   4   10.12    0.27
   3   1   4   10.59    0.27
  -4  -1  -4    0.62    0.06
   4  -1   4    0.47    0.06
  -4  -1  -4    0.72    0.08
   4  -1   4    0.58    0.07
  -4   1  -4    0.59    0.07
   4   1   4    0.62    0.07
   4   1   4    0.63    0.07
  -4   1  -4    0.61    0.07
  -5  -1  -4    0.02    0.03
   5  -1   4    0.10    0.05
  -5  -1  -4    0.15    0.05
   5   1   4    0.00    0.04
  -5   1  -4    0.06    0.04
  -5   1  -4    0.05    0.05
   6  -2  -4    0.04    0.04
  -6  -2   4   -0.01    0.05
  -6  -2   4    0.08    0.05
  -6   2   4    0.03    0.05
  -6   2   4    0.10    0.06
   6   2  -4    0.07    0.05
  -5  -2   4    1.44    0.10
   5  -2  -4    1.22    0.09
  -5  -2   4    1.17    0.09
   5   2  -4    1.21    0.09
  -5   2   4    1.18    0.09
   5   2  -4    1.03    0.11
  -5   2   4    1.07    0.10
   4  -2  -4    1.48    0.08
  -4  -2   4    1.25    0.08
  -4  -2   4    1.25    0.09
   4  -2  -4    1.39    0.10
   4  -2  -4    1.41    0.08
  -4   2   4    1.50    0.09
   4   2  -4    1.13    0.10
   4   2  -4    1.33    0.09
  -4   2   4    1.53    0.09
  -3  -2   4   17.43    0.40
  -3  -2   4   17.91    0.40
   3  -2  -4   16.70    0.39
   3  -2  -4   17.29    0.42
   3  -2  -4   17.75    0.40
  -3   2   4   16.91    0.40
   3   2  -4   17.57    0.42
   3   2  -4   17.73    0.40
  -3   2   4   17.11    0.40
   3   2  -4   18.10    0.39
   2  -2  -4   89.83    1.83
   2  -2  -4   89.27    1.81
  -2  -2   4   89.10    1.81
   2  -2  -4   93.69    1.79
  -2  -2   4   91.42    1.80
   2  -2  -4   90.29    1.81
  -2  -2   4   88.73    1.81
  -2   2   4   89.54    1.81
   2   2  -4   91.00    1.81
   2   2  -4   88.42    1.81
  -2   2   4   88.78    1.81
   2   2  -4   89.46    1.84
   2   2  -4   90.62    1.79
  -2   2   4   90.62    1.81
  -1  -2   4   25.62    0.52
  -1  -2   4   24.81    0.52
  -1  -2   4   24.86    0.52
   1  -2  -4   27.40    0.53
   1  -2  -4   24.98    0.51
   1  -2  -4   24.79    0.52
   1  -2  -4   24.76    0.54
   1   2  -4   24.51    0.52
   1   2  -4   24.80    0.54
   1   2  -4   24.76    0.53
  -1   2   4   25.30    0.51
  -1   2   4   24.61    0.52
  -1   2   4   24.73    0.53
   0  -2   4   70.78    1.48
   0  -2  -4   74.39    1.49
   0  -2  -4   73.61    1.47
   0  -2  -4   74.86    1.48
   0  -2   4   73.49    1.49
   0   2   4   73.27    1.47
   0   2  -4   76.60    1.48
   0   2   4   73.74    1.49
   0   2  -4   74.16    1.49
   0   2  -4   73.68    1.48
   0   2  -4   73.55    1.47
  -1  -2  -4   58.84    1.17
  -1  -2  -4   58.33    1.17
   1  -2   4   58.76    1.17
  -1  -2  -4   57.67    1.18
   1  -2   4   57.02    1.19
   1  -2   4   57.62    1.18
   1   2   4   57.45    1.19
   1   2   4   57.49    1.18
  -1   2  -4   57.81    1.18
  -1   2  -4   57.60    1.18
  -1   2  -4   58.87    1.18
   1   2   4   60.04    1.20
  -2  -2  -4    1.07    0.06
  -2  -2  -4    1.21    0.06
   2  -2   4    1.26    0.05
   2  -2   4    1.18    0.07
   2  -2   4    1.24    0.06
  -2  -2  -4    1.14    0.06
   2  -2   4    1.15    0.05
   2   2   4    1.07    0.06
  -2   2  -4    1.15    0.06
  -2   2  -4    1.12    0.06
   2   2   4    1.03    0.07
   2   2   4    1.04    0.06
  -2   2  -4    1.07    0.06
   3  -2   4    0.09    0.03
  -3  -2  -4    0.09    0.03
  -3  -2  -4    0.12    0.04
   3  -2   4    0.10    0.04
   3   2   4    0.09    0.04
  -3   2  -4    0.07    0.03
  -3   2  -4    0.11    0.04
   3   2   4    0.09    0.04
   3   2   4    0.06    0.03
  -3   2  -4    0.08    0.04
  -4  -2  -4    7.96    0.23
   4  -2   4    8.02    0.24
   4  -2   4    8.49    0.24
  -4  -2  -4    8.09    0.24
   4   2   4    7.34    0.28
  -4   2  -4    7.83    0.24
   4   2   4    7.93    0.24
  -4   2  -4    7.85    0.24
  -5  -2  -4    4.12    0.17
  -5  -2  -4    3.88    0.16
   5  -2   4    4.18    0.17
   5   2   4    4.26    0.18
  -5   2  -4    4.05    0.17
  -5   2  -4    3.98    0.18
   6  -3  -4    4.40    0.18
  -6  -3   4    4.12    0.18
  -6  -3   4    4.45    0.19
  -6   3   4    4.48    0.20
   6   3  -4    4.44    0.19
  -6   3   4    4.11    0.19
   5  -3  -4    0.24    0.05
  -5  -3   4    0.18    0.05
  -5  -3   4    0.26    0.06
  -5   3   4    0.33    0.06
  -5   3   4    0.23    0.06
   5   3  -4    0.18    0.05
  -4  -3   4    7.63    0.23
   4  -3  -4    7.53    0.23
  -4  -3   4    7.51    0.22
   4  -3  -4    7.63    0.22
   4  -3  -4    7.62    0.22
  -4   3   4    7.68    0.22
   4   3  -4    8.11    0.23
  -4   3   4    8.04    0.23
   4   3  -4    7.50    0.25
   3  -3  -4    0.22    0.04
  -3  -3   4    0.12    0.04
  -3  -3   4    0.23    0.04
   3  -3  -4    0.24    0.04
   3  -3  -4    0.24    0.04
   3   3  -4    0.16    0.05
  -3   3   4    0.23    0.04
  -3   3   4    0.23    0.04
   3   3  -4    0.19    0.03
   3   3  -4    0.23    0.04
  -2  -3   4   12.61    0.29
  -2  -3   4   13.04    0.27
   2  -3  -4   12.86    0.29
   2  -3  -4   12.96    0.30
  -2  -3   4   12.25    0.29
   2  -3  -4   13.11    0.26
   2  -3  -4   12.65    0.28
   2   3  -4   12.74    0.31
  -2   3   4   12.14    0.29
  -2   3   4   12.89    0.29
   2   3  -4   12.45    0.29
   2   3  -4   12.22    0.29
  -2   3   4   12.92    0.29
   1  -3  -4    2.52    0.07
   1  -3  -4    2.38    0.09
   1  -3  -4    2.57    0.07
  -1  -3   4    2.57    0.08
   1  -3  -4    2.52    0.08
  -1  -3   4    2.65    0.07
  -1   3   4    2.54    0.09
   1   3  -4    2.59    0.08
   1   3  -4    2.74    0.09
  -1   3   4    2.54    0.07
  -1   3   4    2.57    0.07
   1   3  -4    2.66    0.08
   0  -3   4    4.99    0.13
   0  -3  -4    5.37    0.14
   0  -3   4    5.30    0.14
   0  -3  -4    5.04    0.13
   0  -3  -4    5.40    0.12
   0  -3   4    5.31    0.13
   0   3  -4    5.47    0.13
   0   3   4    5.15    0.14
   0   3   4    5.00    0.12
   0   3  -4    5.42    0.13
   0   3  -4    5.26    0.14
   0   3  -4    5.42    0.13
  -1  -3  -4    0.44    0.03
   1  -3   4    0.36    0.04
  -1  -3  -4    0.39    0.04
   1  -3   4    0.37    0.04
  -1  -3  -4    0.48    0.03
   1  -3   4    0.43    0.03
  -1   3  -4    0.36    0.04
  -1   3  -4    0.42    0.04
   1   3   4    0.55    0.04
   1   3   4    0.49    0.04
   1   3   4    0.44    0.04
  -1   3  -4    0.45    0.04
   2  -3   4   15.09    0.35
   2  -3   4   14.90    0.33
  -2  -3  -4   15.08    0.34
  -2  -3  -4   15.08    0.35
   2  -3   4   15.40    0.36
   2  -3   4   15.52    0.33
  -2  -3  -4   15.01    0.34
  -2   3  -4   14.71    0.34
  -2   3  -4   15.51    0.35
   2   3   4   14.44    0.36
   2   3   4   14.67    0.34
   2   3   4   14.71    0.34
  -2   3  -4   15.05    0.35
   3  -3   4    9.73    0.26
  -3  -3  -4    8.95    0.23
  -3  -3  -4    8.75    0.24
   3  -3   4    9.39    0.25
   3   3   4    8.64    0.25
  -3   3  -4    9.19    0.25
   3   3   4    8.82    0.24
  -3   3  -4    9.68    0.25
  -3   3  -4    8.65    0.23
   3   3   4    8.98    0.24
   4  -3   4    0.98    0.09
  -4  -3  -4    0.88    0.08
  -4  -3  -4    0.87    0.07
   4  -3   4    0.67    0.07
   4   3   4    0.76    0.08
  -4   3  -4    0.78    0.07
  -4   3  -4    0.71    0.08
   4   3   4    0.88    0.08
   5  -3   4    0.12    0.05
   5  -3   4    0.05    0.04
  -5  -3  -4    0.02    0.04
  -5   3  -4    0.02    0.04
   5   3   4    0.04    0.04
  -5   3  -4    0.00    0.05
  -6  -4   4    0.06    0.05
  -6  -4   4    0.04    0.05
  -6   4   4    0.18    0.06
  -6   4   4    0.10    0.06
   6   4  -4    0.07    0.06
  -5  -4   4    1.23    0.10
   5  -4  -4    0.99    0.08
  -5  -4   4    0.98    0.08
  -5   4   4    1.05    0.10
  -5   4   4    1.04    0.09
   5   4  -4    1.01    0.09
  -4  -4   4    0.22    0.05
  -4  -4   4    0.28    0.05
   4  -4  -4    0.13    0.04
   4  -4  -4    0.16    0.04
   4  -4  -4    0.14    0.04
  -4   4   4    0.14    0.05
   4   4  -4    0.14    0.05
   4   4  -4    0.16    0.04
   4   4  -4    0.16    0.04
  -4   4   4    0.19    0.04
   3  -4  -4   25.33    0.53
   3  -4  -4   24.73    0.55
   3  -4  -4   23.94    0.54
  -3  -4   4   24.40    0.53
  -3  -4   4   23.97    0.54
   3   4  -4   23.56    0.54
   3   4  -4   25.21    0.54
  -3   4   4   24.29    0.54
   3   4  -4   23.99    0.57
  -3   4   4   24.47    0.54
   2  -4  -4    6.14    0.17
  -2  -4   4    6.09    0.16
   2  -4  -4    6.08    0.15
  -2  -4   4    6.00    0.16
   2  -4  -4    5.88    0.16
  -2  -4   4    6.33    0.13
   2   4  -4    5.93    0.16
   2   4  -4    5.99    0.18
  -2   4   4    6.20    0.16
   2   4  -4    6.07    0.16
  -2   4   4    5.87    0.16
   1  -4  -4    0.19    0.02
   1  -4  -4    0.16    0.03
   1  -4  -4    0.20    0.02
  -1  -4   4    0.19    0.03
  -1  -4   4    0.23    0.03
   1   4  -4    0.17    0.04
  -1   4   4    0.18    0.02
   1   4  -4    0.22    0.03
  -1   4   4    0.21    0.03
   1   4  -4    0.20    0.03
  -1   4   4    0.20    0.02
   0  -4   4   41.82    0.86
   0  -4  -4   42.25    0.87
   0  -4  -4   41.50    0.86
   0  -4   4   42.71    0.86
   0  -4   4   41.28    0.86
   0   4  -4   41.26    0.87
   0   4   4   41.78    0.85
   0   4   4   42.50    0.85
   0   4   4   42.06    0.87
   0   4  -4   41.59    0.86
   0   4  -4   42.69    0.86
   0   4  -4   42.41    0.86
   1  -4   4    6.09    0.17
  -1  -4  -4    6.48    0.17
   1  -4   4    5.77    0.15
  -1  -4  -4    6.46    0.14
  -1  -4  -4    6.51    0.15
   1  -4   4    6.20    0.16
  -1   4  -4    6.35    0.16
   1   4   4    6.51    0.15
   1   4   4    6.38    0.17
  -1   4  -4    6.16    0.16
   1   4   4    6.33    0.18
  -1   4  -4    6.20    0.16
  -2  -4  -4    3.20    0.10
   2  -4   4    3.30    0.11
   2  -4   4    3.10    0.12
   2  -4   4    2.99    0.10
  -2  -4  -4    3.10    0.09
  -2   4  -4    3.05    0.10
   2   4   4    3.13    0.12
   2   4   4    3.31    0.11
  -2   4  -4    3.34    0.11
   2   4   4    3.28    0.11
  -2   4  -4    3.10    0.11
  -3  -4  -4   32.66    0.71
   3  -4   4   33.76    0.73
   3  -4   4   33.31    0.72
  -3  -4  -4   33.59    0.70
   3   4   4   34.09    0.72
   3   4   4   32.06    0.71
  -3   4  -4   32.97    0.72
   3   4   4   32.39    0.74
  -3   4  -4   31.80    0.70
  -3   4  -4   32.36    0.72
   4  -4   4    0.78    0.08
  -4  -4  -4    0.76    0.07
  -4  -4  -4    0.87    0.08
   4  -4   4    0.67    0.07
   4   4   4    0.72    0.07
   4   4   4    0.83    0.08
  -4   4  -4    0.73    0.08
  -4   4  -4    0.69    0.07
  -5  -4  -4    6.45    0.23
   5  -4   4    6.62    0.23
   5  -4   4    6.35    0.25
   5  -4   4    6.85    0.24
   5   4   4    6.79    0.23
  -5   4  -4    6.67    0.23
  -5   4  -4    6.89    0.24
  -5  -5   4    0.56    0.07
   5  -5  -4    0.27    0.06
   5  -5  -4    0.52    0.07
  -5  -5   4    0.62    0.08
  -5   5   4    0.35    0.07
  -5   5   4    0.41    0.07
   5   5  -4    0.56    0.08
  -4  -5   4    1.59    0.10
   4  -5  -4    1.57    0.09
   4  -5  -4    1.49    0.08
  -4  -5   4    1.47    0.08
   4   5  -4    1.47    0.08
   4   5  -4    1.43    0.09
  -4   5   4    1.64    0.10
  -4   5   4    1.59    0.09
   4   5  -4    1.25    0.11
   3  -5  -4    0.14    0.04
   3  -5  -4    0.17    0.03
  -3  -5   4    0.19    0.04
  -3  -5   4    0.12    0.04
   3  -5  -4    0.17    0.04
   3   5  -4    0.15    0.04
  -3   5   4    0.15    0.04
   3   5  -4    0.07    0.04
  -3   5   4    0.16    0.04
   3   5  -4    0.15    0.03
  -2  -5   4    8.90    0.22
   2  -5  -4    8.91    0.20
  -2  -5   4    8.79    0.21
   2  -5  -4    8.94    0.23
   2  -5  -4    8.74    0.23
   2   5  -4    8.94    0.24
   2   5  -4    8.33    0.22
   2   5  -4    9.12    0.22
  -2   5   4    8.87    0.21
  -2   5   4    8.70    0.21
  -1  -5   4   25.94    0.54
   1  -5  -4   25.08    0.56
   1  -5  -4   26.59    0.53
  -1  -5   4   25.94    0.56
   1  -5  -4   25.61    0.55
  -1  -5   4   26.30    0.54
  -1   5   4   25.79    0.56
  -1   5   4   25.74    0.53
  -1   5   4   25.35    0.54
   1   5  -4   27.48    0.57
   1   5  -4   25.89    0.56
   1   5  -4   26.33    0.55
   0  -5   4   10.89    0.26
   0  -5   4   11.19    0.25
   0  -5   4   11.28    0.26
   0  -5  -4   10.60    0.25
   0  -5  -4   10.96    0.26
   0  -5  -4   10.76    0.25
   0   5   4   11.24    0.24
   0   5   4   11.02    0.26
   0   5  -4   11.58    0.25
   0   5  -4   11.36    0.26
   0   5   4   10.85    0.24
   0   5  -4   11.58    0.25
   0   5  -4   11.47    0.26
   1  -5   4    5.24    0.15
  -1  -5  -4    4.87    0.14
  -1  -5  -4    4.89    0.12
   1  -5   4    4.97    0.14
   1  -5   4    4.96    0.13
  -1   5  -4    5.03    0.14
   1   5   4    4.88    0.14
  -1   5  -4    5.00    0.14
   1   5   4    4.94    0.13
   1   5   4    4.88    0.15
  -1   5  -4    4.95    0.14
  -2  -5  -4    3.33    0.09
   2  -5   4    3.51    0.11
   2  -5   4    3.37    0.11
   2  -5   4    3.41    0.13
  -2  -5  -4    3.43    0.11
  -2   5  -4    3.39    0.12
   2   5   4    3.28    0.11
  -2   5  -4    3.54    0.11
   2   5   4    3.26    0.13
  -2   5  -4    3.60    0.12
   2   5   4    3.26    0.11
   3  -5   4   32.61    0.71
   3  -5   4   32.27    0.73
  -3  -5  -4   32.46    0.71
  -3   5  -4   33.13    0.72
  -3   5  -4   31.68    0.72
   3   5   4   32.37    0.74
   3   5   4   33.29    0.71
   4  -5   4    0.80    0.08
   4  -5   4    0.73    0.07
  -4  -5  -4    0.78    0.07
   4   5   4    0.67    0.08
  -4   5  -4    0.90    0.09
   4   5   4    0.77    0.07
  -4   5  -4    0.88    0.08
   5  -5   4    0.23    0.06
   5  -5   4    0.12    0.06
   5  -5   4    0.12    0.05
  -5  -5  -4    0.11    0.05
  -5   5  -4    0.15    0.05
   5   5   4    0.12    0.05
  -5   5  -4    0.02    0.05
   5  -6  -4    4.09    0.17
  -5  -6   4    4.25    0.18
  -5   6   4    3.97    0.17
  -5   6   4    4.04    0.17
   5   6  -4    4.26    0.17
  -4  -6   4    5.59    0.17
  -4  -6   4    5.76    0.19
   4  -6  -4    6.06    0.20
   4   6  -4    5.56    0.18
   4   6  -4    5.74    0.19
   4   6  -4    5.38    0.21
  -4   6   4    5.62    0.19
  -4   6   4    5.52    0.18
   3  -6  -4    0.33    0.04
   3  -6  -4    0.39    0.05
   3  -6  -4    0.36    0.05
  -3  -6   4    0.32    0.04
  -3  -6   4    0.28    0.05
   3   6  -4    0.30    0.05
  -3   6   4    0.37    0.05
   3   6  -4    0.24    0.04
   3   6  -4    0.34    0.06
  -3   6   4    0.41    0.05
  -2  -6   4    0.38    0.04
   2  -6  -4    0.41    0.05
   2  -6  -4    0.44    0.05
  -2  -6   4    0.30    0.04
  -2  -6   4    0.40    0.04
   2   6  -4    0.38    0.05
  -2   6   4    0.46    0.04
  -2   6   4    0.48    0.04
   2   6  -4    0.40    0.04
   2   6  -4    0.37    0.04
  -1  -6   4    0.06    0.02
  -1  -6   4    0.06    0.02
  -1  -6   4    0.10    0.01
   1  -6  -4    0.05    0.02
   1  -6  -4    0.08    0.02
   1   6  -4    0.03    0.03
   1   6  -4    0.06    0.02
  -1   6   4    0.08    0.02
   1   6  -4    0.04    0.02
  -1   6   4    0.06    0.02
  -1   6   4    0.04    0.02
   0  -6  -4   52.68    1.08
   0  -6   4   51.40    1.09
   0  -6   4   53.41    1.08
   0  -6   4   54.13    1.08
   0  -6   4   54.44    1.09
   0  -6  -4   53.90    1.10
   0   6  -4   52.63    1.09
   0   6   4   53.59    1.06
   0   6   4   52.76    1.10
   0   6  -4   52.97    1.10
   0   6  -4   53.81    1.08
   0   6  -4   53.12    1.10
   0   6   4   54.48    1.07
   1  -6   4    5.91    0.16
  -1  -6  -4    5.97    0.14
   1  -6   4    5.89    0.15
   1  -6   4    6.03    0.17
   1   6   4    6.15    0.18
  -1   6  -4    5.93    0.16
   1   6   4    5.87    0.14
  -1   6  -4    6.19    0.17
  -1   6  -4    6.04    0.16
   1   6   4    6.01    0.16
   2  -6   4   10.97    0.26
  -2  -6  -4   11.01    0.26
   2  -6   4   10.43    0.26
   2  -6   4   10.87    0.28
   2   6   4   10.55    0.29
   2   6   4   11.12    0.26
  -2   6  -4   10.58    0.27
  -2   6  -4   10.42    0.26
  -2   6  -4   10.71    0.27
   2   6   4   10.91    0.26
   3  -6   4    8.99    0.24
   3  -6   4    9.35    0.26
  -3  -6  -4    8.92    0.24
  -3   6  -4    9.06    0.26
   3   6   4    8.37    0.27
   3   6   4    8.67    0.24
  -3   6  -4    9.07    0.25
   4  -6   4    1.12    0.10
  -4  -6  -4    1.03    0.08
   4  -6   4    0.99    0.09
   4  -6   4    1.03    0.08
  -4   6  -4    1.12    0.09
   4   6   4    1.12    0.10
  -4   6  -4    1.14    0.10
   4   6   4    1.14    0.08
   5  -6   4    0.12    0.06
  -5  -6  -4    0.12    0.05
   5  -6   4    0.13    0.05
   5  -6   4    0.20    0.06
  -5   6  -4    0.13    0.05
   5   6   4    0.09    0.05
  -5   6  -4    0.11    0.06
   5  -7  -4    6.40    0.23
  -5  -7   4    6.17    0.23
   5   7  -4    6.41    0.22
  -5   7   4    6.47    0.22
  -5   7   4    6.08    0.22
  -4  -7   4    1.47    0.10
   4  -7  -4    1.62    0.10
  -4   7   4    1.70    0.10
   4   7  -4    1.43    0.09
   4   7  -4    1.37    0.12
  -4   7   4    1.69    0.10
   4   7  -4    1.41    0.09
   3  -7  -4    4.93    0.16
  -3  -7   4    5.28    0.17
   3  -7  -4    4.96    0.17
  -3  -7   4    5.14    0.16
  -3  -7   4    5.28    0.15
   3   7  -4    5.31    0.17
   3   7  -4    5.09    0.19
   3   7  -4    5.28    0.16
  -3   7   4    4.91    0.16
  -3   7   4    5.00    0.16
  -2  -7   4    0.12    0.03
   2  -7  -4    0.12    0.03
   2  -7  -4    0.08    0.03
  -2  -7   4    0.18    0.04
  -2   7   4    0.16    0.03
   2   7  -4    0.12    0.03
   2   7  -4    0.11    0.03
  -2   7   4    0.15    0.03
   2   7  -4    0.16    0.04
  -1  -7   4   32.29    0.69
   1  -7  -4   32.26    0.68
  -1  -7   4   32.44    0.66
  -1  -7   4   31.35    0.65
   1  -7  -4   31.78    0.69
  -1  -7   4   32.56    0.66
   1   7  -4   32.13    0.67
  -1   7   4   32.16    0.67
  -1   7   4   31.58    0.69
  -1   7   4   32.04    0.65
   1   7  -4   33.10    0.69
   1   7  -4   32.43    0.69
   0  -7   4    1.92    0.07
   0  -7   4    1.84    0.08
   0  -7  -4    1.88    0.07
   0  -7   4    1.86    0.06
   0  -7  -4    2.06    0.09
   0  -7   4    1.83    0.08
   0   7  -4    1.96    0.07
   0   7  -4    1.87    0.07
   0   7  -4    1.86    0.08
   0   7   4    1.92    0.06
   0   7  -4    1.87    0.08
   0   7   4    1.89    0.08
   1  -7   4    2.59    0.10
   1  -7   4    2.52    0.08
  -1  -7  -4    2.53    0.08
   1  -7   4    2.59    0.10
   1  -7   4    2.50    0.10
  -1  -7  -4    2.68    0.10
  -1   7  -4    2.57    0.10
  -1   7  -4    2.50    0.09
   1   7   4    2.45    0.11
   1   7   4    2.57    0.08
  -1   7  -4    2.64    0.10
   1   7   4    2.50    0.09
   2  -7   4   42.51    0.92
   2  -7   4   44.33    0.93
   2  -7   4   42.42    0.90
   2  -7   4   43.76    0.89
  -2  -7  -4   43.71    0.89
  -2   7  -4   41.01    0.89
   2   7   4   43.13    0.94
  -2   7  -4   42.92    0.91
  -2   7  -4   42.17    0.90
   2   7   4   42.18    0.89
   2   7   4   42.88    0.90
   3  -7   4    3.15    0.12
   3  -7   4    3.22    0.14
  -3  -7  -4    3.13    0.12
   3  -7   4    3.25    0.14
   3   7   4    3.26    0.15
  -3   7  -4    2.97    0.13
  -3   7  -4    3.18    0.13
   3   7   4    3.29    0.12
   4  -7   4    0.07    0.05
   4  -7   4    0.03    0.03
  -4  -7  -4    0.05    0.03
   4  -7   4   -0.02    0.04
   4   7   4    0.05    0.04
  -4   7  -4    0.04    0.04
  -4   7  -4    0.02    0.04
   5  -7   4    0.23    0.07
   5  -7   4    0.21    0.06
  -5   7  -4    0.19    0.06
  -5   7  -4    0.12    0.06
   5   7   4    0.14    0.05
  -5  -8   4    0.28    0.06
   5  -8  -4    0.21    0.06
  -5   8   4    0.20    0.06
   5   8  -4    0.21    0.06
   5   8  -4    0.18    0.05
  -5   8   4    0.42    0.07
   4  -8  -4    1.11    0.09
  -4  -8   4    1.21    0.09
   4   8  -4    1.02    0.11
   4   8  -4    1.18    0.09
   4   8  -4    1.02    0.08
  -4   8   4    1.18    0.10
  -4   8   4    1.34    0.09
  -3  -8   4    0.37    0.05
   3  -8  -4    0.36    0.06
  -3  -8   4    0.39    0.05
   3   8  -4    0.33    0.05
  -3   8   4    0.35    0.05
   3   8  -4    0.26    0.06
  -3   8   4    0.37    0.05
   3   8  -4    0.30    0.05
   2  -8  -4    0.28    0.05
  -2  -8   4    0.35    0.05
   2  -8  -4    0.24    0.04
  -2   8   4    0.26    0.04
   2   8  -4    0.29    0.04
   2   8  -4    0.17    0.05
   2   8  -4    0.26    0.04
  -2   8   4    0.24    0.03
   1  -8  -4   13.05    0.31
  -1  -8   4   13.12    0.31
   1  -8  -4   13.03    0.32
  -1  -8   4   13.06    0.29
   1   8  -4   12.70    0.29
  -1   8   4   12.67    0.29
   1   8  -4   13.21    0.32
  -1   8   4   12.77    0.32
   0  -8   4   30.77    0.65
   0  -8   4   31.21    0.63
   0  -8   4   30.25    0.67
   0  -8   4   31.38    0.66
   0  -8  -4   30.75    0.66
   0  -8  -4   31.10    0.67
   0   8   4   32.18    0.69
   0   8   4   30.69    0.65
   0   8  -4   30.26    0.65
   0   8  -4   31.37    0.67
   0   8  -4   31.41    0.65
   0   8  -4   30.94    0.67
   0   8   4   31.09    0.67
  -1  -8  -4    0.07    0.03
  -1  -8  -4    0.02    0.02
   1  -8   4    0.01    0.02
   1  -8   4    0.04    0.03
   1  -8   4    0.01    0.03
   1  -8   4    0.01    0.03
   1   8   4    0.01    0.02
  -1   8  -4    0.07    0.03
  -1   8  -4    0.00    0.02
  -1   8  -4    0.02    0.02
   2  -8   4   54.22    1.13
   2  -8   4   52.16    1.09
   2  -8   4   53.99    1.13
  -2  -8  -4   54.27    1.10
   2  -8   4   54.84    1.11
  -2   8  -4   52.88    1.12
   2   8   4   51.97    1.11
  -2   8  -4   53.54    1.11
   2   8   4   52.23    1.15
  -2   8  -4   52.10    1.10
  -3  -8  -4    0.29    0.04
   3  -8   4    0.25    0.05
   3  -8   4    0.19    0.04
   3  -8   4    0.13    0.05
   3  -8   4    0.20    0.04
   3   8   4    0.19    0.05
  -3   8  -4    0.16    0.05
  -3   8  -4    0.20    0.04
   3   8   4    0.22    0.04
   4  -8   4    0.72    0.09
  -4  -8  -4    0.71    0.07
   4  -8   4    0.62    0.08
   4   8   4    0.68    0.07
  -4   8  -4    0.67    0.09
  -4   8  -4    0.79    0.08
   5  -8   4    2.42    0.15
   5  -8   4    2.18    0.15
  -5   8  -4    2.36    0.14
  -5   8  -4    2.30    0.15
   5   8   4    2.34    0.13
   5  -9  -4    0.03    0.04
  -5  -9   4    0.05    0.04
  -5   9   4    0.02    0.05
  -5   9   4    0.08    0.05
   5   9  -4    0.07    0.04
   5   9  -4    0.00    0.04
  -4  -9   4    1.53    0.10
   4  -9  -4    1.63    0.11
  -4   9   4    1.63    0.11
  -4   9   4    1.68    0.10
   4   9  -4    1.56    0.10
   4   9  -4    1.50    0.10
   3  -9  -4    0.46    0.06
  -3  -9   4    0.38    0.05
  -3  -9   4    0.37    0.05
   3  -9  -4    0.38    0.06
   3   9  -4    0.39    0.07
   3   9  -4    0.44    0.05
   3   9  -4    0.35    0.05
  -3   9   4    0.47    0.06
  -3   9   4    0.35    0.06
   2  -9  -4   10.61    0.28
   2  -9  -4    9.68    0.27
  -2  -9   4   10.30    0.26
  -2   9   4   10.30    0.26
   2   9  -4    9.90    0.27
   2   9  -4   10.05    0.28
   2   9  -4    9.77    0.25
   1  -9  -4    8.80    0.23
   1  -9  -4    8.93    0.24
  -1  -9   4    8.31    0.23
   1   9  -4    8.02    0.23
   1   9  -4    7.83    0.21
  -1   9   4    8.48    0.23
  -1   9   4    8.37    0.21
   1   9  -4    8.62    0.23
   0  -9   4    2.02    0.08
   0  -9  -4    2.05    0.09
   0  -9  -4    2.10    0.09
   0  -9   4    1.97    0.09
   0  -9   4    1.94    0.09
   0   9  -4    1.91    0.08
   0   9   4    2.03    0.08
   0   9   4    2.06    0.09
   0   9  -4    1.93    0.09
   0   9   4    2.09    0.10
   0   9  -4    1.91    0.08
   0   9  -4    1.98    0.09
   1  -9   4    0.04    0.03
  -1  -9  -4    0.07    0.03
   1  -9   4    0.03    0.03
  -1  -9  -4    0.06    0.04
   1  -9   4    0.10    0.04
   1   9   4    0.10    0.03
  -1   9  -4    0.06    0.04
  -1   9  -4    0.05    0.03
   1   9   4    0.07    0.03
  -1   9  -4    0.07    0.03
   2  -9   4    7.76    0.23
   2  -9   4    7.70    0.23
   2  -9   4    8.45    0.22
  -2   9  -4    7.73    0.22
   2   9   4    7.67    0.25
  -2   9  -4    7.65    0.23
  -2   9  -4    7.94    0.23
   3  -9   4    0.56    0.08
   3  -9   4    0.56    0.06
  -3  -9  -4    0.50    0.05
   3  -9   4    0.63    0.08
  -3   9  -4    0.45    0.07
   3   9   4    0.42    0.07
  -3   9  -4    0.65    0.07
   4  -9   4    0.15    0.06
   4  -9   4    0.08    0.05
  -4   9  -4    0.11    0.05
  -4   9  -4    0.09    0.04
  -5 -10   4    0.11    0.05
   5 -10  -4    0.18    0.06
   5  10  -4    0.06    0.04
  -5  10   4    0.10    0.05
  -5  10   4    0.00    0.05
   5  10  -4    0.00    0.04
   4 -10  -4    1.23    0.10
  -4 -10   4    1.31    0.10
   4  10  -4    1.05    0.08
  -4  10   4    1.12    0.10
   4  10  -4    1.29    0.09
   3 -10  -4   10.05    0.29
  -3 -10   4   10.15    0.27
   3 -10  -4    9.84    0.28
  -3  10   4   10.17    0.27
   3  10  -4   10.07    0.31
   3  10  -4    9.59    0.28
   3  10  -4   10.24    0.27
  -2 -10   4    0.12    0.04
   2 -10  -4    0.15    0.04
   2 -10  -4    0.09    0.04
   2  10  -4    0.08    0.05
  -2  10   4    0.09    0.03
   2  10  -4    0.19    0.04
   2  10  -4    0.12    0.03
  -1 -10   4    9.50    0.25
   1 -10  -4    9.28    0.25
   1 -10  -4    9.35    0.26
  -1  10   4    8.83    0.23
  -1  10   4    9.29    0.25
   1  10  -4    9.45    0.25
   1  10  -4    9.09    0.23
   1  10  -4    9.72    0.25
   0 -10   4   11.44    0.28
   0 -10  -4   10.99    0.27
   0 -10  -4   11.10    0.29
   0 -10   4   10.82    0.27
   0 -10   4   10.87    0.27
   0  10   4   11.12    0.28
   0  10  -4   10.48    0.26
   0  10  -4   10.51    0.28
   0  10   4   11.08    0.29
   0  10   4   10.74    0.26
   0  10  -4   10.75    0.28
  -1 -10  -4    5.86    0.16
   1 -10   4    5.71    0.18
   1 -10   4    5.97    0.18
  -1 -10  -4    6.10    0.19
   1 -10   4    6.36    0.19
  -1  10  -4    5.80    0.17
   1  10   4    5.92    0.17
  -1  10  -4    5.95    0.19
  -1  10  -4    5.73    0.18
   1  10   4    5.73    0.20
   2 -10   4    0.49    0.06
   2 -10   4    0.55    0.07
   2 -10   4    0.42    0.06
  -2  10  -4    0.55    0.06
   2  10   4    0.39    0.06
  -2  10  -4    0.38    0.05
   3 -10   4    0.08    0.04
   3 -10   4    0.07    0.05
   3 -10   4    0.05    0.04
  -3  10  -4    0.06    0.04
  -3  10  -4    0.09    0.05
   4 -10   4    0.92    0.11
   4 -10   4    0.95    0.11
  -4  10  -4    0.92    0.10
  -4  10  -4    0.85    0.08
  -5 -11   4    1.67    0.12
   5 -11  -4    1.51    0.13
   5  11  -4    1.60    0.11
  -5  11   4    1.72    0.13
   5  11  -4    1.42    0.12
   4 -11  -4    0.70    0.09
   4  11  -4    0.80    0.08
  -4  11   4    0.77    0.08
   4  11  -4    0.78    0.09
   3 -11  -4    0.52    0.07
   3 -11  -4    0.50    0.07
  -3 -11   4    0.47    0.06
   3  11  -4    0.51    0.08
   3  11  -4    0.56    0.07
  -3  11   4    0.48    0.07
   2 -11  -4    0.00    0.03
  -2 -11   4    0.01    0.03
   2 -11  -4    0.00    0.03
   2  11  -4    0.00    0.03
   2  11  -4   -0.01    0.04
  -2  11   4    0.00    0.03
   1 -11  -4   26.97    0.61
  -1 -11   4   26.88    0.61
   1 -11  -4   26.68    0.62
   1  11  -4   27.71    0.61
  -1  11   4   27.25    0.61
  -1  11   4   27.68    0.62
   1  11  -4   28.03    0.62
  -1  11   4   26.75    0.59
   0 -11   4   21.70    0.50
   0 -11  -4   21.60    0.51
   0 -11  -4   22.75    0.50
   0 -11   4   20.59    0.49
   0 -11   4   21.79    0.49
   0  11  -4   21.31    0.51
   0  11   4   21.22    0.48
   0  11   4   22.60    0.52
   0  11   4   22.26    0.50
   0  11  -4   22.40    0.50
  -1 -11  -4    0.87    0.08
  -1 -11  -4    0.83    0.06
   1 -11   4    0.82    0.07
   1 -11   4    0.94    0.07
   1 -11   4    0.86    0.07
  -1  11  -4    0.91    0.07
  -1  11  -4    0.93    0.07
  -1  11  -4    0.89    0.07
   1  11   4    0.81    0.07
   1  11   4    0.76    0.06
   2 -11   4   14.81    0.39
   2 -11   4   14.35    0.38
   2 -11   4   15.06    0.37
   2  11   4   14.57    0.40
  -2  11  -4   14.29    0.38
  -2  11  -4   14.96    0.36
   3 -11   4    0.26    0.06
   3 -11   4    0.19    0.05
   3 -11   4    0.28    0.06
  -3  11  -4    0.26    0.05
  -3  11  -4    0.20    0.06
   4 -11   4    0.39    0.08
   4 -11   4    0.55    0.09
  -4  11  -4    0.39    0.08
  -4  11  -4    0.46    0.07
   4 -12  -4    1.71    0.12
   4  12  -4    1.50    0.11
  -4  12   4    1.64    0.12
   3 -12  -4    2.49    0.13
  -3 -12   4    2.11    0.11
   3 -12  -4    2.39    0.13
  -3  12   4    2.39    0.12
   3  12  -4    2.03    0.12
   3  12  -4    2.12    0.14
  -2 -12   4    5.66    0.19
   2 -12  -4    5.86    0.20
   2 -12  -4    5.79    0.21
  -2  12   4    6.10    0.18
   2  12  -4    5.91    0.21
   2  12  -4    5.95    0.20
   1 -12  -4    0.17    0.05
  -1 -12   4    0.14    0.04
   1 -12  -4    0.13    0.04
  -1  12   4    0.13    0.04
   1  12  -4    0.15    0.05
  -1  12   4    0.16    0.04
  -1  12   4    0.15    0.04
   0 -12  -4    0.22    0.05
   0 -12   4    0.24    0.04
   0 -12   4    0.24    0.05
   0 -12  -4    0.17    0.04
   0  12   4    0.30    0.05
   0  12   4    0.34    0.05
   0  12   4    0.23    0.05
   0  12  -4    0.31    0.05
   0  12  -4    0.25    0.05
   0  12   4    0.22    0.04
   1 -12   4    0.04    0.03
   1 -12   4    0.05    0.03
   1 -12   4    0.02    0.03
  -1 -12  -4   -0.02    0.03
  -1  12  -4    0.04    0.03
   1  12   4    0.03    0.03
  -1  12  -4    0.05    0.04
   2 -12   4    0.15    0.04
   2 -12   4    0.13    0.04
   2 -12   4    0.14    0.05
   2  12   4    0.15    0.05
  -2  12  -4    0.10    0.04
   3 -12   4    0.12    0.05
   3 -12   4    0.06    0.05
   3 -12   4    0.07    0.04
  -3  12  -4    0.06    0.04
  -3  12  -4    0.15    0.05
   4 -12   4    0.55    0.09
   4 -12   4    0.60    0.09
  -4  12  -4    0.44    0.09
  -4  12  -4    0.65    0.08
   4 -13  -4    0.08    0.05
   4  13  -4    0.06    0.05
  -4  13   4   -0.01    0.05
   3 -13  -4    3.64    0.16
  -3 -13   4    3.58    0.15
   3 -13  -4    3.58    0.17
   3  13  -4    3.66    0.16
  -3  13   4    3.62    0.15
  -2 -13   4    0.55    0.06
   2 -13  -4    0.42    0.07
   2 -13  -4    0.59    0.08
  -2  13   4    0.53    0.06
  -2  13   4    0.54    0.07
   2  13  -4    0.42    0.07
   2  13  -4    0.52    0.07
   1 -13  -4    8.06    0.25
   1 -13  -4    7.94    0.24
  -1 -13   4    8.05    0.24
   1  13  -4    8.43    0.25
  -1  13   4    8.33    0.25
   0 -13   4    1.66    0.10
   0 -13  -4    1.63    0.09
   0 -13  -4    1.71    0.10
   0  13   4    1.64    0.09
   0  13  -4    1.70    0.10
   0  13  -4    1.74    0.10
   0  13   4    1.63    0.09
   0  13   4    1.63    0.10
   1 -13   4    5.73    0.19
  -1 -13  -4    5.60    0.19
   1 -13   4    5.64    0.19
   1 -13   4    5.60    0.19
  -1  13  -4    5.46    0.19
   1  13   4    5.83    0.21
  -1  13  -4    5.72    0.18
   2 -13   4    0.11    0.04
   2 -13   4    0.09    0.05
   2 -13   4    0.11    0.04
  -2  13  -4    0.09    0.04
   3 -13   4    9.44    0.28
   3 -13   4    8.54    0.29
   3 -13   4    9.63    0.30
  -3  13  -4    9.19    0.30
   4 -14  -4    1.13    0.11
   4  14  -4    0.87    0.10
   3 -14  -4    2.12    0.13
   3 -14  -4    2.07    0.13
   3  14  -4    2.03    0.13
  -2 -14   4    0.00    0.03
   2 -14  -4    0.05    0.04
   2 -14  -4    0.05    0.04
   2  14  -4    0.03    0.04
   2  14  -4    0.03    0.05
  -2  14   4    0.04    0.03
   1 -14  -4    0.02    0.04
  -1 -14   4    0.08    0.04
   1 -14  -4    0.08    0.04
   1  14  -4    0.06    0.03
  -1  14   4    0.02    0.03
   1  14  -4    0.00    0.04
   0 -14  -4    0.01    0.03
   0 -14  -4    0.01    0.03
   0 -14   4   -0.01    0.03
   0  14   4    0.03    0.03
   0  14  -4    0.03    0.04
   0  14  -4    0.01    0.03
   0  14   4    0.05    0.03
   0  14   4   -0.01    0.03
   1 -14   4    0.54    0.07
   1 -14   4    0.33    0.05
  -1 -14  -4    0.42    0.06
   1  14   4    0.42    0.07
   1  14   4    0.42    0.06
  -1  14  -4    0.40    0.06
   2 -14   4    0.04    0.04
   2 -14   4    0.07    0.04
   2  14   4    0.02    0.03
  -2  14  -4    0.05    0.04
   3 -14   4    2.55    0.14
   3 -14   4    2.99    0.16
   3  14   4    2.86    0.15
  -3  14  -4    2.63    0.15
   3 -15  -4    0.26    0.07
   3 -15  -4    0.29    0.07
   3  15  -4    0.32    0.07
   2 -15  -4    2.07    0.13
   2 -15  -4    2.10    0.12
  -2 -15   4    2.31    0.12
  -2  15   4    2.02    0.12
   2  15  -4    1.87    0.12
   1 -15  -4    4.15    0.18
  -1 -15   4    3.89    0.16
   1 -15  -4    4.22    0.17
   1  15  -4    3.87    0.17
   1  15  -4    4.18    0.17
  -1  15   4    3.97    0.17
   0 -15  -4    0.03    0.04
   0 -15  -4    0.04    0.04
   0 -15   4    0.02    0.04
   0  15  -4    0.04    0.04
   0  15  -4    0.01    0.04
   0  15   4    0.02    0.04
  -1 -15  -4    0.73    0.08
   1 -15   4    0.72    0.08
   1  15   4    0.63    0.07
  -1  15  -4    0.67    0.08
   2 -15   4    1.12    0.10
   2 -15   4    1.13    0.10
  -2  15  -4    1.06    0.10
   2  15   4    1.04    0.09
   3 -15   4    0.29    0.07
   3 -15   4    0.36    0.07
  -3  15  -4    0.24    0.07
   3  15   4    0.37    0.07
   3 -16  -4    0.59    0.09
   3 -16  -4    0.57    0.09
   3  16  -4    0.54    0.09
  -3  16   4    0.63    0.09
   2 -16  -4    0.03    0.05
   2 -16  -4   -0.03    0.04
  -2 -16   4    0.00    0.04
   2  16  -4   -0.06    0.04
  -2  16   4    0.05    0.04
  -1 -16   4    0.11    0.05
   1 -16  -4    0.04    0.04
   1 -16  -4    0.04    0.05
  -1  16   4    0.05    0.04
   1  16  -4    0.10    0.04
   1  16  -4   -0.02    0.04
   0 -16  -4   -0.03    0.04
   0 -16  -4    0.02    0.04
   0 -16   4    0.07    0.05
   0  16  -4    0.03    0.04
   0  16  -4   -0.02    0.04
  -1 -16  -4    0.19    0.06
   1 -16   4    0.15    0.05
  -1  16  -4    0.19    0.06
   1  16   4    0.19    0.05
   2 -16   4    0.34    0.07
   2 -16   4    0.25    0.06
  -2  16  -4    0.21    0.06
   2  16   4    0.31    0.06
   2 -17  -4    3.73    0.18
  -2 -17   4    3.85    0.17
   2 -17  -4    3.69    0.18
   2  17  -4    3.81    0.18
  -2  17   4    4.04    0.18
  -1 -17   4    1.18    0.11
   1 -17  -4    1.04    0.10
   1 -17  -4    1.00    0.11
   1  17  -4    1.03    0.10
   1  17  -4    1.00    0.10
  -1  17   4    0.91    0.10
   0 -17  -4    0.21    0.06
   0 -17   4    0.29    0.06
   0 -17  -4    0.26    0.06
   0  17  -4    0.22    0.06
   0  17  -4    0.18    0.06
   1 -17   4    1.74    0.13
  -1  17  -4    1.70    0.12
   1  17   4    1.44    0.11
   2 -17   4    2.39    0.15
   2  17   4    2.41    0.14
  -2  17  -4    2.05    0.15
   1 -18  -4    1.55    0.12
   1 -18  -4    1.57    0.13
  -1 -18   4    1.57    0.12
  -1  18   4    1.39    0.17
   1  18  -4    1.51    0.12
   1  18  -4    1.57    0.12
   0 -18  -4    2.25    0.14
   0 -18   4    2.30    0.14
   0 -18  -4    2.23    0.14
   0  18  -4    2.43    0.14
   1 -18   4    0.47    0.08
  -1  18  -4    0.56    0.09
   6   0  -5    0.09    0.05
  -6   0   5    0.06    0.05
  -6   0   5    0.03    0.05
  -5   0   5    7.70    0.24
  -5   0   5    7.62    0.24
   5   0  -5    7.87    0.24
   5   0  -5    7.40    0.26
  -4   0   5    0.40    0.06
   4   0  -5    0.41    0.06
   4   0  -5    0.34    0.06
  -4   0   5    0.38    0.05
   3   0  -5    6.55    0.21
  -3   0   5    6.87    0.17
   3   0  -5    6.49    0.17
   3   0  -5    6.82    0.19
   3   0  -5    6.27    0.16
  -3   0   5    6.56    0.19
   2   0  -5    0.08    0.03
   2   0  -5    0.03    0.02
  -2   0   5    0.04    0.02
  -2   0   5    0.04    0.02
   2   0  -5    0.06    0.02
  -2   0   5    0.00    0.02
   2   0  -5    0.04    0.02
   1   0  -5    8.41    0.20
  -1   0   5    8.02    0.20
   1   0  -5    8.39    0.20
   1   0  -5    8.25    0.19
  -1   0   5    8.48    0.20
  -1   0   5    8.18    0.18
   0   0  -5   -0.01    0.02
   0   0   5    0.02    0.02
   0   0  -5    0.02    0.01
   0   0  -5    0.01    0.02
   0   0  -5    0.03    0.02
   0   0   5    0.02    0.02
   1   0   5    2.16    0.08
  -1   0  -5    2.24    0.08
   1   0   5    2.32    0.09
   1   0   5    2.37    0.07
  -1   0  -5    2.31    0.08
  -1   0  -5    2.33    0.07
   2   0   5    0.02    0.04
  -2   0  -5    0.05    0.03
  -2   0  -5   -0.02    0.02
   2   0   5    0.02    0.02
  -2   0  -5    0.04    0.03
   2   0   5    0.02    0.03
  -3   0  -5   29.79    0.65
  -3   0  -5   30.82    0.66
   3   0   5   30.34    0.67
   3   0   5   29.79    0.66
  -3   0  -5   29.23    0.66
   3   0   5   29.13    0.66
  -4   0  -5    0.00    0.03
  -4   0  -5    0.00    0.03
   4   0   5    0.01    0.04
   4   0   5    0.00    0.03
  -5   0  -5    1.88    0.12
  -5   0  -5    2.01    0.12
   5   0   5    1.91    0.12
  -6  -1   5    1.06    0.10
   6  -1  -5    1.31    0.11
  -6  -1   5    1.11    0.11
  -6   1   5    1.31    0.12
  -6   1   5    1.24    0.11
   6   1  -5    1.26    0.11
   5  -1  -5    0.28    0.06
  -5  -1   5    0.37    0.06
   5  -1  -5    0.34    0.06
  -5  -1   5    0.41    0.07
   5   1  -5    0.31    0.06
  -5   1   5    0.38    0.07
   5   1  -5    0.18    0.06
  -5   1   5    0.29    0.06
  -4  -1   5    0.88    0.07
   4  -1  -5    0.99    0.07
   4  -1  -5    0.77    0.09
  -4  -1   5    0.81    0.08
  -4   1   5    1.18    0.08
   4   1  -5    0.79    0.09
  -4   1   5    0.97    0.08
   4   1  -5    0.84    0.07
  -3  -1   5    6.63    0.18
  -3  -1   5    6.51    0.16
   3  -1  -5    6.13    0.17
  -3  -1   5    6.35    0.18
   3  -1  -5    6.27    0.20
   3  -1  -5    6.36    0.18
   3   1  -5    6.53    0.20
   3   1  -5    6.75    0.17
  -3   1   5    6.28    0.18
  -3   1   5    6.13    0.18
  -3   1   5    6.32    0.17
   3   1  -5    6.45    0.18
  -2  -1   5   60.73    1.26
  -2  -1   5   63.54    1.25
   2  -1  -5   63.50    1.26
  -2  -1   5   59.78    1.26
   2  -1  -5   64.31    1.25
   2  -1  -5   62.50    1.25
   2  -1  -5   61.70    1.28
   2   1  -5   61.27    1.24
   2   1  -5   61.19    1.25
   2   1  -5   60.88    1.26
  -2   1   5   61.03    1.26
  -2   1   5   61.05    1.26
  -2   1   5   63.35    1.25
   2   1  -5   61.38    1.29
   1  -1  -5   13.10    0.31
   1  -1  -5   12.94    0.29
  -1  -1   5   13.19    0.29
   1  -1  -5   12.78    0.29
   1  -1  -5   13.02    0.29
  -1  -1   5   13.26    0.28
  -1   1   5   13.06    0.30
   1   1  -5   13.52    0.31
  -1   1   5   12.68    0.29
   1   1  -5   12.86    0.29
   1   1  -5   13.61    0.29
  -1   1   5   12.77    0.27
   0  -1  -5    1.56    0.06
   0  -1   5    1.44    0.06
   0  -1  -5    1.49    0.06
   0  -1   5    1.41    0.06
   0   1  -5    1.41    0.06
   0   1  -5    1.45    0.06
   0   1   5    1.49    0.06
   0   1  -5    1.49    0.05
   0   1  -5    1.48    0.06
   0   1   5    1.47    0.06
  -1  -1  -5    0.55    0.04
   1  -1   5    0.53    0.03
   1  -1   5    0.57    0.05
  -1  -1  -5    0.52    0.05
   1  -1   5    0.53    0.04
  -1  -1  -5    0.56    0.03
   1   1   5    0.58    0.04
  -1   1  -5    0.54    0.04
   1   1   5    0.55    0.05
  -1   1  -5    0.49    0.05
  -1   1  -5    0.52    0.04
  -2  -1  -5   50.78    1.04
   2  -1   5   48.55    1.05
   2  -1   5   51.09    1.04
  -2  -1  -5   50.55    1.03
  -2  -1  -5   49.60    1.04
   2  -1   5   50.07    1.04
  -2   1  -5   50.92    1.03
   2   1   5   50.20    1.05
   2   1   5   49.43    1.05
   2   1   5   49.66    1.04
  -2   1  -5   50.81    1.04
  -2   1  -5   49.11    1.04
  -3  -1  -5    0.05    0.03
  -3  -1  -5   -0.02    0.03
   3  -1   5    0.06    0.03
  -3  -1  -5    0.02    0.03
   3  -1   5   -0.01    0.04
  -3   1  -5   -0.02    0.04
   3   1   5    0.01    0.03
  -3   1  -5   -0.03    0.03
   3   1   5    0.06    0.03
  -3   1  -5    0.04    0.03
   3   1   5   -0.03    0.04
   4  -1   5    0.01    0.04
  -4  -1  -5    0.02    0.03
   4  -1   5   -0.01    0.04
  -4  -1  -5    0.04    0.04
   4   1   5    0.04    0.04
   4   1   5   -0.03    0.03
  -4   1  -5    0.02    0.04
  -4   1  -5    0.05    0.03
  -5  -1  -5    0.37    0.06
   5  -1   5    0.29    0.06
  -5  -1  -5    0.38    0.07
  -5   1  -5    0.30    0.06
  -5   1  -5    0.22    0.06
   5   1   5    0.34    0.07
  -6  -2   5    0.33    0.07
   6  -2  -5    0.50    0.08
  -6  -2   5    0.48    0.08
  -6   2   5    0.40    0.08
   6   2  -5    0.48    0.08
  -6   2   5    0.46    0.08
   5  -2  -5    2.27    0.12
  -5  -2   5    2.20    0.12
  -5  -2   5    2.47    0.13
   5   2  -5    2.24    0.12
  -5   2   5    2.57    0.13
  -5   2   5    2.39    0.13
   4  -2  -5   12.76    0.32
  -4  -2   5   13.94    0.34
  -4  -2   5   12.98    0.33
   4  -2  -5   12.89    0.37
   4  -2  -5   12.38    0.35
  -4   2   5   13.14    0.33
  -4   2   5   12.38    0.32
  -4   2   5   13.02    0.33
   4   2  -5   13.13    0.33
   4   2  -5   13.11    0.36
   3  -2  -5    0.17    0.05
  -3  -2   5    0.15    0.03
   3  -2  -5    0.14    0.03
  -3  -2   5    0.12    0.04
   3  -2  -5    0.18    0.04
   3   2  -5    0.11    0.05
  -3   2   5    0.14    0.04
   3   2  -5    0.12    0.03
   3   2  -5    0.18    0.04
  -3   2   5    0.16    0.03
  -3   2   5    0.15    0.04
  -2  -2   5    3.24    0.09
   2  -2  -5    3.06    0.10
   2  -2  -5    2.90    0.10
  -2  -2   5    3.42    0.11
  -2  -2   5    3.42    0.10
   2  -2  -5    2.98    0.12
   2  -2  -5    3.07    0.09
  -2   2   5    3.01    0.10
  -2   2   5    3.02    0.10
   2   2  -5    3.32    0.08
   2   2  -5    3.53    0.13
  -2   2   5    3.12    0.10
   2   2  -5    3.38    0.10
  -1  -2   5   10.47    0.24
   1  -2  -5   10.46    0.23
   1  -2  -5   10.66    0.24
   1  -2  -5   10.78    0.23
  -1  -2   5   10.08    0.24
   1  -2  -5   10.24    0.25
   1   2  -5   10.52    0.25
   1   2  -5   10.71    0.26
   1   2  -5   10.17    0.24
  -1   2   5   10.68    0.22
  -1   2   5   10.36    0.24
  -1   2   5   10.35    0.25
   0  -2  -5   16.00    0.33
   0  -2   5   14.63    0.34
   0  -2   5   15.34    0.34
   0  -2  -5   15.36    0.34
   0   2   5   15.68    0.35
   0   2  -5   15.33    0.33
   0   2  -5   15.47    0.34
   0   2   5   15.98    0.34
   0   2  -5   15.52    0.34
   0   2  -5   15.41    0.34
   1  -2   5   56.60    1.18
   1  -2   5   57.47    1.17
   1  -2   5   56.92    1.15
  -1  -2  -5   57.42    1.14
  -1  -2  -5   56.35    1.17
  -1  -2  -5   58.15    1.16
  -1   2  -5   56.89    1.17
  -1   2  -5   56.77    1.16
  -1   2  -5   56.29    1.17
   1   2   5   57.94    1.16
   1   2   5   57.17    1.17
   2  -2   5    0.58    0.04
   2  -2   5    0.55    0.05
  -2  -2  -5    0.52    0.05
  -2  -2  -5    0.57    0.05
   2  -2   5    0.54    0.06
  -2  -2  -5    0.53    0.05
  -2   2  -5    0.55    0.05
  -2   2  -5    0.50    0.05
   2   2   5    0.57    0.05
   2   2   5    0.52    0.05
   2   2   5    0.65    0.07
  -2   2  -5    0.59    0.06
  -3  -2  -5   18.57    0.43
  -3  -2  -5   18.54    0.43
  -3  -2  -5   18.11    0.42
   3  -2   5   17.92    0.43
   3  -2   5   18.79    0.44
   3   2   5   18.20    0.44
  -3   2  -5   18.50    0.43
   3   2   5   18.16    0.43
   3   2   5   18.37    0.43
  -3   2  -5   17.85    0.43
  -3   2  -5   18.43    0.42
   4  -2   5    2.47    0.12
  -4  -2  -5    2.43    0.11
   4  -2   5    2.70    0.13
  -4  -2  -5    2.72    0.12
  -4   2  -5    2.31    0.12
   4   2   5    2.68    0.13
  -4   2  -5    2.54    0.13
  -5  -2  -5    2.68    0.14
  -5  -2  -5    2.69    0.13
   5  -2   5    3.03    0.15
   5   2   5    2.87    0.15
  -5   2  -5    2.87    0.15
  -5   2  -5    2.76    0.14
  -6  -3   5    0.18    0.06
   6  -3  -5    0.24    0.06
  -6  -3   5    0.05    0.05
   6   3  -5    0.22    0.06
  -6   3   5    0.17    0.06
  -6   3   5    0.17    0.06
  -5  -3   5    1.43    0.10
  -5  -3   5    1.59    0.11
   5  -3  -5    1.41    0.09
  -5   3   5    1.36    0.11
  -5   3   5    1.27    0.10
   5   3  -5    1.43    0.10
   4  -3  -5    0.65    0.07
  -4  -3   5    0.60    0.06
  -4  -3   5    0.75    0.07
   4  -3  -5    0.71    0.06
   4  -3  -5    0.56    0.06
   4   3  -5    0.70    0.07
   4   3  -5    0.53    0.08
  -4   3   5    0.74    0.07
  -4   3   5    0.68    0.07
   3  -3  -5    7.21    0.21
  -3  -3   5    6.99    0.20
  -3  -3   5    7.49    0.20
   3  -3  -5    7.45    0.19
   3  -3  -5    7.35    0.20
   3   3  -5    7.22    0.23
  -3   3   5    7.22    0.20
  -3   3   5    7.44    0.20
  -3   3   5    7.01    0.20
   3   3  -5    7.73    0.20
   3   3  -5    7.45    0.21
  -2  -3   5   31.02    0.62
  -2  -3   5   29.75    0.63
  -2  -3   5   30.21    0.63
   2  -3  -5   30.46    0.61
   2  -3  -5   28.71    0.63
   2  -3  -5   29.37    0.65
   2  -3  -5   29.02    0.62
  -2   3   5   29.96    0.62
  -2   3   5   29.84    0.63
   2   3  -5   29.08    0.63
   2   3  -5   30.28    0.63
   2   3  -5   30.12    0.66
  -2   3   5   30.19    0.64
   1  -3  -5   17.61    0.37
   1  -3  -5   17.61    0.40
  -1  -3   5   17.19    0.38
  -1  -3   5   17.58    0.38
   1  -3  -5   17.93    0.37
   1  -3  -5   17.16    0.39
  -1   3   5   18.10    0.36
   1   3  -5   17.09    0.39
  -1   3   5   17.72    0.39
   1   3  -5   17.64    0.39
   1   3  -5   18.31    0.40
  -1   3   5   17.38    0.38
   0  -3  -5    4.32    0.13
   0  -3   5    4.12    0.12
   0  -3   5    4.20    0.12
   0  -3   5    4.21    0.12
   0  -3  -5    4.43    0.12
   0  -3  -5    4.41    0.11
   0   3   5    4.47    0.13
   0   3   5    4.46    0.11
   0   3  -5    4.19    0.13
   0   3  -5    4.19    0.12
   0   3  -5    4.31    0.11
   0   3  -5    4.16    0.12
   1  -3   5    0.38    0.05
   1  -3   5    0.42    0.04
  -1  -3  -5    0.41    0.03
  -1  -3  -5    0.45    0.05
  -1  -3  -5    0.44    0.03
   1  -3   5    0.39    0.04
   1   3   5    0.39    0.04
  -1   3  -5    0.40    0.04
   1   3   5    0.46    0.04
  -1   3  -5    0.30    0.04
  -1   3  -5    0.47    0.04
  -2  -3  -5    0.12    0.03
  -2  -3  -5    0.07    0.03
   2  -3   5    0.04    0.02
   2  -3   5    0.07    0.02
   2  -3   5    0.09    0.03
  -2  -3  -5    0.06    0.03
   2  -3   5    0.05    0.04
  -2   3  -5    0.08    0.03
   2   3   5    0.11    0.03
  -2   3  -5    0.11    0.03
   2   3   5    0.08    0.03
   2   3   5    0.03    0.04
  -2   3  -5    0.05    0.03
   3  -3   5    4.73    0.17
  -3  -3  -5    5.06    0.16
   3  -3   5    4.68    0.16
  -3  -3  -5    5.04    0.15
   3   3   5    5.19    0.17
   3   3   5    5.09    0.18
  -3   3  -5    4.64    0.16
   3   3   5    4.87    0.16
  -3   3  -5    4.51    0.15
  -3   3  -5    4.54    0.16
   4  -3   5    0.34    0.06
   4  -3   5    0.25    0.06
  -4  -3  -5    0.20    0.04
  -4  -3  -5    0.25    0.04
   4   3   5    0.25    0.05
   4   3   5    0.16    0.06
  -4   3  -5    0.23    0.06
  -4   3  -5    0.29    0.05
  -5  -3  -5    3.34    0.15
   5  -3   5    3.07    0.15
   5  -3   5    3.18    0.16
  -5   3  -5    3.45    0.16
   5   3   5    3.24    0.16
  -5   3  -5    3.31    0.17
  -6  -4   5    0.60    0.09
  -6  -4   5    0.50    0.08
  -6   4   5    0.65    0.09
  -6   4   5    0.60    0.09
   6   4  -5    0.53    0.08
  -5  -4   5    0.57    0.07
   5  -4  -5    0.62    0.07
  -5  -4   5    0.63    0.07
  -5   4   5    0.66    0.08
   5   4  -5    0.60    0.08
  -5   4   5    0.65    0.08
  -4  -4   5   12.22    0.32
   4  -4  -5   12.20    0.31
   4  -4  -5   12.31    0.32
   4  -4  -5   11.68    0.32
  -4  -4   5   11.72    0.31
   4   4  -5   12.40    0.32
   4   4  -5   12.40    0.31
   4   4  -5   11.96    0.35
  -4   4   5   12.66    0.32
  -4   4   5   12.23    0.32
   3  -4  -5    0.61    0.06
   3  -4  -5    0.57    0.05
  -3  -4   5    0.50    0.05
  -3  -4   5    0.48    0.06
   3  -4  -5    0.62    0.07
  -3   4   5    0.59    0.06
  -3   4   5    0.56    0.06
   3   4  -5    0.65    0.08
  -3   4   5    0.61    0.06
   3   4  -5    0.58    0.06
   3   4  -5    0.54    0.05
  -2  -4   5    2.21    0.09
   2  -4  -5    2.28    0.08
   2  -4  -5    2.14    0.09
   2  -4  -5    2.26    0.07
  -2  -4   5    2.31    0.09
   2  -4  -5    2.40    0.09
  -2  -4   5    2.25    0.07
  -2   4   5    2.29    0.08
   2   4  -5    2.42    0.09
  -2   4   5    2.29    0.09
   2   4  -5    2.30    0.11
  -2   4   5    2.39    0.08
   2   4  -5    2.35    0.09
   1  -4  -5   20.69    0.43
  -1  -4   5   20.35    0.45
   1  -4  -5   20.42    0.46
   1  -4  -5   20.41    0.46
   1  -4  -5   20.93    0.44
  -1  -4   5   21.29    0.44
   1   4  -5   21.03    0.46
  -1   4   5   20.77    0.46
  -1   4   5   20.45    0.44
  -1   4   5   21.00    0.43
   1   4  -5   20.90    0.45
   1   4  -5   21.85    0.47
   0  -4   5   47.53    0.99
   0  -4   5   46.99    0.98
   0  -4  -5   47.82    0.99
   0  -4  -5   49.10    0.96
   0  -4   5   47.68    0.99
   0  -4  -5   48.85    1.00
   0   4  -5   48.08    0.99
   0   4  -5   48.77    0.98
   0   4  -5   49.55    0.99
   0   4   5   48.05    0.97
   0   4  -5   47.34    0.99
   0   4   5   48.00    1.00
   1  -4   5    8.58    0.21
   1  -4   5    8.81    0.22
   1  -4   5    8.80    0.21
  -1  -4  -5    8.63    0.22
  -1  -4  -5    8.35    0.19
  -1  -4  -5    8.47    0.19
   1   4   5    8.39    0.20
  -1   4  -5    8.30    0.21
   1   4   5    8.24    0.23
  -1   4  -5    8.72    0.21
  -1   4  -5    8.52    0.21
   1   4   5    8.47    0.22
   2  -4   5   17.43    0.38
   2  -4   5   17.39    0.41
  -2  -4  -5   16.83    0.38
   2  -4   5   17.68    0.40
  -2  -4  -5   17.56    0.40
  -2  -4  -5   17.47    0.38
  -2   4  -5   17.57    0.40
  -2   4  -5   18.10    0.40
   2   4   5   16.89    0.40
   2   4   5   17.12    0.39
   2   4   5   16.54    0.42
  -2   4  -5   17.75    0.40
   3  -4   5    6.04    0.20
   3  -4   5    5.94    0.18
  -3  -4  -5    5.78    0.17
  -3  -4  -5    5.65    0.16
  -3   4  -5    5.87    0.19
  -3   4  -5    6.13    0.19
   3   4   5    5.86    0.18
  -3   4  -5    5.82    0.17
   3   4   5    5.65    0.20
   3   4   5    5.73    0.18
   4  -4   5    1.86    0.10
  -4  -4  -5    1.65    0.10
   4  -4   5    1.98    0.12
  -4   4  -5    1.81    0.11
  -4   4  -5    1.71    0.11
   4   4   5    1.73    0.10
   4   4   5    1.67    0.11
   5  -4   5    0.55    0.08
   5  -4   5    0.57    0.08
   5   4   5    0.61    0.08
  -5   4  -5    0.42    0.07
  -5   4  -5    0.45    0.07
  -5  -5   5    4.50    0.17
  -5  -5   5    4.58    0.18
  -5   5   5    4.66    0.18
   5   5  -5    4.58    0.18
  -5   5   5    4.63    0.18
  -4  -5   5    0.64    0.07
  -4  -5   5    0.49    0.06
   4  -5  -5    0.55    0.06
   4  -5  -5    0.48    0.06
   4   5  -5    0.52    0.07
   4   5  -5    0.49    0.08
   4   5  -5    0.48    0.06
  -4   5   5    0.49    0.06
  -4   5   5    0.68    0.07
   3  -5  -5    9.11    0.23
  -3  -5   5    9.42    0.25
   3  -5  -5    9.15    0.25
   3  -5  -5    9.44    0.25
  -3  -5   5    9.18    0.24
   3   5  -5    9.30    0.25
   3   5  -5    9.22    0.27
  -3   5   5    9.07    0.24
   3   5  -5    9.05    0.24
  -3   5   5    9.52    0.24
   2  -5  -5    0.18    0.02
  -2  -5   5    0.14    0.03
   2  -5  -5    0.20    0.04
  -2  -5   5    0.20    0.03
   2  -5  -5    0.18    0.04
  -2   5   5    0.10    0.03
   2   5  -5    0.15    0.03
   2   5  -5    0.15    0.03
  -2   5   5    0.14    0.03
  -2   5   5    0.12    0.03
   2   5  -5    0.17    0.04
  -1  -5   5   16.35    0.34
  -1  -5   5   16.44    0.37
  -1  -5   5   16.40    0.36
   1  -5  -5   16.77    0.35
   1  -5  -5   16.67    0.38
  -1  -5   5   16.36    0.36
  -1   5   5   16.50    0.35
   1   5  -5   16.11    0.37
  -1   5   5   16.76    0.35
   1   5  -5   17.00    0.38
   1   5  -5   16.47    0.38
  -1   5   5   16.52    0.38
   0  -5   5   19.93    0.43
   0  -5   5   18.90    0.42
   0  -5   5   19.42    0.42
   0  -5  -5   19.13    0.43
   0  -5  -5   19.73    0.42
   0   5  -5   19.03    0.42
   0   5  -5   19.71    0.42
   0   5  -5   19.30    0.43
   0   5   5   19.34    0.43
   0   5   5   18.80    0.39
   0   5   5   19.12    0.41
   0   5  -5   19.73    0.42
   1  -5   5    0.30    0.04
   1  -5   5    0.31    0.04
  -1  -5  -5    0.31    0.03
  -1  -5  -5    0.38    0.04
   1  -5   5    0.33    0.04
  -1   5  -5    0.33    0.04
   1   5   5    0.24    0.04
   1   5   5    0.25    0.04
  -1   5  -5    0.32    0.04
  -1   5  -5    0.34    0.04
   1   5   5    0.31    0.03
   2  -5   5   18.34    0.44
   2  -5   5   18.34    0.42
   2  -5   5   17.83    0.41
  -2  -5  -5   18.54    0.41
   2   5   5   18.42    0.45
  -2   5  -5   18.17    0.42
  -2   5  -5   18.74    0.43
   2   5   5   18.70    0.42
   2   5   5   18.60    0.42
  -2   5  -5   18.87    0.43
   3  -5   5   13.43    0.33
   3  -5   5   13.30    0.35
  -3  -5  -5   13.09    0.32
   3   5   5   13.49    0.33
  -3   5  -5   13.53    0.32
  -3   5  -5   13.14    0.34
   3   5   5   13.45    0.35
  -3   5  -5   13.39    0.34
   3   5   5   12.84    0.36
  -4  -5  -5    0.54    0.06
   4  -5   5    0.59    0.07
   4  -5   5    0.70    0.08
   4   5   5    0.68    0.08
   4   5   5    0.50    0.07
  -4   5  -5    0.71    0.08
  -4   5  -5    0.43    0.07
   5  -5   5    2.61    0.15
   5  -5   5    2.44    0.17
   5  -5   5    2.94    0.14
  -5   5  -5    2.47    0.14
  -5   5  -5    2.55    0.15
   5   5   5    2.54    0.14
  -5  -6   5    0.48    0.07
   5  -6  -5    0.32    0.06
  -5   6   5    0.55    0.08
  -5   6   5    0.49    0.07
   5   6  -5    0.41    0.07
  -4  -6   5    0.63    0.06
   4  -6  -5    0.82    0.08
  -4  -6   5    0.63    0.07
   4   6  -5    0.52    0.08
   4   6  -5    0.70    0.07
  -4   6   5    0.69    0.07
  -4   6   5    0.78    0.08
   4   6  -5    0.47    0.06
  -3  -6   5    0.07    0.04
  -3  -6   5    0.08    0.03
   3  -6  -5    0.09    0.04
   3  -6  -5    0.12    0.04
   3   6  -5    0.09    0.04
   3   6  -5    0.08    0.05
  -3   6   5    0.10    0.03
  -3   6   5    0.04    0.04
   3   6  -5    0.06    0.03
  -2  -6   5    3.67    0.11
   2  -6  -5    3.57    0.13
   2  -6  -5    3.50    0.13
  -2   6   5    3.59    0.11
   2   6  -5    3.56    0.12
   2   6  -5    3.90    0.13
   2   6  -5    3.72    0.14
  -2   6   5    3.42    0.13
  -2   6   5    3.59    0.11
  -1  -6   5   57.63    1.13
  -1  -6   5   55.08    1.15
   1  -6  -5   57.40    1.13
  -1  -6   5   53.25    1.14
   1  -6  -5   55.50    1.16
  -1   6   5   56.19    1.16
  -1   6   5   55.14    1.12
  -1   6   5   54.54    1.12
   1   6  -5   56.94    1.16
   1   6  -5   55.45    1.15
   1   6  -5   55.32    1.14
   0  -6  -5    1.56    0.08
   0  -6  -5    1.52    0.07
   0  -6   5    1.71    0.08
   0  -6   5    1.65    0.07
   0  -6   5    1.68    0.06
   0   6  -5    1.73    0.07
   0   6  -5    1.86    0.07
   0   6   5    1.57    0.08
   0   6   5    1.53    0.05
   0   6   5    1.61    0.05
   0   6  -5    1.75    0.08
   0   6  -5    1.75    0.07
   1  -6   5    5.26    0.16
   1  -6   5    5.35    0.15
   1  -6   5    5.17    0.15
  -1   6  -5    5.35    0.15
  -1   6  -5    5.35    0.15
   1   6   5    5.23    0.14
  -1   6  -5    5.22    0.16
   1   6   5    5.33    0.16
   1   6   5    5.13    0.17
   2  -6   5    0.63    0.06
   2  -6   5    0.73    0.08
   2  -6   5    0.74    0.06
  -2  -6  -5    0.76    0.05
  -2   6  -5    0.65    0.06
   2   6   5    0.79    0.08
  -2   6  -5    0.77    0.07
   2   6   5    0.74    0.06
  -2   6  -5    0.63    0.06
   2   6   5    0.78    0.07
   3  -6   5   16.16    0.41
   3  -6   5   15.97    0.39
  -3  -6  -5   15.68    0.38
  -3   6  -5   15.78    0.40
  -3   6  -5   16.45    0.40
   3   6   5   15.81    0.42
   3   6   5   16.72    0.39
   4  -6   5    0.09    0.05
   4  -6   5    0.08    0.04
   4  -6   5   -0.01    0.05
  -4   6  -5    0.07    0.05
   4   6   5    0.05    0.04
  -4   6  -5    0.00    0.03
   5  -6   5    0.87    0.10
   5  -6   5    0.82    0.11
   5  -6   5    0.81    0.09
   5   6   5    0.75    0.09
  -5   6  -5    0.70    0.09
  -5   6  -5    0.75    0.09
  -5  -7   5    0.12    0.05
   5  -7  -5    0.08    0.05
  -5   7   5    0.08    0.05
  -5   7   5    0.11    0.05
   5   7  -5    0.09    0.04
   4  -7  -5    0.22    0.05
  -4  -7   5    0.29    0.07
  -4  -7   5    0.27    0.05
  -4   7   5    0.24    0.05
  -4   7   5    0.38    0.06
   4   7  -5    0.18    0.05
   4   7  -5    0.30    0.05
   4   7  -5    0.19    0.07
   3  -7  -5    0.28    0.05
  -3  -7   5    0.19    0.04
  -3  -7   5    0.33    0.05
   3  -7  -5    0.27    0.04
  -3  -7   5    0.27    0.04
  -3   7   5    0.26    0.05
   3   7  -5    0.21    0.04
   3   7  -5    0.20    0.06
  -3   7   5    0.22    0.04
   3   7  -5    0.24    0.04
  -2  -7   5    1.96    0.08
  -2  -7   5    2.09    0.09
   2  -7  -5    1.90    0.09
   2   7  -5    2.11    0.09
  -2   7   5    2.08    0.10
  -2   7   5    1.83    0.08
   2   7  -5    2.14    0.11
  -2   7   5    1.97    0.08
   2   7  -5    2.05    0.09
  -1  -7   5   21.98    0.49
  -1  -7   5   22.14    0.47
   1  -7  -5   22.86    0.49
   1  -7  -5   21.53    0.50
  -1  -7   5   21.62    0.47
  -1   7   5   22.20    0.50
  -1   7   5   21.56    0.46
   1   7  -5   23.04    0.50
  -1   7   5   22.44    0.46
   1   7  -5   21.87    0.50
   1   7  -5   21.82    0.48
   0  -7   5    7.04    0.19
   0  -7   5    7.02    0.18
   0  -7   5    6.93    0.18
   0  -7  -5    6.64    0.19
   0  -7  -5    6.58    0.18
   0  -7   5    6.76    0.17
   0   7  -5    7.14    0.18
   0   7  -5    6.94    0.19
   0   7   5    6.47    0.16
   0   7  -5    6.91    0.18
   0   7   5    6.46    0.19
   0   7  -5    7.21    0.19
   1  -7   5    2.19    0.10
   1  -7   5    2.04    0.09
   1  -7   5    2.22    0.08
  -1   7  -5    2.24    0.10
   1   7   5    2.20    0.09
  -1   7  -5    2.23    0.09
   1   7   5    2.29    0.08
  -1   7  -5    2.22    0.09
   1   7   5    2.18    0.11
   2  -7   5   22.22    0.52
  -2  -7  -5   22.05    0.52
   2  -7   5   22.52    0.50
   2  -7   5   22.45    0.49
  -2   7  -5   22.51    0.50
   2   7   5   21.61    0.53
   2   7   5   21.76    0.49
  -2   7  -5   22.86    0.51
   2   7   5   21.90    0.50
  -2   7  -5   22.77    0.51
   3  -7   5    0.06    0.04
   3  -7   5    0.06    0.03
   3  -7   5    0.00    0.04
  -3   7  -5    0.09    0.04
   3   7   5    0.08    0.04
   3   7   5    0.04    0.03
  -3   7  -5   -0.03    0.04
   4  -7   5    1.41    0.12
   4  -7   5    1.55    0.11
   4  -7   5    1.53    0.09
  -4   7  -5    1.61    0.10
   4   7   5    1.52    0.10
  -4   7  -5    1.49    0.11
   5  -8  -5    1.28    0.11
  -5  -8   5    1.40    0.11
  -5   8   5    1.43    0.11
   5   8  -5    1.12    0.10
  -5   8   5    1.31    0.11
  -4  -8   5    3.28    0.14
   4  -8  -5    3.06    0.14
   4   8  -5    3.25    0.14
  -4   8   5    3.05    0.13
   4   8  -5    3.30    0.14
  -4   8   5    2.94    0.14
  -3  -8   5    0.20    0.04
   3  -8  -5    0.33    0.05
  -3  -8   5    0.34    0.05
  -3   8   5    0.30    0.04
  -3   8   5    0.32    0.05
   3   8  -5    0.31    0.05
   3   8  -5    0.17    0.06
   3   8  -5    0.23    0.05
  -2  -8   5    0.25    0.04
  -2  -8   5    0.21    0.04
   2  -8  -5    0.18    0.04
   2   8  -5    0.22    0.04
  -2   8   5    0.17    0.04
  -2   8   5    0.15    0.03
   2   8  -5    0.25    0.04
   2   8  -5    0.22    0.05
   1  -8  -5    8.69    0.23
   1  -8  -5    8.98    0.24
  -1  -8   5    8.44    0.20
  -1  -8   5    8.41    0.21
  -1  -8   5    8.84    0.23
   1   8  -5    8.47    0.22
  -1   8   5    8.33    0.20
  -1   8   5    8.70    0.24
   1   8  -5    8.64    0.23
   1   8  -5    8.74    0.23
   0  -8  -5    8.09    0.21
   0  -8   5    8.23    0.20
   0  -8   5    7.88    0.22
   0  -8   5    8.13    0.21
   0  -8  -5    8.10    0.23
   0  -8   5    8.03    0.19
   0   8   5    7.77    0.22
   0   8  -5    7.96    0.21
   0   8   5    8.54    0.22
   0   8  -5    7.77    0.22
   0   8  -5    8.11    0.20
   0   8  -5    8.36    0.22
   1  -8   5    6.08    0.18
   1  -8   5    5.58    0.18
   1  -8   5    6.00    0.16
  -1  -8  -5    6.23    0.19
  -1  -8  -5    5.80    0.19
   1  -8   5    6.10    0.18
  -1   8  -5    6.11    0.18
  -1   8  -5    5.78    0.18
   1   8   5    5.84    0.17
  -1   8  -5    5.93    0.17
   1   8   5    5.98    0.20
   2  -8   5    9.45    0.24
   2  -8   5    9.35    0.27
   2  -8   5    9.27    0.25
   2  -8   5    9.49    0.27
  -2   8  -5    9.65    0.25
  -2   8  -5    9.41    0.25
   2   8   5    9.63    0.28
   2   8   5    9.44    0.25
  -2   8  -5    9.34    0.26
   3  -8   5    1.64    0.08
   3  -8   5    1.80    0.11
   3  -8   5    1.64    0.12
  -3   8  -5    1.85    0.10
   3   8   5    1.85    0.13
   3   8   5    1.61    0.11
  -3   8  -5    1.67    0.11
   4  -8   5    7.76    0.26
   4  -8   5    7.59    0.27
   4   8   5    7.62    0.24
  -4   8  -5    7.72    0.25
  -4   8  -5    7.57    0.25
  -5  -9   5    0.11    0.05
   5  -9  -5    0.22    0.06
  -5   9   5    0.16    0.06
  -5   9   5    0.19    0.06
   5   9  -5    0.18    0.06
   5   9  -5    0.17    0.05
  -4  -9   5    0.10    0.04
   4  -9  -5    0.26    0.06
   4   9  -5    0.17    0.05
   4   9  -5    0.07    0.04
  -4   9   5    0.12    0.04
  -4   9   5    0.16    0.05
  -3  -9   5    8.42    0.23
   3  -9  -5    8.01    0.25
   3   9  -5    8.42    0.23
   3   9  -5    8.18    0.26
   3   9  -5    7.53    0.24
  -3   9   5    8.03    0.23
  -2  -9   5    0.78    0.07
   2  -9  -5    0.99    0.08
   2  -9  -5    0.85    0.07
   2   9  -5    0.82    0.07
   2   9  -5    0.86    0.06
  -2   9   5    0.86    0.07
  -2   9   5    0.72    0.06
   2   9  -5    0.82    0.09
   1  -9  -5   41.56    0.87
  -1  -9   5   40.41    0.87
   1  -9  -5   39.76    0.88
   1   9  -5   40.49    0.86
  -1   9   5   41.66    0.88
   1   9  -5   42.95    0.88
   1   9  -5   40.56    0.88
  -1   9   5   39.82    0.86
   0  -9   5    0.50    0.05
   0  -9  -5    0.40    0.05
   0  -9   5    0.41    0.05
   0  -9   5    0.45    0.05
   0  -9  -5    0.52    0.05
   0   9  -5    0.49    0.05
   0   9  -5    0.41    0.05
   0   9   5    0.42    0.05
   0   9   5    0.48    0.05
   0   9  -5    0.48    0.06
  -1  -9  -5   31.58    0.71
   1  -9   5   32.90    0.71
   1  -9   5   32.44    0.71
   1  -9   5   33.42    0.70
  -1   9  -5   32.95    0.71
  -1   9  -5   32.16    0.70
   1   9   5   31.85    0.73
  -1   9  -5   30.91    0.69
   1   9   5   31.22    0.70
   2  -9   5    0.17    0.04
   2  -9   5    0.17    0.05
   2  -9   5    0.16    0.05
  -2   9  -5    0.18    0.04
  -2   9  -5    0.18    0.04
  -2   9  -5    0.20    0.04
   2   9   5    0.12    0.04
   3  -9   5    0.00    0.04
   3  -9   5    0.03    0.04
   3   9   5    0.00    0.04
  -3   9  -5    0.02    0.03
  -3   9  -5    0.01    0.04
   4  -9   5    0.79    0.10
   4  -9   5    0.60    0.09
  -4   9  -5    0.74    0.09
  -4   9  -5    0.80    0.09
  -5 -10   5    0.82    0.10
   5 -10  -5    0.47    0.08
   5  10  -5    0.53    0.08
   5  10  -5    0.57    0.08
  -5  10   5    0.70    0.09
  -5  10   5    0.54    0.08
  -4 -10   5    5.91    0.21
   4 -10  -5    5.85    0.22
  -4  10   5    5.97    0.21
   4  10  -5    6.31    0.21
   4  10  -5    5.67    0.21
   3 -10  -5    0.03    0.04
  -3 -10   5    0.07    0.04
   3  10  -5    0.04    0.05
   3  10  -5    0.10    0.04
  -3  10   5   -0.01    0.03
   3  10  -5    0.03    0.04
   2 -10  -5    0.29    0.05
  -2 -10   5    0.32    0.05
   2 -10  -5    0.34    0.05
  -2  10   5    0.37    0.06
   2  10  -5    0.34    0.05
   2  10  -5    0.43    0.07
  -2  10   5    0.24    0.04
   2  10  -5    0.34    0.05
   1 -10  -5    7.94    0.22
   1 -10  -5    7.75    0.23
  -1 -10   5    7.53    0.22
   1  10  -5    7.51    0.22
   1  10  -5    7.14    0.20
  -1  10   5    7.56    0.22
   1  10  -5    7.50    0.22
   0 -10  -5    7.12    0.22
   0 -10  -5    7.15    0.20
   0 -10   5    7.02    0.21
   0 -10   5    7.47    0.20
   0 -10   5    7.13    0.21
   0  10  -5    7.24    0.19
   0  10   5    7.00    0.22
   0  10  -5    7.24    0.21
   0  10  -5    7.50    0.21
   0  10   5    7.18    0.21
   1 -10   5    0.03    0.04
   1 -10   5    0.08    0.04
   1 -10   5    0.06    0.04
  -1 -10  -5    0.06    0.04
  -1  10  -5    0.03    0.03
  -1  10  -5    0.07    0.03
  -1  10  -5   -0.02    0.03
   1  10   5    0.04    0.03
   1  10   5    0.04    0.03
   2 -10   5    2.78    0.13
   2 -10   5    3.05    0.12
   2 -10   5    2.66    0.13
  -2  10  -5    2.81    0.13
   2  10   5    2.66    0.14
  -2  10  -5    2.78    0.12
   3 -10   5    0.13    0.05
   3 -10   5    0.18    0.06
  -3  10  -5    0.17    0.04
  -3  10  -5    0.07    0.04
   4 -10   5    0.41    0.08
   4 -10   5    0.41    0.08
  -4  10  -5    0.36    0.07
  -4  10  -5    0.38    0.08
   4 -11  -5    3.37    0.16
  -4  11   5    3.28    0.16
   4  11  -5    3.47    0.16
   4  11  -5    3.40    0.15
  -3 -11   5    4.30    0.16
   3 -11  -5    4.36    0.17
   3  11  -5    3.91    0.16
   3  11  -5    4.14    0.19
  -3  11   5    3.95    0.19
   3  11  -5    4.07    0.15
  -2 -11   5    3.75    0.14
   2 -11  -5    3.63    0.15
   2 -11  -5    3.67    0.15
   2  11  -5    3.82    0.16
   2  11  -5    3.90    0.15
  -2  11   5    3.69    0.15
   2  11  -5    3.69    0.13
   1 -11  -5    1.43    0.10
  -1 -11   5    1.31    0.09
   1 -11  -5    1.39    0.09
   1  11  -5    1.44    0.09
   1  11  -5    1.35    0.09
   1  11  -5    1.45    0.08
  -1  11   5    1.52    0.09
   0 -11  -5    1.89    0.09
   0 -11   5    1.91    0.10
   0 -11   5    1.91    0.09
   0 -11  -5    1.82    0.10
   0  11  -5    1.95    0.10
   0  11  -5    1.74    0.08
   0  11   5    1.99    0.10
   0  11  -5    1.87    0.10
   0  11   5    1.96    0.11
   1 -11   5    1.89    0.10
   1 -11   5    1.95    0.10
   1 -11   5    1.92    0.10
  -1 -11  -5    1.99    0.11
   1  11   5    1.94    0.11
  -1  11  -5    1.90    0.10
  -1  11  -5    1.89    0.09
  -1  11  -5    1.71    0.10
   1  11   5    1.94    0.10
   2 -11   5    0.17    0.05
   2 -11   5    0.21    0.05
   2 -11   5    0.21    0.05
  -2  11  -5    0.32    0.05
   2  11   5    0.19    0.06
  -2  11  -5    0.23    0.05
   3 -11   5    0.12    0.05
   3 -11   5    0.01    0.04
   3 -11   5   -0.03    0.03
  -3  11  -5    0.03    0.03
  -3  11  -5   -0.02    0.04
   4 -11   5    0.10    0.06
   4 -11   5    0.18    0.07
  -4  11  -5    0.14    0.05
  -4  11  -5    0.01    0.06
   4 -12  -5    0.44    0.08
   4  12  -5    0.27    0.06
   3 -12  -5    8.04    0.26
  -3 -12   5    8.09    0.24
   3 -12  -5    8.05    0.26
  -3  12   5    8.04    0.26
   3  12  -5    8.38    0.34
   3  12  -5    8.00    0.26
   2 -12  -5    1.56    0.10
   2 -12  -5    1.53    0.10
  -2 -12   5    1.79    0.10
   2  12  -5    1.41    0.11
   2  12  -5    1.48    0.10
  -2  12   5    1.60    0.10
   1 -12  -5    8.52    0.26
  -1 -12   5    8.67    0.25
   1 -12  -5    8.39    0.24
  -1  12   5    8.89    0.26
   1  12  -5    8.85    0.25
  -1  12   5    8.31    0.25
   0 -12   5    1.60    0.10
   0 -12  -5    1.63    0.10
   0 -12  -5    1.64    0.09
   0 -12   5    1.62    0.09
   0  12  -5    1.40    0.09
   0  12  -5    1.62    0.10
   0  12   5    1.65    0.09
   0  12   5    1.73    0.10
  -1 -12  -5    1.47    0.10
   1 -12   5    1.46    0.09
   1 -12   5    1.51    0.10
   1 -12   5    1.60    0.09
   1  12   5    1.46    0.10
  -1  12  -5    1.31    0.09
  -1  12  -5    1.44    0.09
   1  12   5    1.50    0.09
   2 -12   5    0.31    0.06
   2 -12   5    0.29    0.06
   2 -12   5    0.27    0.06
  -2  12  -5    0.26    0.06
  -2  12  -5    0.26    0.05
   3 -12   5    5.44    0.21
   3 -12   5    5.46    0.22
   3 -12   5    5.19    0.19
  -3  12  -5    5.47    0.21
  -3  12  -5    5.57    0.19
   4 -12   5    0.50    0.09
  -4  12  -5    0.29    0.08
   4 -13  -5    0.37    0.07
   4  13  -5    0.38    0.07
  -3 -13   5    3.58    0.15
   3 -13  -5    3.56    0.16
   3 -13  -5    3.48    0.17
  -3  13   5    3.73    0.17
   3  13  -5    3.66    0.17
  -2 -13   5    0.61    0.07
   2 -13  -5    0.49    0.07
   2 -13  -5    0.35    0.06
   2  13  -5    0.51    0.08
   2  13  -5    0.52    0.07
  -2  13   5    0.62    0.08
   1 -13  -5    0.86    0.08
   1 -13  -5    0.90    0.09
  -1 -13   5    0.79    0.08
   1  13  -5    0.76    0.08
  -1  13   5    0.89    0.08
   0 -13  -5    0.67    0.08
   0 -13   5    0.78    0.08
   0 -13  -5    0.59    0.06
   0  13  -5    0.71    0.08
   0  13   5    0.72    0.07
   0  13   5    0.65    0.07
   0  13  -5    0.74    0.07
  -1 -13  -5    0.74    0.08
   1 -13   5    0.77    0.07
   1 -13   5    0.67    0.08
   1 -13   5    0.62    0.07
  -1  13  -5    0.65    0.07
   1  13   5    0.73    0.08
  -1  13  -5    0.76    0.08
   2 -13   5    4.10    0.17
   2 -13   5    4.36    0.17
   2 -13   5    4.16    0.17
  -2  13  -5    3.98    0.17
   3 -13   5   -0.02    0.04
   3 -13   5    0.10    0.05
   3 -13   5    0.08    0.05
  -3  13  -5    0.12    0.05
  -3  13  -5    0.07    0.06
   4 -14  -5    0.06    0.05
  -4  14   5    0.19    0.06
   4  14  -5    0.02    0.05
  -3 -14   5    1.59    0.11
   3 -14  -5    1.76    0.13
   3 -14  -5    1.74    0.13
  -3  14   5    1.75    0.12
   3  14  -5    1.32    0.11
  -2 -14   5    0.10    0.04
   2 -14  -5    0.09    0.05
   2 -14  -5    0.13    0.05
   2  14  -5    0.06    0.04
  -2  14   5    0.04    0.04
   1 -14  -5    0.86    0.08
   1 -14  -5    0.84    0.09
  -1 -14   5    1.04    0.09
   1  14  -5    0.84    0.08
   1  14  -5    0.96    0.09
  -1  14   5    0.78    0.08
   0 -14   5    0.16    0.05
   0 -14  -5    0.30    0.06
   0 -14  -5    0.18    0.05
   0  14  -5    0.26    0.06
   0  14   5    0.18    0.05
   0  14  -5    0.16    0.04
   0  14   5    0.31    0.05
  -1 -14  -5    2.20    0.13
   1 -14   5    2.20    0.12
   1 -14   5    2.41    0.13
  -1  14  -5    2.05    0.12
   2 -14   5    2.34    0.13
   2 -14   5    2.02    0.13
   2 -14   5    2.17    0.13
  -2  14  -5    2.42    0.14
   3 -14   5    3.19    0.17
   3 -14   5    3.67    0.18
   3 -14   5    3.28    0.16
  -3  14  -5    3.12    0.17
  -3 -15   5    0.13    0.05
   3 -15  -5    0.01    0.05
   3 -15  -5    0.08    0.05
   3  15  -5    0.03    0.05
  -3  15   5    0.14    0.05
  -2 -15   5    1.82    0.11
   2 -15  -5    1.82    0.12
   2 -15  -5    1.77    0.12
   2  15  -5    1.79    0.12
  -2  15   5    1.73    0.12
   1 -15  -5    0.05    0.04
  -1 -15   5    0.07    0.04
   1 -15  -5    0.06    0.04
  -1  15   5    0.04    0.04
   1  15  -5   -0.01    0.04
   1  15  -5    0.03    0.04
   0 -15   5    1.72    0.11
   0 -15  -5    1.51    0.11
   0 -15  -5    1.42    0.10
   0  15   5    1.63    0.12
   0  15   5    1.69    0.10
   0  15  -5    1.68    0.11
   0  15  -5    1.52    0.11
   1 -15   5    3.11    0.15
  -1 -15  -5    3.14    0.15
   1  15   5    2.95    0.14
  -1  15  -5    2.89    0.15
   2 -15   5    4.62    0.19
   2 -15   5    3.92    0.18
   2  15   5    4.39    0.18
  -2  15  -5    4.48    0.19
   3 -16  -5    0.01    0.06
   3 -16  -5    0.00    0.05
   3  16  -5    0.09    0.06
  -3  16   5    0.06    0.05
   2 -16  -5    1.13    0.11
  -2 -16   5    0.96    0.09
   2 -16  -5    1.08    0.10
  -2  16   5    0.90    0.10
   2  16  -5    1.10    0.11
  -1 -16   5    1.71    0.12
   1 -16  -5    1.49    0.11
   1 -16  -5    1.57    0.12
  -1  16   5    1.60    0.11
   1  16  -5    1.85    0.12
   1  16  -5    1.39    0.11
   0 -16   5    1.40    0.11
   0 -16  -5    1.07    0.09
   0 -16  -5    1.28    0.11
   0  16  -5    1.33    0.11
   0  16  -5    1.07    0.10
   1 -16   5    0.55    0.08
  -1 -16  -5    0.49    0.08
   1  16   5    0.54    0.07
  -1  16  -5    0.42    0.07
   2 -16   5    1.18    0.11
   2  16   5    1.06    0.10
  -2  16  -5    0.98    0.11
   2 -17  -5    0.08    0.05
   2 -17  -5    0.04    0.05
  -2 -17   5    0.16    0.05
   2  17  -5    0.07    0.06
  -2  17   5    0.08    0.06
   1 -17  -5   -0.04    0.04
   1 -17  -5    0.09    0.06
  -1 -17   5    0.01    0.05
   1  17  -5   -0.01    0.04
   1  17  -5   -0.03    0.05
  -1  17   5   -0.04    0.04
   0 -17  -5    0.12    0.06
   0 -17   5    0.07    0.05
   0  17  -5    0.06    0.05
   0  17  -5    0.09    0.05
   1 -17   5    0.87    0.10
  -1 -17  -5    0.85    0.11
   1  17   5    0.80    0.09
  -1  17  -5    0.94    0.10
  -1 -18   5    0.25    0.07
   1 -18  -5    0.12    0.06
   1 -18  -5    0.07    0.06
   1  18  -5    0.13    0.06
   1  18  -5    0.13    0.06
  -1  18   5    0.18    0.06
   0 -18   5    0.72    0.09
   0 -18  -5    0.81    0.10
   0  18  -5    0.76    0.10
  -6   0   6    2.52    0.15
   6   0  -6    2.49    0.14
  -6   0   6    2.64    0.15
  -5   0   6    0.07    0.04
  -5   0   6    0.14    0.05
   5   0  -6    0.09    0.04
   4   0  -6    4.31    0.18
  -4   0   6    4.88    0.16
  -4   0   6    4.49    0.16
   4   0  -6    4.50    0.16
   3   0  -6    0.03    0.04
  -3   0   6    0.00    0.02
  -3   0   6    0.02    0.03
   3   0  -6    0.03    0.03
   3   0  -6    0.03    0.03
  -3   0   6    0.00    0.03
  -2   0   6    3.27    0.10
   2   0  -6    3.25    0.09
   2   0  -6    3.18    0.10
   2   0  -6    3.28    0.11
   2   0  -6    3.06    0.12
  -2   0   6    3.08    0.10
  -2   0   6    3.29    0.11
   1   0  -6    0.08    0.02
   1   0  -6    0.14    0.03
  -1   0   6    0.11    0.03
   1   0  -6    0.08    0.03
  -1   0   6    0.10    0.03
   1   0  -6    0.09    0.03
   0   0  -6    0.89    0.05
   0   0   6    0.98    0.05
   0   0  -6    0.95    0.06
   0   0   6    1.04    0.06
   0   0  -6    1.01    0.03
   0   0  -6    1.01    0.06
  -1   0  -6    0.09    0.03
   1   0   6    0.02    0.03
   1   0   6    0.06    0.02
  -1   0  -6    0.09    0.03
  -1   0  -6    0.08    0.02
  -2   0  -6    4.20    0.14
  -2   0  -6    4.24    0.14
   2   0   6    4.48    0.14
   2   0   6    4.21    0.14
   2   0   6    4.27    0.15
  -2   0  -6    4.22    0.13
   3   0   6    0.04    0.04
  -3   0  -6    0.03    0.03
  -3   0  -6    0.02    0.03
   3   0   6    0.02    0.04
  -3   0  -6   -0.05    0.03
  -4   0  -6    2.50    0.12
  -4   0  -6    2.55    0.12
   4   0   6    2.61    0.13
   4   0   6    2.65    0.13
  -4   0  -6    2.74    0.12
  -5   0  -6    0.03    0.05
  -5   0  -6    0.01    0.04
   5   0   6    0.04    0.05
  -6  -1   6    0.13    0.06
  -6  -1   6    0.08    0.06
   6  -1  -6    0.10    0.05
  -6   1   6    0.10    0.06
  -6   1   6    0.05    0.05
   6   1  -6    0.16    0.06
   5  -1  -6    0.29    0.06
   5  -1  -6    0.29    0.07
  -5  -1   6    0.38    0.07
  -5  -1   6    0.42    0.07
   5   1  -6    0.31    0.06
  -5   1   6    0.42    0.07
  -5   1   6    0.34    0.06
   4  -1  -6    0.65    0.08
  -4  -1   6    0.84    0.08
   4  -1  -6    0.74    0.07
  -4  -1   6    0.88    0.08
   4   1  -6    1.00    0.10
   4   1  -6    0.79    0.07
  -4   1   6    0.80    0.07
  -4   1   6    0.77    0.07
  -3  -1   6   32.16    0.69
   3  -1  -6   32.09    0.69
  -3  -1   6   31.39    0.69
  -3  -1   6   32.56    0.68
   3  -1  -6   31.00    0.71
   3  -1  -6   31.84    0.67
  -3   1   6   32.13    0.68
  -3   1   6   31.52    0.69
   3   1  -6   30.77    0.72
  -3   1   6   32.52    0.68
   3   1  -6   32.44    0.67
  -2  -1   6   82.36    1.68
   2  -1  -6   79.21    1.69
  -2  -1   6   84.22    1.67
   2  -1  -6   81.92    1.66
   2  -1  -6   83.80    1.66
   2  -1  -6   83.20    1.67
  -2  -1   6   82.08    1.66
  -2   1   6   79.38    1.67
   2   1  -6   85.13    1.68
   2   1  -6   83.28    1.70
   2   1  -6   82.40    1.65
  -2   1   6   82.29    1.66
   2   1  -6   83.74    1.67
  -2   1   6   83.53    1.68
   1  -1  -6    0.42    0.04
   1  -1  -6    0.41    0.05
   1  -1  -6    0.38    0.04
   1   1  -6    0.46    0.04
  -1   1   6    0.42    0.04
   1   1  -6    0.50    0.04
   1   1  -6    0.54    0.05
  -1   1   6    0.44    0.04
   0  -1   6   17.36    0.38
   0  -1   6   17.67    0.39
   0  -1  -6   17.33    0.38
   0  -1  -6   17.22    0.39
   0   1   6   17.44    0.39
   0   1  -6   17.46    0.36
   0   1   6   16.83    0.38
   0   1  -6   17.18    0.38
   0   1  -6   17.55    0.39
   0   1  -6   17.98    0.39
   1  -1   6    0.83    0.05
  -1  -1  -6    0.90    0.05
  -1  -1  -6    0.82    0.06
   1  -1   6    0.77    0.05
   1  -1   6    0.97    0.07
  -1  -1  -6    0.85    0.04
   1   1   6    0.80    0.06
  -1   1  -6    0.81    0.06
  -1   1  -6    0.88    0.05
  -1   1  -6    0.85    0.05
   1   1   6    0.81    0.05
  -2  -1  -6    0.93    0.07
   2  -1   6    0.99    0.07
  -2  -1  -6    1.00    0.06
  -2  -1  -6    0.99    0.06
   2  -1   6    0.96    0.08
   2  -1   6    0.87    0.06
   2   1   6    1.01    0.07
   2   1   6    1.05    0.09
  -2   1  -6    1.08    0.07
  -2   1  -6    0.96    0.07
   2   1   6    0.99    0.07
  -2   1  -6    0.97    0.07
  -3  -1  -6    5.56    0.17
  -3  -1  -6    5.54    0.17
   3  -1   6    5.43    0.18
   3  -1   6    5.52    0.19
  -3  -1  -6    5.67    0.18
  -3   1  -6    5.32    0.18
  -3   1  -6    5.25    0.17
   3   1   6    5.59    0.18
   3   1   6    5.51    0.18
   3   1   6    5.38    0.18
  -3   1  -6    5.68    0.17
   4  -1   6    0.82    0.08
   4  -1   6    0.84    0.09
  -4  -1  -6    0.91    0.08
  -4  -1  -6    1.02    0.08
   4   1   6    0.96    0.08
  -4   1  -6    0.92    0.09
  -4   1  -6    0.80    0.07
   4   1   6    0.95    0.09
  -4   1  -6    0.77    0.08
  -5  -1  -6    4.50    0.18
   5  -1   6    4.41    0.19
  -5   1  -6    4.48    0.19
  -5   1  -6    4.45    0.18
   5   1   6    4.74    0.19
   6  -2  -6    0.75    0.09
  -6  -2   6    0.65    0.09
  -6  -2   6    0.60    0.09
  -6   2   6    0.68    0.10
  -6   2   6    0.79    0.10
   6   2  -6    0.68    0.09
  -5  -2   6    5.98    0.21
   5  -2  -6    5.63    0.19
   5  -2  -6    5.36    0.21
  -5  -2   6    5.70    0.20
  -5   2   6    5.77    0.20
   5   2  -6    5.57    0.20
  -5   2   6    6.00    0.21
   4  -2  -6    3.28    0.15
   4  -2  -6    3.39    0.13
  -4  -2   6    2.89    0.13
  -4  -2   6    3.29    0.13
   4   2  -6    3.26    0.13
   4   2  -6    2.94    0.15
  -4   2   6    3.52    0.14
  -4   2   6    3.35    0.13
   3  -2  -6   13.13    0.32
   3  -2  -6   12.77    0.35
   3  -2  -6   13.36    0.32
  -3  -2   6   13.61    0.33
  -3  -2   6   13.63    0.33
  -3   2   6   13.90    0.33
  -3   2   6   13.64    0.33
   3   2  -6   14.14    0.32
  -3   2   6   13.38    0.32
   3   2  -6   13.51    0.33
   3   2  -6   13.24    0.36
   2  -2  -6   38.77    0.81
  -2  -2   6   40.15    0.82
  -2  -2   6   39.69    0.81
  -2  -2   6   39.20    0.81
   2  -2  -6   40.70    0.80
   2  -2  -6   38.52    0.81
   2  -2  -6   37.65    0.84
   2   2  -6   37.62    0.80
  -2   2   6   38.14    0.81
   2   2  -6   39.34    0.84
   2   2  -6   37.75    0.82
   2   2  -6   39.04    0.81
  -2   2   6   38.98    0.82
  -2   2   6   38.97    0.80
   1  -2  -6   50.54    1.05
  -1  -2   6   51.84    1.05
   1  -2  -6   51.34    1.06
   1  -2  -6   48.52    1.07
  -1  -2   6   51.77    1.05
   1  -2  -6   51.41    1.05
   1   2  -6   53.06    1.07
   1   2  -6   52.22    1.06
   1   2  -6   51.03    1.05
  -1   2   6   51.43    1.05
  -1   2   6   52.09    1.06
  -1   2   6   51.30    1.02
   0  -2  -6    0.04    0.03
   0  -2  -6    0.10    0.02
   0  -2   6    0.12    0.03
   0   2   6    0.08    0.03
   0   2  -6    0.09    0.02
   0   2  -6    0.08    0.03
   0   2  -6    0.09    0.03
   0   2  -6    0.10    0.02
   0   2   6    0.05    0.02
  -1  -2  -6    0.16    0.03
   1  -2   6    0.13    0.03
   1  -2   6    0.12    0.03
   1  -2   6    0.20    0.04
  -1  -2  -6    0.16    0.02
  -1  -2  -6    0.12    0.03
   1   2   6    0.15    0.04
  -1   2  -6    0.10    0.03
  -1   2  -6    0.17    0.03
  -1   2  -6    0.12    0.02
   1   2   6    0.16    0.03
   2  -2   6   32.05    0.70
  -2  -2  -6   31.51    0.67
  -2  -2  -6   33.02    0.70
   2  -2   6   31.58    0.71
  -2  -2  -6   31.96    0.68
   2  -2   6   31.77    0.68
   2   2   6   32.17    0.70
  -2   2  -6   32.37    0.69
  -2   2  -6   32.13    0.69
  -2   2  -6   32.55    0.70
   2   2   6   32.03    0.71
   2   2   6   32.04    0.69
  -3  -2  -6    4.44    0.15
  -3  -2  -6    4.58    0.16
   3  -2   6    4.65    0.17
  -3  -2  -6    4.39    0.15
   3  -2   6    4.39    0.16
   3   2   6    4.47    0.16
  -3   2  -6    4.56    0.16
   3   2   6    4.39    0.16
   3   2   6    4.67    0.16
  -3   2  -6    4.74    0.15
  -3   2  -6    4.25    0.15
   4  -2   6    0.53    0.07
   4  -2   6    0.37    0.06
  -4  -2  -6    0.48    0.06
  -4  -2  -6    0.41    0.06
   4   2   6    0.48    0.07
  -4   2  -6    0.41    0.06
  -4   2  -6    0.37    0.06
   5  -2   6    0.09    0.05
  -5   2  -6    0.13    0.05
  -5   2  -6    0.02    0.05
   5   2   6    0.10    0.05
  -6  -3   6    0.49    0.08
  -6  -3   6    0.46    0.08
  -6   3   6    0.60    0.09
  -6   3   6    0.49    0.08
   5  -3  -6    0.24    0.05
  -5  -3   6    0.24    0.05
  -5  -3   6    0.18    0.05
   5   3  -6    0.23    0.05
  -5   3   6    0.29    0.06
  -5   3   6    0.20    0.05
   4  -3  -6    9.94    0.30
  -4  -3   6   10.94    0.29
   4  -3  -6   10.60    0.28
  -4  -3   6   10.47    0.28
   4   3  -6   10.13    0.32
  -4   3   6   10.84    0.28
  -4   3   6   10.79    0.29
  -4   3   6   10.42    0.28
   4   3  -6   10.55    0.29
  -3  -3   6    1.33    0.08
   3  -3  -6    1.48    0.07
  -3  -3   6    1.47    0.08
   3  -3  -6    1.44    0.09
   3  -3  -6    1.44    0.08
  -3   3   6    1.59    0.08
   3   3  -6    1.23    0.10
   3   3  -6    1.35    0.08
  -3   3   6    1.55    0.08
  -3   3   6    1.59    0.09
   3   3  -6    1.30    0.07
   2  -3  -6    2.08    0.08
  -2  -3   6    2.08    0.07
  -2  -3   6    2.01    0.08
  -2  -3   6    2.08    0.09
   2  -3  -6    2.22    0.09
   2  -3  -6    2.10    0.07
   2  -3  -6    2.08    0.10
   2   3  -6    2.00    0.11
  -2   3   6    2.07    0.07
  -2   3   6    2.16    0.09
   2   3  -6    2.15    0.09
  -2   3   6    2.11    0.08
   2   3  -6    2.08    0.09
  -1  -3   6    5.21    0.14
   1  -3  -6    5.15    0.14
   1  -3  -6    5.07    0.13
   1  -3  -6    5.26    0.15
   1  -3  -6    4.92    0.16
  -1  -3   6    5.30    0.14
  -1   3   6    5.27    0.15
  -1   3   6    5.03    0.14
   1   3  -6    5.04    0.14
   1   3  -6    5.43    0.16
   1   3  -6    5.48    0.15
   0  -3  -6   21.09    0.45
   0  -3   6   21.06    0.45
   0  -3   6   20.48    0.46
   0  -3  -6   21.05    0.44
   0   3  -6   20.75    0.46
   0   3  -6   21.19    0.46
   0   3   6   20.35    0.45
   0   3   6   21.02    0.47
   0   3  -6   20.86    0.44
   0   3  -6   20.50    0.45
  -1  -3  -6   11.78    0.28
  -1  -3  -6   11.38    0.26
  -1  -3  -6   11.12    0.25
   1  -3   6   11.88    0.28
   1  -3   6   11.84    0.29
   1  -3   6   11.35    0.26
  -1   3  -6   11.47    0.28
  -1   3  -6   11.51    0.28
   1   3   6   11.40    0.29
   1   3   6   11.20    0.27
  -1   3  -6   11.60    0.27
   2  -3   6   42.95    0.93
   2  -3   6   44.27    0.92
  -2  -3  -6   44.32    0.90
  -2  -3  -6   43.30    0.92
  -2  -3  -6   42.61    0.90
   2   3   6   43.62    0.92
  -2   3  -6   43.39    0.92
   2   3   6   41.83    0.93
  -2   3  -6   42.83    0.91
   2   3   6   44.39    0.93
  -2   3  -6   44.17    0.91
  -3  -3  -6    4.27    0.14
  -3  -3  -6    4.30    0.15
  -3  -3  -6    4.18    0.14
   3  -3   6    4.16    0.16
   3  -3   6    3.80    0.15
  -3   3  -6    3.93    0.15
  -3   3  -6    4.14    0.14
   3   3   6    4.21    0.16
  -3   3  -6    3.97    0.15
   3   3   6    4.48    0.16
   3   3   6    4.33    0.15
   4  -3   6    3.83    0.16
  -4  -3  -6    3.81    0.18
   4  -3   6    3.78    0.16
  -4   3  -6    3.64    0.16
  -4   3  -6    3.87    0.16
   4   3   6    3.89    0.16
   5  -3   6    3.26    0.16
   5  -3   6    3.58    0.17
  -5   3  -6    3.53    0.17
   5   3   6    3.33    0.16
  -5   3  -6    3.32    0.17
  -5  -4   6    0.52    0.07
  -5  -4   6    0.83    0.08
   5  -4  -6    0.68    0.07
  -5   4   6    0.74    0.08
  -5   4   6    0.68    0.08
   5   4  -6    0.70    0.08
  -4  -4   6    0.97    0.08
   4  -4  -6    0.65    0.06
   4  -4  -6    0.81    0.07
  -4  -4   6    0.96    0.08
   4  -4  -6    0.82    0.08
  -4   4   6    0.74    0.07
  -4   4   6    0.78    0.08
   4   4  -6    0.85    0.09
  -4   4   6    0.79    0.07
   4   4  -6    0.88    0.07
   4   4  -6    0.81    0.08
  -3  -4   6    1.15    0.07
   3  -4  -6    1.10    0.06
   3  -4  -6    1.08    0.09
   3  -4  -6    1.05    0.07
  -3  -4   6    1.08    0.08
  -3   4   6    1.12    0.08
  -3   4   6    1.04    0.07
   3   4  -6    1.24    0.08
   3   4  -6    1.33    0.07
   3   4  -6    1.09    0.10
  -3   4   6    1.11    0.07
  -2  -4   6    3.60    0.10
  -2  -4   6    3.62    0.12
   2  -4  -6    3.65    0.13
   2  -4  -6    3.30    0.12
   2  -4  -6    3.55    0.10
   2  -4  -6    3.60    0.12
  -2  -4   6    3.63    0.12
  -2   4   6    3.63    0.11
   2   4  -6    3.63    0.14
  -2   4   6    3.62    0.12
  -2   4   6    3.52    0.11
   2   4  -6    3.70    0.12
   2   4  -6    3.96    0.13
   1  -4  -6    1.07    0.04
   1  -4  -6    1.01    0.05
   1  -4  -6    0.96    0.07
  -1  -4   6    0.91    0.05
  -1  -4   6    0.94    0.06
   1  -4  -6    1.01    0.06
  -1   4   6    0.98    0.05
  -1   4   6    1.05    0.06
  -1   4   6    1.00    0.03
   1   4  -6    0.99    0.06
   1   4  -6    0.83    0.05
   1   4  -6    1.01    0.07
   0  -4  -6   21.47    0.48
   0  -4   6   22.41    0.48
   0  -4   6   21.95    0.48
   0  -4   6   21.75    0.48
   0  -4  -6   22.22    0.46
   0  -4  -6   21.52    0.49
   0   4  -6   22.40    0.48
   0   4   6   22.00    0.49
   0   4  -6   22.23    0.47
   0   4  -6   22.10    0.49
   0   4   6   21.89    0.47
   0   4  -6   21.95    0.48
  -1  -4  -6    2.87    0.09
   1  -4   6    2.95    0.10
   1  -4   6    2.85    0.12
  -1  -4  -6    2.88    0.11
   1  -4   6    3.01    0.10
  -1   4  -6    2.98    0.11
   1   4   6    2.76    0.11
  -1   4  -6    2.95    0.11
  -1   4  -6    2.98    0.10
   1   4   6    2.95    0.10
  -2  -4  -6    0.05    0.02
   2  -4   6    0.08    0.04
   2  -4   6    0.08    0.04
   2  -4   6    0.07    0.05
  -2  -4  -6    0.08    0.04
  -2   4  -6    0.10    0.04
   2   4   6    0.09    0.03
   2   4   6    0.05    0.03
   2   4   6    0.03    0.04
  -2   4  -6    0.09    0.04
  -2   4  -6    0.14    0.04
   3  -4   6   13.69    0.35
   3  -4   6   13.58    0.36
  -3   4  -6   13.89    0.35
   3   4   6   13.56    0.37
  -3   4  -6   13.74    0.34
  -3   4  -6   13.49    0.35
   3   4   6   14.11    0.35
   3   4   6   13.57    0.35
   4  -4   6    0.08    0.04
   4  -4   6    0.09    0.05
  -4   4  -6    0.00    0.04
   4   4   6    0.01    0.03
   4   4   6   -0.02    0.05
  -4   4  -6    0.09    0.05
   5  -4   6    0.11    0.05
   5  -4   6    0.28    0.07
   5   4   6    0.15    0.06
  -5   4  -6    0.11    0.05
  -5   4  -6    0.10    0.06
  -5  -5   6    0.77    0.09
  -5  -5   6    0.88    0.09
  -5   5   6    0.76    0.08
  -5   5   6    0.80    0.09
   5   5  -6    0.69    0.08
  -4  -5   6    0.90    0.08
   4  -5  -6    0.88    0.08
   4  -5  -6    0.97    0.08
  -4  -5   6    0.82    0.07
   4  -5  -6    0.94    0.08
  -4   5   6    1.00    0.08
  -4   5   6    0.87    0.08
   4   5  -6    0.96    0.08
  -4   5   6    0.94    0.08
   4   5  -6    0.86    0.07
   4   5  -6    0.74    0.09
  -3  -5   6    0.24    0.04
   3  -5  -6    0.21    0.03
  -3  -5   6    0.18    0.04
   3  -5  -6    0.21    0.04
   3  -5  -6    0.30    0.05
  -3   5   6    0.27    0.05
   3   5  -6    0.22    0.04
   3   5  -6    0.19    0.04
   3   5  -6    0.17    0.06
  -3   5   6    0.26    0.04
  -3   5   6    0.24    0.05
   2  -5  -6    2.21    0.10
   2  -5  -6    2.36    0.10
  -2  -5   6    2.14    0.09
   2  -5  -6    2.20    0.07
  -2   5   6    2.03    0.08
   2   5  -6    2.27    0.10
  -2   5   6    2.27    0.08
   2   5  -6    2.23    0.11
  -2   5   6    2.24    0.10
   2   5  -6    2.16    0.09
  -1  -5   6    6.36    0.16
  -1  -5   6    6.35    0.17
   1  -5  -6    6.08    0.18
   1  -5  -6    6.33    0.16
   1  -5  -6    6.18    0.14
   1   5  -6    6.43    0.18
  -1   5   6    6.20    0.16
  -1   5   6    6.09    0.18
   1   5  -6    6.12    0.17
   1   5  -6    6.46    0.18
   0  -5  -6   61.49    1.23
   0  -5  -6   59.66    1.24
   0  -5   6   60.38    1.23
   0  -5   6   60.07    1.23
   0  -5   6   58.92    1.23
   0   5  -6   59.62    1.24
   0   5   6   59.48    1.21
   0   5   6   59.83    1.24
   0   5  -6   59.61    1.23
   0   5  -6   60.37    1.23
   0   5  -6   60.37    1.23
   1  -5   6   12.35    0.29
  -1  -5  -6   12.71    0.30
   1  -5   6   12.20    0.29
   1  -5   6   12.41    0.31
   1   5   6   12.62    0.29
  -1   5  -6   12.65    0.30
   1   5   6   12.42    0.31
  -1   5  -6   12.22    0.30
   1   5   6   12.11    0.32
  -1   5  -6   12.42    0.30
   2  -5   6    2.56    0.12
   2  -5   6    2.33    0.09
  -2  -5  -6    2.47    0.11
   2  -5   6    2.47    0.10
   2   5   6    2.42    0.10
   2   5   6    2.54    0.12
  -2   5  -6    2.40    0.11
   2   5   6    2.47    0.12
  -2   5  -6    2.44    0.11
  -2   5  -6    2.44    0.11
   3  -5   6    0.28    0.06
   3  -5   6    0.21    0.05
   3   5   6    0.22    0.05
  -3   5  -6    0.31    0.05
   3   5   6    0.19    0.05
  -3   5  -6    0.17    0.05
   3   5   6    0.15    0.05
  -3   5  -6    0.27    0.05
   4  -5   6    2.15    0.13
   4  -5   6    2.06    0.11
   4   5   6    2.02    0.11
  -4   5  -6    1.98    0.12
  -4   5  -6    2.09    0.12
  -5  -6   6    0.04    0.04
  -5  -6   6    0.06    0.04
  -5   6   6    0.10    0.05
  -5   6   6    0.09    0.05
   5   6  -6    0.07    0.04
  -5   6   6    0.05    0.05
  -4  -6   6    3.47    0.15
  -4  -6   6    3.48    0.13
   4  -6  -6    3.53    0.14
  -4   6   6    3.54    0.15
   4   6  -6    3.34    0.14
   4   6  -6    3.36    0.17
  -4   6   6    3.56    0.14
  -4   6   6    3.37    0.14
   4   6  -6    3.43    0.14
  -3  -6   6    0.07    0.03
  -3  -6   6    0.06    0.03
   3  -6  -6    0.05    0.03
   3  -6  -6    0.10    0.04
  -3   6   6    0.08    0.03
   3   6  -6    0.07    0.03
  -3   6   6    0.05    0.03
  -3   6   6    0.08    0.04
   3   6  -6    0.06    0.05
   3   6  -6    0.09    0.04
  -2  -6   6   11.44    0.27
   2  -6  -6   11.58    0.29
   2  -6  -6   10.87    0.29
  -2   6   6   11.13    0.26
  -2   6   6   11.40    0.27
   2   6  -6   11.28    0.31
   2   6  -6   11.39    0.28
   2   6  -6   11.88    0.29
  -2   6   6   11.54    0.29
  -1  -6   6    0.19    0.04
   1  -6  -6    0.30    0.04
  -1  -6   6    0.29    0.04
   1  -6  -6    0.23    0.03
   1   6  -6    0.27    0.04
   1   6  -6    0.23    0.03
   1   6  -6    0.23    0.05
  -1   6   6    0.20    0.04
  -1   6   6    0.20    0.03
   0  -6  -6    5.36    0.17
   0  -6   6    5.36    0.16
   0  -6   6    5.20    0.16
   0  -6   6    5.17    0.15
   0  -6  -6    5.41    0.15
   0   6   6    5.34    0.16
   0   6  -6    5.47    0.15
   0   6  -6    5.29    0.15
   0   6  -6    5.16    0.15
   0   6   6    5.28    0.14
   0   6  -6    5.49    0.16
  -1  -6  -6    0.56    0.06
   1  -6   6    0.50    0.05
   1  -6   6    0.48    0.05
   1  -6   6    0.45    0.06
   1   6   6    0.41    0.06
  -1   6  -6    0.53    0.05
   1   6   6    0.45    0.05
  -1   6  -6    0.45    0.05
  -1   6  -6    0.57    0.06
   1   6   6    0.55    0.05
   2  -6   6    5.91    0.17
   2  -6   6    6.02    0.20
   2  -6   6    5.83    0.17
   2   6   6    5.54    0.20
  -2   6  -6    6.24    0.18
  -2   6  -6    6.28    0.18
   2   6   6    5.39    0.18
   2   6   6    5.38    0.17
  -2   6  -6    5.55    0.17
   3  -6   6    0.13    0.04
   3  -6   6    0.06    0.04
   3   6   6    0.08    0.04
  -3   6  -6    0.14    0.04
   3   6   6    0.15    0.04
  -3   6  -6    0.15    0.04
   4  -6   6    3.13    0.16
   4  -6   6    3.03    0.14
  -4   6  -6    3.11    0.15
  -4   6  -6    3.23    0.15
   4   6   6    3.15    0.14
  -5  -7   6    0.57    0.08
   5  -7  -6    0.50    0.07
  -5   7   6    0.65    0.08
   5   7  -6    0.51    0.08
  -5   7   6    0.57    0.08
  -5   7   6    0.58    0.08
  -4  -7   6    0.34    0.05
   4  -7  -6    0.30    0.06
  -4  -7   6    0.34    0.06
  -4   7   6    0.29    0.06
   4   7  -6    0.22    0.05
   4   7  -6    0.25    0.05
  -4   7   6    0.31    0.06
  -4   7   6    0.41    0.06
   4   7  -6    0.29    0.09
   3  -7  -6   14.08    0.36
  -3  -7   6   14.58    0.34
   3  -7  -6   14.61    0.36
  -3  -7   6   14.03    0.35
   3   7  -6   13.87    0.36
  -3   7   6   14.20    0.34
  -3   7   6   13.80    0.36
  -3   7   6   13.86    0.34
   3   7  -6   14.35    0.35
   3   7  -6   14.59    0.39
  -2  -7   6    2.63    0.09
  -2  -7   6    2.54    0.11
   2  -7  -6    2.67    0.11
   2   7  -6    2.49    0.10
  -2   7   6    2.44    0.11
  -2   7   6    2.47    0.09
   2   7  -6    2.60    0.13
   2   7  -6    2.57    0.11
  -1  -7   6    2.88    0.11
   1  -7  -6    2.86    0.12
  -1  -7   6    2.80    0.09
  -1  -7   6    2.80    0.10
  -1   7   6    2.74    0.11
   1   7  -6    2.74    0.11
  -1   7   6    2.74    0.09
   1   7  -6    2.63    0.10
   1   7  -6    2.85    0.12
   0  -7  -6    1.35    0.07
   0  -7   6    1.31    0.08
   0  -7   6    1.40    0.08
   0  -7   6    1.37    0.06
   0  -7  -6    1.42    0.08
   0   7  -6    1.40    0.07
   0   7  -6    1.51    0.07
   0   7  -6    1.43    0.07
   0   7  -6    1.41    0.08
   0   7   6    1.37    0.08
   1  -7   6   21.97    0.47
   1  -7   6   21.06    0.49
   1  -7   6   21.08    0.48
  -1   7  -6   21.26    0.48
   1   7   6   20.52    0.48
  -1   7  -6   21.81    0.49
   1   7   6   21.98    0.49
   1   7   6   21.49    0.51
  -1   7  -6   21.69    0.49
   2  -7   6    1.79    0.09
   2  -7   6    1.83    0.11
   2  -7   6    1.88    0.09
   2   7   6    1.75    0.08
   2   7   6    1.92    0.10
  -2   7  -6    1.82    0.09
  -2   7  -6    1.67    0.09
  -2   7  -6    1.90    0.10
   2   7   6    1.91    0.11
   3  -7   6    2.33    0.13
   3  -7   6    2.19    0.10
  -3   7  -6    2.18    0.11
  -3   7  -6    2.02    0.12
   3   7   6    2.21    0.13
   3   7   6    2.24    0.11
   4  -7   6   -0.02    0.06
   4  -7   6    0.14    0.04
   4  -7   6    0.25    0.07
  -4   7  -6    0.08    0.05
   4   7   6    0.15    0.05
  -4   7  -6    0.20    0.05
   5  -8  -6    0.89    0.10
  -5  -8   6    1.30    0.11
   5   8  -6    1.15    0.10
  -5   8   6    1.02    0.10
  -5   8   6    1.19    0.10
  -5   8   6    1.13    0.10
  -4  -8   6    0.65    0.08
  -4  -8   6    0.65    0.08
   4  -8  -6    0.73    0.08
  -4   8   6    0.75    0.08
  -4   8   6    0.73    0.08
   4   8  -6    0.65    0.07
   4   8  -6    0.75    0.08
  -4   8   6    0.56    0.07
   3  -8  -6    1.01    0.08
  -3  -8   6    1.01    0.08
  -3   8   6    0.92    0.08
   3   8  -6    0.99    0.10
   3   8  -6    1.00    0.07
   3   8  -6    0.87    0.07
  -3   8   6    0.93    0.07
  -2  -8   6   17.82    0.42
   2  -8  -6   17.97    0.43
  -2  -8   6   17.08    0.39
   2   8  -6   17.31    0.42
   2   8  -6   17.61    0.41
  -2   8   6   17.03    0.42
   2   8  -6   17.32    0.43
  -1  -8   6   21.69    0.47
  -1  -8   6   21.72    0.48
   1  -8  -6   20.86    0.50
  -1  -8   6   21.73    0.50
  -1   8   6   21.42    0.50
   1   8  -6   22.13    0.48
   1   8  -6   21.96    0.50
   1   8  -6   22.06    0.50
   0  -8   6    4.58    0.15
   0  -8   6    4.56    0.14
   0  -8   6    4.69    0.13
   0  -8   6    4.67    0.15
   0  -8  -6    4.89    0.16
   0   8  -6    4.74    0.15
   0   8  -6    4.67    0.14
   0   8   6    4.68    0.16
   0   8  -6    4.46    0.16
   1  -8   6    5.07    0.17
   1  -8   6    4.95    0.16
   1  -8   6    4.89    0.14
   1  -8   6    4.85    0.17
  -1   8  -6    5.12    0.17
  -1   8  -6    5.06    0.16
   1   8   6    4.55    0.18
  -1   8  -6    4.94    0.16
   1   8   6    4.81    0.16
   2  -8   6    0.00    0.04
   2  -8   6    0.01    0.04
   2  -8   6   -0.01    0.02
   2  -8   6    0.03    0.03
  -2   8  -6    0.03    0.03
  -2   8  -6    0.00    0.03
   2   8   6   -0.02    0.03
   2   8   6    0.02    0.03
  -2   8  -6    0.01    0.03
   3  -8   6    2.29    0.13
   3  -8   6    2.24    0.13
   3  -8   6    2.18    0.10
  -3   8  -6    2.46    0.12
  -3   8  -6    2.30    0.12
   3   8   6    2.36    0.16
   4  -8   6    0.13    0.06
   4  -8   6    0.11    0.06
   4   8   6    0.14    0.05
  -4   8  -6    0.00    0.05
  -4   8  -6    0.13    0.05
   5  -9  -6    0.30    0.07
  -5  -9   6    0.31    0.06
  -5   9   6    0.37    0.07
   5   9  -6    0.29    0.06
   5   9  -6    0.13    0.07
  -5   9   6    0.31    0.07
   4  -9  -6    2.58    0.13
  -4  -9   6    2.52    0.13
  -4  -9   6    2.79    0.14
   4   9  -6    2.92    0.13
   4   9  -6    2.83    0.14
  -4   9   6    2.81    0.14
  -4   9   6    2.56    0.12
   3  -9  -6    1.07    0.09
  -3  -9   6    0.95    0.08
   3   9  -6    0.91    0.10
   3   9  -6    0.88    0.08
  -3   9   6    1.07    0.09
   3   9  -6    0.92    0.07
   2  -9  -6    3.48    0.14
  -2  -9   6    3.48    0.14
   2   9  -6    3.40    0.12
   2   9  -6    3.47    0.15
  -2   9   6    3.50    0.14
  -1  -9   6    6.18    0.19
   1  -9  -6    6.84    0.21
   1   9  -6    6.11    0.18
   1   9  -6    6.45    0.20
  -1   9   6    6.58    0.20
   1   9  -6    6.34    0.20
   0  -9  -6    1.96    0.10
   0  -9   6    1.88    0.10
   0  -9  -6    1.80    0.09
   0  -9   6    1.88    0.09
   0   9  -6    1.90    0.10
   0   9  -6    1.81    0.09
   0   9   6    1.78    0.10
   0   9   6    1.85    0.10
   0   9  -6    1.79    0.09
   1  -9   6    0.09    0.04
   1  -9   6    0.04    0.04
   1  -9   6    0.08    0.04
   1   9   6    0.06    0.04
  -1   9  -6    0.05    0.03
  -1   9  -6    0.12    0.04
  -1   9  -6    0.14    0.05
   1   9   6    0.05    0.04
   2  -9   6    0.50    0.06
   2  -9   6    0.57    0.07
   2  -9   6    0.52    0.07
  -2   9  -6    0.53    0.06
   2   9   6    0.45    0.07
  -2   9  -6    0.54    0.06
  -2   9  -6    0.58    0.07
   3  -9   6    0.62    0.08
   3  -9   6    0.79    0.09
  -3   9  -6    0.70    0.08
  -3   9  -6    0.71    0.08
   4  -9   6    0.57    0.09
   4  -9   6    0.58    0.09
  -4   9  -6    0.55    0.08
  -4   9  -6    0.54    0.08
   5 -10  -6    0.88    0.10
  -5 -10   6    1.06    0.11
   5  10  -6    0.76    0.09
  -5  10   6    0.96    0.10
   5  10  -6    0.98    0.10
  -5  10   6    0.85    0.10
   4 -10  -6    0.19    0.05
  -4 -10   6    0.31    0.07
   4  10  -6    0.24    0.06
   4  10  -6    0.37    0.06
  -4  10   6    0.20    0.05
   3 -10  -6    0.98    0.09
  -3 -10   6    0.86    0.08
   3  10  -6    0.97    0.08
  -3  10   6    0.83    0.08
   3  10  -6    0.76    0.08
   3  10  -6    0.90    0.10
   2 -10  -6    7.64    0.24
  -2 -10   6    7.55    0.23
   2  10  -6    8.14    0.25
   2  10  -6    7.93    0.22
  -2  10   6    7.77    0.24
   2  10  -6    7.64    0.23
  -1 -10   6   22.81    0.53
   1 -10  -6   22.94    0.53
   1 -10  -6   22.48    0.54
   1  10  -6   23.40    0.52
   1  10  -6   23.83    0.54
  -1  10   6   23.42    0.54
   1  10  -6   23.59    0.54
   0 -10  -6    0.01    0.03
   0 -10  -6    0.06    0.03
   0 -10   6    0.08    0.04
   0 -10   6    0.03    0.03
   0  10   6    0.03    0.03
   0  10  -6    0.07    0.03
   0  10   6    0.03    0.03
   0  10  -6    0.04    0.03
   0  10  -6    0.02    0.04
   1 -10   6   11.45    0.30
   1 -10   6   10.69    0.30
   1 -10   6   11.39    0.30
  -1 -10  -6   10.73    0.31
  -1  10  -6   11.00    0.30
   1  10   6   11.63    0.30
  -1  10  -6   11.88    0.30
   1  10   6   11.40    0.33
  -1  10  -6   11.59    0.29
   2 -10   6    3.57    0.14
   2 -10   6    3.40    0.15
   2 -10   6    3.63    0.15
  -2  10  -6    3.38    0.17
  -2  10  -6    3.31    0.14
  -2  10  -6    3.55    0.14
   2  10   6    3.57    0.16
   3 -10   6    4.91    0.20
   3 -10   6    4.95    0.20
  -3  10  -6    5.28    0.19
  -3  10  -6    4.84    0.19
   4 -10   6    1.36    0.12
   4 -10   6    1.55    0.13
  -4  10  -6    1.39    0.11
  -4  10  -6    1.17    0.12
   4 -11  -6    3.69    0.17
   4  11  -6    3.41    0.16
   4  11  -6    3.72    0.16
  -4  11   6    3.68    0.17
   3 -11  -6    1.96    0.12
  -3 -11   6    2.23    0.12
   3  11  -6    2.03    0.12
  -3  11   6    2.09    0.12
   3  11  -6    2.25    0.11
   3  11  -6    2.18    0.14
   2 -11  -6    0.43    0.06
  -2 -11   6    0.38    0.06
   2  11  -6    0.44    0.05
  -2  11   6    0.50    0.07
   2  11  -6    0.34    0.07
   2  11  -6    0.36    0.06
   1 -11  -6    3.91    0.15
   1 -11  -6    4.07    0.16
  -1 -11   6    4.01    0.15
   1  11  -6    3.99    0.13
   1  11  -6    4.02    0.16
  -1  11   6    4.13    0.16
   0 -11   6    3.04    0.12
   0 -11  -6    2.97    0.14
   0 -11   6    3.12    0.13
   0 -11  -6    3.23    0.12
   0  11   6    3.16    0.14
   0  11  -6    3.13    0.14
   0  11  -6    3.12    0.12
   0  11   6    3.14    0.13
   0  11  -6    3.00    0.13
   1 -11   6    1.49    0.09
  -1 -11  -6    1.26    0.10
   1 -11   6    1.28    0.09
   1 -11   6    1.34    0.09
  -1  11  -6    1.62    0.10
  -1  11  -6    1.34    0.09
   1  11   6    1.45    0.09
   1  11   6    1.33    0.10
  -1  11  -6    1.41    0.08
   2 -11   6    5.82    0.21
   2 -11   6    5.38    0.20
   2 -11   6    5.87    0.19
  -2  11  -6    5.85    0.19
  -2  11  -6    5.60    0.20
   3 -11   6    0.12    0.06
   3 -11   6    0.28    0.07
  -3  11  -6    0.05    0.05
  -3  11  -6    0.20    0.05
   4 -11   6    0.56    0.09
   4 -11   6    0.37    0.08
  -4  11  -6    0.27    0.06
  -4  11  -6    0.26    0.07
   4 -12  -6    0.65    0.09
   4  12  -6    0.77    0.09
   4  12  -6    0.81    0.10
  -4  12   6    0.78    0.10
  -3 -12   6    0.53    0.07
   3 -12  -6    0.55    0.08
  -3  12   6    0.54    0.08
   3  12  -6    0.45    0.07
  -2 -12   6    1.81    0.11
   2 -12  -6    2.03    0.12
   2 -12  -6    2.06    0.12
  -2  12   6    1.75    0.11
   2  12  -6    1.66    0.12
   2  12  -6    1.79    0.11
   1 -12  -6    9.65    0.27
   1 -12  -6   10.03    0.29
  -1 -12   6    9.65    0.28
  -1  12   6   10.08    0.28
   1  12  -6    9.58    0.28
  -1  12   6    9.74    0.29
   0 -12  -6    0.18    0.04
   0 -12  -6    0.20    0.05
   0 -12   6    0.21    0.05
   0  12   6    0.16    0.04
   0  12   6    0.17    0.05
   0  12  -6    0.21    0.05
   0  12  -6    0.27    0.05
  -1 -12  -6    0.06    0.04
   1 -12   6    0.08    0.04
   1 -12   6    0.05    0.04
   1 -12   6    0.07    0.04
  -1  12  -6    0.03    0.03
   1  12   6    0.03    0.04
  -1  12  -6    0.03    0.04
   1  12   6   -0.02    0.03
  -1  12  -6    0.07    0.03
   2 -12   6    3.95    0.17
   2 -12   6    4.31    0.18
   2 -12   6    4.40    0.17
  -2  12  -6    4.32    0.16
  -2  12  -6    4.20    0.17
   3 -12   6    0.86    0.10
   3 -12   6    0.79    0.10
  -3  12  -6    0.86    0.10
  -3  12  -6    0.85    0.08
   4 -13  -6    0.30    0.07
  -4  13   6    0.34    0.07
   4  13  -6    0.27    0.07
   3 -13  -6    0.13    0.05
  -3 -13   6    0.10    0.04
   3  13  -6    0.04    0.05
  -3  13   6    0.14    0.06
   2 -13  -6    0.06    0.04
  -2 -13   6    0.07    0.04
   2 -13  -6    0.03    0.05
  -2  13   6    0.10    0.05
   2  13  -6    0.08    0.05
   1 -13  -6    0.26    0.05
   1 -13  -6    0.23    0.05
  -1 -13   6    0.26    0.06
  -1  13   6    0.25    0.05
   1  13  -6    0.31    0.06
   1  13  -6    0.23    0.05
  -1  13   6    0.27    0.05
   0 -13  -6    1.54    0.11
   0 -13  -6    1.57    0.09
   0 -13   6    1.65    0.11
   0  13   6    1.67    0.11
   0  13  -6    1.69    0.11
   0  13   6    1.69    0.10
   0  13  -6    1.73    0.10
  -1 -13  -6    2.45    0.13
   1 -13   6    2.23    0.12
   1 -13   6    2.52    0.13
  -1  13  -6    2.31    0.12
  -1  13  -6    2.31    0.13
   2 -13   6    0.89    0.10
   2 -13   6    0.82    0.09
   2 -13   6    0.77    0.09
  -2  13  -6    0.91    0.10
   3 -13   6    0.17    0.06
   3 -13   6    0.09    0.06
  -3  13  -6    0.05    0.06
  -3  13  -6    0.14    0.05
  -3 -14   6    2.83    0.15
   3 -14  -6    3.19    0.16
  -3  14   6    3.39    0.17
   3  14  -6    3.07    0.16
   2 -14  -6    0.99    0.10
   2 -14  -6    0.93    0.09
  -2 -14   6    1.03    0.09
   2  14  -6    1.05    0.09
  -2  14   6    0.97    0.09
   1 -14  -6    1.35    0.11
  -1 -14   6    1.48    0.11
   1 -14  -6    1.18    0.10
   1  14  -6    1.35    0.10
   1  14  -6    1.29    0.10
  -1  14   6    1.35    0.10
   0 -14   6    0.47    0.07
   0 -14  -6    0.45    0.07
   0 -14  -6    0.31    0.06
   0  14   6    0.41    0.07
   0  14  -6    0.51    0.07
   0  14  -6    0.48    0.07
   0  14   6    0.48    0.07
   1 -14   6    0.63    0.08
   1 -14   6    0.66    0.08
  -1 -14  -6    0.58    0.08
  -1  14  -6    0.71    0.08
  -1  14  -6    0.52    0.08
   2 -14   6    8.20    0.27
   2 -14   6    8.34    0.27
   2 -14   6    8.78    0.27
  -2  14  -6    8.64    0.28
   3 -14   6    1.26    0.12
   3 -14   6    0.86    0.10
  -3  14  -6    0.99    0.11
   3 -15  -6   -0.03    0.04
  -3 -15   6    0.06    0.05
   3  15  -6   -0.08    0.04
  -3  15   6    0.02    0.05
   2 -15  -6    0.04    0.05
   2 -15  -6    0.10    0.05
  -2 -15   6    0.02    0.04
   2  15  -6    0.02    0.05
  -2  15   6    0.09    0.05
  -1 -15   6    0.37    0.07
   1 -15  -6    0.26    0.06
   1 -15  -6    0.23    0.06
   1  15  -6    0.21    0.06
  -1  15   6    0.25    0.06
   1  15  -6    0.32    0.06
   0 -15  -6    4.76    0.20
   0 -15   6    5.72    0.21
   0  15   6    5.13    0.19
   0  15  -6    5.16    0.20
   0  15  -6    5.26    0.20
   1 -15   6    0.59    0.09
  -1 -15  -6    0.50    0.08
   1 -15   6    0.61    0.08
  -1  15  -6    0.62    0.09
   2 -15   6    0.40    0.07
   2 -15   6    0.44    0.08
  -2  15  -6    0.48    0.08
   2 -16  -6    0.00    0.05
  -2 -16   6   -0.02    0.04
   2 -16  -6   -0.08    0.04
  -2  16   6    0.05    0.05
   2  16  -6    0.01    0.05
   1 -16  -6    1.36    0.11
   1 -16  -6    1.57    0.12
  -1 -16   6    1.49    0.11
  -1  16   6    1.57    0.11
   1  16  -6    1.56    0.12
   1  16  -6    1.68    0.12
   0 -16   6    0.18    0.06
   0 -16  -6    0.20    0.06
   0  16  -6    0.20    0.06
   0  16  -6    0.24    0.06
  -1 -16  -6    1.08    0.11
   1 -16   6    1.23    0.11
  -1  16  -6    1.17    0.11
   1  16   6    1.11    0.10
   2 -16   6    0.56    0.08
   2  16   6    0.49    0.08
  -2  16  -6    0.45    0.08
  -2 -17   6    2.21    0.14
   2 -17  -6    2.25    0.15
   2 -17  -6    2.26    0.15
   2  17  -6    2.58    0.16
  -2  17   6    2.51    0.15
   2  17  -6    2.51    0.15
   1 -17  -6    0.97    0.10
   1 -17  -6    1.18    0.11
  -1 -17   6    1.18    0.11
   1  17  -6    1.02    0.11
   1  17  -6    1.23    0.11
  -1  17   6    1.02    0.10
   0 -17   6    0.00    0.05
   0 -17  -6   -0.03    0.05
   0  17  -6   -0.07    0.05
   0  17  -6    0.04    0.05
  -1 -17  -6    0.69    0.09
   1 -17   6    0.89    0.10
  -1  17  -6    0.69    0.10
   5   0  -7    9.17    0.27
  -5   0   7    8.97    0.27
  -5   0   7    9.33    0.28
  -4   0   7    0.04    0.04
   4   0  -7    0.05    0.05
  -4   0   7    0.05    0.04
   4   0  -7    0.06    0.03
   3   0  -7   10.41    0.30
   3   0  -7   10.62    0.27
  -3   0   7   11.12    0.28
  -3   0   7   10.77    0.27
  -3   0   7   10.59    0.26
   2   0  -7    0.01    0.02
  -2   0   7    0.01    0.02
  -2   0   7   -0.01    0.02
  -2   0   7   -0.01    0.03
   2   0  -7   -0.01    0.03
   2   0  -7    0.00    0.03
   2   0  -7    0.02    0.02
  -1   0   7   41.75    0.88
   1   0  -7   41.98    0.88
  -1   0   7   42.29    0.88
   1   0  -7   42.23    0.90
   1   0  -7   42.52    0.88
   0   0   7    0.02    0.03
   0   0  -7    0.06    0.03
   0   0   7   -0.03    0.02
   0   0  -7    0.02    0.01
   0   0  -7    0.06    0.03
  -1   0  -7    2.95    0.09
  -1   0  -7    3.05    0.10
   1   0   7    2.93    0.11
   1   0   7    2.78    0.12
  -1   0  -7    2.85    0.11
  -2   0  -7    0.01    0.03
  -2   0  -7    0.05    0.03
   2   0   7    0.03    0.05
  -2   0  -7    0.01    0.04
   2   0   7    0.00    0.03
   2   0   7   -0.01    0.03
  -3   0  -7    3.95    0.15
   3   0   7    4.08    0.15
   3   0   7    4.19    0.16
  -3   0  -7    4.11    0.15
  -3   0  -7    3.95    0.17
  -4   0  -7    0.03    0.03
   4   0   7    0.02    0.04
  -4   0  -7    0.05    0.04
   4   0   7    0.01    0.04
  -5  -1   7    1.35    0.10
  -5  -1   7    1.25    0.10
   5  -1  -7    1.15    0.09
   5   1  -7    1.33    0.10
  -5   1   7    1.46    0.10
  -5   1   7    1.34    0.11
   4  -1  -7   11.66    0.33
  -4  -1   7   10.62    0.30
   4  -1  -7   11.37    0.30
  -4  -1   7   11.32    0.30
  -4   1   7   11.25    0.29
   4   1  -7   10.95    0.30
  -4   1   7   11.28    0.30
   4   1  -7   10.72    0.33
   3  -1  -7    0.32    0.06
  -3  -1   7    0.31    0.05
  -3  -1   7    0.31    0.05
   3  -1  -7    0.26    0.04
   3   1  -7    0.25    0.04
  -3   1   7    0.31    0.05
   3   1  -7    0.29    0.05
  -3   1   7    0.27    0.04
  -3   1   7    0.23    0.04
   3   1  -7    0.22    0.06
   2  -1  -7    0.12    0.03
   2  -1  -7    0.10    0.03
  -2  -1   7    0.14    0.04
   2  -1  -7    0.12    0.03
  -2  -1   7    0.21    0.03
   2  -1  -7    0.16    0.04
  -2  -1   7    0.12    0.03
   2   1  -7    0.21    0.03
  -2   1   7    0.10    0.03
   2   1  -7    0.15    0.03
   2   1  -7    0.22    0.04
  -2   1   7    0.11    0.02
   2   1  -7    0.15    0.04
  -2   1   7    0.12    0.03
   1  -1  -7    0.15    0.03
   1  -1  -7    0.12    0.03
  -1  -1   7    0.08    0.03
  -1  -1   7    0.07    0.03
   1  -1  -7    0.12    0.03
   1  -1  -7    0.10    0.03
  -1   1   7    0.13    0.03
   1   1  -7    0.13    0.03
   1   1  -7    0.07    0.03
  -1   1   7    0.14    0.03
   1   1  -7    0.11    0.03
   0  -1  -7    7.14    0.18
   0  -1   7    7.32    0.20
   0  -1  -7    7.19    0.19
   0   1   7    6.90    0.19
   0   1  -7    7.35    0.16
   0   1  -7    7.28    0.20
   0   1  -7    6.98    0.19
   0   1   7    7.36    0.20
   0   1  -7    7.15    0.19
   1  -1   7    0.92    0.06
  -1  -1  -7    0.84    0.06
   1  -1   7    0.79    0.07
   1  -1   7    0.80    0.05
  -1  -1  -7    0.79    0.06
  -1   1  -7    0.83    0.05
  -1   1  -7    0.78    0.06
   1   1   7    0.85    0.07
  -1   1  -7    0.79    0.07
   1   1   7    0.79    0.06
  -2  -1  -7    0.21    0.04
   2  -1   7    0.17    0.04
   2  -1   7    0.18    0.04
  -2  -1  -7    0.24    0.05
   2  -1   7    0.16    0.06
  -2   1  -7    0.13    0.04
  -2   1  -7    0.24    0.04
   2   1   7    0.27    0.05
   2   1   7    0.16    0.04
  -2   1  -7    0.09    0.04
   2   1   7    0.26    0.06
   3  -1   7    2.41    0.13
  -3  -1  -7    2.52    0.11
  -3  -1  -7    2.61    0.12
   3  -1   7    2.59    0.12
   3   1   7    2.54    0.13
   3   1   7    2.66    0.12
  -3   1  -7    2.61    0.12
  -3   1  -7    2.58    0.12
  -3   1  -7    2.44    0.11
   4  -1   7    3.06    0.15
  -4  -1  -7    2.95    0.13
   4  -1   7    3.08    0.14
  -4  -1  -7    3.18    0.14
   4   1   7    3.21    0.15
  -4   1  -7    3.12    0.14
  -4   1  -7    2.99    0.14
   4   1   7    2.98    0.14
  -5  -2   7    0.39    0.07
  -5  -2   7    0.42    0.06
   5  -2  -7    0.32    0.06
   5   2  -7    0.32    0.06
  -5   2   7    0.37    0.07
  -5   2   7    0.28    0.06
   4  -2  -7    0.20    0.05
  -4  -2   7    0.19    0.05
   4  -2  -7    0.38    0.05
  -4  -2   7    0.29    0.05
   4   2  -7    0.28    0.05
  -4   2   7    0.19    0.05
   4   2  -7    0.12    0.06
  -4   2   7    0.23    0.05
   3  -2  -7    1.63    0.08
   3  -2  -7    1.60    0.08
   3  -2  -7    1.52    0.11
  -3  -2   7    2.13    0.09
  -3  -2   7    1.99    0.10
   3   2  -7    1.94    0.12
   3   2  -7    2.08    0.10
   3   2  -7    1.95    0.09
  -3   2   7    1.89    0.09
  -3   2   7    1.76    0.09
   2  -2  -7    0.20    0.03
   2  -2  -7    0.18    0.03
  -2  -2   7    0.21    0.03
   2  -2  -7    0.17    0.03
   2  -2  -7    0.15    0.04
  -2  -2   7    0.26    0.04
  -2  -2   7    0.29    0.04
  -2   2   7    0.19    0.03
   2   2  -7    0.26    0.04
  -2   2   7    0.16    0.03
  -2   2   7    0.18    0.04
   2   2  -7    0.22    0.05
   2   2  -7    0.28    0.04
  -1  -2   7    9.25    0.24
   1  -2  -7    9.82    0.26
   1  -2  -7    9.76    0.23
  -1  -2   7    9.61    0.24
   1  -2  -7    9.71    0.24
   1  -2  -7    9.67    0.23
   1   2  -7    9.22    0.25
   1   2  -7    9.01    0.24
   1   2  -7   10.19    0.25
  -1   2   7    9.89    0.25
  -1   2   7    9.54    0.23
   0  -2   7    7.07    0.20
   0  -2  -7    7.19    0.19
   0  -2   7    6.85    0.18
   0  -2  -7    7.26    0.18
   0   2  -7    7.13    0.19
   0   2  -7    6.77    0.18
   0   2  -7    7.08    0.17
   0   2   7    7.18    0.18
   0   2  -7    6.83    0.19
   1  -2   7   20.55    0.46
   1  -2   7   20.75    0.48
  -1  -2  -7   20.63    0.45
   1  -2   7   20.26    0.44
  -1  -2  -7   20.11    0.46
   1   2   7   19.78    0.45
  -1   2  -7   20.34    0.46
  -1   2  -7   20.40    0.44
   1   2   7   20.74    0.47
  -1   2  -7   21.45    0.46
  -2  -2  -7    1.24    0.08
   2  -2   7    1.32    0.10
  -2  -2  -7    1.17    0.07
   2  -2   7    1.22    0.08
  -2   2  -7    1.27    0.09
  -2   2  -7    1.30    0.08
   2   2   7    1.45    0.10
   2   2   7    1.20    0.08
   2   2   7    1.44    0.09
  -2   2  -7    1.22    0.08
  -3  -2  -7    9.16    0.25
   3  -2   7    9.35    0.27
  -3  -2  -7    9.47    0.26
   3  -2   7    8.67    0.26
   3   2   7    8.53    0.26
  -3   2  -7    8.86    0.25
  -3   2  -7    9.25    0.25
  -3   2  -7    9.07    0.26
   3   2   7    9.74    0.27
   3   2   7    9.35    0.26
   4  -2   7    0.15    0.05
  -4  -2  -7    0.05    0.03
   4  -2   7    0.05    0.04
   4   2   7    0.01    0.04
  -4   2  -7    0.04    0.04
  -4   2  -7    0.02    0.04
   4   2   7    0.11    0.06
   5  -3  -7    0.22    0.05
  -5  -3   7    0.15    0.05
  -5  -3   7    0.19    0.05
  -5   3   7    0.23    0.05
   5   3  -7    0.30    0.06
  -5   3   7    0.17    0.06
   4  -3  -7    1.95    0.12
  -4  -3   7    1.82    0.10
  -4  -3   7    1.95    0.11
   4  -3  -7    2.02    0.10
   4   3  -7    1.71    0.10
  -4   3   7    1.93    0.10
   4   3  -7    1.71    0.13
  -4   3   7    2.17    0.11
  -4   3   7    2.00    0.10
  -3  -3   7   13.82    0.34
   3  -3  -7   14.04    0.37
   3  -3  -7   14.11    0.33
   3  -3  -7   13.79    0.33
  -3  -3   7   13.85    0.34
   3   3  -7   13.41    0.37
  -3   3   7   13.27    0.32
   3   3  -7   14.16    0.34
   3   3  -7   13.59    0.34
  -3   3   7   14.85    0.34
  -3   3   7   14.16    0.34
  -2  -3   7    1.51    0.07
  -2  -3   7    1.51    0.08
   2  -3  -7    1.47    0.07
   2  -3  -7    1.40    0.07
   2  -3  -7    1.38    0.09
  -2  -3   7    1.49    0.07
   2  -3  -7    1.40    0.06
   2   3  -7    1.60    0.08
  -2   3   7    1.51    0.08
  -2   3   7    1.46    0.07
   2   3  -7    1.37    0.08
   2   3  -7    1.45    0.10
  -2   3   7    1.70    0.08
  -1  -3   7   49.01    1.01
  -1  -3   7   49.64    1.01
   1  -3  -7   48.19    1.01
   1  -3  -7   47.46    1.03
   1  -3  -7   47.56    1.00
   1  -3  -7   48.84    0.99
   1   3  -7   48.51    1.01
   1   3  -7   49.19    1.02
  -1   3   7   49.83    1.02
  -1   3   7   47.26    1.00
   1   3  -7   49.88    1.03
   0  -3   7    2.95    0.11
   0  -3  -7    2.83    0.10
   0  -3  -7    2.67    0.09
   0  -3   7    2.97    0.10
   0   3   7    2.76    0.11
   0   3  -7    2.90    0.09
   0   3  -7    2.84    0.10
   0   3   7    2.60    0.09
   0   3  -7    2.97    0.11
   0   3  -7    2.96    0.11
   1  -3   7    0.19    0.04
   1  -3   7    0.17    0.05
  -1  -3  -7    0.13    0.04
  -1  -3  -7    0.19    0.03
   1  -3   7    0.16    0.03
   1   3   7    0.25    0.05
  -1   3  -7    0.16    0.04
  -1   3  -7    0.14    0.04
   1   3   7    0.16    0.03
  -1   3  -7    0.14    0.03
   2  -3   7    0.55    0.07
  -2  -3  -7    0.52    0.05
  -2  -3  -7    0.55    0.06
   2  -3   7    0.46    0.06
  -2   3  -7    0.46    0.05
   2   3   7    0.44    0.06
  -2   3  -7    0.49    0.06
   2   3   7    0.59    0.06
  -2   3  -7    0.40    0.06
   2   3   7    0.49    0.07
   3  -3   7   12.76    0.35
   3  -3   7   12.14    0.33
  -3  -3  -7   12.32    0.31
  -3  -3  -7   12.87    0.33
   3   3   7   12.67    0.33
  -3   3  -7   12.52    0.33
   3   3   7   12.33    0.34
  -3   3  -7   12.36    0.33
   3   3   7   13.21    0.34
  -3   3  -7   12.84    0.32
   4  -3   7    0.14    0.05
   4  -3   7    0.04    0.05
  -4   3  -7    0.14    0.05
   4   3   7    0.12    0.05
  -4   3  -7    0.13    0.05
  -5  -4   7    0.24    0.06
  -5  -4   7    0.22    0.06
   5   4  -7    0.33    0.07
  -5   4   7    0.17    0.06
  -5   4   7    0.21    0.05
   4  -4  -7    0.54    0.07
  -4  -4   7    0.53    0.07
   4  -4  -7    0.46    0.06
  -4  -4   7    0.33    0.06
   4   4  -7    0.46    0.06
  -4   4   7    0.43    0.06
  -4   4   7    0.41    0.06
   4   4  -7    0.31    0.07
  -4   4   7    0.54    0.07
   3  -4  -7   13.79    0.34
  -3  -4   7   14.21    0.34
   3  -4  -7   14.04    0.33
   3  -4  -7   13.54    0.36
  -3  -4   7   13.99    0.34
  -3   4   7   12.83    0.33
   3   4  -7   14.18    0.34
   3   4  -7   14.36    0.38
   3   4  -7   13.52    0.34
  -3   4   7   14.33    0.35
  -3   4   7   14.63    0.34
   2  -4  -7    8.06    0.20
   2  -4  -7    8.16    0.21
   2  -4  -7    8.01    0.23
  -2  -4   7    7.73    0.21
  -2  -4   7    7.78    0.20
  -2   4   7    8.17    0.22
   2   4  -7    7.52    0.21
   2   4  -7    7.60    0.23
   2   4  -7    7.89    0.22
  -2   4   7    7.81    0.21
  -1  -4   7   10.07    0.24
   1  -4  -7    9.52    0.25
  -1  -4   7    9.69    0.24
   1  -4  -7    9.61    0.22
   1  -4  -7    9.37    0.23
   1   4  -7    9.94    0.25
   1   4  -7   10.08    0.26
   1   4  -7    9.81    0.25
  -1   4   7    9.61    0.23
  -1   4   7    9.86    0.26
   0  -4  -7    3.34    0.10
   0  -4   7    3.44    0.12
   0  -4  -7    3.33    0.12
   0  -4   7    3.53    0.13
   0  -4   7    3.47    0.12
   0   4   7    3.31    0.11
   0   4   7    3.24    0.12
   0   4  -7    3.57    0.12
   0   4  -7    3.48    0.12
   0   4  -7    3.58    0.13
   0   4  -7    3.39    0.10
   1  -4   7    0.69    0.05
   1  -4   7    0.58    0.06
  -1  -4  -7    0.61    0.06
   1  -4   7    0.77    0.08
  -1  -4  -7    0.60    0.04
   1   4   7    0.72    0.07
  -1   4  -7    0.67    0.06
  -1   4  -7    0.73    0.07
  -1   4  -7    0.71    0.05
   1   4   7    0.69    0.06
   2  -4   7   79.54    1.66
  -2  -4  -7   77.96    1.63
  -2  -4  -7   80.38    1.66
   2  -4   7   79.30    1.67
   2   4   7   81.97    1.65
   2   4   7   79.59    1.68
   2   4   7   82.24    1.66
  -2   4  -7   80.65    1.65
  -2   4  -7   80.25    1.65
  -2   4  -7   82.41    1.66
   3  -4   7    0.06    0.04
  -3  -4  -7   -0.02    0.03
   3  -4   7    0.06    0.05
  -3   4  -7    0.07    0.04
   3   4   7    0.02    0.04
   3   4   7    0.07    0.04
  -3   4  -7    0.11    0.04
   3   4   7    0.00    0.04
  -3   4  -7    0.05    0.04
   4  -4   7    0.42    0.07
   4  -4   7    0.34    0.06
  -4   4  -7    0.29    0.06
   4   4   7    0.41    0.07
  -4   4  -7    0.35    0.06
  -5  -5   7    0.64    0.08
  -5  -5   7    0.67    0.08
   5   5  -7    0.60    0.08
  -5   5   7    0.55    0.08
  -5   5   7    0.58    0.07
  -4  -5   7    3.41    0.14
   4  -5  -7    3.38    0.15
   4  -5  -7    3.30    0.14
  -4  -5   7    3.51    0.14
   4   5  -7    3.64    0.15
   4   5  -7    3.37    0.17
  -4   5   7    3.38    0.14
  -4   5   7    3.44    0.14
  -4   5   7    3.09    0.13
   4   5  -7    3.49    0.14
  -3  -5   7    0.22    0.04
   3  -5  -7    0.24    0.05
  -3  -5   7    0.32    0.05
   3  -5  -7    0.17    0.04
   3   5  -7    0.25    0.04
   3   5  -7    0.24    0.05
   3   5  -7    0.12    0.05
  -3   5   7    0.23    0.04
  -3   5   7    0.17    0.04
   2  -5  -7    0.19    0.04
   2  -5  -7    0.24    0.05
   2  -5  -7    0.18    0.04
  -2  -5   7    0.31    0.05
   2   5  -7    0.29    0.05
   2   5  -7    0.24    0.04
  -2   5   7    0.25    0.05
   2   5  -7    0.17    0.05
  -2   5   7    0.19    0.04
  -1  -5   7    8.65    0.22
  -1  -5   7    8.42    0.22
   1  -5  -7    8.72    0.23
   1  -5  -7    8.80    0.21
  -1   5   7    8.56    0.21
   1   5  -7    9.01    0.24
  -1   5   7    8.74    0.24
   1   5  -7    8.80    0.23
   1   5  -7    8.77    0.24
   0  -5   7    4.88    0.16
   0  -5  -7    5.05    0.15
   0  -5   7    4.87    0.15
   0  -5  -7    4.96    0.16
   0  -5   7    4.72    0.14
   0   5  -7    4.77    0.16
   0   5   7    4.65    0.14
   0   5  -7    4.94    0.15
   0   5  -7    4.94    0.14
   0   5   7    4.87    0.16
   0   5  -7    4.69    0.15
   1  -5   7    0.06    0.04
   1  -5   7    0.04    0.03
  -1  -5  -7    0.06    0.03
   1  -5   7   -0.01    0.03
  -1   5  -7    0.06    0.04
  -1   5  -7    0.01    0.02
   1   5   7   -0.01    0.03
   1   5   7   -0.02    0.04
   1   5   7    0.02    0.03
  -1   5  -7   -0.01    0.03
   2  -5   7    0.63    0.08
   2  -5   7    0.53    0.06
  -2  -5  -7    0.51    0.06
  -2   5  -7    0.60    0.06
   2   5   7    0.60    0.07
   2   5   7    0.52    0.07
  -2   5  -7    0.57    0.06
  -2   5  -7    0.57    0.06
   2   5   7    0.50    0.06
   3  -5   7    1.99    0.12
   3  -5   7    2.01    0.11
   3   5   7    1.97    0.12
  -3   5  -7    1.87    0.11
   3   5   7    2.01    0.12
  -3   5  -7    2.10    0.10
   3   5   7    2.10    0.11
  -3   5  -7    2.03    0.11
   4  -5   7    2.06    0.12
   4  -5   7    2.22    0.14
   4   5   7    2.01    0.12
  -4   5  -7    1.71    0.12
  -4   5  -7    1.94    0.12
  -5  -6   7    0.64    0.08
  -5  -6   7    0.62    0.08
   5   6  -7    0.71    0.09
  -5   6   7    0.68    0.09
  -4  -6   7    0.11    0.04
  -4  -6   7    0.06    0.04
   4  -6  -7    0.17    0.04
   4  -6  -7    0.19    0.05
  -4   6   7    0.08    0.04
   4   6  -7    0.11    0.04
   4   6  -7    0.15    0.05
  -4   6   7    0.14    0.05
   3  -6  -7    5.27    0.17
   3  -6  -7    4.88    0.18
  -3  -6   7    5.22    0.17
  -3  -6   7    5.27    0.16
  -3   6   7    4.94    0.17
   3   6  -7    5.01    0.17
  -3   6   7    5.38    0.17
   3   6  -7    5.18    0.17
   3   6  -7    5.23    0.20
   2  -6  -7    0.17    0.04
  -2  -6   7    0.11    0.03
   2  -6  -7    0.16    0.04
   2   6  -7    0.06    0.05
   2   6  -7    0.08    0.03
   2   6  -7    0.11    0.04
  -2   6   7    0.07    0.04
  -2   6   7    0.14    0.03
  -1  -6   7   15.14    0.35
   1  -6  -7   14.47    0.36
  -1  -6   7   14.71    0.34
   1  -6  -7   15.15    0.34
  -1  -6   7   14.90    0.36
   1   6  -7   14.52    0.35
   1   6  -7   15.01    0.36
  -1   6   7   14.78    0.34
   1   6  -7   15.43    0.37
  -1   6   7   15.26    0.37
   0  -6  -7    2.66    0.10
   0  -6   7    2.41    0.09
   0  -6   7    2.53    0.11
   0  -6  -7    2.45    0.11
   0  -6   7    2.52    0.11
   0   6   7    2.48    0.11
   0   6  -7    2.38    0.10
   0   6   7    2.41    0.09
   0   6  -7    2.39    0.09
   0   6  -7    2.45    0.11
   0   6  -7    2.55    0.10
   1  -6   7    5.80    0.17
   1  -6   7    5.70    0.17
   1  -6   7    5.88    0.19
  -1  -6  -7    5.89    0.18
  -1   6  -7    5.93    0.18
   1   6   7    5.54    0.16
   1   6   7    5.91    0.19
  -1   6  -7    5.89    0.17
   1   6   7    5.40    0.19
  -1   6  -7    5.86    0.18
   2  -6   7    3.02    0.12
   2  -6   7    3.06    0.14
  -2  -6  -7    3.02    0.13
   2   6   7    3.07    0.12
  -2   6  -7    3.11    0.12
   2   6   7    3.10    0.14
  -2   6  -7    3.04    0.13
   2   6   7    3.13    0.13
  -2   6  -7    3.19    0.13
   3  -6   7    0.57    0.07
   3  -6   7    0.73    0.09
  -3   6  -7    0.58    0.07
  -3   6  -7    0.56    0.08
   3   6   7    0.54    0.08
  -3   6  -7    0.56    0.07
   3   6   7    0.62    0.07
   4  -6   7    0.09    0.04
   4  -6   7    0.15    0.06
   4   6   7    0.06    0.04
  -4   6  -7    0.08    0.05
  -4   6  -7    0.14    0.06
  -5  -7   7    1.29    0.11
  -5   7   7    1.11    0.10
  -5   7   7    1.03    0.10
   5   7  -7    1.04    0.10
  -4  -7   7    3.31    0.13
  -4  -7   7    3.55    0.15
   4  -7  -7    3.31    0.15
   4   7  -7    3.50    0.15
  -4   7   7    3.11    0.15
   4   7  -7    3.26    0.14
  -4   7   7    3.44    0.14
   3  -7  -7    0.24    0.05
   3  -7  -7    0.20    0.05
  -3  -7   7    0.15    0.04
   3   7  -7    0.26    0.05
   3   7  -7    0.13    0.04
  -3   7   7    0.15    0.04
  -3   7   7    0.20    0.05
   3   7  -7    0.15    0.06
  -2  -7   7    0.63    0.05
   2  -7  -7    0.59    0.06
  -2  -7   7    0.66    0.07
   2   7  -7    0.67    0.06
   2   7  -7    0.53    0.06
  -2   7   7    0.64    0.06
   2   7  -7    0.63    0.08
  -2   7   7    0.65    0.07
  -1  -7   7    0.15    0.04
   1  -7  -7    0.11    0.03
  -1  -7   7    0.16    0.04
   1  -7  -7    0.10    0.04
  -1  -7   7    0.16    0.03
   1   7  -7    0.12    0.05
  -1   7   7    0.11    0.04
   1   7  -7    0.11    0.04
   1   7  -7    0.15    0.04
   0  -7   7   10.74    0.28
   0  -7  -7   10.94    0.27
   0  -7   7   11.12    0.27
   0  -7  -7   11.30    0.29
   0  -7   7   10.78    0.28
   0   7  -7   10.85    0.27
   0   7  -7   11.07    0.27
   0   7  -7   11.34    0.29
   0   7  -7   10.79    0.28
   0   7   7   11.10    0.29
   1  -7   7    6.37    0.18
   1  -7   7    6.43    0.19
   1  -7   7    6.45    0.20
  -1  -7  -7    6.37    0.19
   1   7   7    6.32    0.21
  -1   7  -7    6.68    0.19
   1   7   7    6.84    0.20
   1   7   7    6.14    0.21
  -1   7  -7    6.74    0.19
  -1   7  -7    6.53    0.20
   2  -7   7    0.69    0.06
   2  -7   7    0.85    0.08
   2  -7   7    0.64    0.06
   2   7   7    0.60    0.06
   2   7   7    0.68    0.08
  -2   7  -7    0.76    0.07
  -2   7  -7    0.69    0.07
   2   7   7    0.73    0.07
  -2   7  -7    0.68    0.07
   3  -7   7    0.46    0.06
   3  -7   7    0.49    0.08
   3   7   7    0.55    0.07
  -3   7  -7    0.44    0.07
   3   7   7    0.43    0.11
  -3   7  -7    0.48    0.07
   4  -7   7    1.00    0.09
   4  -7   7    1.32    0.11
   4  -7   7    0.97    0.12
   4   7   7    1.01    0.09
  -4   7  -7    1.10    0.11
  -4   7  -7    1.30    0.10
   5  -8  -7    0.66    0.09
  -5  -8   7    0.62    0.08
  -5   8   7    0.77    0.09
   5   8  -7    0.67    0.09
  -5   8   7    0.83    0.09
   4  -8  -7    1.68    0.11
  -4  -8   7    1.74    0.11
  -4  -8   7    1.53    0.11
  -4   8   7    1.67    0.11
   4   8  -7    1.77    0.11
  -4   8   7    1.74    0.10
   4   8  -7    1.77    0.11
  -3  -8   7    2.57    0.13
   3  -8  -7    2.97    0.13
  -3  -8   7    2.60    0.13
  -3   8   7    2.82    0.11
   3   8  -7    2.79    0.12
   3   8  -7    2.83    0.13
   3   8  -7    2.88    0.15
  -3   8   7    2.91    0.13
  -2  -8   7    8.67    0.24
   2  -8  -7    8.16    0.24
   2   8  -7    8.32    0.24
   2   8  -7    8.75    0.26
  -2   8   7    7.86    0.24
   2   8  -7    8.70    0.23
  -1  -8   7    9.09    0.22
   1  -8  -7    8.83    0.25
  -1  -8   7    8.90    0.25
   1   8  -7    9.03    0.25
   1   8  -7    9.18    0.25
   1   8  -7    8.92    0.24
  -1   8   7    8.95    0.26
   0  -8  -7    3.98    0.15
   0  -8   7    4.21    0.15
   0  -8   7    4.21    0.13
   0  -8   7    4.19    0.15
   0   8  -7    4.18    0.14
   0   8  -7    4.46    0.16
   0   8  -7    4.08    0.14
   0   8   7    4.39    0.16
   1  -8   7   20.43    0.47
   1  -8   7   20.59    0.50
   1  -8   7   21.39    0.49
   1   8   7   21.77    0.53
   1   8   7   21.89    0.50
  -1   8  -7   21.05    0.49
  -1   8  -7   21.15    0.49
  -1   8  -7   21.45    0.50
   2  -8   7    1.42    0.10
   2  -8   7    1.59    0.09
   2  -8   7    1.45    0.08
   2   8   7    1.55    0.10
  -2   8  -7    1.50    0.09
  -2   8  -7    1.65    0.10
   2   8   7    1.49    0.11
  -2   8  -7    1.50    0.09
   3  -8   7    0.10    0.05
   3  -8   7   -0.02    0.05
   3  -8   7    0.05    0.03
  -3   8  -7    0.10    0.04
  -3   8  -7   -0.01    0.04
   4  -8   7    0.34    0.07
   4  -8   7    0.20    0.07
  -4   8  -7    0.24    0.06
   4   8   7    0.25    0.06
  -4   8  -7    0.31    0.07
   5  -9  -7    1.11    0.11
  -5  -9   7    1.22    0.11
  -5   9   7    1.07    0.11
  -5   9   7    1.14    0.11
   5   9  -7    1.25    0.11
  -4  -9   7    3.04    0.14
   4  -9  -7    3.32    0.15
   4   9  -7    3.05    0.15
  -4   9   7    3.36    0.15
   4   9  -7    3.28    0.15
  -4   9   7    3.23    0.16
   3  -9  -7    0.42    0.06
  -3  -9   7    0.38    0.06
   3   9  -7    0.49    0.07
  -3   9   7    0.43    0.07
   3   9  -7    0.50    0.06
   3   9  -7    0.39    0.08
  -2  -9   7    0.51    0.06
   2  -9  -7    0.65    0.07
   2   9  -7    0.59    0.06
   2   9  -7    0.57    0.07
  -2   9   7    0.64    0.07
   2   9  -7    0.50    0.07
  -1  -9   7    2.14    0.11
   1  -9  -7    2.18    0.11
  -1   9   7    2.05    0.11
   1   9  -7    2.14    0.11
   1   9  -7    2.30    0.12
   1   9  -7    2.35    0.10
   0  -9   7    3.94    0.14
   0  -9  -7    4.04    0.16
   0  -9   7    3.96    0.15
   0   9  -7    4.07    0.14
   0   9  -7    4.09    0.14
   0   9   7    4.40    0.16
   0   9  -7    4.28    0.16
   1  -9   7   20.70    0.50
   1  -9   7   21.78    0.50
   1  -9   7   21.35    0.50
  -1   9  -7   20.68    0.50
  -1   9  -7   20.93    0.50
   1   9   7   21.05    0.53
  -1   9  -7   21.71    0.49
   1   9   7   21.36    0.50
   2  -9   7    0.07    0.05
   2  -9   7    0.04    0.04
   2  -9   7    0.04    0.04
  -2   9  -7    0.03    0.03
   2   9   7   -0.01    0.03
  -2   9  -7    0.01    0.04
  -2   9  -7    0.03    0.04
   2   9   7    0.01    0.04
   3  -9   7    5.53    0.21
   3  -9   7    5.26    0.22
  -3   9  -7    5.49    0.20
  -3   9  -7    5.58    0.20
   4  -9   7    0.17    0.07
   4  -9   7    0.10    0.06
  -4   9  -7    0.17    0.07
  -4   9  -7    0.13    0.05
  -4 -10   7    0.44    0.07
   4 -10  -7    0.43    0.07
  -4  10   7    0.50    0.08
   4  10  -7    0.44    0.07
   4  10  -7    0.48    0.07
   3 -10  -7    0.10    0.05
  -3 -10   7    0.11    0.05
   3  10  -7    0.08    0.04
  -3  10   7    0.11    0.05
   3  10  -7    0.01    0.06
   3  10  -7    0.03    0.04
   2 -10  -7   27.83    0.65
  -2 -10   7   27.42    0.63
   2  10  -7   28.39    0.62
   2  10  -7   27.07    0.64
   2  10  -7   27.49    0.65
  -2  10   7   27.82    0.65
   1 -10  -7   12.00    0.33
  -1 -10   7   12.17    0.32
  -1  10   7   12.19    0.33
   1  10  -7   12.45    0.31
   1  10  -7   12.05    0.33
   0 -10  -7    1.64    0.11
   0 -10   7    1.58    0.10
   0 -10   7    1.61    0.09
   0  10  -7    1.52    0.09
   0  10  -7    1.56    0.10
   0  10   7    1.68    0.11
   0  10  -7    1.72    0.09
   0  10   7    1.52    0.10
   1 -10   7    0.39    0.06
   1 -10   7    0.47    0.06
   1 -10   7    0.51    0.07
  -1  10  -7    0.58    0.07
   1  10   7    0.50    0.06
  -1  10  -7    0.47    0.06
  -1  10  -7    0.54    0.06
   1  10   7    0.53    0.08
   2 -10   7    1.74    0.11
   2 -10   7    1.81    0.12
   2 -10   7    1.93    0.10
  -2  10  -7    1.86    0.11
  -2  10  -7    1.81    0.10
  -2  10  -7    1.96    0.11
   3 -10   7    0.00    0.05
   3 -10   7    0.09    0.05
  -3  10  -7   -0.04    0.04
  -3  10  -7   -0.01    0.03
   4 -11  -7    1.24    0.11
  -4 -11   7    1.30    0.10
  -4  11   7    1.10    0.11
   4  11  -7    1.17    0.10
   4  11  -7    1.12    0.11
   3 -11  -7    0.31    0.06
  -3 -11   7    0.45    0.07
   3  11  -7    0.27    0.05
   3  11  -7    0.27    0.06
  -3  11   7    0.44    0.07
   2 -11  -7    1.02    0.09
  -2 -11   7    0.97    0.09
   2  11  -7    1.07    0.08
  -2  11   7    1.08    0.09
   2  11  -7    1.10    0.09
   2  11  -7    1.03    0.10
  -1 -11   7    0.21    0.05
   1 -11  -7    0.18    0.05
   1  11  -7    0.23    0.05
  -1  11   7    0.39    0.06
   1  11  -7    0.22    0.04
   0 -11   7    5.41    0.17
   0 -11   7    5.48    0.19
   0 -11  -7    5.19    0.19
   0  11  -7    5.52    0.19
   0  11   7    5.24    0.20
   0  11   7    5.23    0.19
   0  11  -7    5.15    0.17
   0  11  -7    5.36    0.18
   1 -11   7    1.85    0.11
   1 -11   7    1.93    0.11
   1 -11   7    1.79    0.12
   1  11   7    2.12    0.13
  -1  11  -7    2.06    0.10
  -1  11  -7    1.93    0.12
   1  11   7    1.87    0.11
  -1  11  -7    1.90    0.11
   2 -11   7    0.01    0.04
   2 -11   7    0.04    0.04
   2 -11   7    0.01    0.04
  -2  11  -7    0.08    0.04
  -2  11  -7    0.02    0.04
   3 -11   7    0.23    0.07
   3 -11   7    0.27    0.07
  -3  11  -7    0.17    0.06
  -3  11  -7    0.28    0.06
  -4 -12   7    0.07    0.06
   4 -12  -7    0.11    0.05
  -4  12   7    0.09    0.06
   4  12  -7    0.01    0.05
   4  12  -7    0.15    0.05
  -3 -12   7    0.32    0.06
   3 -12  -7    0.41    0.07
   3  12  -7    0.31    0.06
   3  12  -7    0.35    0.06
  -3  12   7    0.26    0.06
   2 -12  -7    0.27    0.06
  -2 -12   7    0.27    0.06
  -2  12   7    0.31    0.06
   2  12  -7    0.24    0.05
   2  12  -7    0.38    0.07
   1 -12  -7    1.65    0.11
  -1 -12   7    1.63    0.10
  -1  12   7    1.64    0.11
   1  12  -7    1.77    0.11
   1  12  -7    1.63    0.10
   1  12  -7    1.51    0.09
   0 -12   7    0.33    0.06
   0 -12  -7    0.29    0.06
   0  12   7    0.28    0.06
   0  12   7    0.17    0.05
   0  12  -7    0.21    0.05
   0  12  -7    0.29    0.05
   0  12  -7    0.23    0.06
   1 -12   7    6.76    0.22
   1 -12   7    6.32    0.22
  -1  12  -7    6.40    0.22
   1  12   7    6.54    0.22
  -1  12  -7    6.86    0.21
  -1  12  -7    6.92    0.22
   2 -12   7    1.96    0.12
   2 -12   7    1.75    0.11
   2 -12   7    1.70    0.12
  -2  12  -7    1.76    0.11
  -2  12  -7    1.67    0.11
   3 -12   7    0.20    0.07
   3 -12   7    0.13    0.06
  -3  12  -7    0.13    0.06
  -3  12  -7    0.15    0.05
   4 -13  -7    4.61    0.21
   4  13  -7    4.29    0.20
  -4  13   7    4.70    0.21
   3 -13  -7    0.43    0.08
  -3 -13   7    0.64    0.08
   3  13  -7    0.47    0.07
  -3  13   7    0.70    0.09
  -2 -13   7    0.12    0.05
   2 -13  -7    0.17    0.05
  -2  13   7    0.27    0.06
   2  13  -7    0.13    0.05
  -1 -13   7    0.20    0.05
   1 -13  -7    0.19    0.05
   1  13  -7    0.22    0.05
   1  13  -7    0.10    0.05
  -1  13   7    0.16    0.05
  -1  13   7    0.17    0.05
   0 -13  -7    6.50    0.23
   0 -13   7    6.50    0.22
   0  13   7    6.36    0.22
   0  13   7    6.52    0.23
   0  13  -7    6.21    0.22
   0  13  -7    6.32    0.22
   1 -13   7    0.15    0.05
   1 -13   7    0.11    0.05
  -1  13  -7    0.14    0.06
  -1  13  -7    0.18    0.05
   2 -13   7    0.05    0.05
   2 -13   7    0.07    0.05
   2 -13   7    0.06    0.05
  -2  13  -7    0.09    0.05
  -2  13  -7    0.04    0.04
   3 -13   7    0.52    0.08
   3 -13   7    0.74    0.10
  -3  13  -7    0.64    0.09
  -3  13  -7    0.45    0.09
  -3 -14   7    1.43    0.11
   3 -14  -7    1.24    0.11
   3  14  -7    1.24    0.12
  -3  14   7    1.48    0.12
  -2 -14   7    0.12    0.05
   2 -14  -7    0.16    0.05
   2  14  -7    0.21    0.06
  -2  14   7    0.15    0.05
  -1 -14   7    0.30    0.06
   1 -14  -7    0.16    0.05
   1 -14  -7    0.25    0.06
   1  14  -7    0.25    0.05
   1  14  -7    0.19    0.06
  -1  14   7    0.17    0.05
   0 -14   7    0.28    0.06
   0 -14  -7    0.32    0.07
   0  14  -7    0.24    0.06
   0  14   7    0.35    0.06
   0  14  -7    0.27    0.06
   1 -14   7    2.79    0.14
   1 -14   7    2.51    0.13
  -1  14  -7    2.52    0.14
  -1  14  -7    2.66    0.14
   2 -14   7    6.23    0.23
   2 -14   7    6.12    0.22
  -2  14  -7    6.00    0.23
  -3 -15   7    0.17    0.05
   3 -15  -7    0.02    0.05
   3  15  -7   -0.02    0.05
  -3  15   7    0.13    0.06
  -2 -15   7    1.01    0.10
   2 -15  -7    0.87    0.10
  -2  15   7    0.91    0.10
   2  15  -7    0.92    0.10
  -1 -15   7    0.21    0.06
   1 -15  -7    0.19    0.06
   1 -15  -7    0.27    0.06
  -1  15   7    0.23    0.06
   1  15  -7    0.25    0.06
   1  15  -7    0.29    0.06
   0 -15  -7    1.02    0.10
   0 -15   7    1.10    0.11
   0  15  -7    1.00    0.10
   0  15  -7    1.12    0.11
   0  15   7    1.00    0.10
   1 -15   7    0.05    0.05
  -1  15  -7    0.03    0.04
   2 -15   7    0.54    0.08
   2 -15   7    0.51    0.08
  -2  15  -7    0.46    0.08
  -2 -16   7    0.16    0.06
   2 -16  -7    0.12    0.06
   2  16  -7    0.00    0.05
  -2  16   7    0.10    0.05
   1 -16  -7   -0.01    0.05
  -1 -16   7    0.18    0.06
   1 -16  -7    0.08    0.05
  -1  16   7    0.01    0.05
   1  16  -7    0.07    0.06
   1  16  -7    0.20    0.06
   0 -16   7    1.49    0.12
   0 -16  -7    1.24    0.12
   0  16  -7    1.36    0.12
   0  16  -7    1.34    0.11
   1 -16   7   -0.02    0.05
  -1  16  -7    0.08    0.05
   1  16   7    0.11    0.04
   1 -17  -7    1.48    0.13
   1 -17  -7    1.58    0.13
  -1 -17   7    1.79    0.13
   1  17  -7    1.77    0.13
   1  17  -7    1.42    0.13
  -1  17   7    1.59    0.12
   0 -17   7    0.50    0.08
   0 -17  -7    0.37    0.08
   0  17  -7    0.52    0.09
   0  17  -7    0.46    0.08
   5   0  -8    0.01    0.04
  -5   0   8    0.14    0.04
  -5   0   8    0.09    0.05
   4   0  -8    4.64    0.19
   4   0  -8    4.76    0.17
  -4   0   8    5.04    0.18
  -4   0   8    4.79    0.16
   3   0  -8    0.12    0.04
   3   0  -8    0.08    0.05
  -3   0   8    0.12    0.04
  -3   0   8    0.10    0.03
  -3   0   8    0.27    0.05
  -2   0   8    5.52    0.16
  -2   0   8    5.49    0.17
   2   0  -8    5.39    0.19
   2   0  -8    5.55    0.16
   2   0  -8    5.33    0.15
   2   0  -8    5.55    0.16
  -2   0   8    5.21    0.15
  -1   0   8    0.02    0.03
  -1   0   8    0.02    0.03
   1   0  -8    0.00    0.03
   1   0  -8    0.05    0.03
   1   0  -8    0.05    0.04
   0   0  -8    9.73    0.25
   0   0   8    9.89    0.26
   0   0   8    9.67    0.25
   0   0  -8    9.89    0.24
  -1   0  -8    0.09    0.04
   1   0   8    0.11    0.05
   1   0   8    0.08    0.03
  -1   0  -8    0.11    0.03
   2   0   8   17.08    0.40
   2   0   8   16.83    0.42
   2   0   8   16.06    0.40
  -2   0  -8   16.34    0.40
  -2   0  -8   16.44    0.39
   3   0   8    0.03    0.04
  -3   0  -8    0.03    0.03
  -3   0  -8    0.01    0.03
   3   0   8    0.05    0.05
   4   0   8    0.55    0.08
  -4   0  -8    0.66    0.08
  -4   0  -8    0.52    0.07
   4   0   8    0.57    0.08
   5  -1  -8    1.41    0.10
  -5  -1   8    1.44    0.10
  -5  -1   8    1.30    0.11
  -5   1   8    1.41    0.10
   5   1  -8    1.17    0.10
  -5   1   8    1.56    0.12
   4  -1  -8    2.17    0.13
  -4  -1   8    2.30    0.11
   4  -1  -8    2.10    0.11
  -4  -1   8    2.07    0.12
   4   1  -8    2.29    0.14
  -4   1   8    2.11    0.11
  -4   1   8    2.07    0.11
   4   1  -8    2.22    0.11
   3  -1  -8    4.40    0.15
  -3  -1   8    4.24    0.15
   3  -1  -8    4.47    0.17
  -3  -1   8    4.20    0.14
   3   1  -8    4.18    0.17
   3   1  -8    4.21    0.14
  -3   1   8    4.01    0.13
  -3   1   8    4.64    0.15
   3   1  -8    4.41    0.15
  -3   1   8    4.29    0.15
   2  -1  -8    0.82    0.06
  -2  -1   8    0.58    0.05
   2  -1  -8    0.60    0.06
  -2  -1   8    0.74    0.06
   2  -1  -8    0.65    0.07
  -2  -1   8    0.62    0.06
   2  -1  -8    0.59    0.05
  -2   1   8    0.62    0.06
   2   1  -8    0.56    0.07
  -2   1   8    0.57    0.06
   2   1  -8    0.65    0.06
   2   1  -8    0.64    0.06
  -1  -1   8    8.80    0.23
   1  -1  -8    8.72    0.22
   1  -1  -8    8.77    0.24
  -1  -1   8    8.44    0.23
   1  -1  -8    9.07    0.22
  -1   1   8    8.65    0.22
  -1   1   8    9.16    0.24
   1   1  -8    8.55    0.24
   1   1  -8    8.45    0.23
   1   1  -8    8.41    0.22
   0  -1  -8    1.80    0.08
   0  -1  -8    1.63    0.09
   0  -1   8    1.74    0.10
   0   1  -8    1.59    0.09
   0   1   8    1.69    0.09
   0   1   8    1.72    0.08
   0   1  -8    1.74    0.08
   1  -1   8    2.82    0.10
   1  -1   8    2.76    0.11
  -1  -1  -8    2.87    0.12
   1  -1   8    2.73    0.13
  -1  -1  -8    2.74    0.10
  -1   1  -8    2.87    0.11
   1   1   8    2.83    0.11
   1   1   8    2.85    0.13
  -1   1  -8    2.59    0.12
  -2  -1  -8    3.41    0.14
   2  -1   8    3.53    0.14
   2  -1   8    3.59    0.15
  -2  -1  -8    3.54    0.13
   2   1   8    3.36    0.15
   2   1   8    3.27    0.13
  -2   1  -8    3.32    0.13
  -2   1  -8    3.24    0.13
   2   1   8    3.48    0.13
   3  -1   8    3.51    0.15
   3  -1   8    3.58    0.16
  -3  -1  -8    3.52    0.14
  -3  -1  -8    3.55    0.15
  -3   1  -8    3.58    0.14
   3   1   8    3.50    0.15
  -3   1  -8    3.76    0.15
   3   1   8    3.67    0.16
  -4  -1  -8    0.03    0.03
   4  -1   8    0.02    0.05
   4  -1   8    0.02    0.04
  -4  -1  -8    0.04    0.04
   4   1   8    0.00    0.05
  -4   1  -8    0.07    0.04
  -4   1  -8    0.01    0.04
   4   1   8    0.01    0.04
  -5  -2   8    0.33    0.07
  -5  -2   8    0.31    0.06
   5  -2  -8    0.30    0.06
   5   2  -8    0.33    0.06
  -5   2   8    0.32    0.06
  -5   2   8    0.43    0.08
   4  -2  -8    0.83    0.07
   4  -2  -8    0.83    0.09
  -4  -2   8    0.79    0.08
  -4  -2   8    0.93    0.08
  -4   2   8    0.80    0.07
   4   2  -8    0.70    0.09
  -4   2   8    0.82    0.08
   4   2  -8    0.73    0.08
  -3  -2   8   15.52    0.38
   3  -2  -8   16.15    0.41
   3  -2  -8   15.61    0.37
  -3  -2   8   15.52    0.37
  -3   2   8   15.84    0.38
   3   2  -8   15.84    0.38
  -3   2   8   16.01    0.38
   3   2  -8   15.38    0.41
   3   2  -8   15.90    0.37
  -2  -2   8    0.56    0.06
  -2  -2   8    0.47    0.05
   2  -2  -8    0.45    0.06
  -2  -2   8    0.43    0.04
   2  -2  -8    0.55    0.05
   2  -2  -8    0.53    0.05
   2  -2  -8    0.49    0.05
   2   2  -8    0.38    0.06
   2   2  -8    0.53    0.06
  -2   2   8    0.52    0.05
  -2   2   8    0.50    0.05
   2   2  -8    0.51    0.06
  -1  -2   8    2.31    0.10
   1  -2  -8    2.10    0.11
   1  -2  -8    2.13    0.09
   1  -2  -8    2.13    0.09
  -1  -2   8    2.30    0.10
   1  -2  -8    2.21    0.09
   1   2  -8    2.11    0.11
   1   2  -8    2.23    0.09
  -1   2   8    2.27    0.10
   1   2  -8    2.36    0.10
  -1   2   8    2.22    0.09
   0  -2   8   27.58    0.61
   0  -2   8   26.71    0.60
   0  -2  -8   28.36    0.61
   0  -2  -8   28.05    0.59
   0   2  -8   27.56    0.58
   0   2  -8   27.59    0.61
   0   2   8   27.92    0.62
   0   2   8   27.66    0.60
   0   2  -8   27.54    0.60
   0   2  -8   27.93    0.61
  -1  -2  -8   18.88    0.44
   1  -2   8   18.28    0.45
  -1  -2  -8   19.07    0.42
   1  -2   8   17.71    0.41
   1  -2   8   18.33    0.43
  -1   2  -8   18.84    0.44
  -1   2  -8   18.58    0.43
   1   2   8   18.60    0.43
   1   2   8   19.05    0.45
  -1   2  -8   18.56    0.46
  -2  -2  -8   16.52    0.40
   2  -2   8   15.67    0.39
  -2  -2  -8   15.88    0.38
   2  -2   8   15.39    0.40
   2   2   8   17.22    0.40
   2   2   8   15.95    0.41
  -2   2  -8   16.18    0.39
  -2   2  -8   15.64    0.39
   2   2   8   16.72    0.41
  -3  -2  -8    0.34    0.05
   3  -2   8    0.51    0.08
   3  -2   8    0.37    0.06
  -3  -2  -8    0.36    0.06
   3   2   8    0.40    0.07
   3   2   8    0.38    0.06
  -3   2  -8    0.37    0.06
  -3   2  -8    0.42    0.06
   4  -2   8    0.07    0.05
   4  -2   8    0.06    0.05
   4   2   8    0.02    0.04
   4   2   8    0.04    0.05
  -4   2  -8    0.03    0.04
   5  -3  -8    0.02    0.04
  -5  -3   8    0.01    0.05
  -5  -3   8    0.09    0.05
   5   3  -8    0.11    0.05
  -5   3   8    0.08    0.05
  -4  -3   8    1.26    0.09
  -4  -3   8    1.19    0.09
   4  -3  -8    1.14    0.08
   4  -3  -8    1.31    0.10
   4   3  -8    1.23    0.09
  -4   3   8    1.24    0.09
   4   3  -8    1.21    0.11
  -4   3   8    1.21    0.09
  -3  -3   8    8.65    0.23
   3  -3  -8    8.27    0.26
   3  -3  -8    8.28    0.23
  -3  -3   8    8.17    0.23
   3  -3  -8    8.25    0.22
   3   3  -8    8.70    0.27
  -3   3   8    8.57    0.24
   3   3  -8    8.37    0.23
  -3   3   8    8.27    0.24
  -2  -3   8    6.71    0.19
   2  -3  -8    6.59    0.18
  -2  -3   8    7.06    0.19
   2  -3  -8    6.56    0.18
   2  -3  -8    6.64    0.21
   2  -3  -8    6.84    0.19
   2   3  -8    6.52    0.19
   2   3  -8    6.94    0.22
  -2   3   8    6.66    0.19
   2   3  -8    6.80    0.20
  -2   3   8    6.70    0.20
   1  -3  -8    2.77    0.11
   1  -3  -8    2.67    0.12
   1  -3  -8    2.61    0.10
   1  -3  -8    2.69    0.09
  -1  -3   8    2.53    0.11
  -1  -3   8    2.56    0.10
  -1   3   8    2.74    0.11
  -1   3   8    2.75    0.10
   1   3  -8    2.28    0.10
   1   3  -8    2.35    0.11
   1   3  -8    2.54    0.11
   0  -3   8    1.45    0.10
   0  -3   8    1.49    0.08
   0  -3  -8    1.43    0.08
   0  -3  -8    1.57    0.07
   0   3  -8    1.41    0.08
   0   3  -8    1.52    0.06
   0   3   8    1.50    0.08
   0   3  -8    1.60    0.09
   0   3   8    1.38    0.09
   0   3  -8    1.45    0.08
  -1  -3  -8    3.89    0.14
   1  -3   8    3.98    0.14
   1  -3   8    3.87    0.13
   1  -3   8    4.09    0.16
  -1  -3  -8    4.01    0.12
  -1   3  -8    4.09    0.12
  -1   3  -8    4.06    0.15
   1   3   8    4.20    0.16
  -1   3  -8    3.93    0.14
   1   3   8    4.06    0.14
  -2  -3  -8    1.14    0.09
  -2  -3  -8    1.05    0.07
   2  -3   8    1.15    0.10
   2  -3   8    1.17    0.08
   2   3   8    1.25    0.08
  -2   3  -8    1.12    0.09
   2   3   8    0.99    0.09
  -2   3  -8    1.20    0.08
  -2   3  -8    1.14    0.08
   2   3   8    1.12    0.09
  -3  -3  -8    0.07    0.04
   3  -3   8    0.03    0.05
   3  -3   8    0.06    0.04
  -3   3  -8    0.06    0.04
   3   3   8    0.04    0.04
   3   3   8    0.02    0.04
   3   3   8    0.05    0.05
  -3   3  -8    0.07    0.04
   4  -3   8    4.01    0.17
   4  -3   8    4.21    0.19
   4   3   8    4.16    0.18
  -4   3  -8    4.08    0.17
  -5  -4   8    0.39    0.06
  -5  -4   8    0.24    0.06
   5   4  -8    0.28    0.07
  -5   4   8    0.19    0.06
  -4  -4   8    1.06    0.09
   4  -4  -8    1.18    0.10
  -4  -4   8    1.24    0.09
   4  -4  -8    1.06    0.08
   4   4  -8    1.20    0.09
  -4   4   8    0.94    0.08
  -4   4   8    1.07    0.09
   4   4  -8    0.96    0.12
   3  -4  -8    0.45    0.05
  -3  -4   8    0.50    0.06
   3  -4  -8    0.60    0.05
   3  -4  -8    0.47    0.07
  -3  -4   8    0.46    0.05
   3   4  -8    0.56    0.06
  -3   4   8    0.53    0.06
  -3   4   8    0.55    0.06
   3   4  -8    0.43    0.07
   3   4  -8    0.51    0.06
   2  -4  -8    2.00    0.11
  -2  -4   8    2.18    0.10
   2  -4  -8    2.06    0.08
  -2  -4   8    2.26    0.11
   2  -4  -8    2.08    0.10
   2   4  -8    2.29    0.11
  -2   4   8    1.89    0.09
  -2   4   8    2.22    0.11
   2   4  -8    2.21    0.10
   2   4  -8    2.13    0.12
   1  -4  -8    2.59    0.09
   1  -4  -8    2.85    0.10
   1  -4  -8    2.67    0.11
  -1  -4   8    2.71    0.11
  -1  -4   8    2.62    0.11
   1   4  -8    2.60    0.11
   1   4  -8    2.60    0.12
   1   4  -8    2.56    0.12
  -1   4   8    2.64    0.11
  -1   4   8    2.80    0.10
   0  -4  -8    0.50    0.05
   0  -4  -8    0.56    0.04
   0  -4   8    0.66    0.07
   0  -4   8    0.57    0.06
   0  -4   8    0.52    0.06
   0   4  -8    0.53    0.04
   0   4  -8    0.60    0.07
   0   4  -8    0.60    0.06
   0   4  -8    0.57    0.06
   0   4   8    0.49    0.06
   0   4   8    0.57    0.06
   1  -4   8   21.98    0.51
  -1  -4  -8   21.68    0.50
   1  -4   8   23.31    0.54
   1  -4   8   23.46    0.52
  -1  -4  -8   22.86    0.53
  -1   4  -8   23.85    0.53
   1   4   8   23.93    0.54
  -1   4  -8   23.70    0.51
   1   4   8   22.84    0.52
  -1   4  -8   23.67    0.53
  -2  -4  -8    7.24    0.22
   2  -4   8    7.54    0.24
   2  -4   8    7.54    0.22
   2   4   8    7.46    0.23
   2   4   8    7.55    0.22
  -2   4  -8    7.85    0.22
  -2   4  -8    7.42    0.21
   2   4   8    7.19    0.24
  -2   4  -8    7.41    0.22
   3  -4   8    0.49    0.07
  -3  -4  -8    0.48    0.07
   3  -4   8    0.57    0.08
  -3   4  -8    0.52    0.07
   3   4   8    0.43    0.07
   3   4   8    0.38    0.07
  -3   4  -8    0.38    0.06
  -3   4  -8    0.50    0.07
   3   4   8    0.38    0.06
   4  -4   8    0.01    0.04
   4  -4   8    0.05    0.05
   4   4   8   -0.01    0.04
  -4   4  -8   -0.02    0.04
  -5  -5   8    1.77    0.12
  -5  -5   8    1.91    0.12
  -5   5   8    1.79    0.12
   5   5  -8    1.90    0.13
  -4  -5   8    4.53    0.17
   4  -5  -8    4.91    0.19
  -4  -5   8    4.77    0.17
  -4   5   8    5.02    0.18
  -4   5   8    4.68    0.18
   4   5  -8    4.67    0.18
   4   5  -8    4.60    0.19
  -3  -5   8    3.51    0.13
   3  -5  -8    3.22    0.15
  -3  -5   8    3.26    0.13
   3  -5  -8    3.34    0.13
   3   5  -8    3.53    0.14
   3   5  -8    3.39    0.13
  -3   5   8    3.17    0.14
  -3   5   8    3.40    0.13
   3   5  -8    3.66    0.17
   2  -5  -8    0.24    0.04
   2  -5  -8    0.11    0.04
  -2  -5   8    0.09    0.04
   2   5  -8    0.16    0.06
   2   5  -8    0.18    0.05
   2   5  -8    0.06    0.04
  -2   5   8    0.07    0.03
  -2   5   8    0.10    0.04
  -1  -5   8   26.66    0.58
   1  -5  -8   25.66    0.59
   1  -5  -8   26.39    0.57
   1   5  -8   26.99    0.60
   1   5  -8   26.34    0.58
  -1   5   8   25.49    0.59
  -1   5   8   25.88    0.57
   1   5  -8   26.79    0.59
   0  -5   8    0.21    0.04
   0  -5  -8    0.25    0.05
   0  -5   8    0.20    0.05
   0  -5   8    0.22    0.04
   0   5   8    0.17    0.04
   0   5   8    0.17    0.05
   0   5  -8    0.22    0.03
   0   5  -8    0.18    0.04
   0   5  -8    0.23    0.05
   0   5  -8    0.22    0.04
  -1  -5  -8    0.06    0.04
   1  -5   8    0.07    0.05
   1  -5   8    0.09    0.04
   1  -5   8    0.02    0.03
   1   5   8    0.01    0.04
   1   5   8    0.08    0.04
  -1   5  -8    0.01    0.05
  -1   5  -8    0.00    0.03
  -1   5  -8    0.05    0.03
   2  -5   8    0.24    0.06
   2  -5   8    0.24    0.05
  -2  -5  -8    0.28    0.05
  -2   5  -8    0.26    0.05
   2   5   8    0.24    0.05
   2   5   8    0.26    0.06
   2   5   8    0.31    0.05
  -2   5  -8    0.22    0.04
  -2   5  -8    0.33    0.05
   3  -5   8    4.56    0.17
   3  -5   8    4.51    0.19
   3   5   8    4.96    0.19
   3   5   8    4.88    0.18
  -3   5  -8    4.41    0.17
  -3   5  -8    4.73    0.18
  -3   5  -8    4.90    0.17
   3   5   8    4.65    0.19
   4  -5   8    1.50    0.12
   4  -5   8    1.36    0.10
   4   5   8    1.50    0.11
  -4   5  -8    1.36    0.11
  -4   5  -8    1.21    0.12
  -5  -6   8    0.17    0.05
  -5  -6   8    0.05    0.05
   5   6  -8    0.12    0.05
  -5   6   8    0.11    0.06
   4  -6  -8    3.33    0.16
  -4  -6   8    3.38    0.14
   4  -6  -8    3.46    0.15
  -4  -6   8    3.66    0.15
  -4   6   8    3.10    0.15
   4   6  -8    3.47    0.15
   4   6  -8    3.55    0.15
  -4   6   8    3.26    0.14
   3  -6  -8    0.74    0.07
   3  -6  -8    0.74    0.08
  -3  -6   8    0.61    0.06
  -3   6   8    0.66    0.07
  -3   6   8    0.83    0.07
   3   6  -8    0.47    0.08
   3   6  -8    0.61    0.07
   3   6  -8    0.54    0.06
  -2  -6   8    6.83    0.19
   2  -6  -8    6.95    0.21
   2   6  -8    6.82    0.22
  -2   6   8    6.61    0.19
  -2   6   8    6.60    0.21
   2   6  -8    6.51    0.21
   2   6  -8    6.84    0.20
  -1  -6   8    0.34    0.06
  -1  -6   8    0.36    0.05
   1  -6  -8    0.43    0.06
  -1  -6   8    0.35    0.05
   1  -6  -8    0.38    0.05
   1   6  -8    0.38    0.06
  -1   6   8    0.42    0.05
   1   6  -8    0.33    0.05
   1   6  -8    0.29    0.06
  -1   6   8    0.40    0.06
   0  -6  -8    4.54    0.15
   0  -6   8    4.70    0.16
   0  -6   8    4.70    0.16
   0  -6  -8    4.65    0.17
   0  -6   8    4.82    0.15
   0   6  -8    4.77    0.15
   0   6  -8    4.87    0.16
   0   6   8    4.61    0.17
   0   6  -8    4.68    0.15
   0   6  -8    4.52    0.16
   0   6   8    4.42    0.14
   1  -6   8    0.71    0.08
   1  -6   8    0.65    0.06
   1  -6   8    0.69    0.07
  -1  -6  -8    0.58    0.06
   1   6   8    0.59    0.06
   1   6   8    0.65    0.07
   1   6   8    0.53    0.07
  -1   6  -8    0.66    0.07
  -1   6  -8    0.70    0.07
  -1   6  -8    0.63    0.06
  -2  -6  -8    9.85    0.28
   2  -6   8   10.16    0.30
   2  -6   8   10.19    0.28
   2   6   8   10.20    0.31
  -2   6  -8   10.26    0.28
   2   6   8   10.91    0.28
  -2   6  -8   10.27    0.28
   2   6   8   10.23    0.29
  -2   6  -8   10.41    0.28
   3  -6   8    0.80    0.08
   3  -6   8    0.87    0.10
   3   6   8    0.94    0.15
   3   6   8    0.89    0.08
  -3   6  -8    0.87    0.09
  -3   6  -8    0.84    0.09
  -3   6  -8    1.03    0.08
   4  -6   8    2.53    0.13
   4  -6   8    2.61    0.15
  -4   6  -8    2.55    0.14
   4   6   8    2.49    0.14
  -4   6  -8    2.39    0.14
  -5  -7   8    0.77    0.09
  -5   7   8    0.86    0.10
  -5   7   8    0.98    0.10
   5   7  -8    0.88    0.10
  -4  -7   8    0.29    0.06
   4  -7  -8    0.22    0.05
  -4  -7   8    0.19    0.05
  -4   7   8    0.29    0.06
  -4   7   8    0.21    0.05
   4   7  -8    0.24    0.06
   4   7  -8    0.17    0.05
  -3  -7   8    0.39    0.05
   3  -7  -8    0.23    0.05
   3  -7  -8    0.38    0.06
  -3   7   8    0.29    0.05
   3   7  -8    0.34    0.05
   3   7  -8    0.27    0.07
   3   7  -8    0.32    0.06
  -3   7   8    0.27    0.06
  -2  -7   8   10.37    0.27
  -2  -7   8   10.67    0.29
   2  -7  -8   10.75    0.29
   2   7  -8   10.84    0.28
   2   7  -8   10.53    0.30
   2   7  -8   10.53    0.29
  -2   7   8   10.53    0.29
  -2   7   8   10.52    0.26
  -1  -7   8   13.55    0.32
  -1  -7   8   13.55    0.33
   1  -7  -8   13.67    0.35
  -1  -7   8   13.53    0.34
   1  -7  -8   13.54    0.32
  -1   7   8   12.60    0.33
  -1   7   8   13.58    0.35
   1   7  -8   13.39    0.34
   1   7  -8   13.35    0.35
   1   7  -8   14.06    0.34
   0  -7  -8    1.15    0.09
   0  -7  -8    1.06    0.08
   0  -7   8    1.10    0.09
   0  -7   8    1.10    0.09
   0  -7   8    1.03    0.07
   0   7   8    1.08    0.09
   0   7  -8    1.12    0.09
   0   7  -8    1.21    0.08
   0   7  -8    1.07    0.07
  -1  -7  -8    2.94    0.12
   1  -7   8    2.94    0.13
   1  -7   8    3.26    0.12
   1  -7   8    3.17    0.12
   1   7   8    3.10    0.14
   1   7   8    2.96    0.14
  -1   7  -8    3.27    0.14
  -1   7  -8    3.14    0.13
  -1   7  -8    3.10    0.12
   2  -7   8    3.47    0.16
   2  -7   8    3.69    0.14
  -2   7  -8    3.63    0.14
   2   7   8    3.66    0.17
  -2   7  -8    3.75    0.15
   2   7   8    3.77    0.14
  -2   7  -8    3.94    0.15
   2   7   8    3.78    0.16
   3  -7   8    9.92    0.28
   3  -7   8    9.87    0.31
  -3   7  -8   10.26    0.30
   3   7   8   10.56    0.29
  -3   7  -8   10.42    0.30
   4  -7   8    0.04    0.06
   4  -7   8    0.01    0.04
   4   7   8    0.04    0.05
  -4   7  -8    0.03    0.05
  -4   7  -8   -0.04    0.05
  -5  -8   8    0.55    0.08
  -5   8   8    0.50    0.08
  -5   8   8    0.49    0.08
   5   8  -8    0.54    0.08
  -4  -8   8    2.30    0.13
   4  -8  -8    2.33    0.13
   4   8  -8    2.12    0.12
  -4   8   8    2.74    0.13
   4   8  -8    2.38    0.13
  -4   8   8    2.29    0.13
  -3  -8   8    2.50    0.11
   3  -8  -8    2.67    0.13
  -3  -8   8    2.49    0.13
  -3   8   8    2.74    0.12
   3   8  -8    2.52    0.12
   3   8  -8    2.75    0.15
   3   8  -8    2.51    0.13
  -3   8   8    2.47    0.13
   2  -8  -8   22.12    0.51
  -2  -8   8   21.14    0.50
   2   8  -8   20.51    0.52
  -2   8   8   21.02    0.51
   2   8  -8   21.22    0.49
   2   8  -8   20.51    0.50
  -1  -8   8    0.43    0.05
   1  -8  -8    0.34    0.06
   1  -8  -8    0.36    0.05
  -1  -8   8    0.35    0.06
   1   8  -8    0.41    0.06
   1   8  -8    0.41    0.05
   1   8  -8    0.37    0.06
  -1   8   8    0.29    0.05
   0  -8   8    2.98    0.12
   0  -8  -8    3.01    0.13
   0  -8  -8    3.11    0.12
   0  -8   8    3.00    0.13
   0  -8   8    2.89    0.11
   0   8   8    3.03    0.13
   0   8  -8    2.87    0.12
   0   8  -8    2.90    0.12
   0   8  -8    2.85    0.13
   1  -8   8    0.01    0.03
   1  -8   8    0.06    0.03
   1  -8   8    0.06    0.05
  -1   8  -8    0.07    0.05
  -1   8  -8    0.03    0.03
  -1   8  -8   -0.02    0.03
   1   8   8   -0.01    0.04
   1   8   8    0.03    0.04
   2  -8   8    0.91    0.09
   2  -8   8    0.97    0.07
   2   8   8    1.10    0.10
  -2   8  -8    1.12    0.09
  -2   8  -8    0.94    0.08
   2   8   8    0.90    0.09
  -2   8  -8    0.84    0.08
   3  -8   8    0.03    0.05
   3  -8   8    0.11    0.04
  -3   8  -8    0.05    0.05
  -3   8  -8    0.17    0.05
   4  -8   8    1.54    0.13
   4  -8   8    1.39    0.14
  -4   8  -8    1.31    0.12
  -4   8  -8    1.47    0.12
  -5  -9   8    0.30    0.06
  -5   9   8    0.46    0.08
  -5   9   8    0.39    0.08
  -4  -9   8    1.65    0.12
   4  -9  -8    1.70    0.11
   4   9  -8    1.71    0.12
   4   9  -8    1.52    0.11
  -4   9   8    1.49    0.12
  -3  -9   8    0.11    0.05
   3  -9  -8    0.06    0.04
   3   9  -8    0.07    0.04
   3   9  -8    0.10    0.05
  -3   9   8    0.04    0.04
   3   9  -8    0.04    0.06
   2  -9  -8    3.61    0.15
  -2  -9   8    3.72    0.15
   2   9  -8    3.89    0.16
   2   9  -8    3.73    0.17
   2   9  -8    3.80    0.14
  -1  -9   8    0.09    0.04
   1  -9  -8    0.04    0.04
  -1   9   8    0.03    0.04
   1   9  -8    0.03    0.03
   1   9  -8   -0.03    0.04
   0  -9   8   17.89    0.44
   0  -9   8   18.73    0.45
   0  -9  -8   17.95    0.46
   0  -9   8   18.90    0.44
   0   9  -8   18.44    0.44
   0   9  -8   18.76    0.46
   0   9  -8   18.48    0.44
   0   9   8   19.00    0.46
   1  -9   8    0.16    0.05
   1  -9   8    0.18    0.05
   1  -9   8    0.08    0.04
   1  -9   8    0.10    0.05
  -1   9  -8    0.07    0.05
  -1   9  -8    0.09    0.04
   1   9   8    0.08    0.04
   1   9   8    0.13    0.05
  -1   9  -8    0.13    0.04
   2  -9   8    5.38    0.20
   2  -9   8    5.48    0.20
   2   9   8    5.42    0.19
  -2   9  -8    5.23    0.19
  -2   9  -8    5.40    0.19
  -2   9  -8    5.63    0.19
   3  -9   8    0.74    0.10
   3  -9   8    1.06    0.11
  -3   9  -8    1.05    0.09
  -3   9  -8    0.88    0.09
   4 -10  -8    0.20    0.06
  -4 -10   8    0.13    0.06
   4  10  -8    0.14    0.06
   4  10  -8    0.27    0.06
  -4  10   8    0.09    0.06
  -3 -10   8    5.13    0.19
   3 -10  -8    5.16    0.20
   3  10  -8    5.46    0.19
   3  10  -8    5.00    0.19
  -3  10   8    4.74    0.19
   3  10  -8    4.74    0.26
   2 -10  -8    0.17    0.05
  -2 -10   8    0.11    0.05
   2  10  -8    0.09    0.05
   2  10  -8    0.10    0.04
   2  10  -8    0.03    0.05
  -2  10   8    0.10    0.05
  -1 -10   8    0.23    0.05
   1 -10  -8    0.17    0.05
   1  10  -8    0.15    0.05
  -1  10   8    0.17    0.05
   1  10  -8    0.17    0.04
   1  10  -8    0.11    0.04
   0 -10   8    4.94    0.18
   0 -10  -8    4.75    0.19
   0 -10   8    5.25    0.17
   0  10   8    4.73    0.19
   0  10   8    5.19    0.19
   0  10  -8    5.08    0.17
   0  10  -8    5.43    0.17
   0  10  -8    4.86    0.18
   1 -10   8    0.58    0.07
   1 -10   8    0.74    0.08
   1 -10   8    0.64    0.10
   1  10   8    0.61    0.08
  -1  10  -8    0.68    0.07
  -1  10  -8    0.63    0.08
   1  10   8    0.76    0.08
  -1  10  -8    0.64    0.07
   2 -10   8    0.01    0.05
   2 -10   8   -0.04    0.04
   2 -10   8    0.00    0.04
  -2  10  -8    0.02    0.04
  -2  10  -8    0.01    0.04
  -2  10  -8    0.04    0.04
   3 -10   8    0.21    0.07
   3 -10   8    0.09    0.06
  -3  10  -8    0.21    0.06
  -3  10  -8    0.16    0.06
   4 -11  -8    2.37    0.14
  -4 -11   8    2.25    0.14
   4  11  -8    2.24    0.13
  -4  11   8    2.34    0.15
   4  11  -8    2.17    0.14
  -3 -11   8    0.06    0.05
   3 -11  -8    0.07    0.04
   3  11  -8    0.08    0.04
   3  11  -8   -0.02    0.04
  -3  11   8    0.03    0.05
  -2 -11   8    3.15    0.14
   2 -11  -8    3.03    0.15
   2  11  -8    3.02    0.15
   2  11  -8    2.66    0.15
  -2  11   8    2.92    0.14
   2  11  -8    3.25    0.13
   1 -11  -8    2.00    0.12
  -1 -11   8    2.07    0.12
   1  11  -8    2.02    0.12
   1  11  -8    2.12    0.10
  -1  11   8    1.89    0.12
   1  11  -8    1.99    0.11
   0 -11   8    2.66    0.13
   0 -11   8    2.42    0.12
   0 -11  -8    2.61    0.14
   0  11   8    2.64    0.14
   0  11  -8    2.63    0.12
   0  11  -8    2.53    0.12
   0  11  -8    2.55    0.13
   0  11   8    2.82    0.14
   1 -11   8    1.01    0.09
   1 -11   8    0.97    0.09
  -1  11  -8    0.99    0.10
  -1  11  -8    1.02    0.08
   1  11   8    1.07    0.10
  -1  11  -8    0.96    0.08
   2 -11   8    3.52    0.15
   2 -11   8    3.38    0.16
   2 -11   8    3.25    0.16
  -2  11  -8    3.20    0.15
  -2  11  -8    3.37    0.15
   3 -11   8    0.34    0.07
   3 -11   8    0.42    0.08
  -3  11  -8    0.44    0.07
  -3  11  -8    0.42    0.08
  -4 -12   8    0.31    0.07
   4 -12  -8    0.39    0.08
   4  12  -8    0.31    0.07
  -4  12   8    0.30    0.08
   4  12  -8    0.38    0.07
   3 -12  -8    0.56    0.08
  -3 -12   8    0.63    0.08
   3  12  -8    0.63    0.08
  -3  12   8    0.74    0.09
   3  12  -8    0.59    0.09
  -2 -12   8    0.67    0.08
   2 -12  -8    0.53    0.08
   2  12  -8    0.50    0.07
  -2  12   8    0.51    0.07
   2  12  -8    0.58    0.07
  -1 -12   8    0.10    0.05
   1 -12  -8    0.13    0.05
  -1  12   8    0.04    0.04
   1  12  -8    0.09    0.04
   1  12  -8    0.08    0.04
   1  12  -8    0.02    0.05
   0 -12  -8    0.12    0.05
   0 -12   8    0.23    0.06
   0  12   8    0.14    0.06
   0  12   8    0.12    0.05
   0  12  -8    0.07    0.04
   0  12  -8    0.11    0.05
   0  12  -8    0.08    0.04
   1 -12   8    0.29    0.06
   1 -12   8    0.28    0.06
   1  12   8    0.15    0.05
  -1  12  -8    0.28    0.05
  -1  12  -8    0.15    0.06
  -1  12  -8    0.21    0.05
   2 -12   8    2.23    0.14
   2 -12   8    2.69    0.15
   2 -12   8    2.36    0.13
  -2  12  -8    2.50    0.13
  -2  12  -8    2.33    0.14
   3 -12   8    0.10    0.06
   3 -12   8    0.16    0.06
  -3  12  -8   -0.01    0.05
  -3  12  -8    0.06    0.05
  -3 -13   8    0.56    0.08
   3 -13  -8    0.56    0.09
  -3  13   8    0.30    0.07
   3  13  -8    0.42    0.08
  -2 -13   8    1.22    0.10
   2 -13  -8    1.18    0.10
   2  13  -8    1.19    0.11
  -2  13   8    1.12    0.10
  -1 -13   8    4.57    0.18
   1 -13  -8    4.45    0.19
  -1  13   8    4.64    0.19
  -1  13   8    4.32    0.23
   1  13  -8    4.56    0.19
   1  13  -8    4.36    0.18
   0 -13   8    1.04    0.10
   0 -13  -8    0.88    0.10
   0  13  -8    1.00    0.09
   0  13  -8    0.88    0.09
   0  13   8    1.08    0.10
   0  13  -8    1.02    0.08
   1 -13   8    0.07    0.04
   1 -13   8    0.03    0.05
  -1  13  -8    0.05    0.05
  -1  13  -8    0.01    0.04
  -1  13  -8    0.05    0.04
   2 -13   8   -0.01    0.05
   2 -13   8    0.13    0.06
  -2  13  -8    0.04    0.05
  -2  13  -8    0.09    0.05
  -3 -14   8    0.11    0.05
   3 -14  -8    0.17    0.06
   3  14  -8    0.09    0.06
  -3  14   8    0.15    0.06
   2 -14  -8    0.65    0.09
  -2 -14   8    0.73    0.09
  -2  14   8    0.68    0.09
   2  14  -8    0.78    0.10
  -1 -14   8    0.24    0.06
   1 -14  -8    0.23    0.06
  -1  14   8    0.13    0.05
   1  14  -8    0.29    0.07
   1  14  -8    0.19    0.05
   0 -14   8    1.97    0.13
   0 -14  -8    1.86    0.13
   0  14  -8    1.78    0.13
   0  14  -8    1.66    0.11
   0  14   8    1.53    0.12
   1 -14   8    1.75    0.12
   1 -14   8    1.66    0.11
  -1  14  -8    1.31    0.12
  -1  14  -8    1.38    0.11
   2 -14   8    1.88    0.13
   2 -14   8    1.63    0.12
  -2  14  -8    1.64    0.13
  -2  14  -8    1.64    0.13
  -2 -15   8    2.94    0.16
   2 -15  -8    2.78    0.16
  -2  15   8    2.75    0.16
   2  15  -8    2.78    0.16
   1 -15  -8    2.05    0.14
  -1 -15   8    1.99    0.13
   1  15  -8    2.11    0.13
  -1  15   8    2.13    0.14
   1  15  -8    2.00    0.14
   0 -15   8    2.30    0.14
   0 -15  -8    2.15    0.15
   0  15  -8    2.26    0.14
   0  15   8    2.25    0.14
   0  15  -8    2.21    0.13
   1 -15   8    1.62    0.13
  -1  15  -8    1.29    0.12
  -2 -16   8    0.24    0.07
  -1 -16   8    0.54    0.08
   1 -16  -8    0.38    0.08
  -1  16   8    0.44    0.08
   1  16  -8    0.50    0.09
   1  16  -8    0.37    0.07
   0 -16   8    0.35    0.08
   0 -16  -8    0.18    0.07
   0  16  -8    0.13    0.06
   0  16  -8    0.07    0.06
  -5   0   9    0.35    0.07
   5   0  -9    0.30    0.06
   4   0  -9    0.05    0.04
   4   0  -9    0.08    0.05
  -4   0   9    0.16    0.06
  -3   0   9    5.47    0.17
   3   0  -9    5.38    0.18
  -3   0   9    5.77    0.18
   3   0  -9    5.39    0.20
   2   0  -9    0.03    0.04
  -2   0   9    0.05    0.04
   2   0  -9    0.06    0.05
   2   0  -9    0.02    0.03
  -2   0   9    0.02    0.04
  -1   0   9   15.81    0.38
  -1   0   9   15.84    0.37
   1   0  -9   15.63    0.37
   1   0  -9   15.72    0.38
   1   0  -9   15.86    0.39
   0   0  -9    0.00    0.03
   0   0   9    0.10    0.05
   0   0  -9    0.07    0.04
  -1   0  -9    0.64    0.07
  -1   0  -9    0.64    0.06
   1   0   9    0.58    0.08
   1   0   9    0.69    0.07
  -2   0  -9   -0.04    0.04
   2   0   9   -0.04    0.03
   2   0   9   -0.01    0.05
  -2   0  -9    0.03    0.03
   3   0   9    3.42    0.16
  -3   0  -9    3.48    0.15
  -3   0  -9    3.53    0.14
   3   0   9    3.68    0.16
  -4   0  -9    0.00    0.04
  -4   0  -9    0.05    0.04
   4   0   9    0.04    0.05
   4   0   9    0.09    0.06
   5  -1  -9    0.08    0.05
  -5  -1   9    0.12    0.05
  -5  -1   9    0.07    0.06
   5   1  -9    0.09    0.05
  -5   1   9    0.09    0.05
   4  -1  -9    0.50    0.07
  -4  -1   9    0.41    0.07
  -4  -1   9    0.50    0.08
   4  -1  -9    0.36    0.07
   4   1  -9    0.43    0.10
   4   1  -9    0.57    0.07
  -4   1   9    0.42    0.07
  -3  -1   9    0.25    0.05
   3  -1  -9    0.32    0.06
   3  -1  -9    0.27    0.05
  -3   1   9    0.42    0.06
   3   1  -9    0.25    0.06
   3   1  -9    0.25    0.05
  -3   1   9    0.29    0.05
   3   1  -9    0.24    0.05
  -2  -1   9   13.56    0.34
   2  -1  -9   13.43    0.32
   2  -1  -9   13.46    0.33
  -2  -1   9   13.44    0.33
   2  -1  -9   13.86    0.33
   2  -1  -9   13.57    0.36
   2   1  -9   13.18    0.36
   2   1  -9   13.64    0.33
   2   1  -9   13.78    0.33
  -2   1   9   13.50    0.34
  -2   1   9   14.02    0.34
   1  -1  -9    4.83    0.17
   1  -1  -9    4.73    0.16
  -1  -1   9    4.95    0.16
   1  -1  -9    4.85    0.15
  -1  -1   9    5.14    0.17
   1   1  -9    5.08    0.16
  -1   1   9    4.62    0.16
   1   1  -9    5.16    0.17
  -1   1   9    4.71    0.16
   1   1  -9    5.07    0.17
   0  -1  -9    1.30    0.07
   0  -1   9    1.18    0.10
   0  -1  -9    1.33    0.09
   0  -1   9    1.31    0.08
   0   1  -9    1.18    0.08
   0   1   9    1.28    0.08
   0   1   9    1.21    0.10
   0   1  -9    1.24    0.09
   1  -1   9    2.10    0.11
   1  -1   9    2.04    0.12
  -1  -1  -9    2.04    0.11
  -1  -1  -9    2.06    0.09
   1   1   9    2.13    0.12
  -1   1  -9    2.06    0.10
  -1   1  -9    2.10    0.11
   1   1   9    2.30    0.11
  -2  -1  -9   11.48    0.29
   2  -1   9   11.23    0.32
  -2  -1  -9   11.28    0.31
   2  -1   9   11.45    0.31
  -2   1  -9   10.87    0.30
   2   1   9   11.81    0.33
   2   1   9   11.23    0.31
   2   1   9   11.78    0.31
  -2   1  -9   11.43    0.31
  -3  -1  -9    1.03    0.08
   3  -1   9    1.19    0.11
   3  -1   9    1.09    0.09
  -3  -1  -9    1.24    0.09
   3   1   9    1.31    0.11
  -3   1  -9    1.05    0.08
   3   1   9    1.29    0.10
  -3   1  -9    1.08    0.09
   4  -1   9    0.56    0.09
  -4  -1  -9    0.57    0.08
   4  -1   9    0.52    0.08
  -4  -1  -9    0.41    0.08
   4   1   9    0.63    0.09
  -4   1  -9    0.61    0.08
   4   1   9    0.60    0.08
  -4   1  -9    0.53    0.07
  -5  -2   9    0.21    0.05
  -5  -2   9    0.27    0.07
   5  -2  -9    0.18    0.05
  -5   2   9    0.25    0.07
   5   2  -9    0.15    0.06
  -4  -2   9   12.71    0.33
   4  -2  -9   12.16    0.32
   4  -2  -9   12.32    0.36
  -4  -2   9   12.50    0.34
  -4   2   9   12.47    0.34
   4   2  -9   12.65    0.34
  -3  -2   9    7.42    0.21
   3  -2  -9    7.33    0.21
  -3  -2   9    7.46    0.22
   3  -2  -9    7.30    0.24
   3   2  -9    8.02    0.25
   3   2  -9    7.72    0.22
  -3   2   9    7.49    0.22
   3   2  -9    7.59    0.22
  -3   2   9    7.48    0.22
   2  -2  -9    3.92    0.13
   2  -2  -9    3.82    0.16
  -2  -2   9    4.17    0.14
   2  -2  -9    3.79    0.13
   2  -2  -9    4.20    0.13
  -2  -2   9    3.82    0.14
  -2   2   9    4.02    0.15
   2   2  -9    3.97    0.14
   2   2  -9    3.76    0.16
  -2   2   9    4.22    0.14
   2   2  -9    3.71    0.14
  -1  -2   9    0.78    0.08
   1  -2  -9    0.75    0.08
   1  -2  -9    0.84    0.07
   1  -2  -9    0.90    0.06
  -1  -2   9    0.76    0.07
  -1   2   9    0.88    0.07
   1   2  -9    0.81    0.08
  -1   2   9    0.87    0.08
   1   2  -9    0.77    0.08
   0  -2   9    1.85    0.11
   0  -2  -9    1.71    0.10
   0  -2   9    1.87    0.10
   0  -2  -9    1.83    0.08
   0   2  -9    1.92    0.11
   0   2  -9    1.83    0.09
   0   2   9    1.76    0.09
   0   2   9    1.75    0.11
   1  -2   9   28.54    0.65
  -1  -2  -9   28.60    0.65
  -1  -2  -9   28.96    0.63
   1  -2   9   29.09    0.67
  -1   2  -9   29.14    0.65
   1   2   9   29.92    0.67
  -1   2  -9   29.22    0.65
   1   2   9   30.55    0.65
  -2  -2  -9    1.79    0.10
   2  -2   9    1.73    0.10
   2  -2   9    1.72    0.12
  -2  -2  -9    1.84    0.09
   2   2   9    1.84    0.10
   2   2   9    1.74    0.11
  -2   2  -9    1.74    0.10
   2   2   9    1.81    0.12
  -2   2  -9    1.85    0.11
  -3  -2  -9    1.58    0.09
   3  -2   9    1.77    0.11
  -3  -2  -9    1.70    0.11
   3  -2   9    1.82    0.12
  -3   2  -9    1.95    0.11
   3   2   9    1.67    0.12
  -3   2  -9    1.63    0.10
   3   2   9    1.67    0.11
   4  -2   9    0.45    0.08
  -4  -2  -9    0.37    0.07
   4  -2   9    0.32    0.07
   4   2   9    0.37    0.08
   4   2   9    0.27    0.07
  -4   2  -9    0.44    0.07
  -5  -3   9    2.95    0.14
  -5  -3   9    2.72    0.15
  -5   3   9    2.89    0.16
   5   3  -9    2.88    0.15
   4  -3  -9    4.23    0.15
  -4  -3   9    4.16    0.16
  -4  -3   9    4.18    0.17
   4  -3  -9    4.27    0.18
   4   3  -9    3.91    0.16
  -4   3   9    4.41    0.17
  -3  -3   9    0.40    0.06
   3  -3  -9    0.27    0.05
   3  -3  -9    0.35    0.06
  -3  -3   9    0.34    0.05
   3   3  -9    0.37    0.06
   3   3  -9    0.37    0.06
  -3   3   9    0.28    0.05
   3   3  -9    0.40    0.07
  -3   3   9    0.36    0.06
   2  -3  -9    0.36    0.05
   2  -3  -9    0.38    0.06
   2  -3  -9    0.59    0.06
   2  -3  -9    0.28    0.05
  -2  -3   9    0.39    0.05
  -2  -3   9    0.41    0.06
   2   3  -9    0.33    0.06
  -2   3   9    0.25    0.05
  -2   3   9    0.37    0.05
   2   3  -9    0.37    0.06
   2   3  -9    0.44    0.06
  -1  -3   9   17.68    0.42
   1  -3  -9   18.05    0.40
   1  -3  -9   17.35    0.41
   1  -3  -9   17.77    0.42
  -1  -3   9   17.78    0.41
  -1   3   9   17.49    0.43
   1   3  -9   17.54    0.42
  -1   3   9   17.73    0.41
   1   3  -9   17.17    0.41
   1   3  -9   17.25    0.43
   0  -3   9    0.73    0.07
   0  -3   9    0.79    0.08
   0  -3  -9    0.80    0.08
   0  -3  -9    0.75    0.06
   0   3   9    0.66    0.07
   0   3   9    0.76    0.08
   0   3  -9    0.79    0.08
   0   3  -9    0.66    0.07
   0   3  -9    0.75    0.07
  -1  -3  -9    0.09    0.04
   1  -3   9    0.13    0.06
  -1  -3  -9    0.07    0.03
   1  -3   9    0.11    0.04
   1  -3   9    0.08    0.04
   1   3   9    0.15    0.04
  -1   3  -9    0.14    0.04
  -1   3  -9    0.09    0.05
   1   3   9    0.16    0.06
  -2  -3  -9    0.37    0.05
   2  -3   9    0.36    0.06
   2  -3   9    0.38    0.07
  -2  -3  -9    0.33    0.06
   2   3   9    0.43    0.06
  -2   3  -9    0.49    0.06
   2   3   9    0.39    0.07
   2   3   9    0.29    0.06
  -2   3  -9    0.27    0.06
   3  -3   9    2.86    0.15
   3  -3   9    2.83    0.14
  -3  -3  -9    3.17    0.15
   3   3   9    3.01    0.15
   3   3   9    2.96    0.14
  -3   3  -9    3.19    0.14
  -3   3  -9    2.88    0.14
   4  -3   9    2.72    0.15
   4  -3   9    2.90    0.16
  -4   3  -9    2.78    0.15
   4   3   9    2.89    0.15
  -5  -4   9    0.13    0.06
  -5  -4   9    0.19    0.05
   5   4  -9    0.13    0.06
  -5   4   9    0.16    0.07
  -4  -4   9    1.22    0.10
  -4  -4   9    1.19    0.09
   4  -4  -9    1.32    0.11
  -4   4   9    1.21    0.09
   4   4  -9    1.19    0.10
  -4   4   9    1.23    0.10
   3  -4  -9    0.25    0.05
   3  -4  -9    0.18    0.04
  -3  -4   9    0.23    0.05
   3  -4  -9    0.26    0.06
  -3  -4   9    0.17    0.04
  -3   4   9    0.21    0.05
   3   4  -9    0.17    0.05
   3   4  -9    0.18    0.06
  -3   4   9    0.24    0.05
   3   4  -9    0.27    0.05
  -2  -4   9    1.19    0.08
   2  -4  -9    1.23    0.10
   2  -4  -9    1.19    0.08
   2  -4  -9    1.23    0.07
   2   4  -9    1.24    0.08
  -2   4   9    1.09    0.08
  -2   4   9    1.15    0.08
   2   4  -9    1.18    0.10
   2   4  -9    1.32    0.09
  -1  -4   9    3.51    0.14
  -1  -4   9    3.50    0.13
   1  -4  -9    3.31    0.12
   1  -4  -9    3.50    0.11
   1  -4  -9    3.68    0.14
   1   4  -9    3.49    0.13
  -1   4   9    3.56    0.13
  -1   4   9    3.77    0.14
   1   4  -9    3.52    0.15
   1   4  -9    3.53    0.14
   0  -4  -9   22.99    0.53
   0  -4   9   22.25    0.53
   0  -4   9   23.58    0.53
   0  -4   9   23.65    0.54
   0   4  -9   23.85    0.54
   0   4   9   23.03    0.52
   0   4   9   23.55    0.55
   0   4  -9   23.57    0.53
   0   4  -9   24.05    0.53
   1  -4   9    0.96    0.08
   1  -4   9    0.89    0.09
   1  -4   9    0.97    0.07
  -1  -4  -9    0.82    0.08
  -1   4  -9    1.02    0.08
   1   4   9    0.87    0.09
  -1   4  -9    0.81    0.07
   1   4   9    0.80    0.07
   2  -4   9    2.45    0.12
   2  -4   9    2.53    0.14
  -2  -4  -9    2.54    0.12
   2   4   9    2.44    0.13
  -2   4  -9    2.55    0.12
  -2   4  -9    2.67    0.12
   2   4   9    2.66    0.12
   2   4   9    2.47    0.13
   3  -4   9    0.86    0.10
   3  -4   9    0.76    0.08
  -3  -4  -9    0.88    0.09
   3   4   9    0.73    0.08
  -3   4  -9    0.68    0.08
   3   4   9    0.66    0.08
  -3   4  -9    0.78    0.08
   3   4   9    0.86    0.10
   4  -4   9    3.07    0.17
   4  -4   9    2.99    0.15
   4   4   9    3.17    0.16
  -4   4  -9    2.85    0.15
  -5  -5   9    0.44    0.07
  -5  -5   9    0.44    0.07
   5   5  -9    0.48    0.08
  -5   5   9    0.60    0.09
  -4  -5   9    0.05    0.04
   4  -5  -9    0.11    0.05
  -4  -5   9    0.12    0.05
  -4   5   9    0.07    0.04
   4   5  -9    0.07    0.04
  -4   5   9    0.07    0.05
  -3  -5   9    1.50    0.09
   3  -5  -9    1.72    0.11
   3  -5  -9    1.56    0.09
  -3   5   9    1.68    0.10
   3   5  -9    1.54    0.12
  -3   5   9    1.84    0.10
   3   5  -9    1.49    0.09
   3   5  -9    1.36    0.09
   2  -5  -9    5.00    0.18
  -2  -5   9    4.77    0.16
   2  -5  -9    4.88    0.16
   2   5  -9    4.88    0.18
  -2   5   9    4.63    0.15
   2   5  -9    4.70    0.17
  -2   5   9    4.85    0.17
   2   5  -9    5.07    0.17
   1  -5  -9    8.59    0.22
  -1  -5   9    8.36    0.24
   1  -5  -9    8.74    0.24
   1   5  -9    8.38    0.23
  -1   5   9    8.34    0.22
   1   5  -9    8.32    0.25
  -1   5   9    8.21    0.24
   1   5  -9    8.39    0.25
   0  -5   9    0.02    0.04
   0  -5   9    0.00    0.05
   0  -5   9    0.00    0.04
   0  -5  -9   -0.05    0.03
   0   5   9    0.05    0.04
   0   5  -9    0.02    0.05
   0   5  -9    0.04    0.03
   0   5   9    0.04    0.03
   0   5  -9    0.05    0.03
   0   5  -9    0.05    0.03
   1  -5   9    1.47    0.09
   1  -5   9    1.61    0.08
   1  -5   9    1.43    0.11
  -1  -5  -9    1.44    0.09
  -1   5  -9    1.73    0.10
   1   5   9    1.45    0.10
   1   5   9    1.40    0.09
  -1   5  -9    1.61    0.09
  -1   5  -9    1.56    0.09
  -2  -5  -9    9.55    0.28
   2  -5   9    9.06    0.29
   2  -5   9    9.43    0.27
   2   5   9   10.18    0.29
   2   5   9   10.01    0.27
   2   5   9    9.54    0.30
  -2   5  -9    9.64    0.27
  -2   5  -9    9.49    0.27
   3  -5   9    4.10    0.18
  -3  -5  -9    4.05    0.17
   3  -5   9    3.90    0.16
  -3   5  -9    3.97    0.16
   3   5   9    3.85    0.16
   3   5   9    3.96    0.18
  -3   5  -9    4.00    0.17
   4  -5   9    0.06    0.05
   4  -5   9    0.12    0.06
  -4   5  -9    0.06    0.05
   4   5   9    0.03    0.05
  -5  -6   9    0.13    0.05
  -5  -6   9    0.21    0.06
   5   6  -9    0.30    0.07
  -5   6   9    0.28    0.07
  -4  -6   9    0.96    0.09
  -4  -6   9    1.12    0.09
  -4   6   9    0.97    0.09
   4   6  -9    0.76    0.08
   4   6  -9    0.91    0.09
  -4   6   9    1.13    0.10
  -3  -6   9    3.37    0.14
   3  -6  -9    3.55    0.14
   3  -6  -9    3.45    0.16
   3   6  -9    3.45    0.17
  -3   6   9    3.40    0.14
  -3   6   9    3.64    0.15
   3   6  -9    3.28    0.14
   3   6  -9    3.49    0.14
  -2  -6   9    0.34    0.05
   2  -6  -9    0.36    0.05
   2   6  -9    0.21    0.05
   2   6  -9    0.22    0.06
  -2   6   9    0.31    0.05
   2   6  -9    0.26    0.05
  -2   6   9    0.18    0.05
   1  -6  -9    7.97    0.23
  -1  -6   9    8.06    0.23
  -1  -6   9    7.78    0.22
   1  -6  -9    7.71    0.21
  -1  -6   9    7.56    0.21
  -1   6   9    7.44    0.21
  -1   6   9    7.52    0.23
   1   6  -9    7.98    0.23
   1   6  -9    8.04    0.24
   1   6  -9    7.97    0.22
   0  -6   9    0.05    0.03
   0  -6  -9    0.09    0.04
   0  -6   9    0.09    0.05
   0  -6   9    0.03    0.04
   0   6  -9    0.02    0.03
   0   6  -9    0.03    0.03
   0   6   9    0.03    0.03
   0   6  -9    0.09    0.05
   0   6   9    0.06    0.04
   1  -6   9    3.47    0.13
   1  -6   9    3.59    0.13
   1  -6   9    3.31    0.15
  -1  -6  -9    3.22    0.14
   1   6   9    3.44    0.13
  -1   6  -9    3.61    0.14
   1   6   9    3.61    0.15
   1   6   9    3.41    0.16
  -1   6  -9    3.50    0.13
  -1   6  -9    3.65    0.15
   2  -6   9    0.52    0.07
  -2  -6  -9    0.54    0.07
   2  -6   9    0.59    0.08
  -2   6  -9    0.56    0.07
   2   6   9    0.61    0.08
  -2   6  -9    0.61    0.07
  -2   6  -9    0.50    0.06
   2   6   9    0.53    0.06
   2   6   9    0.64    0.08
   3  -6   9    0.95    0.10
   3  -6   9    0.80    0.08
   3   6   9    0.79    0.10
  -3   6  -9    1.03    0.09
  -3   6  -9    0.88    0.09
   3   6   9    0.85    0.09
   4  -6   9    0.09    0.06
   4  -6   9    0.05    0.05
  -4   6  -9    0.12    0.06
   4   6   9    0.08    0.05
  -5  -7   9    0.01    0.04
  -5   7   9    0.06    0.05
   5   7  -9    0.02    0.05
  -4  -7   9    0.21    0.05
   4  -7  -9    0.16    0.05
  -4   7   9    0.19    0.05
  -4   7   9    0.15    0.05
   4   7  -9    0.18    0.05
   4   7  -9    0.17    0.06
  -3  -7   9    0.07    0.04
   3  -7  -9    0.00    0.03
   3  -7  -9    0.02    0.04
   3   7  -9    0.02    0.06
   3   7  -9   -0.01    0.04
  -3   7   9    0.02    0.04
   3   7  -9    0.02    0.04
  -3   7   9    0.03    0.04
  -2  -7   9    3.04    0.12
   2  -7  -9    3.04    0.13
  -2  -7   9    3.22    0.14
  -2   7   9    3.16    0.14
   2   7  -9    3.06    0.15
   2   7  -9    3.29    0.13
  -2   7   9    3.24    0.12
   2   7  -9    3.24    0.14
  -1  -7   9    0.16    0.05
  -1  -7   9    0.13    0.04
   1  -7  -9    0.18    0.04
  -1  -7   9    0.10    0.04
   1  -7  -9    0.11    0.04
   1   7  -9    0.16    0.04
  -1   7   9    0.15    0.05
   1   7  -9    0.18    0.04
   1   7  -9    0.18    0.05
   1   7  -9    0.16    0.05
  -1   7   9    0.10    0.05
   0  -7   9    1.05    0.07
   0  -7   9    1.04    0.09
   0  -7   9    1.11    0.08
   0  -7  -9    1.11    0.08
   0   7  -9    0.98    0.09
   0   7  -9    1.14    0.07
   0   7  -9    1.02    0.08
   0   7   9    1.13    0.09
   1  -7   9    1.11    0.08
   1  -7   9    1.21    0.10
  -1  -7  -9    1.30    0.09
   1  -7   9    1.13    0.08
  -1   7  -9    1.20    0.08
   1   7   9    1.22    0.10
  -1   7  -9    1.08    0.08
   1   7   9    1.18    0.10
  -1   7  -9    1.26    0.10
   2  -7   9    6.20    0.22
   2  -7   9    6.47    0.20
  -2   7  -9    6.36    0.21
   2   7   9    6.36    0.22
   2   7   9    6.15    0.32
  -2   7  -9    6.43    0.21
  -2   7  -9    6.35    0.21
   2   7   9    6.65    0.21
   3  -7   9    0.25    0.05
   3  -7   9    0.41    0.08
   3   7   9    0.34    0.06
  -3   7  -9    0.40    0.07
  -3   7  -9    0.32    0.08
  -4  -8   9    2.07    0.14
   4  -8  -9    2.17    0.13
   4   8  -9    2.25    0.13
  -4   8   9    2.22    0.13
   4   8  -9    2.55    0.13
  -4   8   9    2.09    0.13
   3  -8  -9    8.30    0.26
  -3  -8   9    8.34    0.24
  -3  -8   9    8.59    0.27
   3   8  -9    8.68    0.26
   3   8  -9    8.14    0.29
   3   8  -9    9.05    0.26
  -3   8   9    8.51    0.27
  -2  -8   9    0.12    0.05
   2  -8  -9    0.11    0.04
   2   8  -9    0.09    0.04
  -2   8   9    0.00    0.04
   2   8  -9    0.23    0.06
   2   8  -9    0.28    0.07
  -1  -8   9    0.10    0.04
   1  -8  -9    0.16    0.05
  -1  -8   9    0.11    0.05
   1   8  -9    0.11    0.04
   1   8  -9    0.17    0.05
   1   8  -9    0.11    0.03
   1   8  -9    0.09    0.05
  -1   8   9    0.04    0.04
   0  -8   9    7.66    0.22
   0  -8   9    7.37    0.23
   0  -8  -9    7.30    0.22
   0  -8   9    7.40    0.21
   0  -8  -9    7.31    0.24
   0   8  -9    7.61    0.23
   0   8   9    7.46    0.24
   0   8  -9    7.23    0.21
   0   8  -9    7.35    0.22
   1  -8   9    1.33    0.09
  -1  -8  -9    1.19    0.09
   1  -8   9    1.11    0.10
   1  -8   9    1.03    0.08
  -1   8  -9    1.28    0.10
  -1   8  -9    1.20    0.09
  -1   8  -9    1.12    0.08
   1   8   9    1.28    0.10
   1   8   9    1.06    0.10
   2  -8   9    0.09    0.06
   2  -8   9    0.11    0.04
   2   8   9    0.03    0.05
  -2   8  -9    0.12    0.05
  -2   8  -9    0.05    0.04
  -2   8  -9   -0.01    0.04
   3  -8   9    3.12    0.16
   3  -8   9    2.90    0.14
  -3   8  -9    3.33    0.16
  -3   8  -9    2.90    0.15
  -4  -9   9    0.01    0.05
   4  -9  -9    0.14    0.05
   4   9  -9    0.07    0.05
   4   9  -9    0.08    0.05
  -4   9   9    0.09    0.05
  -3  -9   9    6.70    0.23
   3  -9  -9    7.05    0.24
   3   9  -9    7.47    0.23
  -3   9   9    7.00    0.24
   3   9  -9    6.98    0.24
   2  -9  -9    0.19    0.05
  -2  -9   9    0.20    0.06
   2   9  -9    0.19    0.06
  -2   9   9    0.29    0.06
   2   9  -9    0.20    0.06
   2   9  -9    0.23    0.05
  -1  -9   9    2.08    0.14
  -1  -9   9    2.35    0.12
   1  -9  -9    2.37    0.13
   1   9  -9    2.23    0.11
  -1   9   9    2.26    0.13
   1   9  -9    2.18    0.12
   1   9  -9    2.19    0.11
   0  -9   9    3.88    0.15
   0  -9   9    4.03    0.15
   0  -9  -9    3.81    0.16
   0  -9   9    3.85    0.14
   0   9  -9    3.85    0.16
   0   9  -9    3.95    0.15
   0   9   9    4.00    0.16
   0   9  -9    3.57    0.14
   1  -9   9    7.45    0.22
   1  -9   9    6.63    0.24
   1  -9   9    6.94    0.23
  -1   9  -9    6.68    0.22
   1   9   9    7.29    0.23
   1   9   9    6.72    0.29
  -1   9  -9    6.94    0.22
  -1   9  -9    7.35    0.23
   2  -9   9    1.50    0.12
  -2   9  -9    1.43    0.10
   2   9   9    1.38    0.11
  -2   9  -9    1.26    0.09
  -2   9  -9    1.35    0.10
   3  -9   9    0.32    0.07
   3  -9   9    0.12    0.07
  -3   9  -9    0.15    0.06
  -3   9  -9    0.35    0.07
  -4 -10   9    2.03    0.13
   4 -10  -9    2.36    0.14
   4  10  -9    2.31    0.13
   4  10  -9    2.09    0.14
  -4  10   9    2.14    0.14
  -3 -10   9    1.47    0.11
   3 -10  -9    1.29    0.11
   3  10  -9    1.28    0.11
   3  10  -9    1.41    0.10
  -3  10   9    1.41    0.11
   2 -10  -9    5.84    0.21
  -2 -10   9    5.86    0.21
   2  10  -9    5.96    0.21
   2  10  -9    5.94    0.22
   2  10  -9    5.61    0.19
  -2  10   9    5.55    0.21
  -1 -10   9    0.16    0.05
   1 -10  -9    0.09    0.05
   1  10  -9    0.10    0.04
  -1  10   9    0.06    0.05
   1  10  -9    0.09    0.05
   1  10  -9    0.14    0.04
   0 -10  -9    0.12    0.05
   0 -10   9    0.10    0.05
   0 -10   9    0.16    0.05
   0  10  -9    0.13    0.06
   0  10  -9    0.10    0.04
   0  10   9    0.05    0.05
   0  10  -9    0.10    0.04
   1 -10   9    0.01    0.04
   1 -10   9    0.02    0.04
  -1  10  -9   -0.01    0.03
  -1  10  -9    0.05    0.04
  -1  10  -9    0.09    0.05
   1  10   9    0.06    0.05
   2 -10   9    0.17    0.06
   2 -10   9    0.02    0.05
  -2  10  -9    0.14    0.05
  -2  10  -9    0.11    0.05
  -2  10  -9    0.10    0.04
   3 -10   9    1.06    0.12
   3 -10   9    0.87    0.11
  -3  10  -9    0.76    0.09
  -3  10  -9    0.97    0.10
  -4 -11   9    0.12    0.06
   4 -11  -9    0.13    0.06
   4  11  -9    0.15    0.06
  -4  11   9    0.08    0.06
   4  11  -9    0.04    0.06
  -3 -11   9   -0.03    0.04
   3 -11  -9    0.05    0.05
   3  11  -9    0.00    0.05
   3  11  -9    0.06    0.04
  -3  11   9    0.04    0.05
  -2 -11   9    0.01    0.04
   2 -11  -9    0.03    0.04
   2  11  -9   -0.02    0.05
   2  11  -9    0.03    0.04
  -2  11   9    0.00    0.04
   1 -11  -9    3.77    0.17
  -1 -11   9    3.69    0.16
  -1  11   9    3.70    0.17
   1  11  -9    3.58    0.15
   1  11  -9    3.85    0.17
   1  11  -9    3.82    0.15
   0 -11   9    1.88    0.11
   0 -11  -9    1.29    0.11
   0  11  -9    1.46    0.09
   0  11  -9    1.40    0.11
   0  11  -9    1.53    0.10
   0  11   9    1.51    0.11
   1 -11   9    0.07    0.05
   1 -11   9    0.04    0.04
  -1  11  -9    0.03    0.05
  -1  11  -9    0.01    0.04
   1  11   9   -0.01    0.05
  -1  11  -9    0.02    0.04
   2 -11   9    1.03    0.10
   2 -11   9    1.08    0.11
  -2  11  -9    1.00    0.10
  -2  11  -9    1.05    0.09
   3 -12  -9    0.65    0.09
  -3 -12   9    0.72    0.09
   3  12  -9    0.78    0.09
  -3  12   9    0.59    0.09
   3  12  -9    0.74    0.10
   2 -12  -9    0.69    0.09
  -2 -12   9    0.62    0.08
  -2  12   9    0.59    0.08
   2  12  -9    0.62    0.07
   2  12  -9    0.51    0.08
  -1 -12   9    1.99    0.13
   1 -12  -9    1.90    0.13
   1  12  -9    1.63    0.12
   1  12  -9    1.77    0.11
   1  12  -9    1.91    0.11
  -1  12   9    1.85    0.12
   0 -12   9    0.56    0.08
   0 -12  -9    0.44    0.08
   0  12  -9    0.37    0.07
   0  12  -9    0.55    0.07
   0  12   9    0.54    0.08
   0  12  -9    0.51    0.07
   1 -12   9    4.66    0.18
   1 -12   9    4.62    0.18
  -1  12  -9    4.38    0.18
  -1  12  -9    4.50    0.18
   1  12   9    4.46    0.19
  -1  12  -9    4.37    0.19
   2 -12   9    1.31    0.12
  -2  12  -9    1.00    0.09
  -2  12  -9    0.91    0.10
   3 -13  -9   -0.03    0.05
  -3 -13   9    0.08    0.05
   3  13  -9    0.07    0.05
  -3  13   9   -0.02    0.05
   3  13  -9   -0.03    0.05
   2 -13  -9    2.47    0.15
  -2 -13   9    2.37    0.14
  -2  13   9    2.37    0.14
   2  13  -9    2.30    0.13
   2  13  -9    2.48    0.15
   1 -13  -9    0.29    0.07
  -1 -13   9    0.22    0.06
   1  13  -9    0.11    0.05
  -1  13   9    0.17    0.06
   1  13  -9    0.14    0.05
   1  13  -9    0.05    0.05
   0 -13  -9    0.55    0.09
   0 -13   9    0.63    0.08
   0  13  -9    0.73    0.09
   0  13  -9    0.76    0.08
   0  13  -9    0.62    0.08
   0  13   9    0.62    0.08
   1 -13   9    0.26    0.06
   1 -13   9    0.20    0.06
  -1  13  -9    0.13    0.05
   1  13   9    0.23    0.11
  -1  13  -9    0.22    0.07
  -1  13  -9    0.22    0.06
   2 -13   9    1.58    0.12
  -2  13  -9    1.32    0.12
  -2  13  -9    1.69    0.12
  -3 -14   9    0.11    0.05
   2 -14  -9    0.03    0.05
  -2 -14   9    0.07    0.05
   2  14  -9   -0.04    0.05
  -2  14   9    0.05    0.05
  -1 -14   9    5.92    0.22
   1 -14  -9    5.75    0.23
  -1  14   9    5.81    0.23
   1  14  -9    5.73    0.23
   1  14  -9    5.86    0.22
   0 -14  -9    1.05    0.12
   0 -14   9    1.29    0.12
   0  14  -9    0.87    0.10
   0  14   9    1.18    0.11
   0  14  -9    1.33    0.11
   1 -14   9    4.68    0.20
  -1  14  -9    4.45    0.19
  -1  14  -9    4.65    0.20
  -1  14  -9    4.11    0.19
  -2 -15   9   -0.02    0.05
   2 -15  -9    0.03    0.05
   2  15  -9   -0.02    0.06
   2  15  -9    0.01    0.04
  -2  15   9    0.03    0.05
   1 -15  -9    0.17    0.06
  -1 -15   9    0.14    0.06
   1  15  -9    0.16    0.07
  -1  15   9    0.12    0.06
   1  15  -9    0.21    0.06
   0 -15  -9    0.02    0.06
   0 -15   9    0.06    0.06
   0  15  -9   -0.02    0.04
   0  15  -9   -0.03    0.06
   0  15   9   -0.02    0.05
   5   0 -10    0.03    0.05
  -5   0  10    0.06    0.06
   4   0 -10    2.07    0.12
  -4   0  10    2.18    0.12
  -3   0  10    0.00    0.04
   3   0 -10    0.03    0.03
   3   0 -10    0.00    0.04
  -3   0  10    0.00    0.04
   2   0 -10    0.55    0.06
   2   0 -10    0.61    0.07
   2   0 -10    0.80    0.09
  -2   0  10    0.52    0.07
  -2   0  10    0.63    0.07
   1   0 -10    0.13    0.04
   1   0 -10    0.09    0.05
  -1   0  10    0.15    0.05
  -1   0  10    0.17    0.05
   1   0 -10    0.14    0.05
   0   0 -10   14.11    0.34
   0   0  10   14.00    0.35
   0   0  10   13.80    0.36
   0   0 -10   13.42    0.35
  -1   0 -10    0.07    0.04
   1   0  10    0.12    0.04
   1   0  10    0.12    0.06
  -1   0 -10    0.08    0.04
   2   0  10    1.16    0.11
  -2   0 -10    1.21    0.08
   2   0  10    1.22    0.09
  -2   0 -10    1.28    0.10
  -3   0 -10   -0.03    0.03
   3   0  10    0.00    0.04
  -3   0 -10    0.06    0.04
   3   0  10    0.07    0.06
  -4   0 -10    0.52    0.08
  -4   0 -10    0.58    0.08
   4   0  10    0.61    0.09
   4   0  10    0.75    0.09
   5  -1 -10    0.63    0.08
  -5  -1  10    0.51    0.08
  -5   1  10    0.50    0.09
   5   1 -10    0.59    0.08
   4  -1 -10    1.25    0.09
  -4  -1  10    1.46    0.11
   4   1 -10    1.37    0.10
  -4   1  10    1.51    0.11
   3  -1 -10    2.56    0.14
   3  -1 -10    2.36    0.11
  -3  -1  10    2.24    0.12
   3   1 -10    2.47    0.14
  -3   1  10    2.28    0.11
   3   1 -10    2.31    0.11
  -3   1  10    2.45    0.12
  -2  -1  10    0.44    0.06
  -2  -1  10    0.36    0.06
   2  -1 -10    0.32    0.06
   2  -1 -10    0.25    0.05
   2  -1 -10    0.35    0.05
  -2   1  10    0.30    0.05
   2   1 -10    0.30    0.05
  -2   1  10    0.44    0.06
   2   1 -10    0.43    0.06
   2   1 -10    0.33    0.05
   1  -1 -10    1.60    0.10
   1  -1 -10    1.71    0.09
  -1  -1  10    1.56    0.11
   1  -1 -10    1.64    0.11
  -1  -1  10    1.74    0.10
   1   1 -10    1.76    0.11
  -1   1  10    1.67    0.10
  -1   1  10    1.70    0.11
   1   1 -10    1.70    0.11
   1   1 -10    1.61    0.09
   0  -1 -10    0.23    0.04
   0  -1  10    0.28    0.05
   0  -1  10    0.19    0.06
   0  -1 -10    0.19    0.05
   0   1 -10    0.26    0.05
   0   1  10    0.24    0.06
   0   1 -10    0.31    0.06
  -1  -1 -10    1.22    0.09
   1  -1  10    1.29    0.09
  -1  -1 -10    1.19    0.08
   1  -1  10    1.23    0.10
  -1   1 -10    1.37    0.08
   1   1  10    1.29    0.11
   1   1  10    1.25    0.09
  -1   1 -10    1.22    0.09
   2  -1  10    0.81    0.08
  -2  -1 -10    0.60    0.06
  -2  -1 -10    0.79    0.08
   2  -1  10    0.60    0.09
  -2   1 -10    0.71    0.07
   2   1  10    0.67    0.07
  -2   1 -10    0.68    0.08
   2   1  10    0.69    0.09
   3  -1  10    0.04    0.06
  -3  -1 -10    0.06    0.04
   3  -1  10    0.07    0.05
  -3  -1 -10    0.07    0.05
  -3   1 -10    0.20    0.06
   3   1  10    0.23    0.07
  -3   1 -10    0.17    0.05
   3   1  10    0.10    0.05
  -4  -1 -10    1.43    0.11
   4  -1  10    1.35    0.13
   4  -1  10    1.20    0.11
   4   1  10    1.51    0.13
  -4   1 -10    1.41    0.11
  -4   1 -10    1.30    0.11
   4   1  10    1.41    0.12
  -5  -2  10    0.48    0.08
   5  -2 -10    0.61    0.08
  -5   2  10    0.70    0.09
   5   2 -10    0.52    0.08
  -4  -2  10    0.60    0.08
   4  -2 -10    0.80    0.08
   4   2 -10    0.62    0.08
  -4   2  10    0.88    0.09
   3  -2 -10    1.16    0.10
  -3  -2  10    1.11    0.09
   3  -2 -10    0.99    0.08
   3   2 -10    1.30    0.09
  -3   2  10    1.16    0.09
  -3   2  10    1.10    0.09
   3   2 -10    1.27    0.11
   3   2 -10    1.05    0.08
   2  -2 -10    1.84    0.09
   2  -2 -10    1.94    0.12
   2  -2 -10    1.75    0.09
  -2  -2  10    1.78    0.10
   2  -2 -10    1.92    0.09
  -2  -2  10    1.84    0.10
   2   2 -10    1.77    0.10
  -2   2  10    2.06    0.10
  -2   2  10    2.09    0.11
   2   2 -10    1.86    0.10
   2   2 -10    1.83    0.11
   1  -2 -10    3.16    0.13
  -1  -2  10    3.26    0.13
   1  -2 -10    3.14    0.14
  -1  -2  10    3.34    0.14
   1  -2 -10    3.20    0.12
   1   2 -10    3.19    0.14
  -1   2  10    3.35    0.13
   1   2 -10    3.30    0.13
   1   2 -10    3.33    0.14
  -1   2  10    3.13    0.14
   0  -2  10    2.57    0.14
   0  -2  10    2.83    0.12
   0  -2 -10    2.87    0.11
   0  -2 -10    2.86    0.13
   0   2 -10    2.73    0.13
   0   2  10    2.96    0.14
   0   2 -10    2.73    0.12
  -1  -2 -10    0.08    0.03
  -1  -2 -10    0.08    0.04
   1  -2  10    0.05    0.04
   1  -2  10    0.08    0.06
  -1   2 -10    0.07    0.05
  -1   2 -10    0.08    0.04
   1   2  10    0.01    0.04
   1   2  10    0.04    0.05
  -2  -2 -10    0.07    0.05
  -2  -2 -10    0.07    0.03
   2  -2  10    0.07    0.04
   2  -2  10    0.06    0.06
   2   2  10    0.15    0.05
   2   2  10    0.10    0.06
  -2   2 -10    0.07    0.05
  -2   2 -10    0.05    0.04
   2   2  10    0.05    0.04
  -3  -2 -10    1.61    0.11
   3  -2  10    1.60    0.11
   3  -2  10    1.55    0.12
   3   2  10    1.61    0.13
   3   2  10    1.53    0.11
  -3   2 -10    1.54    0.10
  -3   2 -10    1.75    0.11
  -5  -3  10    0.42    0.08
  -5   3  10    0.44    0.08
   5   3 -10    0.59    0.09
   4  -3 -10    0.50    0.07
  -4  -3  10    0.65    0.08
   4   3 -10    0.56    0.08
  -4   3  10    0.60    0.08
   3  -3 -10    2.41    0.10
  -3  -3  10    2.30    0.12
   3  -3 -10    2.34    0.13
  -3   3  10    2.40    0.12
   3   3 -10    2.16    0.11
  -3   3  10    2.20    0.12
   3   3 -10    2.29    0.14
   3   3 -10    2.20    0.12
  -2  -3  10   22.07    0.51
   2  -3 -10   21.76    0.54
  -2  -3  10   21.94    0.50
   2  -3 -10   22.83    0.56
   2  -3 -10   22.14    0.49
   2  -3 -10   21.34    0.50
  -2   3  10   21.34    0.52
   2   3 -10   22.25    0.51
   2   3 -10   21.61    0.54
   2   3 -10   21.59    0.51
  -2   3  10   22.25    0.51
   1  -3 -10    2.31    0.09
   1  -3 -10    2.10    0.10
  -1  -3  10    2.33    0.12
  -1  -3  10    2.30    0.11
   1   3 -10    2.52    0.12
   1   3 -10    2.27    0.11
  -1   3  10    2.31    0.12
  -1   3  10    2.41    0.11
   1   3 -10    2.38    0.12
   0  -3  10   13.54    0.36
   0  -3  10   13.94    0.35
   0  -3 -10   13.46    0.34
   0  -3  10   13.92    0.34
   0  -3 -10   13.37    0.32
   0   3  10   14.01    0.34
   0   3 -10   13.78    0.35
   0   3  10   12.81    0.36
   0   3 -10   14.08    0.35
   1  -3  10    8.39    0.24
  -1  -3 -10    8.03    0.23
   1  -3  10    8.37    0.26
  -1  -3 -10    8.28    0.24
  -1   3 -10    8.38    0.25
  -1   3 -10    8.29    0.24
   1   3  10    8.44    0.26
   1   3  10    8.39    0.24
   2  -3  10   12.46    0.34
  -2  -3 -10   12.45    0.34
   2  -3  10   12.45    0.36
  -2   3 -10   12.72    0.34
   2   3  10   12.37    0.35
   2   3  10   12.52    0.34
   2   3  10   12.70    0.35
  -2   3 -10   12.77    0.34
  -3  -3 -10    0.08    0.05
   3  -3  10    0.09    0.06
   3  -3  10    0.11    0.05
   3   3  10    0.09    0.05
   3   3  10    0.05    0.06
  -3   3 -10    0.12    0.05
  -3   3 -10    0.19    0.05
  -5  -4  10    2.00    0.13
   5   4 -10    1.75    0.13
  -5   4  10    2.06    0.14
  -4  -4  10    6.77    0.22
  -4   4  10    6.86    0.23
  -4   4  10    6.61    0.23
   4   4 -10    6.71    0.23
  -3  -4  10    0.10    0.05
   3  -4 -10    0.14    0.05
   3   4 -10    0.05    0.04
   3   4 -10    0.09    0.04
   3   4 -10    0.09    0.05
  -3   4  10    0.09    0.04
  -3   4  10    0.09    0.04
   2  -4 -10    0.18    0.05
   2  -4 -10    0.23    0.05
  -2  -4  10    0.21    0.05
  -2   4  10    0.18    0.05
   2   4 -10    0.21    0.05
   2   4 -10    0.22    0.05
   2   4 -10    0.20    0.05
  -2   4  10    0.26    0.05
   1  -4 -10    4.89    0.16
  -1  -4  10    4.76    0.17
   1   4 -10    4.70    0.16
   1   4 -10    4.89    0.18
  -1   4  10    4.84    0.18
  -1   4  10    4.99    0.16
   1   4 -10    4.94    0.18
   0  -4 -10    0.42    0.06
   0  -4  10    0.49    0.06
   0  -4  10    0.51    0.07
   0  -4  10    0.53    0.06
   0   4 -10    0.47    0.06
   0   4 -10    0.50    0.07
   0   4  10    0.51    0.07
   0   4  10    0.48    0.06
   0   4 -10    0.59    0.06
  -1  -4 -10   10.53    0.29
   1  -4  10   10.57    0.29
   1  -4  10   10.27    0.30
  -1   4 -10   10.47    0.29
   1   4  10   11.38    0.29
   1   4  10   11.19    0.31
  -1   4 -10   10.62    0.30
   2  -4  10    1.07    0.11
  -2  -4 -10    1.14    0.09
   2  -4  10    1.20    0.09
  -2   4 -10    1.08    0.09
   2   4  10    1.06    0.10
  -2   4 -10    1.25    0.10
   2   4  10    1.26    0.09
   2   4  10    1.04    0.11
  -3  -4 -10    1.95    0.12
   3  -4  10    2.09    0.14
   3  -4  10    2.04    0.12
   3   4  10    2.06    0.12
  -3   4 -10    2.21    0.12
  -3   4 -10    1.93    0.12
   3   4  10    1.98    0.14
  -5  -5  10    0.13    0.06
  -5  -5  10    0.14    0.05
   5   5 -10    0.12    0.06
  -5   5  10    0.19    0.07
  -4  -5  10    0.53    0.07
  -4  -5  10    0.54    0.07
  -4   5  10    0.55    0.08
   4   5 -10    0.62    0.08
  -4   5  10    0.57    0.08
   3  -5 -10    3.76    0.15
   3  -5 -10    3.95    0.17
  -3  -5  10    3.97    0.15
  -3   5  10    3.94    0.15
   3   5 -10    3.97    0.18
   3   5 -10    3.91    0.16
   3   5 -10    4.13    0.16
  -3   5  10    3.73    0.16
   2  -5 -10    4.77    0.17
  -2  -5  10    4.50    0.16
  -2   5  10    4.81    0.16
   2   5 -10    4.70    0.17
   2   5 -10    4.44    0.17
  -2   5  10    4.80    0.18
   2   5 -10    4.64    0.18
  -1  -5  10    0.76    0.07
   1  -5 -10    0.69    0.07
   1  -5 -10    0.76    0.07
  -1  -5  10    0.58    0.07
  -1   5  10    0.58    0.06
   1   5 -10    0.53    0.07
   1   5 -10    0.57    0.07
   1   5 -10    0.53    0.06
  -1   5  10    0.51    0.07
   0  -5  10    2.43    0.13
   0  -5 -10    2.54    0.12
   0  -5  10    2.57    0.12
   0  -5  10    2.47    0.11
   0   5  10    2.67    0.11
   0   5 -10    2.32    0.12
   0   5 -10    2.59    0.12
   0   5  10    2.54    0.13
   1  -5  10    6.83    0.22
   1  -5  10    7.17    0.24
  -1  -5 -10    7.30    0.23
  -1   5 -10    7.09    0.22
   1   5  10    7.57    0.25
  -1   5 -10    7.65    0.23
   1   5  10    7.82    0.22
  -2  -5 -10    2.23    0.12
   2  -5  10    2.46    0.15
   2  -5  10    2.30    0.12
   2   5  10    2.27    0.14
   2   5  10    2.33    0.12
  -2   5 -10    2.37    0.13
   2   5  10    2.42    0.14
  -2   5 -10    2.14    0.12
   3  -5  10    0.04    0.04
  -3  -5 -10   -0.02    0.04
   3  -5  10    0.09    0.07
   3   5  10    0.05    0.07
  -3   5 -10    0.06    0.05
  -3   5 -10    0.02    0.04
   3   5  10    0.04    0.04
  -5  -6  10    0.06    0.05
  -5  -6  10    0.10    0.05
  -5   6  10    0.01    0.06
   5   6 -10    0.03    0.06
  -4  -6  10    0.89    0.09
  -4   6  10    0.94    0.10
   4   6 -10    0.93    0.14
   4   6 -10    1.19    0.10
  -4   6  10    0.96    0.10
   3  -6 -10    0.07    0.04
  -3  -6  10    0.09    0.04
   3  -6 -10    0.09    0.05
   3   6 -10    0.03    0.04
   3   6 -10    0.02    0.04
  -3   6  10    0.06    0.04
  -3   6  10    0.04    0.04
   3   6 -10    0.02    0.05
   2  -6 -10    0.10    0.04
  -2  -6  10    0.22    0.05
   2   6 -10    0.15    0.05
   2   6 -10    0.21    0.05
  -2   6  10    0.20    0.04
   2   6 -10    0.13    0.05
  -2   6  10    0.14    0.05
   1  -6 -10    0.18    0.05
  -1  -6  10    0.04    0.05
  -1  -6  10    0.02    0.04
  -1  -6  10    0.08    0.04
   1  -6 -10    0.06    0.03
  -1   6  10    0.08    0.04
   1   6 -10    0.07    0.04
   1   6 -10    0.08    0.05
   1   6 -10    0.07    0.04
  -1   6  10    0.07    0.04
   0  -6  10    2.82    0.12
   0  -6  10    2.46    0.13
   0  -6  10    2.49    0.11
   0  -6 -10    2.51    0.11
   0   6 -10    2.35    0.12
   0   6 -10    2.46    0.13
   0   6  10    2.51    0.11
   0   6  10    2.58    0.13
   1  -6  10    1.76    0.10
   1  -6  10    1.54    0.11
  -1  -6 -10    1.45    0.10
   1  -6  10    1.58    0.10
  -1   6 -10    1.70    0.10
   1   6  10    1.70    0.12
   1   6  10    1.79    0.12
   1   6  10    1.68    0.10
  -1   6 -10    1.71    0.11
   2  -6  10    3.91    0.16
   2  -6  10    3.85    0.18
  -2  -6 -10    4.07    0.17
  -2   6 -10    3.94    0.16
   2   6  10    4.00    0.18
  -2   6 -10    4.05    0.17
   2   6  10    3.93    0.16
   3  -6  10   -0.06    0.04
   3  -6  10    0.13    0.06
  -3   6 -10    0.05    0.05
   3   6  10   -0.01    0.04
   3   6  10    0.02    0.07
  -3   6 -10    0.05    0.04
  -4  -7  10    0.53    0.07
   4   7 -10    0.58    0.08
  -4   7  10    0.34    0.07
   4   7 -10    0.34    0.07
  -4   7  10    0.54    0.08
  -3  -7  10    1.06    0.09
   3  -7 -10    1.11    0.09
   3   7 -10    1.06    0.10
   3   7 -10    1.20    0.09
  -3   7  10    1.08    0.09
  -3   7  10    1.08    0.10
   2  -7 -10    0.04    0.04
  -2  -7  10    0.01    0.05
  -2  -7  10    0.11    0.04
   2   7 -10    0.08    0.05
   2   7 -10    0.07    0.04
  -2   7  10    0.09    0.04
  -2   7  10    0.11    0.05
   2   7 -10   -0.03    0.04
  -1  -7  10    1.46    0.11
   1  -7 -10    1.47    0.10
   1  -7 -10    1.37    0.08
  -1  -7  10    1.25    0.10
  -1  -7  10    1.36    0.09
   1   7 -10    1.40    0.10
   1   7 -10    1.37    0.09
   1   7 -10    1.40    0.10
  -1   7  10    1.31    0.10
   1   7 -10    1.22    0.08
   0  -7 -10    1.53    0.09
   0  -7  10    1.35    0.09
   0  -7  10    1.43    0.10
   0  -7  10    1.51    0.10
   0   7 -10    1.33    0.09
   0   7 -10    1.32    0.11
   0   7  10    1.55    0.11
   1  -7  10    5.20    0.18
   1  -7  10    5.61    0.18
   1  -7  10    5.10    0.20
  -1  -7 -10    5.12    0.19
  -1   7 -10    5.45    0.20
   1   7  10    5.38    0.20
  -1   7 -10    5.40    0.19
   1   7  10    5.27    0.21
  -2  -7 -10    0.70    0.08
   2  -7  10    0.64    0.07
   2  -7  10    0.66    0.09
  -2   7 -10    0.84    0.09
   2   7  10    0.66    0.09
   2   7  10    0.66    0.09
  -2   7 -10    0.78    0.08
   3  -7  10    0.05    0.04
   3  -7  10    0.11    0.06
   3   7  10    0.02    0.04
  -3   7 -10    0.09    0.05
  -4  -8  10    0.96    0.11
   4  -8 -10    1.04    0.11
  -4   8  10    1.06    0.11
   4   8 -10    0.86    0.10
   4   8 -10    0.99    0.10
  -4   8  10    1.03    0.11
  -3  -8  10    0.84    0.08
  -3  -8  10    0.79    0.09
   3  -8 -10    0.83    0.09
  -3   8  10    0.69    0.09
   3   8 -10    0.80    0.09
   3   8 -10    0.98    0.09
   2  -8 -10    0.04    0.04
  -2  -8  10    0.10    0.05
  -2  -8  10    0.05    0.04
   2   8 -10    0.04    0.05
  -2   8  10    0.06    0.05
   2   8 -10    0.00    0.05
   2   8 -10    0.03    0.04
   1  -8 -10    4.80    0.19
  -1  -8  10    5.16    0.19
  -1  -8  10    4.81    0.16
  -1   8  10    4.59    0.19
   1   8 -10    5.19    0.19
   1   8 -10    5.14    0.18
   1   8 -10    5.09    0.17
   0  -8  10    1.27    0.08
   0  -8  10    1.57    0.10
   0  -8 -10    1.32    0.09
   0  -8  10    1.36    0.10
   0   8 -10    1.32    0.08
   0   8  10    1.25    0.11
   0   8 -10    1.49    0.10
   0   8 -10    1.33    0.11
   1  -8  10    0.05    0.04
   1  -8  10    0.10    0.05
  -1  -8 -10    0.00    0.04
   1  -8  10    0.06    0.04
  -1   8 -10   -0.02    0.05
  -1   8 -10    0.07    0.04
   1   8  10    0.00    0.05
   2  -8  10    1.64    0.10
   2  -8  10    1.76    0.13
  -2   8 -10    1.69    0.11
   2   8  10    1.60    0.13
  -2   8 -10    1.94    0.12
   3  -8  10    0.56    0.09
   3  -8  10    0.42    0.07
  -3   8 -10    0.52    0.08
   4  -9 -10    1.26    0.11
  -4  -9  10    1.19    0.12
   4   9 -10    1.06    0.11
   4   9 -10    1.32    0.11
  -4   9  10    1.15    0.12
   3  -9 -10    1.43    0.11
  -3  -9  10    1.40    0.12
   3   9 -10    1.45    0.10
   3   9 -10    1.24    0.11
  -3   9  10    1.33    0.11
   2  -9 -10    0.10    0.05
  -2  -9  10    0.10    0.05
   2   9 -10    0.09    0.05
   2   9 -10    0.08    0.04
  -2   9  10    0.03    0.05
   2   9 -10    0.07    0.05
  -1  -9  10    1.82    0.12
   1  -9 -10    1.91    0.12
   1   9 -10    1.54    0.12
   1   9 -10    1.93    0.11
  -1   9  10    1.55    0.11
   1   9 -10    1.55    0.09
   0  -9  10    5.67    0.20
   0  -9  10    5.53    0.20
   0  -9  10    5.06    0.18
   0   9 -10    5.67    0.19
   0   9 -10    5.95    0.21
   0   9 -10    5.98    0.20
   0   9  10    5.76    0.21
   1  -9  10    0.15    0.06
   1  -9  10    0.14    0.05
   1  -9  10    0.11    0.06
  -1   9 -10    0.11    0.06
  -1   9 -10    0.06    0.04
  -1   9 -10    0.15    0.05
   1   9  10    0.17    0.06
   2  -9  10    2.55    0.15
  -2   9 -10    2.68    0.14
   2   9  10    2.61    0.16
  -2   9 -10    2.68    0.14
   3  -9  10    0.48    0.09
   3  -9  10    0.13    0.07
  -3   9 -10    0.33    0.07
  -4 -10  10    0.04    0.06
   4 -10 -10    0.12    0.06
   4  10 -10    0.06    0.06
  -4  10  10    0.04    0.06
   4  10 -10    0.15    0.06
  -3 -10  10    4.45    0.19
   3 -10 -10    4.12    0.18
   3  10 -10    4.25    0.19
  -3  10  10    4.41    0.19
   3  10 -10    4.33    0.18
  -2 -10  10    4.56    0.19
   2 -10 -10    4.67    0.19
   2  10 -10    4.65    0.18
   2  10 -10    4.39    0.19
  -2  10  10    4.29    0.19
   1 -10 -10   12.22    0.35
  -1 -10  10   12.66    0.34
  -1  10  10   11.84    0.35
   1  10 -10   12.39    0.33
   1  10 -10   12.38    0.33
   1  10 -10   12.47    0.35
   0 -10  10    0.39    0.06
   0 -10  10    0.32    0.06
   0  10  10    0.12    0.06
   0  10 -10    0.34    0.06
   0  10 -10    0.32    0.07
   0  10 -10    0.22    0.05
   1 -10  10    0.02    0.04
   1 -10  10    0.03    0.04
  -1  10 -10    0.01    0.04
  -1  10 -10    0.09    0.06
   1  10  10    0.05    0.06
  -1  10 -10    0.03    0.04
   2 -10  10    0.51    0.09
   2 -10  10    0.83    0.10
  -2  10 -10    0.61    0.08
  -2  10 -10    0.88    0.09
  -2  10 -10    0.90    0.10
  -3 -11  10    0.52    0.09
   3 -11 -10    0.60    0.09
   3  11 -10    0.75    0.09
  -3  11  10    0.59    0.09
   3  11 -10    0.51    0.08
   2 -11 -10    1.19    0.11
  -2 -11  10    1.02    0.10
   2  11 -10    1.18    0.11
   2  11 -10    1.04    0.09
  -2  11  10    1.18    0.11
   1 -11 -10    0.04    0.05
  -1 -11  10    0.06    0.05
  -1  11  10    0.06    0.05
   1  11 -10    0.10    0.04
   1  11 -10    0.04    0.04
   1  11 -10    0.01    0.05
   0 -11  10    2.38    0.13
   0 -11 -10    2.49    0.15
   0  11 -10    2.53    0.13
   0  11 -10    2.41    0.15
   0  11 -10    2.38    0.12
   0  11  10    2.57    0.14
   1 -11  10    0.22    0.06
   1 -11  10    0.24    0.06
   1  11  10    0.15    0.06
  -1  11 -10    0.17    0.06
  -1  11 -10    0.19    0.05
  -1  11 -10    0.17    0.05
   2 -11  10    0.24    0.07
  -2  11 -10    0.25    0.10
  -2  11 -10    0.17    0.06
  -2  11 -10    0.17    0.06
  -3 -12  10   -0.02    0.05
   3 -12 -10    0.01    0.05
  -3  12  10    0.05    0.06
   3  12 -10   -0.02    0.04
   3  12 -10    0.03    0.06
  -2 -12  10    0.63    0.08
   2 -12 -10    0.73    0.09
  -2  12  10    0.69    0.09
   2  12 -10    0.62    0.08
   2  12 -10    0.53    0.08
   1 -12 -10    0.23    0.06
  -1 -12  10    0.18    0.06
  -1  12  10    0.23    0.07
   1  12 -10    0.25    0.07
   1  12 -10    0.24    0.06
   1  12 -10    0.23    0.05
   0 -12 -10    1.92    0.13
   0 -12  10    1.82    0.12
   0  12 -10    1.75    0.11
   0  12 -10    1.53    0.13
   0  12  10    1.73    0.13
   0  12 -10    1.76    0.11
   1 -12  10    0.08    0.05
   1 -12  10    0.06    0.05
  -1  12 -10    0.09    0.06
  -1  12 -10    0.11    0.05
  -1  12 -10    0.05    0.04
   1  12  10    0.10    0.07
   2 -12  10    0.24    0.07
  -2  12 -10    0.27    0.06
  -2  12 -10    0.15    0.06
  -3 -13  10    0.48    0.08
   3 -13 -10    0.54    0.09
  -3  13  10    0.51    0.09
   3  13 -10    0.63    0.09
   3  13 -10    0.51    0.09
   2 -13 -10    0.20    0.06
  -2 -13  10    0.40    0.08
  -2  13  10    0.21    0.07
   2  13 -10    0.34    0.07
   2  13 -10    0.24    0.07
   1 -13 -10    0.39    0.08
  -1 -13  10    0.30    0.07
   1  13 -10    0.30    0.06
  -1  13  10    0.39    0.08
   1  13 -10    0.24    0.07
   1  13 -10    0.40    0.07
   0 -13  10    0.75    0.09
   0 -13 -10    0.63    0.09
   0  13  10    0.63    0.09
   0  13 -10    0.58    0.09
   0  13 -10    0.67    0.08
   0  13 -10    0.58    0.08
   1 -13  10    4.38    0.19
   1 -13  10    4.87    0.20
  -1  13 -10    4.55    0.20
  -1  13 -10    4.69    0.19
  -1  13 -10    4.31    0.19
   1  13  10    4.36    0.23
   2 -14 -10    0.33    0.08
  -2 -14  10    0.34    0.08
   2  14 -10    0.35    0.06
   2  14 -10    0.39    0.11
   2  14 -10    0.27    0.08
  -2  14  10    0.41    0.08
   1 -14 -10    0.33    0.08
  -1 -14  10    0.41    0.08
   1  14 -10    0.39    0.07
   1  14 -10    0.40    0.09
  -1  14  10    0.49    0.09
   1  14 -10    0.47    0.08
   0 -14  10    1.93    0.14
   0 -14 -10    1.66    0.14
   0  14 -10    1.80    0.13
   0  14 -10    1.73    0.12
   0  14 -10    1.93    0.15
   0  14  10    1.88    0.14
  -5   0  11    2.54    0.15
   5   0 -11    2.51    0.14
   4   0 -11    0.08    0.04
  -4   0  11    0.07    0.05
   3   0 -11    0.48    0.07
  -3   0  11    0.48    0.07
   3   0 -11    0.45    0.08
   2   0 -11    0.03    0.04
  -2   0  11    0.02    0.04
   2   0 -11    0.05    0.04
  -2   0  11    0.04    0.04
   2   0 -11    0.04    0.04
   1   0 -11    8.75    0.25
   1   0 -11    8.72    0.24
   1   0 -11    8.58    0.26
  -1   0  11    8.20    0.25
  -1   0  11    8.46    0.24
   0   0  11    0.07    0.05
   0   0  11    0.09    0.04
   0   0 -11    0.04    0.04
   0   0 -11    0.05    0.03
   1   0  11    0.29    0.07
  -1   0 -11    0.27    0.05
  -1   0 -11    0.33    0.06
   1   0  11    0.35    0.06
   2   0  11    0.04    0.04
   2   0  11   -0.05    0.06
  -2   0 -11    0.00    0.03
  -2   0 -11   -0.01    0.04
  -3   0 -11    0.09    0.05
   3   0  11    0.11    0.05
   3   0  11    0.08    0.07
  -3   0 -11    0.08    0.04
  -5  -1  11    0.15    0.07
   5  -1 -11    0.19    0.06
   5   1 -11    0.12    0.06
  -5   1  11    0.16    0.07
   4  -1 -11    0.91    0.09
  -4  -1  11    0.94    0.10
   4   1 -11    0.99    0.10
  -4   1  11    1.20    0.11
   3  -1 -11    1.02    0.11
  -3  -1  11    1.10    0.09
   3  -1 -11    0.85    0.08
   3   1 -11    1.04    0.09
   3   1 -11    1.10    0.11
  -3   1  11    0.93    0.09
  -3   1  11    0.96    0.09
   2  -1 -11    0.79    0.08
  -2  -1  11    0.78    0.08
  -2  -1  11    0.81    0.08
   2  -1 -11    0.84    0.07
   2  -1 -11    0.91    0.09
   2   1 -11    0.66    0.08
   2   1 -11    0.79    0.08
  -2   1  11    0.86    0.08
   2   1 -11    0.70    0.07
  -2   1  11    0.73    0.08
   1  -1 -11    0.25    0.05
   1  -1 -11    0.30    0.05
   1  -1 -11    0.18    0.04
  -1  -1  11    0.24    0.06
  -1  -1  11    0.28    0.05
   1   1 -11    0.21    0.04
  -1   1  11    0.20    0.06
   1   1 -11    0.23    0.05
   1   1 -11    0.39    0.06
  -1   1  11    0.22    0.05
   0  -1 -11    3.93    0.14
   0  -1  11    4.06    0.15
   0  -1 -11    4.20    0.16
   0  -1  11    3.86    0.17
   0   1  11    4.24    0.15
   0   1 -11    3.92    0.15
   0   1  11    4.10    0.17
   0   1 -11    3.80    0.16
   1  -1  11    1.76    0.13
  -1  -1 -11    1.69    0.09
  -1  -1 -11    1.74    0.11
   1  -1  11    1.79    0.11
   1   1  11    1.67    0.13
   1   1  11    1.76    0.11
  -1   1 -11    1.81    0.10
  -1   1 -11    1.78    0.11
   2  -1  11    0.06    0.06
  -2  -1 -11    0.08    0.05
   2  -1  11    0.02    0.04
  -2  -1 -11    0.03    0.03
   2   1  11    0.02    0.04
  -2   1 -11    0.05    0.04
   2   1  11    0.02    0.06
  -2   1 -11    0.08    0.05
   3  -1  11    1.14    0.12
   3  -1  11    0.72    0.09
  -3  -1 -11    1.14    0.10
   3   1  11    0.76    0.09
  -3   1 -11    1.06    0.10
   3   1  11    1.02    0.11
  -3   1 -11    0.98    0.09
  -5  -2  11    0.07    0.06
  -5   2  11    0.18    0.07
   5   2 -11    0.07    0.05
   4  -2 -11    3.44    0.15
  -4  -2  11    3.74    0.17
   4   2 -11    3.64    0.16
  -4   2  11    3.80    0.17
  -3  -2  11    2.87    0.14
   3  -2 -11    2.77    0.12
   3  -2 -11    2.81    0.22
  -3   2  11    3.07    0.14
   3   2 -11    2.54    0.13
   3   2 -11    2.78    0.19
   3   2 -11    2.74    0.13
  -3   2  11    2.57    0.13
  -2  -2  11    1.12    0.09
   2  -2 -11    1.15    0.08
  -2  -2  11    1.15    0.09
   2  -2 -11    1.03    0.08
   2  -2 -11    1.13    0.10
   2   2 -11    0.98    0.08
  -2   2  11    1.08    0.09
  -2   2  11    1.14    0.09
   2   2 -11    1.04    0.09
   2   2 -11    1.05    0.10
   1  -2 -11    4.99    0.16
   1  -2 -11    4.80    0.17
  -1  -2  11    4.71    0.17
  -1  -2  11    4.90    0.18
  -1   2  11    5.32    0.17
   1   2 -11    4.68    0.17
   1   2 -11    5.05    0.19
   1   2 -11    4.67    0.17
  -1   2  11    4.97    0.19
   0  -2  11    6.80    0.21
   0  -2 -11    6.64    0.19
   0  -2 -11    6.54    0.21
   0  -2  11    6.80    0.23
   0   2 -11    6.96    0.21
   0   2 -11    6.48    0.22
   0   2  11    6.72    0.23
  -1  -2 -11    4.27    0.17
   1  -2  11    4.03    0.18
  -1  -2 -11    4.16    0.14
   1  -2  11    4.11    0.16
   1   2  11    4.22    0.18
   1   2  11    4.18    0.16
  -1   2 -11    4.22    0.17
  -1   2 -11    3.95    0.15
   2  -2  11    4.66    0.20
   2  -2  11    4.48    0.18
  -2  -2 -11    4.70    0.19
   2   2  11    4.87    0.18
  -2   2 -11    4.62    0.17
   2   2  11    4.75    0.20
  -2   2 -11    4.84    0.19
   3  -2  11    1.52    0.14
  -3  -2 -11    1.68    0.12
   3  -2  11    1.30    0.11
   3   2  11    1.38    0.13
   3   2  11    1.38    0.11
  -3   2 -11    1.50    0.11
  -3   2 -11    1.47    0.11
  -5  -3  11    0.55    0.09
  -5   3  11    0.43    0.09
   5   3 -11    0.61    0.09
  -4  -3  11    0.11    0.06
  -4   3  11    0.11    0.06
   4   3 -11    0.14    0.05
  -3  -3  11    2.95    0.14
  -3   3  11    3.20    0.14
   3   3 -11    2.85    0.14
   3   3 -11    3.04    0.14
  -3   3  11    2.83    0.14
  -2  -3  11    0.40    0.07
   2  -3 -11    0.58    0.08
   2  -3 -11    0.45    0.05
  -2  -3  11    0.49    0.07
   2  -3 -11    0.53    0.06
   2   3 -11    0.53    0.07
   2   3 -11    0.51    0.07
  -2   3  11    0.48    0.07
  -2   3  11    0.46    0.07
   2   3 -11    0.52    0.07
   1  -3 -11    8.92    0.24
   1  -3 -11    9.09    0.25
  -1  -3  11    9.08    0.26
  -1  -3  11    8.82    0.25
  -1   3  11    9.03    0.27
   1   3 -11    8.96    0.27
  -1   3  11    8.89    0.25
   1   3 -11    9.15    0.26
   1   3 -11    8.72    0.25
   0  -3  11    2.25    0.12
   0  -3  11    2.23    0.13
   0  -3  11    2.29    0.12
   0  -3 -11    2.10    0.11
   0   3 -11    2.23    0.13
   0   3  11    2.19    0.13
   0   3 -11    1.93    0.11
  -1  -3 -11    1.10    0.09
   1  -3  11    0.97    0.10
   1  -3  11    1.13    0.09
  -1   3 -11    0.97    0.10
   1   3  11    1.06    0.09
   1   3  11    0.90    0.10
  -1   3 -11    1.05    0.09
  -2  -3 -11    0.06    0.05
   2  -3  11    0.05    0.06
   2  -3  11    0.04    0.04
   2   3  11    0.01    0.06
  -2   3 -11    0.06    0.05
  -2   3 -11    0.05    0.04
   2   3  11    0.04    0.04
   2   3  11    0.09    0.05
   3  -3  11    0.10    0.05
  -3  -3 -11    0.04    0.05
   3  -3  11    0.12    0.07
   3   3  11    0.10    0.07
  -3   3 -11    0.11    0.05
  -3   3 -11    0.14    0.06
   3   3  11    0.07    0.05
  -5  -4  11    0.11    0.06
   5   4 -11    0.06    0.06
  -5   4  11    0.07    0.06
  -4  -4  11    2.23    0.13
   4   4 -11    2.33    0.14
  -4   4  11    2.22    0.13
  -3  -4  11    0.25    0.06
   3   4 -11    0.25    0.06
   3   4 -11    0.24    0.06
  -3   4  11    0.19    0.05
  -3   4  11    0.10    0.05
   2  -4 -11    3.43    0.14
   2  -4 -11    3.25    0.16
  -2  -4  11    3.41    0.14
  -2   4  11    3.34    0.14
   2   4 -11    3.53    0.14
  -2   4  11    3.31    0.15
   2   4 -11    3.31    0.16
   2   4 -11    3.28    0.15
  -1  -4  11    0.47    0.07
   1  -4 -11    0.55    0.06
   1   4 -11    0.48    0.07
   1   4 -11    0.52    0.07
  -1   4  11    0.59    0.07
   1   4 -11    0.53    0.07
  -1   4  11    0.45    0.07
   0  -4  11    1.55    0.10
   0  -4  11    1.62    0.10
   0  -4  11    1.87    0.12
   0  -4 -11    1.68    0.10
   0   4  11    1.92    0.10
   0   4  11    1.85    0.12
   0   4 -11    1.78    0.12
   0   4 -11    1.84    0.11
   1  -4  11    6.82    0.22
  -1  -4 -11    6.75    0.22
   1  -4  11    6.91    0.24
  -1   4 -11    7.05    0.22
  -1   4 -11    7.06    0.23
   1   4  11    6.84    0.22
   1   4  11    7.13    0.25
   2  -4  11    4.56    0.18
  -2  -4 -11    4.67    0.18
   2  -4  11    4.56    0.20
  -2   4 -11    4.67    0.18
   2   4  11    4.80    0.18
  -2   4 -11    4.56    0.18
   2   4  11    4.83    0.21
   3  -4  11    0.10    0.07
  -3  -4 -11    0.08    0.06
   3  -4  11    0.07    0.05
  -3   4 -11    0.04    0.05
  -3   4 -11    0.10    0.05
   3   4  11    0.12    0.07
   3   4  11    0.01    0.05
  -4  -5  11    0.99    0.10
  -4   5  11    1.03    0.10
  -4   5  11    0.95    0.10
   4   5 -11    1.14    0.11
  -3  -5  11    0.46    0.07
  -3   5  11    0.48    0.07
   3   5 -11    0.37    0.07
   3   5 -11    0.45    0.07
  -3   5  11    0.56    0.07
   2  -5 -11    2.42    0.12
  -2  -5  11    2.43    0.12
   2   5 -11    2.54    0.12
   2   5 -11    2.61    0.14
   2   5 -11    2.58    0.14
  -2   5  11    2.37    0.13
  -2   5  11    2.43    0.12
  -1  -5  11    2.09    0.12
  -1  -5  11    1.94    0.11
   1  -5 -11    1.95    0.10
  -1  -5  11    1.79    0.12
  -1   5  11    1.77    0.12
   1   5 -11    1.74    0.12
   1   5 -11    1.80    0.11
  -1   5  11    1.90    0.10
   1   5 -11    2.00    0.11
   0  -5  11    2.39    0.13
   0  -5  11    2.59    0.12
   0  -5 -11    2.34    0.12
   0  -5  11    2.28    0.12
   0   5 -11    2.20    0.12
   0   5  11    2.20    0.14
   0   5 -11    2.25    0.13
   0   5  11    2.55    0.12
  -1  -5 -11    2.52    0.13
   1  -5  11    2.31    0.12
   1  -5  11    2.55    0.14
   1   5  11    2.43    0.14
  -1   5 -11    2.41    0.13
  -1   5 -11    2.45    0.13
   1   5  11    2.53    0.12
   2  -5  11    0.67    0.08
   2  -5  11    1.07    0.11
  -2  -5 -11    1.13    0.10
   2   5  11    0.93    0.09
   2   5  11    0.98    0.11
  -2   5 -11    0.93    0.09
  -2   5 -11    1.07    0.10
   3  -5  11    0.52    0.10
   3  -5  11    0.40    0.07
  -3  -5 -11    0.60    0.09
  -3   5 -11    0.53    0.08
   3   5  11    0.52    0.08
   3   5  11    0.44    0.09
  -3   5 -11    0.55    0.08
  -4  -6  11    0.52    0.08
   4   6 -11    0.53    0.08
  -4   6  11    0.34    0.07
  -4   6  11    0.52    0.08
  -3  -6  11    1.37    0.10
   3  -6 -11    1.21    0.09
   3   6 -11    1.25    0.11
   3   6 -11    1.46    0.11
  -3   6  11    1.28    0.10
  -3   6  11    1.34    0.10
   2  -6 -11    0.03    0.04
  -2  -6  11    0.02    0.04
   2   6 -11    0.01    0.04
   2   6 -11    0.00    0.05
  -2   6  11    0.01    0.04
   2   6 -11    0.05    0.04
  -2   6  11   -0.01    0.04
   1  -6 -11    4.74    0.18
   1  -6 -11    4.28    0.16
  -1  -6  11    4.77    0.17
  -1  -6  11    4.76    0.18
  -1  -6  11    4.85    0.18
   1   6 -11    4.52    0.18
   1   6 -11    4.50    0.17
   1   6 -11    4.38    0.17
  -1   6  11    4.56    0.18
  -1   6  11    4.63    0.16
   0  -6  11    0.75    0.08
   0  -6  11    0.88    0.09
   0  -6  11    0.70    0.07
   0  -6 -11    0.75    0.08
   0   6 -11    0.64    0.08
   0   6  11    0.77    0.08
   0   6 -11    0.84    0.08
   0   6  11    0.71    0.09
  -1  -6 -11    0.35    0.06
   1  -6  11    0.27    0.07
   1  -6  11    0.25    0.06
   1   6  11    0.20    0.05
   1   6  11    0.23    0.07
  -1   6 -11    0.36    0.06
  -1   6 -11    0.18    0.06
  -2  -6 -11    1.76    0.12
   2  -6  11    1.60    0.11
   2  -6  11    1.67    0.13
  -2   6 -11    1.83    0.12
  -2   6 -11    1.52    0.11
   2   6  11    1.74    0.11
   2   6  11    1.72    0.14
   3  -6  11    3.54    0.19
   3  -6  11    3.22    0.16
   3   6  11    3.14    0.18
  -3   6 -11    3.28    0.16
   3   6  11    3.65    0.17
  -3   6 -11    3.33    0.17
  -4  -7  11    4.48    0.18
   4   7 -11    4.74    0.20
   4   7 -11    3.97    0.19
  -4   7  11    4.74    0.20
  -4   7  11    4.55    0.19
  -3  -7  11    0.24    0.05
   3  -7 -11    0.11    0.05
   3   7 -11    0.20    0.06
  -3   7  11    0.24    0.06
  -3   7  11    0.11    0.05
   3   7 -11    0.14    0.06
   2  -7 -11    0.75    0.08
  -2  -7  11    0.68    0.09
  -2   7  11    0.83    0.10
   2   7 -11    0.63    0.08
   2   7 -11    0.72    0.09
  -2   7  11    0.75    0.08
   2   7 -11    0.88    0.09
   1  -7 -11    0.06    0.05
  -1  -7  11    0.03    0.04
  -1  -7  11    0.05    0.05
  -1   7  11    0.14    0.05
   1   7 -11    0.07    0.04
   1   7 -11    0.02    0.05
   0  -7 -11    1.57    0.10
   0  -7  11    1.44    0.10
   0  -7  11    1.41    0.10
   0  -7  11    1.42    0.11
   0   7 -11    1.41    0.10
   0   7 -11    1.22    0.11
   0   7  11    1.45    0.12
   1  -7  11    3.24    0.16
  -1  -7 -11    3.22    0.15
   1  -7  11    3.25    0.14
  -1   7 -11    3.38    0.15
  -1   7 -11    3.28    0.16
   1   7  11    3.10    0.16
   2  -7  11    1.29    0.10
  -2  -7 -11    1.25    0.11
   2  -7  11    1.28    0.12
  -2   7 -11    1.36    0.11
   2   7  11    1.25    0.13
  -2   7 -11    1.24    0.11
   3  -7  11    0.46    0.09
   3  -7  11    0.30    0.07
  -3   7 -11    0.41    0.08
   3   7  11    0.38    0.07
  -4  -8  11    0.24    0.08
   4   8 -11    0.28    0.08
   4   8 -11    0.37    0.08
  -4   8  11    0.38    0.08
  -4   8  11    0.32    0.07
  -3  -8  11    5.47    0.22
  -3  -8  11    5.55    0.20
   3  -8 -11    5.47    0.21
   3   8 -11    5.61    0.21
   3   8 -11    5.22    0.21
  -3   8  11    5.55    0.22
  -2  -8  11    3.58    0.14
  -2  -8  11    3.52    0.16
   2  -8 -11    3.66    0.16
  -2   8  11    3.25    0.16
   2   8 -11    3.42    0.15
   2   8 -11    3.68    0.17
   2   8 -11    3.81    0.17
  -1  -8  11    5.57    0.20
   1  -8 -11    5.58    0.21
  -1  -8  11    5.18    0.18
   1   8 -11    5.17    0.20
   1   8 -11    5.49    0.19
   0  -8 -11    0.44    0.06
   0  -8  11    0.47    0.07
   0  -8  11    0.48    0.06
   0  -8  11    0.47    0.08
   0   8 -11    0.55    0.07
   0   8  11    0.47    0.08
   0   8 -11    0.48    0.08
  -1  -8 -11    0.22    0.06
   1  -8  11    0.14    0.05
   1  -8  11    0.16    0.06
  -1   8 -11    0.11    0.06
  -1   8 -11    0.17    0.05
   1   8  11    0.11    0.06
   2  -8  11    3.31    0.17
   2  -8  11    2.93    0.14
  -2   8 -11    3.19    0.16
   2   8  11    3.27    0.18
  -2   8 -11    3.36    0.16
  -4  -9  11    0.29    0.07
   4   9 -11    0.24    0.07
   4   9 -11    0.44    0.08
  -4   9  11    0.36    0.08
  -3  -9  11    0.08    0.06
   3  -9 -11    0.10    0.05
   3   9 -11   -0.03    0.06
   3   9 -11    0.14    0.05
  -3   9  11    0.03    0.05
   2  -9 -11    0.00    0.04
  -2  -9  11    0.03    0.05
   2   9 -11   -0.03    0.04
   2   9 -11   -0.01    0.05
  -2   9  11   -0.01    0.05
  -1  -9  11    0.35    0.07
   1  -9 -11    0.23    0.06
   1   9 -11    0.23    0.07
  -1   9  11    0.17    0.06
   1   9 -11    0.20    0.05
   0  -9  11    0.06    0.05
   0  -9 -11    0.10    0.04
   0  -9  11    0.08    0.05
   0  -9  11    0.15    0.05
   0   9 -11    0.09    0.05
   0   9 -11    0.06    0.06
   0   9  11    0.11    0.06
   1  -9  11    3.41    0.16
   1  -9  11    3.09    0.16
  -1   9 -11    2.99    0.15
  -1   9 -11    3.26    0.16
   1   9  11    3.48    0.17
   2  -9  11    0.93    0.11
  -2   9 -11    0.85    0.10
  -2   9 -11    0.82    0.10
   2   9  11    0.71    0.10
   3 -10 -11    0.33    0.07
  -3 -10  11    0.35    0.08
  -3  10  11    0.32    0.08
   3  10 -11    0.45    0.08
   3  10 -11    0.37    0.08
  -2 -10  11    2.02    0.14
   2 -10 -11    1.89    0.13
  -2  10  11    2.14    0.14
   2  10 -11    2.05    0.12
   2  10 -11    1.98    0.14
   1 -10 -11    2.56    0.15
  -1 -10  11    2.55    0.14
   1  10 -11    2.89    0.19
  -1  10  11    2.97    0.16
   1  10 -11    2.71    0.16
   1  10 -11    2.83    0.14
   0 -10  11    3.39    0.16
   0  10  11    3.01    0.16
   0  10 -11    2.99    0.14
   0  10 -11    3.18    0.16
   1 -10  11    0.29    0.06
   1 -10  11    0.33    0.07
   1  10  11    0.33    0.08
  -1  10 -11    0.30    0.06
  -1  10 -11    0.49    0.08
   2 -10  11    1.26    0.13
  -2  10 -11    0.99    0.11
  -2  10 -11    0.96    0.10
   3 -11 -11    0.56    0.08
  -3 -11  11    0.43    0.08
   3  11 -11    0.48    0.09
  -3  11  11    0.55    0.09
   3  11 -11    0.75    0.09
  -2 -11  11    0.12    0.06
   2 -11 -11    0.03    0.05
   2  11 -11    0.02    0.05
  -2  11  11    0.04    0.05
   2  11 -11    0.00    0.06
  -1 -11  11    1.01    0.10
   1 -11 -11    0.75    0.10
   1  11 -11    0.83    0.10
  -1  11  11    0.58    0.09
   1  11 -11    0.96    0.09
   1  11 -11    0.88    0.09
   0 -11  11    0.75    0.09
   0  11 -11    0.71    0.10
   0  11 -11    0.63    0.12
   0  11  11    0.61    0.09
   0  11 -11    0.85    0.09
   1 -11  11    3.39    0.16
   1 -11  11    3.83    0.18
   1  11  11    4.09    0.19
  -1  11 -11    3.65    0.17
  -1  11 -11    3.77    0.18
  -3 -12  11    0.88    0.11
   3  12 -11    0.72    0.10
  -3  12  11    0.86    0.11
   2 -12 -11    0.49    0.08
  -2 -12  11    0.62    0.09
   2  12 -11    0.48    0.07
   2  12 -11    0.67    0.08
  -2  12  11    0.62    0.09
   2  12 -11    0.48    0.09
  -1 -12  11    0.00    0.05
   1 -12 -11    0.03    0.06
  -1  12  11    0.00    0.05
   1  12 -11    0.03    0.04
   1  12 -11    0.03    0.04
   1  12 -11   -0.01    0.06
   0 -12  11    0.26    0.07
   0  12 -11    0.09    0.05
   0  12 -11    0.22    0.08
   0  12  11    0.26    0.08
   0  12 -11    0.12    0.05
   1 -12  11    0.13    0.06
   1 -12  11    0.03    0.05
  -1  12 -11    0.09    0.06
  -1  12 -11    0.09    0.05
   1  12  11    0.10    0.07
  -2 -13  11    0.18    0.07
   2 -13 -11    0.25    0.07
  -2  13  11    0.15    0.07
   2  13 -11    0.13    0.06
   2  13 -11    0.22    0.06
   2  13 -11    0.11    0.07
  -1 -13  11    0.03    0.06
   1 -13 -11   -0.03    0.05
   1  13 -11   -0.01    0.06
   1  13 -11    0.05    0.05
  -1  13  11    0.02    0.05
   1  13 -11   -0.02    0.04
   0 -13  11    1.27    0.12
   0  13 -11    1.35    0.11
   0  13 -11    1.32    0.11
   0  13  11    1.23    0.13
   0  13 -11    1.36    0.14
   4   0 -12    0.83    0.09
  -4   0  12    0.84    0.10
   3   0 -12   -0.06    0.03
  -3   0  12    0.03    0.05
   2   0 -12    8.50    0.25
  -2   0  12    8.49    0.26
   2   0 -12    8.42    0.25
   2   0 -12    8.75    0.28
  -2   0  12    8.83    0.26
   1   0 -12    0.07    0.04
  -1   0  12    0.10    0.05
  -1   0  12    0.01    0.06
   1   0 -12    0.06    0.04
   1   0 -12    0.08    0.05
   0   0 -12    0.17    0.05
   0   0  12    0.14    0.07
   0   0 -12    0.12    0.05
   0   0  12    0.23    0.06
   1   0  12    0.05    0.05
  -1   0 -12    0.01    0.03
  -1   0 -12    0.04    0.05
   1   0  12   -0.09    0.05
   2   0  12    5.74    0.21
  -2   0 -12    6.08    0.22
   2   0  12    5.71    0.23
  -2   0 -12    5.54    0.20
   3   0  12    0.01    0.05
   3   0  12   -0.02    0.07
  -3   0 -12    0.03    0.05
  -4  -1  12    1.03    0.11
   4  -1 -12    0.89    0.09
  -4   1  12    1.00    0.11
   4   1 -12    1.02    0.10
   3  -1 -12    1.52    0.10
  -3  -1  12    1.58    0.11
  -3   1  12    1.56    0.11
   3   1 -12    1.38    0.10
  -3   1  12    1.46    0.11
  -2  -1  12    0.20    0.06
   2  -1 -12    0.31    0.06
  -2  -1  12    0.24    0.06
   2  -1 -12    0.24    0.05
   2  -1 -12    0.29    0.05
   2   1 -12    0.21    0.05
  -2   1  12    0.37    0.06
   2   1 -12    0.20    0.06
  -2   1  12    0.17    0.06
   2   1 -12    0.24    0.06
  -1  -1  12    6.81    0.23
   1  -1 -12    6.89    0.21
   1  -1 -12    6.85    0.22
  -1  -1  12    6.85    0.22
   1   1 -12    7.47    0.24
   1   1 -12    6.38    0.22
  -1   1  12    7.29    0.22
  -1   1  12    6.52    0.23
   1   1 -12    6.79    0.21
   0  -1  12    6.00    0.20
   0  -1  12    5.53    0.21
   0  -1 -12    5.62    0.18
   0  -1 -12    5.63    0.20
   0   1 -12    5.73    0.20
   0   1  12    5.87    0.22
   0   1 -12    5.47    0.19
   0   1  12    5.69    0.19
   1  -1  12    0.50    0.07
  -1  -1 -12    0.52    0.08
  -1  -1 -12    0.40    0.06
   1  -1  12    0.53    0.09
  -1   1 -12    0.48    0.07
   1   1  12    0.58    0.09
   1   1  12    0.52    0.07
  -1   1 -12    0.37    0.06
   2  -1  12   -0.02    0.06
   2  -1  12    0.04    0.05
  -2  -1 -12    0.04    0.05
  -2  -1 -12    0.03    0.05
   2   1  12    0.03    0.07
  -2   1 -12    0.08    0.05
   2   1  12    0.06    0.05
  -2   1 -12    0.05    0.04
  -3  -1 -12    0.30    0.07
   3  -1  12    0.31    0.09
   3  -1  12    0.29    0.07
   3   1  12    0.22    0.08
  -3   1 -12    0.43    0.08
   3   1  12    0.29    0.07
  -3   1 -12    0.25    0.06
  -4  -2  12    1.76    0.13
  -4   2  12    1.81    0.13
   4   2 -12    1.72    0.12
  -3  -2  12    1.36    0.11
   3  -2 -12    1.60    0.10
  -3   2  12    1.45    0.11
   3   2 -12    1.66    0.11
  -3   2  12    1.49    0.11
   2  -2 -12    0.75    0.10
  -2  -2  12    0.79    0.09
   2  -2 -12    0.87    0.07
  -2  -2  12    0.93    0.09
   2  -2 -12    0.80    0.09
  -2   2  12    0.92    0.10
  -2   2  12    0.90    0.09
   2   2 -12    0.97    0.10
   2   2 -12    0.80    0.08
   2   2 -12    0.86    0.09
   1  -2 -12    0.17    0.04
  -1  -2  12    0.26    0.07
  -1  -2  12    0.29    0.06
   1  -2 -12    0.26    0.06
   1   2 -12    0.24    0.06
  -1   2  12    0.19    0.06
   1   2 -12    0.23    0.05
  -1   2  12    0.24    0.06
   1   2 -12    0.24    0.06
   0  -2 -12    2.07    0.10
   0  -2  12    2.29    0.12
   0  -2 -12    2.20    0.12
   0  -2  12    2.14    0.14
   0   2  12    2.22    0.14
   0   2 -12    2.33    0.12
   0   2  12    2.23    0.12
   0   2 -12    2.16    0.13
   1  -2  12    6.84    0.23
  -1  -2 -12    7.59    0.24
   1  -2  12    7.13    0.25
   1   2  12    7.09    0.25
  -1   2 -12    7.23    0.24
  -1   2 -12    6.93    0.22
   1   2  12    6.98    0.23
  -2  -2 -12    1.99    0.13
   2  -2  12    1.81    0.12
   2  -2  12    1.85    0.15
   2   2  12    1.85    0.12
  -2   2 -12    1.91    0.13
  -2   2 -12    1.69    0.11
   2   2  12    2.01    0.15
   3  -2  12    0.29    0.07
   3  -2  12    0.32    0.09
  -3  -2 -12    0.33    0.07
   3   2  12    0.24    0.07
   3   2  12    0.39    0.09
  -3   2 -12    0.26    0.06
  -3   2 -12    0.22    0.07
  -4  -3  12    0.06    0.06
   4   3 -12    0.02    0.05
  -4   3  12    0.04    0.06
  -3  -3  12    0.56    0.08
   3   3 -12    0.49    0.07
   3   3 -12    0.48    0.07
  -3   3  12    0.38    0.07
  -3   3  12    0.53    0.07
  -2  -3  12    0.41    0.07
  -2   3  12    0.42    0.07
   2   3 -12    0.43    0.07
   2   3 -12    0.44    0.07
   2   3 -12    0.32    0.06
  -2   3  12    0.41    0.07
  -1  -3  12    0.70    0.09
   1  -3 -12    0.87    0.09
   1   3 -12    0.71    0.08
   1   3 -12    0.87    0.09
  -1   3  12    0.81    0.08
  -1   3  12    0.77    0.09
   1   3 -12    0.75    0.08
   0  -3  12    4.65    0.17
   0  -3 -12    4.70    0.18
   0  -3  12    4.54    0.17
   0  -3  12    4.71    0.19
   0   3 -12    4.74    0.17
   0   3  12    4.55    0.17
   0   3  12    4.88    0.20
   0   3 -12    4.43    0.18
   1  -3  12    0.21    0.05
   1  -3  12    0.16    0.07
  -1  -3 -12    0.14    0.05
   1   3  12    0.15    0.08
  -1   3 -12    0.18    0.05
  -1   3 -12    0.16    0.06
   1   3  12    0.19    0.06
   2  -3  12    0.77    0.09
   2  -3  12    0.78    0.11
  -2  -3 -12    0.76    0.09
  -2   3 -12    0.87    0.09
   2   3  12    0.55    0.08
   2   3  12    0.69    0.10
  -2   3 -12    0.70    0.09
  -3  -3 -12    0.57    0.09
   3  -3  12    0.70    0.11
   3  -3  12    0.63    0.09
  -3   3 -12    0.69    0.09
   3   3  12    0.68    0.11
  -3   3 -12    0.43    0.07
   3   3  12    0.48    0.08
  -4  -4  12    0.06    0.05
   4   4 -12    0.03    0.05
  -4   4  12   -0.04    0.05
  -3  -4  12    2.48    0.14
  -3   4  12    2.56    0.14
   3   4 -12    2.74    0.14
  -3   4  12    2.79    0.14
   3   4 -12    2.43    0.14
  -2  -4  12    0.03    0.04
   2  -4 -12    0.05    0.05
   2   4 -12    0.03    0.04
  -2   4  12    0.03    0.05
  -2   4  12    0.03    0.04
   2   4 -12    0.12    0.05
   2   4 -12    0.01    0.04
  -1  -4  12    3.58    0.15
  -1  -4  12    3.26    0.16
   1  -4 -12    3.64    0.15
  -1   4  12    3.43    0.15
  -1   4  12    3.48    0.16
   1   4 -12    3.43    0.15
   1   4 -12    3.57    0.16
   1   4 -12    3.66    0.16
   0  -4 -12    0.03    0.05
   0  -4  12    0.05    0.05
   0  -4  12   -0.05    0.06
   0  -4  12    0.01    0.04
   0   4 -12    0.06    0.04
   0   4 -12    0.08    0.06
   0   4  12   -0.03    0.05
  -1  -4 -12    1.47    0.11
   1  -4  12    1.46    0.13
   1  -4  12    1.39    0.10
   1   4  12    1.46    0.11
  -1   4 -12    1.35    0.11
   1   4  12    1.28    0.13
  -1   4 -12    1.33    0.10
   2  -4  12    0.23    0.06
  -2  -4 -12    0.20    0.06
   2  -4  12    0.29    0.08
  -2   4 -12    0.26    0.06
   2   4  12    0.26    0.06
   2   4  12    0.11    0.08
  -2   4 -12    0.19    0.06
  -4  -5  12    1.27    0.11
   4   5 -12    1.38    0.12
  -4   5  12    1.49    0.12
  -4   5  12    1.22    0.12
  -3  -5  12    0.15    0.05
  -3   5  12    0.06    0.05
   3   5 -12    0.10    0.06
   3   5 -12    0.17    0.06
  -3   5  12    0.14    0.06
  -2  -5  12    0.80    0.09
   2  -5 -12    0.68    0.08
   2   5 -12    0.73    0.08
   2   5 -12    0.90    0.10
  -2   5  12    0.66    0.08
  -2   5  12    0.91    0.09
   2   5 -12    0.72    0.09
  -1  -5  12    5.86    0.21
  -1  -5  12    5.59    0.20
   1  -5 -12    5.56    0.19
  -1  -5  12    5.43    0.20
   1   5 -12    5.66    0.20
   1   5 -12    5.69    0.20
   1   5 -12    5.74    0.21
  -1   5  12    5.62    0.19
  -1   5  12    5.41    0.21
   0  -5  12    2.23    0.12
   0  -5 -12    2.16    0.12
   0  -5  12    2.18    0.14
   0  -5  12    2.11    0.12
   0   5 -12    1.93    0.13
   0   5  12    2.09    0.14
   0   5 -12    2.14    0.12
  -1  -5 -12    5.04    0.19
   1  -5  12    4.77    0.20
   1  -5  12    4.65    0.18
   1   5  12    4.99    0.18
  -1   5 -12    4.77    0.19
  -1   5 -12    4.66    0.18
   1   5  12    4.48    0.20
   2  -5  12    0.33    0.09
   2  -5  12    0.46    0.07
  -2  -5 -12    0.35    0.07
  -2   5 -12    0.40    0.08
   2   5  12    0.28    0.09
   2   5  12    0.35    0.07
  -2   5 -12    0.36    0.07
  -4  -6  12    0.22    0.06
   4   6 -12    0.08    0.06
  -4   6  12    0.24    0.07
  -4   6  12    0.08    0.06
  -3  -6  12    0.04    0.05
   3   6 -12    0.07    0.05
  -3   6  12    0.04    0.05
  -3   6  12   -0.02    0.05
   3   6 -12   -0.02    0.05
   2  -6 -12    2.80    0.14
   2   6 -12    2.95    0.14
   2   6 -12    2.71    0.15
   2   6 -12    2.47    0.14
  -2   6  12    2.75    0.13
  -2   6  12    2.71    0.15
  -1  -6  12    0.26    0.07
  -1  -6  12    0.24    0.06
  -1  -6  12    0.30    0.07
   1  -6 -12    0.23    0.05
   1   6 -12    0.24    0.06
  -1   6  12    0.27    0.06
  -1   6  12    0.27    0.07
   1   6 -12    0.27    0.07
   0  -6  12    2.13    0.14
   0  -6  12    2.16    0.12
   0  -6  12    2.28    0.12
   0  -6 -12    2.13    0.12
   0   6  12    2.21    0.15
   0   6 -12    2.19    0.12
   0   6 -12    2.20    0.14
   1  -6  12    0.10    0.05
   1  -6  12    0.19    0.07
  -1  -6 -12    0.06    0.05
   1   6  12    0.10    0.07
   1   6  12    0.10    0.05
  -1   6 -12    0.09    0.06
  -1   6 -12    0.05    0.05
  -2  -6 -12    2.52    0.15
   2  -6  12    2.70    0.16
   2  -6  12    2.67    0.14
   2   6  12    2.76    0.17
   2   6  12    2.37    0.14
  -2   6 -12    2.72    0.15
  -2   6 -12    2.47    0.14
  -4  -7  12    0.21    0.06
  -4   7  12    0.19    0.07
  -4   7  12    0.14    0.07
   4   7 -12    0.04    0.06
   3  -7 -12    0.03    0.05
  -3  -7  12   -0.01    0.04
   3   7 -12    0.06    0.05
  -3   7  12   -0.05    0.05
  -3   7  12   -0.02    0.05
   3   7 -12   -0.05    0.05
  -2  -7  12    0.94    0.09
  -2  -7  12    0.70    0.09
   2  -7 -12    0.76    0.09
   2   7 -12    0.89    0.09
   2   7 -12    0.76    0.14
   2   7 -12    0.73    0.09
  -2   7  12    0.90    0.09
  -2   7  12    0.81    0.09
  -1  -7  12    0.72    0.09
  -1  -7  12    0.61    0.07
   1   7 -12    0.75    0.09
  -1   7  12    0.50    0.08
   1   7 -12    0.66    0.09
   0  -7  12    2.00    0.13
   0  -7  12    2.10    0.12
   0  -7 -12    1.87    0.11
   0  -7  12    2.21    0.12
   0   7 -12    2.19    0.13
   0   7 -12    1.74    0.13
   0   7  12    2.08    0.14
  -1  -7 -12    0.15    0.06
   1  -7  12    0.18    0.07
   1  -7  12    0.18    0.06
  -1   7 -12    0.11    0.06
   1   7  12    0.08    0.07
  -1   7 -12    0.20    0.06
  -2  -7 -12    0.16    0.06
   2  -7  12    0.13    0.07
   2  -7  12    0.11    0.05
  -2   7 -12    0.01    0.05
   2   7  12   -0.02    0.07
  -2   7 -12    0.06    0.06
  -3  -8  12    1.08    0.12
  -3  -8  12    1.06    0.12
   3  -8 -12    0.99    0.10
   3   8 -12    1.15    0.11
  -3   8  12    1.06    0.11
   3   8 -12    0.85    0.10
  -2  -8  12    1.32    0.10
   2  -8 -12    1.38    0.11
  -2  -8  12    1.35    0.12
  -2   8  12    1.22    0.12
   2   8 -12    1.31    0.12
   2   8 -12    1.41    0.11
  -1  -8  12    0.06    0.05
  -1  -8  12    0.02    0.04
  -1   8  12    0.02    0.05
   1   8 -12   -0.05    0.05
   1   8 -12    0.06    0.05
   0  -8  12    2.64    0.13
   0  -8  12    3.03    0.15
   0  -8 -12    2.84    0.14
   0  -8  12    2.93    0.14
   0   8 -12    2.98    0.15
   0   8  12    2.81    0.16
   0   8 -12    2.78    0.16
  -1  -8 -12    1.33    0.11
   1  -8  12    1.34    0.10
   1  -8  12    1.35    0.12
  -1   8 -12    1.27    0.12
   1   8  12    1.07    0.12
  -1   8 -12    1.43    0.11
   2  -8  12    2.23    0.13
   2  -8  12    2.39    0.16
   2   8  12    2.33    0.17
  -2   8 -12    2.62    0.15
  -2   8 -12    2.55    0.15
   3  -9 -12    0.15    0.06
  -3  -9  12    0.25    0.07
   3   9 -12    0.19    0.06
  -3   9  12    0.15    0.07
   3   9 -12    0.11    0.07
  -2  -9  12    0.20    0.06
   2  -9 -12    0.21    0.07
   2   9 -12    0.16    0.07
   2   9 -12    0.20    0.06
  -2   9  12    0.14    0.06
   1  -9 -12    0.96    0.11
  -1  -9  12    1.09    0.11
  -1   9  12    1.05    0.11
   1   9 -12    1.05    0.10
   1   9 -12    1.17    0.12
   0  -9  12    1.68    0.12
   0  -9  12    1.59    0.12
   0  -9 -12    1.61    0.11
   0   9 -12    1.71    0.14
   0   9  12    1.69    0.14
   0   9 -12    1.64    0.12
   1  -9  12    0.61    0.09
  -1   9 -12    0.52    0.09
   1   9  12    0.41    0.09
  -1   9 -12    0.50    0.08
   3 -10 -12    0.05    0.05
  -3 -10  12    0.02    0.06
   3  10 -12    0.10    0.06
   3  10 -12   -0.06    0.06
  -3  10  12    0.03    0.06
   2 -10 -12    0.05    0.05
  -2 -10  12    0.10    0.06
   2  10 -12    0.01    0.05
   2  10 -12    0.05    0.07
  -2  10  12    0.03    0.06
  -1 -10  12    0.23    0.06
   1 -10 -12    0.17    0.07
   1  10 -12    0.02    0.06
   1  10 -12    0.10    0.05
  -1  10  12    0.08    0.06
   0 -10  12    0.42    0.07
   0  10 -12    0.38    0.07
   0  10  12    0.48    0.09
   0  10 -12    0.46    0.09
   1 -10  12    1.65    0.13
  -1  10 -12    1.49    0.13
   1  10  12    1.33    0.14
  -1  10 -12    1.46    0.12
  -2 -11  12    0.12    0.06
   2 -11 -12    0.12    0.06
   2  11 -12    0.16    0.06
   2  11 -12    0.13    0.07
  -2  11  12    0.11    0.07
   1 -11 -12    0.31    0.08
  -1 -11  12    0.33    0.07
  -1  11  12    0.36    0.08
   1  11 -12    0.35    0.07
   1  11 -12    0.18    0.08
   0 -11  12    1.80    0.13
   0  11 -12    1.73    0.12
   0  11  12    1.74    0.15
   0  11 -12    1.71    0.15
   1 -11  12    0.12    0.06
  -1  11 -12    0.00    0.05
   1  11  12   -0.07    0.07
  -1  11 -12   -0.01    0.06
  -2 -12  12    2.53    0.16
   2 -12 -12    2.39    0.16
   2  12 -12    2.17    0.16
   2  12 -12    2.32    0.14
  -2  12  12    2.48    0.16
   1 -12 -12    0.18    0.07
  -1 -12  12    0.18    0.07
  -1  12  12    0.14    0.07
   1  12 -12    0.16    0.06
   1  12 -12    0.21    0.09
   0 -12  12   -0.02    0.05
   0  12 -12   -0.08    0.06
   0  12  12   -0.08    0.06
   0  12 -12   -0.05    0.05
   4   0 -13    0.00    0.05
  -4   0  13    0.02    0.06
  -3   0  13    0.02    0.05
   3   0 -13    0.03    0.04
  -2   0  13    0.00    0.05
   2   0 -13    0.01    0.05
   2   0 -13    0.02    0.04
  -2   0  13   -0.02    0.05
   1   0 -13    2.59    0.14
  -1   0  13    2.69    0.14
  -1   0  13    2.56    0.15
   1   0 -13    2.52    0.12
   0   0 -13    0.02    0.04
   0   0 -13    0.09    0.05
   0   0  13   -0.04    0.06
   0   0  13    0.05    0.05
  -1   0 -13    1.77    0.11
  -1   0 -13    1.95    0.13
   1   0  13    1.81    0.15
   1   0  13    2.02    0.13
   2   0  13   -0.01    0.05
  -2   0 -13    0.03    0.05
   2   0  13   -0.02    0.07
  -2   0 -13    0.00    0.04
  -4  -1  13    0.18    0.07
   4  -1 -13    0.04    0.06
  -4   1  13    0.06    0.06
   4   1 -13    0.04    0.05
  -3  -1  13   -0.01    0.05
   3  -1 -13    0.01    0.04
   3   1 -13    0.01    0.04
  -3   1  13    0.09    0.06
   2  -1 -13    1.85    0.11
  -2  -1  13    1.77    0.12
   2  -1 -13    1.63    0.10
  -2  -1  13    1.58    0.12
   2   1 -13    1.58    0.11
  -2   1  13    1.79    0.12
  -2   1  13    1.53    0.12
   2   1 -13    1.72    0.12
   1  -1 -13    1.38    0.10
  -1  -1  13    1.38    0.12
   1  -1 -13    1.34    0.09
   1   1 -13    1.52    0.10
  -1   1  13    1.47    0.13
  -1   1  13    1.52    0.11
   1   1 -13    1.44    0.11
   0  -1 -13    0.01    0.05
   0  -1  13   -0.02    0.06
   0  -1 -13    0.00    0.04
   0  -1  13    0.05    0.05
   0   1  13    0.01    0.06
   0   1 -13    0.03    0.04
   0   1  13    0.08    0.05
   0   1 -13    0.06    0.05
  -1  -1 -13    0.22    0.06
   1  -1  13    0.08    0.05
   1  -1  13    0.23    0.08
   1   1  13    0.17    0.06
  -1   1 -13    0.16    0.06
  -1   1 -13    0.12    0.04
   1   1  13    0.07    0.07
  -2  -1 -13    0.78    0.09
   2  -1  13    0.61    0.11
   2  -1  13    0.75    0.09
  -2   1 -13    0.54    0.07
   2   1  13    0.71    0.11
  -2   1 -13    0.64    0.09
   2   1  13    0.67    0.09
  -4  -2  13    1.36    0.13
   4   2 -13    1.59    0.12
  -4   2  13    1.21    0.12
  -3  -2  13    2.87    0.15
  -3   2  13    2.57    0.14
   3   2 -13    2.52    0.14
  -3   2  13    3.04    0.15
  -2  -2  13    0.62    0.08
  -2  -2  13    0.62    0.08
   2   2 -13    0.74    0.08
  -2   2  13    0.50    0.08
  -2   2  13    0.70    0.09
   2   2 -13    0.53    0.07
   1  -2 -13    1.44    0.11
  -1  -2  13    1.44    0.12
  -1   2  13    1.40    0.12
   1   2 -13    1.57    0.10
   1   2 -13    1.57    0.12
  -1   2  13    1.52    0.11
   1   2 -13    1.79    0.12
   0  -2  13    0.74    0.10
   0  -2 -13    0.65    0.08
   0  -2  13    0.74    0.08
   0   2 -13    0.67    0.08
   0   2 -13    0.78    0.09
   0   2  13    0.57    0.08
   0   2  13    0.62    0.09
  -1  -2 -13    0.71    0.09
   1  -2  13    0.75    0.10
   1  -2  13    0.65    0.08
  -1   2 -13    0.79    0.09
   1   2  13    0.73    0.10
   1   2  13    0.68    0.08
  -1   2 -13    0.63    0.08
   2  -2  13    0.11    0.08
  -2  -2 -13    0.15    0.06
   2  -2  13    0.06    0.06
  -2   2 -13    0.06    0.05
   2   2  13    0.13    0.06
   2   2  13    0.09    0.08
  -2   2 -13    0.15    0.06
  -4  -3  13    0.54    0.09
  -4   3  13    0.73    0.10
   4   3 -13    0.59    0.09
  -3  -3  13    0.28    0.07
  -3   3  13    0.25    0.07
  -3   3  13    0.34    0.07
   3   3 -13    0.31    0.07
  -2  -3  13    0.66    0.08
  -2   3  13    0.67    0.09
   2   3 -13    0.59    0.08
  -2   3  13    0.64    0.08
   2   3 -13    0.54    0.08
   1  -3 -13    7.13    0.23
  -1  -3  13    7.54    0.24
  -1  -3  13    7.24    0.25
  -1   3  13    7.39    0.26
   1   3 -13    7.36    0.24
   1   3 -13    7.16    0.25
  -1   3  13    7.83    0.24
   1   3 -13    7.50    0.25
   0  -3  13    4.08    0.17
   0  -3 -13    4.16    0.17
   0  -3  13    4.19    0.19
   0   3  13    4.56    0.17
   0   3 -13    4.05    0.17
   0   3  13    4.11    0.19
   0   3 -13    4.14    0.18
   1  -3  13    0.29    0.08
   1  -3  13    0.46    0.07
  -1  -3 -13    0.44    0.07
  -1   3 -13    0.34    0.06
   1   3  13    0.38    0.07
   1   3  13    0.33    0.09
  -1   3 -13    0.29    0.07
  -2  -3 -13    0.05    0.05
   2  -3  13    0.13    0.08
   2  -3  13    0.02    0.05
   2   3  13    0.02    0.05
  -2   3 -13    0.04    0.06
  -2   3 -13    0.02    0.04
   2   3  13   -0.06    0.07
  -4  -4  13    2.82    0.16
  -4   4  13    2.91    0.16
   4   4 -13    3.06    0.16
  -3  -4  13    0.62    0.08
   3   4 -13    0.55    0.08
  -3   4  13    0.70    0.09
   3   4 -13    0.58    0.09
  -3   4  13    0.50    0.08
  -2  -4  13    0.03    0.05
   2   4 -13    0.05    0.05
  -2   4  13   -0.04    0.04
  -2   4  13    0.01    0.05
   2   4 -13   -0.03    0.05
  -1  -4  13    0.31    0.08
   1  -4 -13    0.46    0.07
  -1  -4  13    0.44    0.07
   1   4 -13    0.53    0.08
  -1   4  13    0.55    0.08
  -1   4  13    0.50    0.08
   1   4 -13    0.44    0.07
   1   4 -13    0.50    0.08
   0  -4  13    1.40    0.11
   0  -4  13    1.24    0.12
   0  -4 -13    1.69    0.11
   0   4 -13    1.33    0.11
   0   4  13    1.48    0.11
   0   4 -13    1.40    0.12
   0   4  13    1.43    0.14
  -1  -4 -13    1.06    0.10
   1  -4  13    1.09    0.10
   1  -4  13    0.95    0.11
  -1   4 -13    0.98    0.10
  -1   4 -13    1.25    0.12
   1   4  13    0.76    0.11
   1   4  13    0.97    0.10
   2  -4  13    0.25    0.06
  -2  -4 -13    0.31    0.07
   2  -4  13    0.40    0.09
  -2   4 -13    0.52    0.09
  -2   4 -13    0.31    0.07
   2   4  13    0.25    0.07
   2   4  13    0.50    0.10
  -4  -5  13    0.18    0.06
   4   5 -13    0.27    0.08
  -4   5  13    0.30    0.08
  -3  -5  13    0.30    0.07
  -3   5  13    0.13    0.06
  -3   5  13    0.21    0.07
   3   5 -13    0.07    0.06
   3   5 -13    0.18    0.06
   2   5 -13    1.43    0.12
   2   5 -13    1.50    0.11
  -2   5  13    1.71    0.12
  -2   5  13    1.48    0.12
  -1  -5  13    1.83    0.12
   1  -5 -13    1.94    0.11
  -1  -5  13    1.85    0.13
  -1  -5  13    1.69    0.13
  -1   5  13    2.12    0.12
   1   5 -13    1.96    0.12
   1   5 -13    1.91    0.14
  -1   5  13    1.65    0.14
   0  -5 -13    0.69    0.08
   0  -5  13    0.73    0.08
   0  -5  13    0.69    0.08
   0  -5  13    0.56    0.09
   0   5 -13    0.65    0.09
   0   5 -13    0.75    0.09
   0   5  13    0.74    0.08
   0   5  13    0.75    0.10
  -1  -5 -13    0.11    0.06
   1  -5  13    0.03    0.05
   1  -5  13    0.08    0.07
  -1   5 -13    0.07    0.05
  -1   5 -13    0.11    0.06
   1   5  13    0.05    0.08
   1   5  13    0.07    0.05
  -2  -5 -13    1.62    0.13
   2  -5  13    1.50    0.12
   2  -5  13    1.48    0.15
   2   5  13    1.55    0.15
   2   5  13    1.51    0.12
  -2   5 -13    1.84    0.14
  -2   5 -13    1.65    0.12
  -3  -6  13    0.84    0.09
   3   6 -13    0.71    0.10
  -3   6  13    0.92    0.10
   3   6 -13    0.93    0.10
  -3   6  13    0.69    0.09
   2  -6 -13    0.80    0.09
  -2  -6  13    0.69    0.10
   2   6 -13    0.71    0.09
  -2   6  13    0.84    0.10
  -2   6  13    0.81    0.09
   2   6 -13    0.86    0.10
  -1  -6  13    1.89    0.12
  -1  -6  13    1.98    0.13
  -1   6  13    1.81    0.14
   1   6 -13    1.76    0.12
  -1   6  13    1.89    0.12
   1   6 -13    1.70    0.13
   0  -6  13    0.73    0.10
   0  -6  13    0.73    0.09
   0  -6  13    0.69    0.08
   0  -6 -13    1.05    0.10
   0   6  13    0.77    0.08
   0   6  13    0.60    0.10
   0   6 -13    0.63    0.08
   0   6 -13    0.73    0.10
   1  -6  13    5.40    0.23
   1  -6  13    5.31    0.20
  -1  -6 -13    5.44    0.21
  -1   6 -13    5.12    0.21
  -1   6 -13    5.62    0.22
   1   6  13    5.02    0.20
   1   6  13    5.20    0.23
   2  -6  13    0.11    0.06
   2  -6  13    0.05    0.07
  -2  -6 -13    0.14    0.06
  -2   6 -13    0.04    0.06
   2   6  13   -0.04    0.05
   2   6  13   -0.12    0.08
  -2   6 -13    0.17    0.07
  -3  -7  13   -0.17    0.06
  -3  -7  13    0.02    0.05
   3   7 -13   -0.08    0.06
  -3   7  13    0.00    0.06
  -3   7  13   -0.03    0.05
   3   7 -13    0.05    0.06
   2  -7 -13    0.90    0.10
  -2  -7  13    0.95    0.11
  -2  -7  13    0.88    0.09
  -2   7  13    0.94    0.11
   2   7 -13    0.96    0.11
   2   7 -13    0.84    0.10
  -2   7  13    0.83    0.10
  -1  -7  13    0.52    0.08
  -1  -7  13    0.55    0.08
   1   7 -13    0.50    0.09
   1   7 -13    0.58    0.08
  -1   7  13    0.49    0.09
   0  -7  13    1.63    0.13
   0  -7  13    1.62    0.12
   0  -7 -13    1.93    0.12
   0  -7  13    1.82    0.12
   0   7 -13    1.89    0.14
   0   7  13    1.94    0.15
   0   7 -13    1.80    0.13
  -1  -7 -13    0.01    0.05
   1  -7  13    0.10    0.07
   1  -7  13    0.07    0.05
   1   7  13   -0.01    0.07
  -1   7 -13    0.09    0.05
  -1   7 -13    0.04    0.06
  -3  -8  13   -0.03    0.06
   3   8 -13    0.10    0.06
   3   8 -13   -0.12    0.06
  -3   8  13    0.10    0.07
  -2  -8  13    0.62    0.08
   2  -8 -13    0.70    0.10
  -2  -8  13    0.69    0.10
   2   8 -13    0.69    0.10
  -2   8  13    0.52    0.09
   2   8 -13    0.73    0.09
  -1  -8  13    0.06    0.06
  -1  -8  13    0.07    0.05
   1   8 -13    0.16    0.07
  -1   8  13    0.09    0.07
   1   8 -13    0.06    0.05
   0  -8  13    1.12    0.10
   0  -8  13    0.88    0.10
   0  -8 -13    1.04    0.10
   0  -8  13    1.13    0.11
   0   8 -13    1.04    0.11
   0   8  13    0.90    0.11
   0   8 -13    0.99    0.10
   1  -8  13    1.51    0.13
   1  -8  13    1.37    0.11
  -1  -8 -13    1.43    0.12
  -1   8 -13    1.47    0.12
   1   8  13    1.18    0.13
  -1   8 -13    1.46    0.13
   2  -9 -13    0.02    0.06
  -2  -9  13   -0.01    0.06
   2   9 -13    0.04    0.05
   2   9 -13   -0.08    0.06
  -2   9  13    0.01    0.06
  -1  -9  13    0.61    0.09
   1   9 -13    0.58    0.09
  -1   9  13    0.44    0.09
   1   9 -13    0.47    0.09
   0  -9  13    0.00    0.09
   0  -9 -13    0.12    0.05
   0  -9  13    0.11    0.06
   0   9 -13    0.08    0.07
   0   9  13    0.00    0.07
   0   9 -13    0.06    0.05
   1  -9  13    0.38    0.08
   1   9  13    0.13    0.08
  -1   9 -13    0.23    0.07
  -1   9 -13    0.26    0.07
  -2 -10  13    2.57    0.16
   2 -10 -13    2.44    0.16
   2  10 -13    2.23    0.17
   2  10 -13    2.37    0.15
  -2  10  13    2.08    0.16
  -1 -10  13    1.29    0.12
   1  10 -13    1.56    0.12
   1  10 -13    0.95    0.11
  -1  10  13    1.03    0.12
   0 -10  13    0.85    0.09
   0  10 -13    0.73    0.10
   0  10 -13    0.87    0.10
   0  10  13    0.83    0.11
  -1 -11  13    1.33    0.12
  -1  11  13    1.12    0.13
   1  11 -13    0.98    0.12
   1  11 -13    1.44    0.12
   3   0 -14    0.05    0.05
  -3   0  14   -0.04    0.06
  -2   0  14    0.17    0.07
   2   0 -14    0.20    0.05
   2   0 -14    0.21    0.06
  -2   0  14    0.20    0.07
   1   0 -14    0.00    0.04
  -1   0  14   -0.08    0.06
   1   0 -14    0.02    0.05
   0   0 -14    2.86    0.14
   0   0  14    3.06    0.15
   0   0  14    3.04    0.18
   0   0 -14    3.08    0.16
   1   0  14    0.08    0.06
   1   0  14    0.01    0.08
  -1   0 -14    0.09    0.06
  -1   0 -14    0.00    0.05
  -3  -1  14    0.60    0.09
   3   1 -14    0.32    0.07
  -3   1  14    0.46    0.08
  -2  -1  14    0.47    0.09
   2  -1 -14    0.79    0.12
  -2  -1  14    0.71    0.09
  -2   1  14    0.74    0.09
   2   1 -14    0.64    0.08
   2   1 -14    0.69    0.08
  -2   1  14    0.72    0.10
   1  -1 -14    1.67    0.12
  -1  -1  14    1.66    0.12
  -1  -1  14    1.32    0.13
  -1   1  14    1.42    0.13
  -1   1  14    1.60    0.12
   1   1 -14    1.52    0.11
   1   1 -14    1.56    0.11
   0  -1 -14    0.38    0.07
   0  -1  14    0.35    0.09
   0  -1  14    0.49    0.08
   0   1  14    0.38    0.09
   0   1 -14    0.38    0.07
   0   1  14    0.47    0.08
   0   1 -14    0.42    0.07
  -1  -1 -14    1.68    0.13
   1  -1  14    1.89    0.16
   1  -1  14    1.85    0.13
   1   1  14    1.68    0.16
  -1   1 -14    1.69    0.12
  -1   1 -14    2.11    0.14
   1   1  14    1.69    0.13
  -3  -2  14    0.00    0.06
  -3   2  14    0.01    0.06
   3   2 -14   -0.03    0.05
  -3   2  14   -0.01    0.06
  -2  -2  14   -0.01    0.05
   2   2 -14    0.05    0.06
  -2   2  14    0.09    0.06
  -2   2  14   -0.04    0.06
   2   2 -14    0.14    0.05
  -1  -2  14    0.03    0.07
  -1  -2  14    0.17    0.06
   1  -2 -14    0.12    0.05
   1   2 -14    0.13    0.06
  -1   2  14    0.18    0.08
   1   2 -14    0.12    0.05
  -1   2  14    0.19    0.06
   0  -2  14    0.60    0.09
   0  -2 -14    0.59    0.08
   0  -2  14    0.67    0.10
   0   2 -14    0.61    0.08
   0   2 -14    0.71    0.09
   0   2  14    0.64    0.09
   0   2  14    0.49    0.10
   1  -2  14    0.92    0.12
   1  -2  14    0.84    0.10
  -1  -2 -14    0.92    0.10
   1   2  14    0.97    0.13
  -1   2 -14    1.03    0.11
  -1   2 -14    0.89    0.09
   1   2  14    1.14    0.11
  -3  -3  14    0.00    0.06
  -3   3  14   -0.01    0.06
  -3   3  14    0.00    0.06
   3   3 -14    0.01    0.05
  -2  -3  14    3.75    0.17
  -2   3  14    3.55    0.18
   2   3 -14    3.81    0.18
   2   3 -14    3.83    0.17
  -2   3  14    3.93    0.18
   1  -3 -14    0.55    0.07
  -1  -3  14    0.61    0.10
  -1  -3  14    0.51    0.08
  -1   3  14    0.38    0.09
   1   3 -14    0.51    0.08
  -1   3  14    0.59    0.08
   1   3 -14    0.44    0.07
   0  -3  14    0.37    0.07
   0  -3  14    0.41    0.09
   0  -3 -14    0.42    0.07
   0   3  14    0.34    0.07
   0   3 -14    0.47    0.08
   0   3 -14    0.38    0.07
   0   3  14    0.34    0.09
   1  -3  14    0.02    0.08
   1  -3  14    0.02    0.05
  -1  -3 -14    0.06    0.06
  -1   3 -14    0.00    0.04
   1   3  14    0.00    0.08
   1   3  14    0.06    0.05
  -1   3 -14    0.04    0.06
  -3  -4  14    0.35    0.08
  -3   4  14    0.44    0.09
  -3   4  14    0.62    0.09
   3   4 -14    0.49    0.08
   3   4 -14    0.43    0.09
   2   4 -14    0.75    0.09
  -2   4  14    0.96    0.10
  -2   4  14    0.72    0.10
   2   4 -14    0.77    0.10
  -1  -4  14    1.29    0.12
  -1  -4  14    1.27    0.13
   1  -4 -14    1.35    0.10
  -1  -4  14    1.03    0.11
   1   4 -14    1.37    0.11
   1   4 -14    1.15    0.11
  -1   4  14    1.22    0.11
  -1   4  14    1.31    0.13
   0  -4  14    2.15    0.16
   0  -4  14    2.13    0.14
   0  -4 -14    2.19    0.13
   0   4 -14    2.37    0.15
   0   4 -14    2.27    0.13
   0   4  14    2.13    0.13
   0   4  14    1.87    0.16
   1  -4  14    0.98    0.12
   1  -4  14    0.95    0.10
  -1  -4 -14    1.44    0.12
   1   4  14    1.17    0.13
  -1   4 -14    1.36    0.12
  -1   4 -14    1.11    0.11
   1   4  14    1.26    0.11
  -3  -5  14    0.09    0.06
   3   5 -14   -0.02    0.06
  -3   5  14    0.10    0.07
  -3   5  14    0.05    0.06
   3   5 -14    0.05    0.06
  -2   5  14    2.58    0.15
   2   5 -14    2.32    0.15
   2   5 -14    2.31    0.14
  -2   5  14    2.42    0.16
  -1  -5  14    0.17    0.08
  -1  -5  14    0.15    0.06
  -1  -5  14    0.09    0.06
   1  -5 -14    0.14    0.06
   1   5 -14    0.23    0.07
   1   5 -14    0.16    0.06
  -1   5  14    0.12    0.07
  -1   5  14    0.21    0.06
   0  -5  14    0.17    0.06
   0  -5  14    0.33    0.09
   0  -5 -14    0.18    0.06
   0   5  14    0.17    0.06
   0   5 -14    0.16    0.06
   0   5  14    0.12    0.08
   0   5 -14    0.14    0.07
   1  -5  14    0.32    0.09
   1  -5  14    0.19    0.06
  -1  -5 -14    0.21    0.06
  -1   5 -14    0.31    0.08
  -1   5 -14    0.20    0.06
   1   5  14    0.23    0.09
   1   5  14    0.17    0.06
  -3  -6  14    0.06    0.06
   3   6 -14    0.08    0.07
   3   6 -14    0.06    0.06
  -3   6  14   -0.02    0.06
  -3   6  14    0.00    0.06
  -2  -6  14    0.02    0.05
  -2  -6  14    0.03    0.07
   2   6 -14    0.13    0.06
  -2   6  14    0.09    0.06
  -2   6  14    0.07    0.07
   2   6 -14    0.10    0.07
  -1  -6  14    0.03    0.05
  -1  -6  14   -0.01    0.06
   1   6 -14    0.07    0.06
   1   6 -14    0.06    0.07
  -1   6  14   -0.02    0.06
  -1   6  14    0.16    0.07
   0  -6 -14    2.32    0.14
   0  -6  14    2.34    0.14
   0  -6  14    2.15    0.16
   0   6 -14    2.28    0.14
   0   6  14    2.21    0.14
   0   6  14    2.36    0.17
   0   6 -14    2.25    0.15
   1  -6  14    0.68    0.11
   1  -6  14    0.66    0.09
  -1  -6 -14    0.71    0.09
  -1   6 -14    0.84    0.11
   1   6  14    0.54    0.08
  -1   6 -14    0.67    0.09
   1   6  14    0.66    0.12
  -2  -7  14    0.00    0.05
  -2  -7  14    0.00    0.07
   2   7 -14   -0.08    0.06
  -2   7  14    0.04    0.10
  -2   7  14    0.00    0.06
   2   7 -14   -0.01    0.05
  -1  -7  14    0.12    0.06
  -1  -7  14    0.06    0.06
   1   7 -14    0.17    0.06
   1   7 -14    0.21    0.08
  -1   7  14    0.12    0.07
   0  -7  14    0.30    0.07
   0  -7  14    0.28    0.08
   0  -7 -14    0.36    0.07
   0   7 -14    0.25    0.08
   0   7  14    0.24    0.09
   0   7 -14    0.26    0.07
  -2  -8  14    0.26    0.08
  -2  -8  14    0.31    0.07
   2   8 -14    0.34    0.08
   2   8 -14    0.26    0.07
  -2   8  14    0.14    0.08
  -1  -8  14    2.32    0.14
  -1  -8  14    2.53    0.16
  -1   8  14    2.47    0.17
   1   8 -14    2.52    0.15
   1   8 -14    2.64    0.16
   0  -8 -14    0.28    0.07
   0  -8  14    0.47    0.09
   0  -8  14    0.35    0.07
   0   8 -14    0.30    0.08
   0   8  14    0.33    0.09
   0   8 -14    0.44    0.09
  -1  -9  14    0.08    0.06
   1   9 -14    0.07    0.07
  -1   9  14    0.09    0.08
   1   9 -14    0.04    0.06
  -3   0  15    0.04    0.06
   2   0 -15   -0.02    0.05
  -2   0  15   -0.13    0.06
   2   0 -15   -0.04    0.06
  -2   0  15    0.07    0.06
  -1   0  15    1.19    0.12
   1   0 -15    1.18    0.12
   1   0 -15    0.80    0.10
  -1   0  15    0.84    0.12
   0   0  15   -0.05    0.05
   0   0  15   -0.02    0.07
   0   0 -15    0.00    0.06
  -3  -1  15    0.53    0.09
  -3   1  15    0.56    0.10
   3   1 -15    0.48    0.08
  -2  -1  15    1.84    0.14
  -2  -1  15    1.38    0.14
   2   1 -15    1.73    0.13
   2   1 -15    1.59    0.12
  -2   1  15    1.70    0.15
  -2   1  15    1.78    0.14
   1  -1 -15    3.68    0.17
  -1  -1  15    3.27    0.19
  -1  -1  15    3.95    0.18
   1   1 -15    3.64    0.16
   1   1 -15    3.63    0.18
  -1   1  15    3.69    0.19
   0  -1  15    1.33    0.12
   0  -1  15    1.14    0.13
   0  -1 -15    1.72    0.13
   0   1  15    1.49    0.13
   0   1 -15    1.36    0.12
   0   1 -15    1.32    0.11
   0   1  15    1.48    0.15
  -3  -2  15    0.01    0.07
  -3   2  15   -0.08    0.06
  -2  -2  15    0.63    0.09
  -2   2  15    0.55    0.10
   2   2 -15    0.53    0.08
   2   2 -15    0.63    0.09
  -2   2  15    0.71    0.10
  -1  -2  15    0.79    0.10
  -1  -2  15    0.94    0.12
   1  -2 -15    1.19    0.11
   1   2 -15    0.88    0.10
   1   2 -15    0.81    0.10
  -1   2  15    0.95    0.12
   0  -2  15    0.86    0.12
   0  -2 -15    1.24    0.12
   0  -2  15    0.89    0.10
   0   2  15    0.93    0.13
   0   2 -15    0.78    0.10
   0   2  15    0.85    0.10
   0   2 -15    1.02    0.10
   2   3 -15    0.27    0.07
   2   3 -15    0.36    0.08
  -2   3  15    0.30    0.09
  -2   3  15    0.40    0.08
  -1  -3  15    0.10    0.07
   1  -3 -15    0.18    0.06
  -1  -3  15   -0.07    0.07
   1   3 -15    0.14    0.07
  -1   3  15    0.07    0.08
   1   3 -15    0.01    0.05
   0  -3  15    0.00    0.08
   0  -3  15    0.11    0.07
   0  -3 -15    0.04    0.06
   0   3  15   -0.15    0.07
   0   3 -15    0.01    0.05
   0   3 -15    0.07    0.07
   0   3  15    0.08    0.06
  -2   4  15    0.84    0.11
   2   4 -15    1.13    0.11
   2   4 -15    0.89    0.11
  -2   4  15    1.12    0.12
  -1  -4  15    0.15    0.07
   1  -4 -15    0.36    0.07
  -1  -4  15    0.36    0.08
  -1  -4  15    0.19    0.08
  -1   4  15    0.24    0.09
  -1   4  15    0.34    0.07
   1   4 -15    0.42    0.08
   1   4 -15    0.19    0.06
   0  -4  15    1.31    0.14
   0  -4  15    1.52    0.13
   0  -4 -15    1.70    0.13
   0   4 -15    1.54    0.12
   0   4 -15    1.76    0.15
   0   4  15    1.42    0.15
   0   4  15    1.88    0.13
  -2  -5  15    0.94    0.11
  -2   5  15    0.79    0.11
   2   5 -15    0.99    0.11
   2   5 -15    0.78    0.11
  -2   5  15    0.88    0.10
  -1  -5  15   -0.02    0.05
  -1  -5  15    0.03    0.06
  -1   5  15   -0.05    0.07
  -1   5  15    0.03    0.06
   1   5 -15    0.07    0.06
   1   5 -15    0.08    0.07
   0  -5 -15    0.09    0.06
   0  -5  15    0.07    0.08
   0  -5  15    0.04    0.06
   0   5 -15    0.16    0.06
   0   5  15    0.08    0.06
   0   5  15   -0.04    0.08
   0   5 -15    0.26    0.08
  -1  -6  15    4.00    0.19
  -1  -6  15    4.16    0.19
  -1   6  15    4.13    0.19
  -1   6  15    3.85    0.21
   1   6 -15    4.01    0.20
   1   6 -15    4.16    0.19
   0   0   0    0.00    0.00
;
_shelx_hkl_checksum              75114
loop_
_space_group_symop_operation_xyz
'x, y, z'
'-x+1/2, y+1/2, -z+1/2'
'-x, -y, -z'
'x-1/2, -y-1/2, z-1/2'
loop_
_atom_site_label
_atom_site_type_symbol
_atom_site_fract_x
_atom_site_fract_y
_atom_site_fract_z
_atom_site_U_iso_or_equiv
_atom_site_adp_type
_atom_site_occupancy
_atom_site_site_symmetry_order
_atom_site_calc_flag
_atom_site_refinement_flags_posn
_atom_site_refinement_flags_adp
C1 C 0.4644(5) 0.69674(14) 0.27310(18) 0.0270(4) Uani 1 1 d . .
C2 C 0.5688(6) 0.78858(16) 0.2830(2) 0.0364(5) Uani 1 1 d . .
H2 H 0.4745 0.8367 0.2327 0.044 Uiso 1 1 calc R U
C3 C 0.8131(6) 0.80908(17) 0.3676(2) 0.0416(6) Uani 1 1 d . .
H3 H 0.8879 0.8719 0.3748 0.050 Uiso 1 1 calc R U
C4 C 0.9513(6) 0.7396(2) 0.4421(2) 0.0409(6) Uani 1 1 d . .
H4 H 1.1173 0.7552 0.5006 0.049 Uiso 1 1 calc R U
C5 C 0.8470(5) 0.64809(17) 0.43091(19) 0.0328(5) Uani 1 1 d . .
H5 H 0.9423 0.6002 0.4814 0.039 Uiso 1 1 calc R U
C6 C 0.6013(4) 0.62540(14) 0.34538(17) 0.0253(4) Uani 1 1 d . .
C7 C 0.5013(5) 0.52652(15) 0.33365(19) 0.0300(4) Uani 1 1 d . .
O1 O 0.2129(4) 0.67948(11) 0.18912(15) 0.0350(4) Uani 1 1 d . .
O2 O -0.1967(4) 0.56536(15) 0.10471(18) 0.0488(5) Uani 1 1 d . .
O3 O 0.2519(4) 0.50945(11) 0.24756(16) 0.0372(4) Uani 1 1 d . .
O4 O 0.6079(5) 0.46094(12) 0.38976(17) 0.0468(5) Uani 1 1 d . .
P1 P 0.12283(12) 0.57711(4) 0.14241(5) 0.0317(2) Uani 1 1 d . .
H1 H 0.281(6) 0.549(2) 0.071(2) 0.038 Uiso 1 1 d . U
loop_
_atom_site_aniso_label
_atom_site_aniso_U_11
_atom_site_aniso_U_22
_atom_site_aniso_U_33
_atom_site_aniso_U_23
_atom_site_aniso_U_13
_atom_site_aniso_U_12
C1 0.0293(10) 0.0233(9) 0.0284(10) -0.0034(8) 0.0052(8) 0.0010(8)
C2 0.0503(14) 0.0225(10) 0.0402(12) -0.0028(9) 0.0185(11) -0.0011(9)
C3 0.0525(15) 0.0318(11) 0.0463(14) -0.0147(10) 0.0245(12) -0.0175(11)
C4 0.0386(13) 0.0485(14) 0.0363(12) -0.0171(11) 0.0091(10) -0.0169(11)
C5 0.0312(11) 0.0387(12) 0.0272(10) -0.0048(9) 0.0022(8) -0.0017(9)
C6 0.0270(10) 0.0230(9) 0.0259(9) -0.0031(7) 0.0050(7) -0.0013(7)
C7 0.0322(11) 0.0247(10) 0.0317(10) -0.0001(8) 0.0024(8) -0.0005(8)
O1 0.0354(9) 0.0270(8) 0.0379(9) -0.0004(6) -0.0052(7) 0.0063(6)
O2 0.0225(8) 0.0602(12) 0.0599(12) -0.0147(10) -0.0027(8) 0.0034(8)
O3 0.0349(8) 0.0248(7) 0.0471(10) -0.0014(7) -0.0049(7) -0.0066(6)
O4 0.0593(12) 0.0279(8) 0.0479(10) 0.0067(8) -0.0035(9) 0.0024(8)
P1 0.0216(3) 0.0343(3) 0.0364(3) -0.0082(2) -0.0017(2) 0.0030(2)
loop_
_atom_type_symbol
_atom_type_description
_atom_type_scat_dispersion_real
_atom_type_scat_dispersion_imag
_atom_type_scat_source
C C 0.0033 0.0016 'International Tables Vol C Tables 4.2.6.8 and 6.1.1.4'
H H 0.0000 0.0000 'International Tables Vol C Tables 4.2.6.8 and 6.1.1.4'
O O 0.0106 0.0060 'International Tables Vol C Tables 4.2.6.8 and 6.1.1.4'
P P 0.1023 0.0942 'International Tables Vol C Tables 4.2.6.8 and 6.1.1.4'
loop_
_geom_angle_atom_site_label_1
_geom_angle_atom_site_label_2
_geom_angle_atom_site_label_3
_geom_angle
C2 C1 C6 121.4(2)
C2 C1 O1 116.9(2)
C6 C1 O1 121.67(18)
C3 C2 C1 118.6(2)
C3 C2 H2 120.7
C1 C2 H2 120.7
C2 C3 C4 121.2(2)
C2 C3 H3 119.4
C4 C3 H3 119.4
C5 C4 C3 119.7(2)
C5 C4 H4 120.1
C3 C4 H4 120.1
C4 C5 C6 120.1(2)
C4 C5 H5 119.9
C6 C5 H5 119.9
C1 C6 C5 118.86(19)
C1 C6 C7 122.41(18)
C5 C6 C7 118.72(19)
O4 C7 O3 117.5(2)
O4 C7 C6 127.0(2)
O3 C7 C6 115.49(18)
C1 O1 P1 122.45(13)
C7 O3 P1 126.48(14)
O2 P1 O1 113.19(10)
O2 P1 O3 112.09(12)
O1 P1 O3 104.36(8)
O2 P1 H1 115.2(13)
O1 P1 H1 112.1(13)
O3 P1 H1 98.3(13)
loop_
_geom_bond_atom_site_label_1
_geom_bond_atom_site_label_2
_geom_bond_distance
C1 C2 1.381(3)
C1 C6 1.390(3)
C1 O1 1.390(3)
C2 C3 1.380(4)
C2 H2 0.9500
C3 C4 1.386(4)
C3 H3 0.9500
C4 C5 1.377(3)
C4 H4 0.9500
C5 C6 1.398(3)
C5 H5 0.9500
C6 C7 1.469(3)
C7 O4 1.188(3)
C7 O3 1.397(3)
O1 P1 1.5749(17)
O2 P1 1.4559(18)
O3 P1 1.5854(18)
P1 H1 1.27(3)
loop_
_geom_torsion_atom_site_label_1
_geom_torsion_atom_site_label_2
_geom_torsion_atom_site_label_3
_geom_torsion_atom_site_label_4
_geom_torsion
C6 C1 C2 C3 -0.6(3)
O1 C1 C2 C3 178.2(2)
C1 C2 C3 C4 -0.5(4)
C2 C3 C4 C5 1.0(4)
C3 C4 C5 C6 -0.5(4)
C2 C1 C6 C5 1.0(3)
O1 C1 C6 C5 -177.70(19)
C2 C1 C6 C7 -177.6(2)
O1 C1 C6 C7 3.6(3)
C4 C5 C6 C1 -0.5(3)
C4 C5 C6 C7 178.2(2)
C1 C6 C7 O4 178.4(2)
C5 C6 C7 O4 -0.2(4)
C1 C6 C7 O3 -2.3(3)
C5 C6 C7 O3 179.1(2)
C2 C1 O1 P1 161.74(17)
C6 C1 O1 P1 -19.5(3)
O4 C7 O3 P1 -163.09(19)
C6 C7 O3 P1 17.5(3)
C1 O1 P1 O2 150.67(18)
C1 O1 P1 O3 28.5(2)
C7 O3 P1 O2 -151.53(19)
C7 O3 P1 O1 -28.7(2)
