#------------------------------------------------------------------------------
#$Date: 2019-11-24 23:04:00 +0200 (Sun, 24 Nov 2019) $
#$Revision: 239679 $
#$URL: file:///home/coder/svn-repositories/cod/cif/4/51/69/4516993.cif $
#------------------------------------------------------------------------------
#
# This file is available in the Crystallography Open Database (COD),
# http://www.crystallography.net/
#
# All data on this site have been placed in the public domain by the
# contributors.
#
data_4516993
loop_
_publ_author_name
'Zou, Song'
'Liu, Yu'
'Xi, Chanjuan'
_publ_section_title
;
 Concise and Efficient Synthesis of Indole-Indolone Scaffolds through
 MeOTf-Induced Annulation of <i>N</i>-(2-Cyanoaryl)indoles.
;
_journal_issue                   20
_journal_name_full               'ACS omega'
_journal_page_first              18734
_journal_page_last               18740
_journal_paper_doi               10.1021/acsomega.9b02679
_journal_volume                  4
_journal_year                    2019
_chemical_formula_moiety         'C15 H8 Br N O'
_chemical_formula_sum            'C15 H8 Br N O'
_chemical_formula_weight         298.13
_space_group_crystal_system      triclinic
_space_group_IT_number           2
_space_group_name_Hall           '-P 1'
_space_group_name_H-M_alt        'P -1'
_atom_sites_solution_hydrogens   geom
_atom_sites_solution_primary     dual
_audit_creation_date             2019-05-24
_audit_creation_method
;
Olex2 1.2
(compiled 2018.05.29 svn.r3508 for OlexSys, GUI svn.r5506)
;
_cell_angle_alpha                78.431(4)
_cell_angle_beta                 87.969(3)
_cell_angle_gamma                62.900(5)
_cell_formula_units_Z            2
_cell_length_a                   7.3045(3)
_cell_length_b                   7.6279(4)
_cell_length_c                   11.8666(4)
_cell_measurement_reflns_used    4256
_cell_measurement_temperature    109.99(10)
_cell_measurement_theta_max      74.1760
_cell_measurement_theta_min      3.7870
_cell_volume                     575.45(5)
_computing_cell_refinement       'CrysAlisPro 1.171.40.14e (Rigaku OD, 2018)'
_computing_data_collection       'CrysAlisPro 1.171.40.14e (Rigaku OD, 2018)'
_computing_data_reduction        'CrysAlisPro 1.171.40.14e (Rigaku OD, 2018)'
_computing_molecular_graphics    'Olex2 (Dolomanov et al., 2009)'
_computing_publication_material  'Olex2 (Dolomanov et al., 2009)'
_computing_structure_refinement  'ShelXL (Sheldrick, 2015)'
_computing_structure_solution    'ShelXT (Sheldrick, 2015)'
_diffrn_ambient_environment      N~2~
_diffrn_ambient_temperature      109.99(10)
_diffrn_detector                 'CCD plate'
_diffrn_detector_type            HyPix
_diffrn_measured_fraction_theta_full 0.996
_diffrn_measured_fraction_theta_max 0.963
_diffrn_measurement_details
;
List of Runs (angles in degrees, time in seconds):

  # Type    Start    End  Width  t~exp~   \w     \q     \k     \f   Frames
--------------------------------------------------------------------------
  1  \w    -84.00   6.00   0.50    0.05    --  -47.20 105.00 -30.00  180
  2  \w      0.00  84.00   0.50    0.05    --   47.20-105.00-130.00  168
  3  \w   -111.00 -26.00   0.50    0.05    --  -99.00 105.00 -30.00  170
  4  \w   -158.00 -81.00   0.50    0.05    --  -99.00-105.00-130.00  154
  5  \w     77.00 108.00   0.50    0.05    --  103.25-105.00-130.00   62
  6  \w     42.00  75.00   0.50    0.05    --  103.25-105.00-130.00   66
  7  \w   -114.00 -76.00   0.50    0.05    --  -47.20-125.00  60.00   76
  8  \w   -118.00 -72.00   0.50    0.05    --  -47.20-125.00  30.00   92
  9  \w     18.00  45.00   0.50    0.05    --   47.20-125.00 120.00   54
 10  \w     50.00  95.00   0.50    0.05    --   47.20-125.00 120.00   90
 11  \w    -24.00  54.00   0.50    0.05    --   47.20 -38.00 -60.00  156
 12  \w     33.00 116.00   0.50    0.05    --   47.20  57.00 -90.00  166
 13  \w   -138.00 -92.00   0.50    0.05    --  -99.00 -45.00-120.00   92
 14  \w   -167.00-142.00   0.50    0.05    --  -99.00 -45.00-120.00   50
 15  \w   -101.00 -26.00   0.50    0.05    --  -99.00 125.00  90.00  150
 16  \w   -113.00 -40.00   0.50    0.05    --  -99.00  61.00  90.00  146
 17  \w    -66.00 -28.00   0.50    0.05    --  -99.00 125.00  60.00   76
 18  \w   -167.00 -82.00   0.50    0.05    --  -99.00 -61.00 -90.00  170
 19  \w   -146.00 -89.00   0.50    0.05    --  -99.00 -45.00 -60.00  114
 20  \w   -116.00 -84.00   0.50    0.05    --  -99.00 125.00  60.00   64
 21  \w     31.00 125.00   0.50    0.05    --  103.25 -77.00-150.00  188
 22  \w     34.00 116.00   0.50    0.05    --  103.25 -45.00  30.00  164
 23  \w    139.00 165.00   0.50    0.05    --  103.25  77.00 -60.00   52
 24  \w     71.00 126.00   0.50    0.05    --  103.25 -77.00 -60.00  110
 25  \w     31.00  57.00   0.50    0.05    --  103.25 -77.00 -60.00   52
 26  \w     83.00 131.00   0.50    0.05    --  103.25  77.00 -60.00   96
 27  \w    116.00 142.00   0.50    0.05    --  103.25  45.00 -60.00   52
 28  \w     74.00 119.00   0.50    0.05    --  103.25 -61.00  90.00   90
 29  \w     96.00 129.00   0.50    0.05    --  103.25 105.00 -30.00   66
;
_diffrn_measurement_device       'four-circle diffractometer'
_diffrn_measurement_device_type  'XtaLAB Synergy R, HyPix'
_diffrn_measurement_method       '\w scans'
_diffrn_orient_matrix_type
'CrysAlisPro convention (1999,Acta A55,543-557)'
_diffrn_orient_matrix_UB_11      0.2298847000
_diffrn_orient_matrix_UB_12      -0.0710569000
_diffrn_orient_matrix_UB_13      -0.0213483000
_diffrn_orient_matrix_UB_21      0.0437609000
_diffrn_orient_matrix_UB_22      -0.0012321000
_diffrn_orient_matrix_UB_23      0.1262789000
_diffrn_orient_matrix_UB_31      0.0399939000
_diffrn_orient_matrix_UB_32      -0.2207526000
_diffrn_orient_matrix_UB_33      0.0350822000
_diffrn_radiation_monochromator  mirror
_diffrn_radiation_probe          x-ray
_diffrn_radiation_type           CuK\a
_diffrn_radiation_wavelength     1.54184
_diffrn_reflns_av_R_equivalents  0.0267
_diffrn_reflns_av_unetI/netI     0.0266
_diffrn_reflns_Laue_measured_fraction_full 0.996
_diffrn_reflns_Laue_measured_fraction_max 0.963
_diffrn_reflns_limit_h_max       9
_diffrn_reflns_limit_h_min       -9
_diffrn_reflns_limit_k_max       8
_diffrn_reflns_limit_k_min       -9
_diffrn_reflns_limit_l_max       14
_diffrn_reflns_limit_l_min       -13
_diffrn_reflns_number            6550
_diffrn_reflns_point_group_measured_fraction_full 0.996
_diffrn_reflns_point_group_measured_fraction_max 0.963
_diffrn_reflns_theta_full        67.684
_diffrn_reflns_theta_max         74.292
_diffrn_reflns_theta_min         3.810
_diffrn_source                   'Rotating-anode X-ray tube'
_diffrn_source_type              'PhotonJet R (Cu) X-ray Source'
_exptl_absorpt_coefficient_mu    4.737
_exptl_absorpt_correction_T_max  1.00000
_exptl_absorpt_correction_T_min  0.68595
_exptl_absorpt_correction_type   multi-scan
_exptl_absorpt_process_details
;
CrysAlisPro 1.171.40.14e (Rigaku Oxford Diffraction, 2018)
Empirical absorption correction using spherical harmonics,
 implemented in SCALE3 ABSPACK scaling algorithm.
;
_exptl_crystal_colour            orange
_exptl_crystal_colour_primary    orange
_exptl_crystal_density_diffrn    1.721
_exptl_crystal_description       block
_exptl_crystal_F_000             296
_exptl_crystal_size_max          0.227
_exptl_crystal_size_mid          0.152
_exptl_crystal_size_min          0.122
_refine_diff_density_max         0.370
_refine_diff_density_min         -0.505
_refine_diff_density_rms         0.083
_refine_ls_extinction_method     none
_refine_ls_goodness_of_fit_ref   1.116
_refine_ls_hydrogen_treatment    constr
_refine_ls_matrix_type           full
_refine_ls_number_parameters     163
_refine_ls_number_reflns         2258
_refine_ls_number_restraints     0
_refine_ls_restrained_S_all      1.116
_refine_ls_R_factor_all          0.0296
_refine_ls_R_factor_gt           0.0241
_refine_ls_shift/su_max          0.001
_refine_ls_shift/su_mean         0.000
_refine_ls_structure_factor_coef Fsqd
_refine_ls_weighting_details
'w=1/[\s^2^(Fo^2^)+(0.0272P)^2^+0.6029P] where P=(Fo^2^+2Fc^2^)/3'
_refine_ls_weighting_scheme      calc
_refine_ls_wR_factor_gt          0.0603
_refine_ls_wR_factor_ref         0.0654
_reflns_Friedel_coverage         0.000
_reflns_number_gt                2132
_reflns_number_total             2258
_reflns_threshold_expression     'I > 2\s(I)'
_cod_data_source_file            ao9b02679_si_002.cif
_cod_data_source_block           tx801_compound_4i
_cod_database_code               4516993
_shelx_shelxl_version_number     2017/1
_chemical_oxdiff_usercomment     'C H N O Br'
_shelx_space_group_comment
;
The symmetry employed for this shelxl refinement is uniquely defined
by the following loop, which should always be used as a source of
symmetry information in preference to the above space-group names.
They are only intended as comments.
;
_reflns_odcompleteness_completeness 99.86
_reflns_odcompleteness_iscentric 1
_reflns_odcompleteness_theta     68.13
_olex2_refinement_description
;
1. Fixed Uiso
 At 1.2 times of:
  All C(H) groups
2.a Aromatic/amide H refined with riding coordinates:
 C9(H9), C11(H11), C2(H2), C13(H13), C8(H8), C5(H5), C3(H3), C4(H4)
;
_shelx_res_file
;
TITL tx801_a.res in P-1
    tx801.res
    created by SHELXL-2017/1 at 14:57:08 on 24-May-2019
REM Old TITL TX801 in P1 #1
REM SHELXT solution in P-1
REM R1 0.236, Rweak 0.035, Alpha 0.075, Orientation as input
REM Formula found by SHELXT: C15 N O Br
CELL 1.54184 7.3045 7.6279 11.8666 78.431 87.969 62.9
ZERR 2 0.0003 0.0004 0.0004 0.004 0.003 0.005
LATT 1
SFAC C H Br N O
UNIT 30 16 2 2 2

L.S. 4
PLAN  20
BOND $H
list 4
fmap 2
ACTA
OMIT 2 -2 10
OMIT -5 1 10
OMIT 2 1 13
OMIT -7 -3 7
OMIT -7 -7 3
OMIT -5 0 9
REM <olex2.extras>
REM <HklSrc "%.\\TX801.hkl">
REM </olex2.extras>

WGHT    0.027200    0.602900
FVAR       0.66620
BR1   3    1.043070    0.112284    0.861746    11.00000    0.02373    0.02971 =
         0.01761   -0.00197   -0.00014   -0.01192
O1    5    0.291073    1.060344    0.285554    11.00000    0.02069    0.02108 =
         0.03044   -0.00514   -0.00004   -0.00378
N1    4    0.694925    0.576900    0.384724    11.00000    0.01692    0.01656 =
         0.01803   -0.00514    0.00359   -0.00693
C1    1    0.527655    0.765739    0.211313    11.00000    0.01614    0.02025 =
         0.02337   -0.00397    0.00168   -0.00929
C14   1    0.543193    0.755389    0.409432    11.00000    0.01596    0.01652 =
         0.02372   -0.00662    0.00440   -0.00713
C6    1    0.688633    0.580579    0.265351    11.00000    0.01790    0.02282 =
         0.01639   -0.00359    0.00172   -0.01198
C12   1    0.708613    0.548065    0.576580    11.00000    0.01709    0.02060 =
         0.02097   -0.00717    0.00503   -0.01076
C9    1    1.029096    0.157256    0.618264    11.00000    0.01667    0.01817 =
         0.02431   -0.00393    0.00189   -0.00733
AFIX  43
H9    2    1.134765    0.025972    0.634977    11.00000   -1.20000
AFIX   0
C11   1    0.782427    0.451259    0.690342    11.00000    0.02120    0.02350 =
         0.02046   -0.00832    0.00586   -0.01285
AFIX  43
H11   2    0.727637    0.515219    0.751316    11.00000   -1.20000
AFIX   0
C2    1    0.484388    0.809811    0.094096    11.00000    0.02043    0.02431 =
         0.02294    0.00005   -0.00228   -0.01040
AFIX  43
H2    2    0.376742    0.932053    0.058312    11.00000   -1.20000
AFIX   0
C13   1    0.547769    0.743909    0.526089    11.00000    0.01762    0.01829 =
         0.02309   -0.00747    0.00586   -0.00856
AFIX  43
H13   2    0.463206    0.843515    0.564998    11.00000   -1.20000
AFIX   0
C8    1    0.961468    0.252170    0.505447    11.00000    0.01833    0.02034 =
         0.01992   -0.00755    0.00505   -0.00888
AFIX  43
H8    2    1.022155    0.188844    0.445042    11.00000   -1.20000
AFIX   0
C15   1    0.430401    0.887972    0.299959    11.00000    0.01563    0.02252 =
         0.02367   -0.00401    0.00120   -0.01049
C7    1    0.798488    0.446936    0.484939    11.00000    0.01542    0.01940 =
         0.01695   -0.00438    0.00334   -0.00955
C10   1    0.939602    0.257284    0.708709    11.00000    0.01890    0.02456 =
         0.01936   -0.00374    0.00293   -0.01327
C5    1    0.810884    0.437963    0.203558    11.00000    0.02305    0.01844 =
         0.02379   -0.00528    0.00178   -0.00779
AFIX  43
H5    2    0.918402    0.315813    0.239563    11.00000   -1.20000
AFIX   0
C3    1    0.604791    0.667970    0.030263    11.00000    0.03334    0.03611 =
         0.01907   -0.00666    0.00054   -0.01779
AFIX  43
H3    2    0.577882    0.694906   -0.049026    11.00000   -1.20000
AFIX   0
C4    1    0.766145    0.485035    0.085070    11.00000    0.03231    0.02614 =
         0.02266   -0.01001    0.00405   -0.01196
AFIX  43
H4    2    0.845930    0.392066    0.041114    11.00000   -1.20000
AFIX   0
HKLF 4




REM  tx801_a.res in P-1
REM R1 =  0.0241 for    2132 Fo > 4sig(Fo)  and  0.0296 for all    2258 data
REM    163 parameters refined using      0 restraints

END

WGHT      0.0273      0.5997

REM Highest difference peak  0.370,  deepest hole -0.505,  1-sigma level  0.083
Q1    1   0.6074  0.7116 -0.0399  11.00000  0.05    0.37
Q2    1   1.2083  0.0557  0.9385  11.00000  0.05    0.35
Q3    1   0.8446  0.3340  0.2224  11.00000  0.05    0.34
Q4    1   1.0427 -0.0618  0.9128  11.00000  0.05    0.34
Q5    1   0.7069  0.5653  0.3254  11.00000  0.05    0.34
Q6    1   0.5980  0.6582  0.2390  11.00000  0.05    0.34
Q7    1   0.9483  0.1864  0.6641  11.00000  0.05    0.33
Q8    1   0.4746  0.8306  0.2554  11.00000  0.05    0.32
Q9    1   0.8341  0.3389  0.7005  11.00000  0.05    0.30
Q10   1   0.8684  0.3435  0.4880  11.00000  0.05    0.29
Q11   1   1.1825 -0.0506  0.9150  11.00000  0.05    0.28
Q12   1   0.7628  0.7201  0.1982  11.00000  0.05    0.28
Q13   1   1.0854 -0.0516  0.8383  11.00000  0.05    0.28
Q14   1   0.7120  0.4981  0.2346  11.00000  0.05    0.28
Q15   1   0.7448  0.4923  0.5404  11.00000  0.05    0.27
Q16   1   0.6672  0.6627  0.3898  11.00000  0.05    0.27
Q17   1   1.2053  0.0302  0.6206  11.00000  0.05    0.27
Q18   1   0.5044  0.8451  0.3582  11.00000  0.05    0.27
Q19   1   0.9024  0.2489  0.8813  11.00000  0.05    0.27
Q20   1   0.5566  0.7348  0.0579  11.00000  0.05    0.27
;
_shelx_res_checksum              12780
_shelx_hkl_file
;
  -9  -5  -2   13.53    1.20
  -9  -5  -2   23.76    1.41
  -9  -5  -1    0.24    0.60
  -9  -5  -1    0.42    0.61
  -9  -5   0   42.53    1.98
  -9  -5   1   42.28    1.87
  -9  -4  -2   10.47    1.05
  -8  -7  -5   34.00    1.86
  -8  -7  -4   71.78    2.81
  -8  -7  -4   68.19    2.91
  -8  -7  -3    4.19    0.99
  -8  -7  -2    1.73    0.86
  -8  -7  -2    1.20    0.81
  -8  -7  -1  380.58    9.63
  -8  -7   0   50.51    2.36
  -8  -7   0   68.44    2.77
  -8  -7   1   12.02    1.34
  -8  -7   1   10.66    1.12
  -8  -7   2   33.04    1.90
  -8  -6  -6    4.13    0.82
  -8  -6  -5   16.92    1.37
  -8  -6  -5   15.39    1.48
  -8  -6  -4   34.89    2.09
  -8  -6  -4   28.90    2.11
  -8  -6  -3   69.81    3.33
  -8  -6  -3   77.86    3.34
  -8  -6  -2    1.43    0.95
  -8  -6  -1   60.01    3.44
  -8  -6  -1   55.43    2.94
  -8  -6  -1   61.80    3.01
  -8  -6   0  569.20   14.67
  -8  -6   0  601.06   13.97
  -8  -6   1   12.13    1.71
  -8  -6   1   11.99    1.42
  -8  -6   1   10.59    1.31
  -8  -6   2    2.49    0.72
  -8  -6   2    3.09    0.89
  -8  -6   2    4.49    1.16
  -8  -6   3   69.33    2.78
  -8  -6   3    0.04    0.30
  -8  -6   4   93.96    3.37
  -8  -5  -6   51.13    2.27
  -8  -5  -5   12.59    1.28
  -8  -5  -5    9.01    1.27
  -8  -5  -4   56.06    2.94
  -8  -5  -1    3.65    1.41
  -8  -5   0  116.89    5.11
  -8  -5   1  127.01    5.19
  -8  -5   2   33.94    2.52
  -8  -5   3   50.48    2.41
  -8  -5   3   56.17    2.59
  -8  -5   3   55.06    2.90
  -8  -5   4   74.02    3.12
  -8  -4  -5   37.83    2.19
  -8  -4  -1  108.34    4.49
  -8  -4   1  146.01    5.34
  -8  -4   2  128.20    4.71
  -8  -4   3   44.64    2.45
  -8  -4   3   55.29    2.86
  -8  -4   4  214.28    6.54
  -8  -4   5  119.02    4.18
  -8  -3  -3    0.20    0.89
  -8  -3  -2   94.02    4.03
  -8  -3  -1   94.50    4.15
  -8  -3   0  198.94    6.65
  -8  -3   1  125.98    4.92
  -8  -3   2   81.99    3.60
  -8  -3   2   87.95    3.84
  -8  -3   3  127.16    4.68
  -8  -3   3  135.94    4.76
  -8  -3   4   11.10    1.35
  -8  -3   5   71.49    3.03
  -8  -3   6   76.74    2.92
  -8  -2  -3   23.73    1.84
  -8  -2  -2    4.17    1.11
  -8  -2  -1  126.99    4.83
  -8  -2   0  129.45    4.97
  -8  -2   2  103.24    4.18
  -8  -2   3  189.95    5.95
  -8  -2   4   83.02    3.14
  -8  -2   4   83.38    3.18
  -8  -2   5    0.17    0.55
  -8  -2   6   69.02    2.50
  -8  -1  -3   91.99    3.16
  -8  -1  -2   77.42    3.16
  -8  -1  -1  160.08    5.27
  -8  -1   0   48.31    2.63
  -8  -1   2   18.36    1.66
  -8  -1   3   14.80    1.38
  -8  -1   4  307.36    7.62
  -8   0  -1   46.93    2.01
  -8   0   0  172.90    4.97
  -8   0   1    4.36    0.81
  -8   0   2   20.41    1.38
  -8   0   3    1.20    0.49
  -7  -8  -6    0.76    0.71
  -7  -8  -5  153.99    4.94
  -7  -8  -4   45.40    2.34
  -7  -8  -3    0.40    0.83
  -7  -8  -3   -0.24    0.86
  -7  -8  -2   72.63    3.16
  -7  -8  -2   80.62    3.33
  -7  -8  -1   90.42    3.39
  -7  -8  -1   98.03    3.60
  -7  -8   0    1.79    0.78
  -7  -8   0    1.58    0.78
  -7  -8   0   -0.07    0.25
  -7  -8   1   11.45    1.17
  -7  -8   2   51.55    2.15
  -7  -7  -7   23.28    1.71
  -7  -7  -6    2.97    1.09
  -7  -7  -6    3.47    0.87
  -7  -7  -5    7.45    1.46
  -7  -7  -5    6.96    1.26
  -7  -7  -4  195.14    6.72
  -7  -7  -4  199.62    6.56
  -7  -7  -3   38.19    2.65
  -7  -7  -3   36.45    2.74
  -7  -7  -2   58.65    3.33
  -7  -7  -2   62.30    3.51
  -7  -7  -2   64.42    3.44
  -7  -7  -1  177.29    6.46
  -7  -7  -1  183.80    6.26
  -7  -7   0  174.93    6.09
  -7  -7   0  170.25    5.84
  -7  -7   1    4.01    1.26
  -7  -7   1    3.70    1.14
  -7  -7   1    4.58    1.04
  -7  -7   2   37.64    2.24
  -7  -7   3    0.08    0.32
  -7  -6  -7  172.01    5.56
  -7  -6  -6   22.63    1.84
  -7  -6  -6   21.92    2.09
  -7  -6  -5   37.68    2.77
  -7  -6  -5   38.56    2.55
  -7  -6  -4  216.55    7.20
  -7  -6  -4  218.41    7.52
  -7  -6  -3  125.74    5.18
  -7  -6  -3  127.62    5.49
  -7  -6  -2   63.03    3.57
  -7  -6  -1    6.03    1.82
  -7  -6  -1    7.28    1.61
  -7  -6   0  109.30    5.39
  -7  -6   0  112.37    4.80
  -7  -6   0  106.58    4.73
  -7  -6   1  278.51    8.43
  -7  -6   1  272.09    9.23
  -7  -6   1  267.59    8.25
  -7  -6   2   15.87    1.76
  -7  -6   2   15.66    1.67
  -7  -6   2   15.59    2.12
  -7  -6   3   86.26    3.72
  -7  -6   3   93.06    4.46
  -7  -6   4  133.80    4.51
  -7  -6   4    0.04    0.31
  -7  -6   5   12.30    1.54
  -7  -6   6   54.87    2.62
  -7  -5  -7    7.42    1.23
  -7  -5  -6  477.36   12.70
  -7  -5  -6  486.89   12.12
  -7  -5  -5   47.00    3.09
  -7  -5  -3  185.80    7.66
  -7  -5  -2   92.59    5.20
  -7  -5  -1   26.05    3.02
  -7  -5   0   30.56    3.08
  -7  -5   1  173.96    7.29
  -7  -5   2   55.67    3.93
  -7  -5   2   59.42    3.52
  -7  -5   3   34.49    2.62
  -7  -5   3   40.00    3.18
  -7  -5   4   74.92    3.82
  -7  -5   4   79.99    3.06
  -7  -5   5  144.56    4.35
  -7  -5   5  138.07    4.68
  -7  -5   6   -0.13    0.23
  -7  -5   6   41.30    2.42
  -7  -5   7   23.85    1.68
  -7  -4  -6  117.37    4.61
  -7  -4  -3   31.08    2.60
  -7  -4  -2   89.79    4.45
  -7  -4  -2   92.26    5.19
  -7  -4  -1  240.68    8.97
  -7  -4  -1  240.40    8.11
  -7  -4   0    1.41    1.51
  -7  -4   0    2.03    1.12
  -7  -4   1  143.18    5.73
  -7  -4   1  145.31    5.84
  -7  -4   1  135.37    6.25
  -7  -4   2  257.95    8.58
  -7  -4   2  265.81    8.47
  -7  -4   2  268.91    9.25
  -7  -4   3   61.09    3.88
  -7  -4   3   62.17    3.61
  -7  -4   4   31.56    2.71
  -7  -4   4   32.99    2.57
  -7  -4   5   25.30    2.15
  -7  -4   5   23.56    2.15
  -7  -4   5   -0.17    0.25
  -7  -4   5   -0.11    0.38
  -7  -4   6   -0.21    0.35
  -7  -4   6  208.26    5.08
  -7  -4   7    5.03    1.04
  -7  -4   7    3.83    0.87
  -7  -4   8   72.76    2.76
  -7  -3  -5  229.68    7.14
  -7  -3  -4  276.40    8.52
  -7  -3  -3    8.41    1.57
  -7  -3  -2   30.56    2.58
  -7  -3  -1  162.81    6.40
  -7  -3  -1  182.16    6.97
  -7  -3   0   68.35    4.06
  -7  -3   0   71.04    3.74
  -7  -3   1   19.12    2.22
  -7  -3   1   23.19    2.31
  -7  -3   1   19.88    2.10
  -7  -3   2  119.20    5.16
  -7  -3   2  117.74    5.10
  -7  -3   2  114.90    5.14
  -7  -3   3   90.26    4.36
  -7  -3   3   86.23    4.14
  -7  -3   3   82.21    4.14
  -7  -3   4   22.82    2.07
  -7  -3   4   22.14    2.00
  -7  -3   4   26.35    2.33
  -7  -3   5   38.97    2.76
  -7  -3   6   77.57    3.42
  -7  -3   6   -0.06    0.33
  -7  -3   7   -0.21    0.32
  -7  -3   8    0.91    0.69
  -7  -3   8    0.04    0.27
  -7  -2  -5   25.18    1.94
  -7  -2  -4  236.12    7.49
  -7  -2  -3  175.15    6.41
  -7  -2  -2   40.32    2.94
  -7  -2  -1  149.69    6.03
  -7  -2   0  195.87    7.18
  -7  -2   1   62.84    3.45
  -7  -2   2    4.12    1.34
  -7  -2   2    4.63    1.24
  -7  -2   3  322.66    9.78
  -7  -2   3  323.72    9.87
  -7  -2   4   81.94    3.88
  -7  -2   4   79.34    4.09
  -7  -2   5    1.37    1.09
  -7  -2   5    0.07    0.76
  -7  -2   6   -0.12    0.29
  -7  -2   6   84.09    3.60
  -7  -2   7  141.66    4.29
  -7  -2   7    0.10    0.29
  -7  -2   8    0.12    0.24
  -7  -2   8   51.88    2.36
  -7  -1  -4  193.88    6.29
  -7  -1  -3  356.13   10.28
  -7  -1  -2   61.26    3.55
  -7  -1  -1    7.14    1.63
  -7  -1   0  130.91    5.64
  -7  -1   2   37.62    2.86
  -7  -1   3   13.18    1.81
  -7  -1   3   13.10    1.64
  -7  -1   4  375.79   10.45
  -7  -1   4  357.19   10.34
  -7  -1   5    1.70    0.90
  -7  -1   5    1.95    1.03
  -7  -1   6   15.13    1.70
  -7  -1   7   66.31    2.80
  -7  -1   7   -0.09    0.20
  -7  -1   8  182.78    5.45
  -7   0  -4   27.44    1.76
  -7   0  -3  120.36    4.58
  -7   0  -2   79.34    3.87
  -7   0  -1   44.40    2.99
  -7   0   0    7.61    1.61
  -7   0   1  398.46   11.46
  -7   0   2   68.69    3.73
  -7   0   3    5.12    1.34
  -7   0   4  120.21    4.69
  -7   0   5  275.61    7.66
  -7   0   5  280.83    7.65
  -7   0   6    1.12    0.67
  -7   0   7   51.18    2.28
  -7   1  -2   50.80    2.53
  -7   1  -1   41.85    2.49
  -7   1   0   90.09    3.88
  -7   1   1   59.05    3.09
  -7   1   3   89.93    3.71
  -7   1   4    1.95    0.78
  -7   1   5   26.02    1.50
  -7   2   0   88.70    2.92
  -7   2   1    2.59    0.65
  -7   2   3   40.28    1.78
  -6  -9  -5   51.25    2.26
  -6  -9  -4    6.52    0.95
  -6  -9  -4    6.75    0.95
  -6  -9  -3    1.08    0.61
  -6  -9  -3    1.74    0.74
  -6  -9  -1    0.24    0.60
  -6  -8  -8  100.95    3.40
  -6  -8  -7   26.58    1.92
  -6  -8  -6    8.43    1.17
  -6  -8  -6    6.92    1.35
  -6  -8  -5  134.38    5.11
  -6  -8  -4    9.05    1.46
  -6  -8  -3    0.46    1.02
  -6  -8  -3    0.16    1.03
  -6  -8  -2   34.63    2.49
  -6  -8  -2   31.68    2.17
  -6  -8  -2   33.82    2.41
  -6  -8  -1  133.95    5.06
  -6  -8  -1  129.39    4.67
  -6  -8  -1  130.42    4.73
  -6  -8   0    0.52    0.62
  -6  -8   0    0.54    0.95
  -6  -8   0    0.95    0.84
  -6  -8   1    0.22    0.71
  -6  -8   2   38.56    2.08
  -6  -8   2   34.78    1.95
  -6  -8   3   48.78    2.12
  -6  -7  -8   22.05    1.83
  -6  -7  -7  132.70    5.15
  -6  -7  -6    3.94    1.43
  -6  -7  -6    5.64    1.23
  -6  -7  -5   79.87    4.22
  -6  -7  -5   70.95    3.75
  -6  -7  -4  285.73    9.06
  -6  -7  -4  287.36    9.35
  -6  -7  -3   18.91    2.25
  -6  -7  -3   19.25    2.31
  -6  -7  -2    0.80    1.11
  -6  -7  -2   -0.10    1.16
  -6  -7  -2   -0.10    1.30
  -6  -7  -1  134.14    5.52
  -6  -7  -1  134.04    5.64
  -6  -7   0  123.78    5.13
  -6  -7   0  135.58    5.57
  -6  -7   0  134.45    5.53
  -6  -7   1   37.49    2.73
  -6  -7   1   30.82    2.33
  -6  -7   1   37.47    2.77
  -6  -7   2   65.54    3.30
  -6  -7   2   55.77    2.90
  -6  -7   3  129.26    4.20
  -6  -7   3  153.15    5.08
  -6  -7   4   44.77    2.48
  -6  -7   4   56.99    2.94
  -6  -7   5   -0.10    0.55
  -6  -7   5   -0.06    0.76
  -6  -7   6   38.58    1.94
  -6  -6  -8   58.36    3.08
  -6  -6  -7  162.60    6.10
  -6  -6  -6  231.29    7.94
  -6  -6  -6  219.61    7.28
  -6  -6  -5    1.12    1.22
  -6  -6  -5    0.55    1.30
  -6  -6  -4  108.43    4.95
  -6  -6  -4  109.10    5.39
  -6  -6  -4  108.01    5.20
  -6  -6  -3  119.57    5.75
  -6  -6  -3  120.85    5.53
  -6  -6  -3  120.87    5.32
  -6  -6  -3  111.64    5.25
  -6  -6  -2  233.59    8.02
  -6  -6  -2  239.71    8.25
  -6  -6  -2  225.49    8.01
  -6  -6  -2  224.57    8.44
  -6  -6  -1  193.01    7.14
  -6  -6  -1  183.73    7.42
  -6  -6   0   71.60    3.90
  -6  -6   0   65.99    4.20
  -6  -6   0   68.37    3.84
  -6  -6   1   42.77    3.02
  -6  -6   1   42.06    2.96
  -6  -6   2    4.67    1.37
  -6  -6   2    3.95    1.24
  -6  -6   2    5.32    1.05
  -6  -6   3   26.30    2.11
  -6  -6   3   29.69    2.39
  -6  -6   4  285.12    8.10
  -6  -6   4  283.75    8.40
  -6  -6   5   95.70    3.98
  -6  -6   6    2.15    0.81
  -6  -6   7  206.50    6.18
  -6  -6   7  193.24    5.73
  -6  -6   8   33.94    1.75
  -6  -5  -7   73.98    3.85
  -6  -5  -6  191.23    6.89
  -6  -5  -6  168.64    6.08
  -6  -5  -5   52.26    3.40
  -6  -5  -5   35.20    2.75
  -6  -5  -4    8.74    1.56
  -6  -5  -3  138.08    5.70
  -6  -5  -2  209.59    8.19
  -6  -5  -2  199.23    7.24
  -6  -5  -1  431.34   13.29
  -6  -5  -1  426.93   12.22
  -6  -5   0 1562.99   36.77
  -6  -5   0 1558.40   35.38
  -6  -5   1  136.61    5.87
  -6  -5   1  136.32    5.60
  -6  -5   1  139.14    6.51
  -6  -5   2   94.83    4.03
  -6  -5   2  108.16    5.57
  -6  -5   2   98.07    4.60
  -6  -5   3    3.21    1.18
  -6  -5   3    3.06    1.72
  -6  -5   3    3.61    1.01
  -6  -5   4   32.34    2.67
  -6  -5   4   30.50    2.54
  -6  -5   4   29.67    2.27
  -6  -5   4   35.13    3.23
  -6  -5   4   34.45    2.44
  -6  -5   5  329.03   10.66
  -6  -5   5  340.10   10.01
  -6  -5   5  322.91    9.67
  -6  -5   5  310.16    9.30
  -6  -5   6  127.32    5.53
  -6  -5   6  118.29    4.73
  -6  -5   6  115.74    4.64
  -6  -5   6  120.11    4.96
  -6  -5   7    5.68    1.40
  -6  -5   7    4.01    0.96
  -6  -5   7    3.67    1.05
  -6  -5   8  130.23    4.41
  -6  -5   8  133.83    4.82
  -6  -5   9    8.32    0.98
  -6  -4  -7    8.56    1.52
  -6  -4  -5  215.52    7.24
  -6  -4  -4   26.55    2.42
  -6  -4  -4   26.98    2.29
  -6  -4  -4   30.93    3.18
  -6  -4  -4   28.68    2.51
  -6  -4  -3   20.79    2.18
  -6  -4  -3   22.59    2.25
  -6  -4  -3   20.69    2.75
  -6  -4  -3   19.95    2.07
  -6  -4  -2  259.17    8.59
  -6  -4  -2  265.47    8.54
  -6  -4  -2  274.88    8.71
  -6  -4  -2  263.95    9.60
  -6  -4  -1  407.54   11.68
  -6  -4  -1  400.19   12.70
  -6  -4  -1  395.24   11.58
  -6  -4  -1  406.50   11.64
  -6  -4  -1  417.53   11.73
  -6  -4   0  188.92    6.94
  -6  -4   0  187.95    6.88
  -6  -4   0  189.33    7.73
  -6  -4   1  450.33   12.92
  -6  -4   1  462.90   12.78
  -6  -4   1  484.90   14.18
  -6  -4   1  452.57   12.91
  -6  -4   1  465.05   12.82
  -6  -4   2  191.93    7.81
  -6  -4   2  192.50    7.07
  -6  -4   2  181.18    6.68
  -6  -4   2  184.42    6.67
  -6  -4   3  183.25    6.83
  -6  -4   3  178.72    6.45
  -6  -4   3  176.57    6.05
  -6  -4   3  175.60    7.46
  -6  -4   4    4.77    1.73
  -6  -4   4    4.27    1.13
  -6  -4   4    5.64    1.62
  -6  -4   4    5.05    1.15
  -6  -4   5  218.33    8.14
  -6  -4   5  217.12    8.26
  -6  -4   5  224.69    7.31
  -6  -4   5  219.23    7.62
  -6  -4   6  110.62    4.64
  -6  -4   6  106.39    5.16
  -6  -4   6  110.15    4.78
  -6  -4   7   79.74    4.13
  -6  -4   7   80.71    3.78
  -6  -4   7   78.76    4.14
  -6  -4   7   81.41    3.78
  -6  -4   8   85.82    3.53
  -6  -4   8   87.66    4.00
  -6  -4   8   81.58    3.84
  -6  -4   8   82.47    3.60
  -6  -4   9   82.89    3.30
  -6  -4   9   86.87    3.34
  -6  -3  -5  150.01    5.63
  -6  -3  -4  329.85    9.97
  -6  -3  -4  359.88   10.34
  -6  -3  -4  358.18   10.36
  -6  -3  -3   87.93    4.29
  -6  -3  -3   78.57    4.69
  -6  -3  -3   82.31    4.15
  -6  -3  -3   76.03    3.99
  -6  -3  -2  242.43    8.79
  -6  -3  -2  236.32    7.92
  -6  -3  -2  237.95    8.02
  -6  -3  -2  233.10    7.91
  -6  -3  -1  409.42   11.67
  -6  -3  -1  397.42   11.20
  -6  -3  -1  410.41   12.41
  -6  -3  -1  392.43   11.53
  -6  -3  -1  400.40   11.54
  -6  -3   0  260.87    8.24
  -6  -3   0  244.09    7.60
  -6  -3   0  259.88    9.03
  -6  -3   1    0.28    1.04
  -6  -3   1   -0.12    1.24
  -6  -3   1   -0.19    1.01
  -6  -3   1   -0.42    0.81
  -6  -3   1    0.71    1.09
  -6  -3   1    0.29    0.96
  -6  -3   2   97.20    4.47
  -6  -3   2   93.80    4.44
  -6  -3   2   95.50    4.60
  -6  -3   2   93.47    4.62
  -6  -3   2  102.61    4.65
  -6  -3   2   99.10    5.02
  -6  -3   3  682.23   17.92
  -6  -3   3  634.81   16.23
  -6  -3   3  656.47   17.18
  -6  -3   3  663.43   17.30
  -6  -3   3  688.33   17.07
  -6  -3   3  673.56   16.91
  -6  -3   3  701.52   17.55
  -6  -3   4   28.10    2.23
  -6  -3   4   24.83    2.47
  -6  -3   4   26.41    2.30
  -6  -3   4   26.91    2.47
  -6  -3   4   29.09    2.59
  -6  -3   4   29.18    2.32
  -6  -3   4   27.86    2.73
  -6  -3   5   43.42    2.67
  -6  -3   5   38.73    2.96
  -6  -3   5   40.28    2.78
  -6  -3   5   45.74    3.33
  -6  -3   6  242.74    7.89
  -6  -3   6  238.34    8.17
  -6  -3   7   90.68    4.27
  -6  -3   7   89.65    4.56
  -6  -3   7   86.58    4.17
  -6  -3   7   88.34    4.15
  -6  -3   8  119.90    4.66
  -6  -3   8  128.57    4.92
  -6  -3   8  123.86    4.87
  -6  -3   8  129.31    5.25
  -6  -3   9   10.30    1.30
  -6  -3   9   10.37    1.25
  -6  -3  10   83.15    3.11
  -6  -2  -5   75.54    3.70
  -6  -2  -4  264.57    8.72
  -6  -2  -4  289.34    8.85
  -6  -2  -4  292.54    8.98
  -6  -2  -3  343.68   10.18
  -6  -2  -3  346.76   10.34
  -6  -2  -3  323.52   10.14
  -6  -2  -2   43.15    3.01
  -6  -2  -2   42.82    3.05
  -6  -2  -2   43.64    3.11
  -6  -2  -1   14.21    1.91
  -6  -2  -1   11.57    1.88
  -6  -2  -1   16.01    2.00
  -6  -2   0  741.04   17.78
  -6  -2   0  739.31   18.35
  -6  -2   0  704.05   18.08
  -6  -2   0  684.65   17.20
  -6  -2   1  184.75    6.80
  -6  -2   1  193.28    6.78
  -6  -2   1  178.92    6.75
  -6  -2   1  198.19    7.25
  -6  -2   1  190.99    6.57
  -6  -2   2    2.39    1.23
  -6  -2   2    3.31    1.24
  -6  -2   2    2.87    1.24
  -6  -2   2    2.44    0.97
  -6  -2   2    3.46    1.31
  -6  -2   3  204.82    7.19
  -6  -2   3  208.87    7.29
  -6  -2   3  200.98    7.31
  -6  -2   3  213.45    7.63
  -6  -2   4  733.62   18.93
  -6  -2   4  748.90   18.43
  -6  -2   4  749.16   18.88
  -6  -2   4  715.00   18.02
  -6  -2   4  742.13   18.32
  -6  -2   5   31.28    2.43
  -6  -2   5   28.71    2.47
  -6  -2   5   30.45    2.29
  -6  -2   5   25.18    2.47
  -6  -2   6   21.27    2.13
  -6  -2   7  119.11    5.06
  -6  -2   8  122.50    4.98
  -6  -2   9    9.39    1.36
  -6  -2   9    6.84    1.20
  -6  -2  10    1.59    0.71
  -6  -2  10    0.65    0.56
  -6  -1  -5  144.77    5.34
  -6  -1  -4  208.10    7.02
  -6  -1  -4  202.31    7.15
  -6  -1  -3  121.90    5.25
  -6  -1  -3  114.75    5.36
  -6  -1  -2  189.14    7.25
  -6  -1  -1    6.00    1.50
  -6  -1   1  833.77   20.76
  -6  -1   1  764.95   19.41
  -6  -1   2   20.68    2.17
  -6  -1   2   22.54    2.49
  -6  -1   3    2.96    1.14
  -6  -1   3    3.59    1.38
  -6  -1   4  191.86    7.32
  -6  -1   4  181.66    7.05
  -6  -1   4  187.63    6.77
  -6  -1   4  180.13    7.18
  -6  -1   5  218.95    7.34
  -6  -1   5  235.47    8.39
  -6  -1   6   23.23    2.50
  -6  -1   6   20.80    1.83
  -6  -1   7   10.92    1.77
  -6  -1   8  215.56    7.23
  -6  -1   9  115.80    4.53
  -6  -1  10   57.74    2.65
  -6  -1  10   61.77    2.68
  -6   0  -4   32.26    2.53
  -6   0   1  177.23    6.75
  -6   0   2  322.99   10.38
  -6   0   2  333.48   10.93
  -6   0   3  212.09    8.17
  -6   0   3  232.42    7.90
  -6   0   3  217.78    8.12
  -6   0   4   20.80    2.29
  -6   0   5  240.95    8.46
  -6   0   5  241.76    7.89
  -6   0   6  147.05    5.23
  -6   0   6  150.81    6.23
  -6   0   7   22.38    2.25
  -6   0   8    2.76    1.13
  -6   0   9  148.49    5.09
  -6   0  10   16.42    1.28
  -6   1  -4  102.76    4.12
  -6   1   4  358.64   10.19
  -6   1   5  101.30    4.47
  -6   1   6  204.42    6.35
  -6   1   6  218.87    7.10
  -6   1   7   -0.06    0.37
  -6   1   7   63.29    3.00
  -6   1   8   59.24    2.66
  -6   1   8    0.25    0.21
  -6   1   9    8.01    0.99
  -6   2  -3  102.85    3.80
  -6   2   6    0.25    0.37
  -6   2   7  120.63    3.91
  -6   3   5   60.35    2.24
  -5  -9  -7    3.90    0.80
  -5  -9  -5  222.96    6.29
  -5  -9  -5  212.77    6.02
  -5  -9  -4    0.26    0.79
  -5  -9  -4   -0.27    0.80
  -5  -9  -3   25.61    1.83
  -5  -9  -3   19.65    1.58
  -5  -9  -2    0.20    0.38
  -5  -9  -1  105.10    3.75
  -5  -9   0    5.70    0.91
  -5  -8  -9    1.83    0.71
  -5  -8  -8   51.48    2.69
  -5  -8  -7   35.47    2.43
  -5  -8  -7   29.15    1.85
  -5  -8  -6    9.94    1.69
  -5  -8  -6   10.78    1.43
  -5  -8  -5  132.71    5.13
  -5  -8  -4  235.50    7.76
  -5  -8  -3    0.71    1.13
  -5  -8  -2   65.77    3.48
  -5  -8  -1  103.10    4.28
  -5  -8   0   64.99    3.06
  -5  -8   1    0.22    0.94
  -5  -8   1   -0.05    0.33
  -5  -8   2  149.47    4.18
  -5  -8   2  147.33    3.84
  -5  -8   3  122.13    4.33
  -5  -8   4    9.42    1.09
  -5  -7  -9   42.50    2.50
  -5  -7  -8  155.60    5.76
  -5  -7  -7   51.49    3.32
  -5  -7  -6   85.00    4.06
  -5  -7  -6   91.17    4.67
  -5  -7  -5   29.55    2.84
  -5  -7  -5   28.13    2.56
  -5  -7  -4  165.29    6.26
  -5  -7  -4  173.91    6.60
  -5  -7  -3  276.39    8.79
  -5  -7  -3  270.65    9.14
  -5  -7  -3  278.38    9.12
  -5  -7  -2   41.72    3.01
  -5  -7  -2   40.30    3.10
  -5  -7  -2   40.47    3.16
  -5  -7  -1  142.35    5.62
  -5  -7  -1  138.23    5.61
  -5  -7   0  232.17    7.86
  -5  -7   0  251.68    8.45
  -5  -7   0  258.64    8.34
  -5  -7   0  250.58    8.10
  -5  -7   1   89.28    4.36
  -5  -7   1   88.90    4.10
  -5  -7   1  102.86    4.69
  -5  -7   1   95.46    4.55
  -5  -7   2    4.32    1.21
  -5  -7   2    5.89    1.40
  -5  -7   2    5.39    1.36
  -5  -7   3  249.42    6.18
  -5  -7   3  234.24    6.23
  -5  -7   4  127.39    4.23
  -5  -7   4  115.63    4.25
  -5  -7   5    9.84    1.38
  -5  -7   5    8.29    1.30
  -5  -7   6   15.36    1.37
  -5  -7   6   12.89    1.39
  -5  -7   7   39.06    1.95
  -5  -6  -9   34.10    2.37
  -5  -6  -8   37.95    2.85
  -5  -6  -7  283.23    9.25
  -5  -6  -6   37.60    3.13
  -5  -6  -6   32.71    2.65
  -5  -6  -5  197.18    7.21
  -5  -6  -5  199.75    7.55
  -5  -6  -5  195.41    7.07
  -5  -6  -4   70.22    4.10
  -5  -6  -4   63.05    3.73
  -5  -6  -4   66.12    3.86
  -5  -6  -4   64.86    3.99
  -5  -6  -3  280.91    9.08
  -5  -6  -3  280.33    9.19
  -5  -6  -3  289.61    9.51
  -5  -6  -2  168.94    6.48
  -5  -6  -2  165.37    6.49
  -5  -6  -2  160.42    6.56
  -5  -6  -2  172.08    6.61
  -5  -6  -1    3.75    1.39
  -5  -6  -1    3.48    1.40
  -5  -6   0  269.55    8.84
  -5  -6   0  252.61    8.26
  -5  -6   0  275.01    9.20
  -5  -6   0  282.70    8.86
  -5  -6   0  285.87    9.11
  -5  -6   1  173.10    6.31
  -5  -6   1  176.70    6.62
  -5  -6   1  176.08    6.74
  -5  -6   1  162.93    6.21
  -5  -6   1  169.08    6.86
  -5  -6   2  103.99    4.45
  -5  -6   2   97.31    4.84
  -5  -6   2  100.07    4.74
  -5  -6   2  104.15    4.70
  -5  -6   2  109.22    5.24
  -5  -6   3    0.90    1.10
  -5  -6   3    0.77    0.91
  -5  -6   4  330.63    9.73
  -5  -6   4  310.26    8.88
  -5  -6   4  296.60    8.63
  -5  -6   4  302.39    8.65
  -5  -6   5   56.77    3.16
  -5  -6   5   53.16    2.57
  -5  -6   6   12.23    1.59
  -5  -6   6    9.26    1.17
  -5  -6   7   26.67    1.72
  -5  -6   7   46.97    2.60
  -5  -6   8  221.78    6.46
  -5  -5  -8    2.69    1.22
  -5  -5  -7   82.98    4.32
  -5  -5  -6  184.09    6.48
  -5  -5  -6  196.77    7.17
  -5  -5  -5  120.67    5.34
  -5  -5  -5  104.83    5.44
  -5  -5  -5  118.05    4.95
  -5  -5  -4   40.43    3.30
  -5  -5  -4   40.69    2.84
  -5  -5  -3  232.33    7.66
  -5  -5  -3  233.10    8.34
  -5  -5  -2  649.25   16.62
  -5  -5  -2  668.93   17.53
  -5  -5  -1  254.57    8.15
  -5  -5  -1  252.52    8.77
  -5  -5   0   16.15    1.91
  -5  -5   0   16.62    2.25
  -5  -5   1  254.62    8.15
  -5  -5   1  250.53    7.75
  -5  -5   2  441.79   12.11
  -5  -5   2  438.60   11.93
  -5  -5   2  440.93   12.47
  -5  -5   2  425.61   11.96
  -5  -5   3  114.44    4.93
  -5  -5   3  113.97    4.77
  -5  -5   3  109.63    4.77
  -5  -5   3  105.24    4.87
  -5  -5   3  103.79    4.69
  -5  -5   4   95.02    4.24
  -5  -5   4   98.74    4.60
  -5  -5   4   91.64    4.54
  -5  -5   4  100.25    4.64
  -5  -5   5  346.75   10.43
  -5  -5   5  338.28   10.15
  -5  -5   5  356.77   10.64
  -5  -5   6    0.88    0.81
  -5  -5   6    0.80    0.95
  -5  -5   6   -0.19    0.92
  -5  -5   7   10.62    1.57
  -5  -5   7    8.89    1.48
  -5  -5   8   60.61    3.15
  -5  -5   9  157.58    5.06
  -5  -5  10    2.93    0.70
  -5  -4  -7  162.55    6.07
  -5  -4  -6  256.29    8.36
  -5  -4  -5  744.14   18.07
  -5  -4  -4  327.25    9.50
  -5  -4  -4  337.01    9.70
  -5  -4  -4  322.34    9.18
  -5  -4  -3   16.27    1.73
  -5  -4  -3   18.18    2.41
  -5  -4  -3   16.35    1.86
  -5  -4  -3   19.80    1.94
  -5  -4  -2   75.57    3.74
  -5  -4  -2   76.30    3.74
  -5  -4  -2   77.40    3.67
  -5  -4  -2   75.83    4.25
  -5  -4  -1  191.04    6.60
  -5  -4  -1  191.46    7.22
  -5  -4  -1  193.64    6.56
  -5  -4  -1  180.41    6.41
  -5  -4  -1  192.78    6.53
  -5  -4   0  191.75    6.65
  -5  -4   0  184.86    7.18
  -5  -4   1   24.97    1.87
  -5  -4   1   26.77    2.18
  -5  -4   1   23.61    2.25
  -5  -4   1   29.44    2.26
  -5  -4   1   23.06    2.17
  -5  -4   1   29.01    2.37
  -5  -4   1   25.31    2.63
  -5  -4   2  233.72    7.62
  -5  -4   2  225.96    7.13
  -5  -4   2  230.08    7.43
  -5  -4   2  235.33    8.03
  -5  -4   2  229.15    7.36
  -5  -4   3  277.09    8.39
  -5  -4   3  276.22    8.50
  -5  -4   3  287.49    9.35
  -5  -4   4    1.84    0.97
  -5  -4   4    1.64    1.18
  -5  -4   4    1.60    0.99
  -5  -4   4    1.56    0.98
  -5  -4   5  188.41    6.74
  -5  -4   5  174.65    6.58
  -5  -4   5  179.34    7.21
  -5  -4   6  409.30   11.77
  -5  -4   6  402.00   12.31
  -5  -4   6  401.51   11.46
  -5  -4   7   79.03    4.12
  -5  -4   7   76.63    3.78
  -5  -4   7   79.07    4.40
  -5  -4   8   15.41    1.61
  -5  -4   8   20.60    2.20
  -5  -4   9  132.07    4.53
  -5  -4   9   -0.04    0.25
  -5  -4  10  145.88    4.82
  -5  -3  -5  447.66   11.60
  -5  -3  -5  445.01   11.61
  -5  -3  -4  634.27   15.57
  -5  -3  -4  620.38   15.48
  -5  -3  -4  602.46   15.20
  -5  -3  -4  615.49   16.85
  -5  -3  -3   93.20    4.14
  -5  -3  -3   86.70    4.65
  -5  -3  -3   99.75    4.32
  -5  -3  -3   98.63    4.16
  -5  -3  -2   -0.11    1.15
  -5  -3  -2    0.24    0.82
  -5  -3  -2    0.24    0.92
  -5  -3  -2    0.48    0.80
  -5  -3  -2   -0.14    0.68
  -5  -3  -1  208.75    6.67
  -5  -3  -1  207.09    6.15
  -5  -3  -1  210.66    6.88
  -5  -3  -1  200.70    7.38
  -5  -3  -1  212.28    6.92
  -5  -3  -1  200.52    6.72
  -5  -3   0  386.68   10.56
  -5  -3   0  373.82   11.36
  -5  -3   0  384.39   10.17
  -5  -3   1   67.62    3.42
  -5  -3   1   69.48    3.51
  -5  -3   1   64.54    3.34
  -5  -3   1   68.03    3.93
  -5  -3   1   67.73    3.55
  -5  -3   1   67.60    3.32
  -5  -3   2  260.13    8.07
  -5  -3   2  260.95    8.19
  -5  -3   2  263.16    7.98
  -5  -3   2  250.78    7.83
  -5  -3   2  272.18    8.84
  -5  -3   2  257.42    7.61
  -5  -3   3  656.99   16.42
  -5  -3   3  650.95   16.38
  -5  -3   3  601.24   15.74
  -5  -3   3  633.40   15.81
  -5  -3   3  647.71   17.19
  -5  -3   3  666.95   16.00
  -5  -3   4   76.38    3.54
  -5  -3   4   70.06    3.67
  -5  -3   4   75.31    3.82
  -5  -3   4   76.41    4.00
  -5  -3   4   73.97    4.27
  -5  -3   4   68.53    3.40
  -5  -3   5   42.12    3.32
  -5  -3   5   43.44    2.58
  -5  -3   5   45.07    2.97
  -5  -3   6  101.21    4.75
  -5  -3   6   97.30    4.80
  -5  -3   7  376.38   11.13
  -5  -3   7  360.10   11.12
  -5  -3   8  170.59    6.14
  -5  -3   8  167.55    6.75
  -5  -3   8  166.99    6.45
  -5  -3   9  232.66    7.20
  -5  -3   9  250.69    8.18
  -5  -3  10   13.60    1.49
  -5  -3  10   11.38    1.47
  -5  -3  11  105.89    3.64
  -5  -3  11  105.19    3.60
  -5  -2  -5   15.53    1.64
  -5  -2  -5   14.83    1.73
  -5  -2  -5   15.81    1.71
  -5  -2  -4  500.58   13.05
  -5  -2  -4  487.44   13.01
  -5  -2  -4  510.04   13.17
  -5  -2  -3  177.62    6.13
  -5  -2  -3  169.57    6.69
  -5  -2  -3  176.36    6.16
  -5  -2  -2  101.73    4.74
  -5  -2  -2  102.01    4.38
  -5  -2  -2   95.59    4.25
  -5  -2  -1    4.28    1.28
  -5  -2  -1    1.74    1.02
  -5  -2  -1    1.57    0.64
  -5  -2  -1    1.73    0.77
  -5  -2   0  502.25   12.74
  -5  -2   0  504.57   12.57
  -5  -2   0  480.19   13.25
  -5  -2   1  336.61   10.16
  -5  -2   1  358.18    9.75
  -5  -2   1  357.19   10.22
  -5  -2   2   19.48    1.98
  -5  -2   2   20.74    2.12
  -5  -2   2   22.05    1.91
  -5  -2   2   22.46    2.08
  -5  -2   2   21.34    1.93
  -5  -2   3   82.12    3.96
  -5  -2   3   79.18    3.94
  -5  -2   3   82.61    3.80
  -5  -2   3   72.08    3.57
  -5  -2   3   73.25    3.96
  -5  -2   3   82.88    4.11
  -5  -2   4  322.38   10.12
  -5  -2   4  337.96    9.86
  -5  -2   4  316.58    9.28
  -5  -2   4  344.10   10.69
  -5  -2   4  327.98    9.41
  -5  -2   4  338.67   10.11
  -5  -2   5   39.88    2.97
  -5  -2   5   35.51    2.38
  -5  -2   5   41.61    3.17
  -5  -2   5   38.72    2.49
  -5  -2   5   39.94    2.75
  -5  -2   6   51.26    3.39
  -5  -2   6   46.11    3.36
  -5  -2   7  357.07   11.20
  -5  -2   7  370.63   11.31
  -5  -2   7  374.44   11.49
  -5  -2   8  355.19   10.99
  -5  -2   8  365.18   11.15
  -5  -2   9   18.92    2.02
  -5  -2  10  414.81   11.37
  -5  -2  10  416.52   11.26
  -5  -2  10  412.82   10.80
  -5  -2  11   39.55    2.10
  -5  -2  11   39.35    2.00
  -5  -1  -5  221.59    7.27
  -5  -1  -1   22.76    1.75
  -5  -1   0  209.90    6.69
  -5  -1   1  478.48   12.71
  -5  -1   1  491.46   12.89
  -5  -1   2  174.28    6.35
  -5  -1   2  186.36    6.58
  -5  -1   2  182.44    6.67
  -5  -1   3   23.62    2.29
  -5  -1   3   22.32    2.12
  -5  -1   3   23.04    2.23
  -5  -1   4  167.11    6.55
  -5  -1   4  163.38    6.27
  -5  -1   4  167.85    6.53
  -5  -1   4  174.10    6.77
  -5  -1   5  308.67    9.34
  -5  -1   5  295.78    8.85
  -5  -1   5  308.42    9.97
  -5  -1   5  305.48    9.92
  -5  -1   6   35.42    3.05
  -5  -1   6   36.07    2.90
  -5  -1   6   35.35    2.95
  -5  -1   6   36.12    2.89
  -5  -1   7    7.18    1.59
  -5  -1   7    9.95    1.71
  -5  -1   7   10.90    1.94
  -5  -1   8  285.45    9.21
  -5  -1   8  287.74    9.69
  -5  -1   9  393.07   11.51
  -5  -1   9  377.93   10.95
  -5  -1  10   62.77    3.13
  -5  -1  11   58.80    2.90
  -5   0   2  295.48    9.21
  -5   0   3  473.10   13.34
  -5   0   4  124.53    5.61
  -5   0   4  111.82    5.19
  -5   0   4  120.72    5.66
  -5   0   5  240.42    8.63
  -5   0   5  223.03    7.83
  -5   0   5  246.69    8.73
  -5   0   6  304.66   10.27
  -5   0   6  302.58   10.25
  -5   0   6  306.72   10.36
  -5   0   7   49.18    3.59
  -5   0   7   53.68    3.68
  -5   0   7   53.44    3.78
  -5   0   8   46.60    2.92
  -5   0   8   52.32    3.59
  -5   0   8   57.99    3.83
  -5   0   9   10.76    1.29
  -5   0  10  139.96    5.44
  -5   0  11    1.71    0.81
  -5   1   3  315.71    9.94
  -5   1   4  134.83    5.96
  -5   1   5  348.75   11.20
  -5   1   6   17.26    2.34
  -5   1   6   14.50    2.10
  -5   1   7  301.73   10.22
  -5   1   7  317.25    9.98
  -5   1   8   74.17    4.23
  -5   1   8   71.23    3.70
  -5   1   9   47.85    2.71
  -5   1   9   47.59    3.12
  -5   1  10   -0.25    0.33
  -5   1  11   71.17    2.92
  -5   2   4  319.66    9.77
  -5   2   5   83.29    4.29
  -5   2   6  143.01    5.88
  -5   2   7   10.22    1.68
  -5   2   8  207.03    7.05
  -5   2   9    2.15    0.93
  -5   2   9    1.20    0.76
  -5   2  10   30.74    1.92
  -5   2  10   28.22    1.63
  -5   3   6   25.61    1.87
  -5   3   7   40.94    2.31
  -5   3   8  185.25    5.53
  -5   3   8  188.75    5.75
  -5   3   9    9.80    0.99
  -5   3   9    8.17    0.92
  -4  -9  -7    4.53    0.94
  -4  -9  -6   52.83    2.28
  -4  -9  -5  109.76    4.03
  -4  -9  -5  106.00    3.82
  -4  -9  -4    2.20    0.90
  -4  -9  -4    3.24    0.99
  -4  -9  -3   44.08    2.41
  -4  -9  -3   33.59    2.08
  -4  -9  -2    0.04    0.34
  -4  -9  -1   26.33    1.85
  -4  -9   0   78.60    3.04
  -4  -8  -9   57.15    2.73
  -4  -8  -8   39.07    2.56
  -4  -8  -7  109.57    4.13
  -4  -8  -7  126.50    4.97
  -4  -8  -6    7.48    1.34
  -4  -8  -6    7.23    1.66
  -4  -8  -5   74.43    3.73
  -4  -8  -4  104.69    4.65
  -4  -8  -4  109.59    4.82
  -4  -8  -4  101.10    4.71
  -4  -8  -3   59.36    3.58
  -4  -8  -3   61.66    3.52
  -4  -8  -3   60.22    3.53
  -4  -8  -2   43.56    2.90
  -4  -8  -1   77.68    3.77
  -4  -8  -1   85.72    4.27
  -4  -8   0   97.72    4.04
  -4  -8   0   95.72    3.69
  -4  -8   1   10.64    1.46
  -4  -8   1   11.34    1.55
  -4  -8   2   10.38    1.51
  -4  -8   2   10.93    1.39
  -4  -8   2   11.54    1.43
  -4  -8   3  207.59    6.17
  -4  -8   3  220.09    6.87
  -4  -8   4    8.57    1.21
  -4  -8   4    9.86    1.08
  -4  -7 -10  319.81    8.38
  -4  -7  -9    2.23    1.09
  -4  -7  -8  129.00    5.38
  -4  -7  -7  125.33    4.95
  -4  -7  -7  137.95    5.77
  -4  -7  -6   99.48    4.99
  -4  -7  -5    0.11    1.36
  -4  -7  -5    0.68    1.16
  -4  -7  -5    0.12    1.26
  -4  -7  -4   70.26    3.99
  -4  -7  -4   75.20    4.40
  -4  -7  -4   66.46    4.04
  -4  -7  -3   98.87    4.89
  -4  -7  -3   91.69    4.67
  -4  -7  -3   97.96    5.09
  -4  -7  -3   86.52    4.67
  -4  -7  -2  124.85    5.03
  -4  -7  -2  137.94    5.86
  -4  -7  -2  136.95    6.16
  -4  -7  -2  130.89    5.70
  -4  -7  -2  134.43    5.89
  -4  -7  -2  127.89    5.25
  -4  -7  -1  180.69    6.66
  -4  -7  -1  200.00    7.25
  -4  -7  -1  200.14    6.71
  -4  -7  -1  192.98    7.40
  -4  -7  -1  200.04    7.67
  -4  -7  -1  206.96    7.25
  -4  -7   0   22.98    2.54
  -4  -7   0   17.56    2.15
  -4  -7   0   21.88    2.27
  -4  -7   0   18.67    2.31
  -4  -7   0   21.57    2.39
  -4  -7   0   20.20    2.16
  -4  -7   0   21.04    2.03
  -4  -7   1  121.62    5.64
  -4  -7   1  123.23    4.92
  -4  -7   1  136.14    5.56
  -4  -7   1  136.16    5.28
  -4  -7   1  126.37    5.62
  -4  -7   1  132.80    5.34
  -4  -7   2   13.81    1.85
  -4  -7   2   13.38    1.72
  -4  -7   2   12.20    1.93
  -4  -7   3   10.14    1.73
  -4  -7   3   11.18    1.57
  -4  -7   3   12.33    1.71
  -4  -7   3   12.17    1.61
  -4  -7   4  395.29   10.42
  -4  -7   4  377.69   10.43
  -4  -7   5    3.41    0.97
  -4  -7   5    3.76    1.06
  -4  -7   6   27.71    1.88
  -4  -7   6   27.98    1.79
  -4  -7   7  180.52    5.44
  -4  -6  -9  230.83    7.53
  -4  -6  -8   34.20    2.89
  -4  -6  -7   44.73    2.86
  -4  -6  -7   54.11    3.64
  -4  -6  -6  209.39    7.40
  -4  -6  -6  211.38    7.31
  -4  -6  -6  228.82    8.11
  -4  -6  -5  137.50    5.65
  -4  -6  -5  134.42    6.05
  -4  -6  -5  146.07    5.91
  -4  -6  -5  145.23    6.13
  -4  -6  -4  248.40    8.67
  -4  -6  -4  243.07    8.20
  -4  -6  -4  229.99    7.97
  -4  -6  -4  240.99    7.99
  -4  -6  -4  240.32    8.41
  -4  -6  -3  201.40    7.16
  -4  -6  -3  199.90    7.24
  -4  -6  -3  187.45    7.42
  -4  -6  -3  200.08    7.02
  -4  -6  -2  180.60    6.73
  -4  -6  -2  194.37    6.95
  -4  -6  -2  175.98    7.06
  -4  -6  -2  183.12    6.66
  -4  -6  -2  165.40    6.28
  -4  -6  -2  181.09    6.30
  -4  -6  -2  192.35    6.97
  -4  -6  -1    8.09    1.44
  -4  -6  -1    9.05    1.57
  -4  -6  -1   10.77    1.70
  -4  -6  -1    9.25    1.66
  -4  -6   0  186.43    6.85
  -4  -6   0  178.26    7.02
  -4  -6   0  194.45    6.76
  -4  -6   0  172.76    6.31
  -4  -6   0  183.25    6.81
  -4  -6   0  186.07    6.98
  -4  -6   0  186.11    6.79
  -4  -6   1  184.83    6.92
  -4  -6   1  188.61    7.09
  -4  -6   1  183.66    6.58
  -4  -6   1  178.86    6.45
  -4  -6   1  195.96    7.09
  -4  -6   1  184.62    6.85
  -4  -6   1  190.45    7.07
  -4  -6   2   67.70    4.00
  -4  -6   2   70.39    3.79
  -4  -6   2   74.10    4.03
  -4  -6   2   74.06    3.95
  -4  -6   3    8.64    1.65
  -4  -6   3    7.89    1.56
  -4  -6   3    9.05    1.60
  -4  -6   4  168.11    6.66
  -4  -6   5  222.27    6.80
  -4  -6   6   82.12    3.47
  -4  -6   7   17.37    1.46
  -4  -6   7   22.81    2.07
  -4  -6   8   -0.08    0.23
  -4  -6   8  140.42    4.06
  -4  -6   9  202.57    5.48
  -4  -6   9  182.17    5.19
  -4  -5  -8   31.08    2.68
  -4  -5  -7    6.89    1.65
  -4  -5  -6  384.98   10.95
  -4  -5  -6  392.59   10.94
  -4  -5  -6  421.42   11.82
  -4  -5  -5  428.37   11.83
  -4  -5  -5  442.79   12.58
  -4  -5  -5  451.78   12.03
  -4  -5  -5  447.90   12.51
  -4  -5  -4   90.21    4.45
  -4  -5  -4   83.84    4.29
  -4  -5  -4   86.56    4.01
  -4  -5  -4   92.78    4.12
  -4  -5  -4   94.76    4.45
  -4  -5  -3  143.25    5.72
  -4  -5  -3  140.90    5.30
  -4  -5  -3  140.25    5.33
  -4  -5  -3  147.25    5.63
  -4  -5  -3  141.63    5.74
  -4  -5  -2  268.44    8.28
  -4  -5  -2  275.98    8.69
  -4  -5  -2  280.35    8.84
  -4  -5  -1  301.01    9.14
  -4  -5  -1  283.04    8.29
  -4  -5   0    3.71    1.24
  -4  -5   0    4.73    1.35
  -4  -5   0    4.05    0.93
  -4  -5   0    3.10    0.99
  -4  -5   0    2.27    1.16
  -4  -5   1  135.17    5.17
  -4  -5   1  133.49    5.43
  -4  -5   1  129.14    5.04
  -4  -5   1  130.95    5.19
  -4  -5   1  132.31    5.02
  -4  -5   2  579.22   14.92
  -4  -5   2  559.36   14.78
  -4  -5   2  577.72   14.85
  -4  -5   2  574.77   14.75
  -4  -5   2  588.20   14.46
  -4  -5   3  105.23    4.59
  -4  -5   3  101.54    4.48
  -4  -5   3  108.22    4.74
  -4  -5   3  104.98    4.57
  -4  -5   3  108.50    4.55
  -4  -5   4   56.21    3.26
  -4  -5   4   52.92    3.14
  -4  -5   4   54.99    3.25
  -4  -5   5  235.35    8.10
  -4  -5   5  220.18    7.32
  -4  -5   5  245.86    8.02
  -4  -5   6  279.04    8.98
  -4  -5   7   19.56    2.12
  -4  -5   7   22.27    2.15
  -4  -5   8   38.55    2.69
  -4  -5   8   41.08    2.72
  -4  -5   9  127.14    4.66
  -4  -5   9  127.17    4.73
  -4  -5  10   82.13    3.06
  -4  -5  10   86.67    3.21
  -4  -4  -7  155.46    5.87
  -4  -4  -6    4.24    1.05
  -4  -4  -6    4.15    1.29
  -4  -4  -5  423.93   10.92
  -4  -4  -5  409.78   12.14
  -4  -4  -4  279.28    8.93
  -4  -4  -4  280.01    8.00
  -4  -4  -3    9.54    1.36
  -4  -4  -3   10.24    1.61
  -4  -4  -2    0.71    0.85
  -4  -4  -2    0.09    1.04
  -4  -4  -2    1.01    0.73
  -4  -4  -1 2219.98   49.25
  -4  -4  -1 2329.95   48.48
  -4  -4  -1 2318.29   48.79
  -4  -4  -1 2226.14   48.46
  -4  -4   0   77.01    3.45
  -4  -4   0   76.68    3.54
  -4  -4   1  201.86    6.37
  -4  -4   1  202.65    6.25
  -4  -4   2  340.98    9.67
  -4  -4   2  343.58    9.53
  -4  -4   2  338.87    9.36
  -4  -4   2  349.60    9.88
  -4  -4   3  259.41    8.12
  -4  -4   3  277.27    7.90
  -4  -4   3  279.40    8.30
  -4  -4   3  257.10    7.74
  -4  -4   3  276.14    8.58
  -4  -4   4  384.93   10.23
  -4  -4   4  370.89   10.61
  -4  -4   4  386.73   10.91
  -4  -4   4  363.70   10.34
  -4  -4   4  394.85   11.37
  -4  -4   4  389.47   10.20
  -4  -4   5   43.82    2.96
  -4  -4   5   38.41    2.60
  -4  -4   5   38.26    2.62
  -4  -4   5   40.93    3.07
  -4  -4   6  338.02   10.79
  -4  -4   6  339.03    9.79
  -4  -4   6  338.73   10.03
  -4  -4   7  503.79   13.03
  -4  -4   7  491.77   13.54
  -4  -4   7  517.63   14.55
  -4  -4   8   14.66    1.97
  -4  -4   8   13.16    1.67
  -4  -4   8   13.81    1.83
  -4  -4   9    8.61    1.35
  -4  -4   9   12.39    1.64
  -4  -4   9   10.28    1.66
  -4  -4  10  269.77    7.78
  -4  -4  10  270.42    8.09
  -4  -4  10  248.92    7.42
  -4  -4  11  108.88    3.70
  -4  -3  -5  182.51    5.75
  -4  -3  -5  174.27    5.27
  -4  -3  -5  192.59    5.75
  -4  -3  -4   97.92    3.62
  -4  -3  -4  100.41    3.85
  -4  -3  -3  383.73    9.89
  -4  -3  -3  373.32    9.65
  -4  -3  -3  369.84   10.67
  -4  -3  -2   26.28    1.87
  -4  -3  -2   47.16    2.43
  -4  -3  -1  166.62    5.01
  -4  -3  -1  177.55    5.54
  -4  -3  -1  172.93    5.51
  -4  -3   0 6229.89  127.37
  -4  -3   1   58.22    2.80
  -4  -3   1   61.00    2.89
  -4  -3   1   56.82    2.87
  -4  -3   2   19.43    1.66
  -4  -3   2   20.18    1.70
  -4  -3   2   20.78    1.76
  -4  -3   2   16.54    1.52
  -4  -3   3  306.10    8.37
  -4  -3   3  307.88    8.74
  -4  -3   3  305.66    9.34
  -4  -3   3  309.20    8.79
  -4  -3   4  472.10   12.92
  -4  -3   4  454.84   12.21
  -4  -3   4  448.43   11.45
  -4  -3   4  445.68   12.30
  -4  -3   4  467.71   11.49
  -4  -3   5  142.95    5.62
  -4  -3   5  140.10    4.64
  -4  -3   5  140.08    5.53
  -4  -3   5  132.56    4.89
  -4  -3   5  143.08    5.96
  -4  -3   6   56.46    3.08
  -4  -3   6   60.83    3.56
  -4  -3   6   61.35    3.83
  -4  -3   7  374.17   10.61
  -4  -3   8   86.94    4.17
  -4  -3   8   96.62    4.72
  -4  -3   8   92.65    4.13
  -4  -3   9   16.04    1.78
  -4  -3   9   19.28    2.04
  -4  -3   9   17.42    1.64
  -4  -3   9   21.76    2.25
  -4  -3  10    0.61    0.92
  -4  -3  10    1.35    0.83
  -4  -3  10    0.88    1.03
  -4  -3  11  279.00    7.76
  -4  -3  11  276.93    7.98
  -4  -3  12   64.69    2.58
  -4  -2  -5   41.67    2.27
  -4  -2  -5   32.10    2.02
  -4  -2  -4  297.39    9.11
  -4  -2  -4  288.36    7.96
  -4  -2  -4  283.29    8.03
  -4  -2  -3  891.70   20.32
  -4  -2  -2  301.23    8.06
  -4  -2  -2  281.53    7.07
  -4  -2  -1    1.87    0.61
  -4  -2  -1    1.61    0.83
  -4  -2   0  411.33   10.22
  -4  -2   1 1008.49   22.57
  -4  -2   1 1004.43   22.79
  -4  -2   2  107.56    4.19
  -4  -2   2  113.23    4.24
  -4  -2   3   58.23    2.77
  -4  -2   3   55.42    3.03
  -4  -2   3   60.58    3.06
  -4  -2   3   61.09    3.01
  -4  -2   4  461.01   12.42
  -4  -2   4  470.58   12.04
  -4  -2   4  468.54   11.64
  -4  -2   5  533.24   14.03
  -4  -2   5  528.75   12.80
  -4  -2   5  535.25   13.39
  -4  -2   5  553.01   14.49
  -4  -2   5  524.80   14.00
  -4  -2   5  512.71   13.97
  -4  -2   6   21.35    2.26
  -4  -2   6   20.65    1.79
  -4  -2   6   21.85    2.10
  -4  -2   6   22.56    2.13
  -4  -2   6   24.99    2.25
  -4  -2   7   72.43    3.92
  -4  -2   7   72.17    3.94
  -4  -2   7   72.31    3.55
  -4  -2   7   72.69    4.12
  -4  -2   7   65.20    3.77
  -4  -2   8  577.57   15.36
  -4  -2   8  593.86   15.51
  -4  -2   8  561.17   14.82
  -4  -2   8  564.05   15.82
  -4  -2   8  571.90   15.66
  -4  -2   8  577.97   15.47
  -4  -2   9  101.78    4.94
  -4  -2   9  108.94    5.06
  -4  -2  10    0.50    0.88
  -4  -2  10    0.65    0.77
  -4  -2  10    0.90    1.04
  -4  -2  11   99.98    4.22
  -4  -2  11   98.79    4.19
  -4  -2  11   96.07    3.87
  -4  -2  12  153.56    3.71
  -4  -2  12  168.08    3.89
  -4  -1  -2 1278.87   27.33
  -4  -1  -1  346.70    8.77
  -4  -1   1  674.71   15.96
  -4  -1   2  657.30   15.84
  -4  -1   3  439.67   11.58
  -4  -1   3  432.03   11.40
  -4  -1   3  438.89   11.87
  -4  -1   3  442.16   11.77
  -4  -1   3  425.27   11.52
  -4  -1   4  825.24   20.22
  -4  -1   4  849.32   19.62
  -4  -1   4  853.14   20.26
  -4  -1   4  798.86   19.96
  -4  -1   5  642.00   16.78
  -4  -1   5  679.20   16.88
  -4  -1   5  657.00   16.05
  -4  -1   5  678.96   17.08
  -4  -1   5  656.05   16.88
  -4  -1   6  215.60    6.74
  -4  -1   6  226.23    7.77
  -4  -1   6  232.88    7.80
  -4  -1   7    0.33    0.93
  -4  -1   7    0.10    0.87
  -4  -1   7    0.15    0.67
  -4  -1   7    1.14    1.02
  -4  -1   7    0.21    0.93
  -4  -1   8   21.77    2.29
  -4  -1   8   28.74    2.56
  -4  -1   8   24.24    2.43
  -4  -1   8   23.31    2.00
  -4  -1   8   22.47    2.39
  -4  -1   9  153.87    6.12
  -4  -1   9  155.19    6.22
  -4  -1   9  140.84    5.60
  -4  -1   9  146.98    6.29
  -4  -1   9  138.48    5.23
  -4  -1  10   94.96    4.30
  -4  -1  10  102.12    4.85
  -4  -1  10  102.28    4.62
  -4  -1  10   99.88    4.59
  -4  -1  10  104.23    4.90
  -4  -1  11    1.13    0.82
  -4  -1  11    1.76    0.98
  -4  -1  11    1.30    0.76
  -4  -1  12  121.84    3.60
  -4  -1  12  109.74    3.05
  -4   0   3  679.81   16.96
  -4   0   3  687.74   17.14
  -4   0   4  161.48    6.20
  -4   0   4  157.21    6.05
  -4   0   4  165.27    6.02
  -4   0   5  271.06    8.89
  -4   0   5  271.20    8.21
  -4   0   5  270.30    8.97
  -4   0   5  279.85    9.03
  -4   0   5  266.65    8.56
  -4   0   6  286.54    9.36
  -4   0   6  286.92    9.00
  -4   0   6  270.34    9.36
  -4   0   6  281.63    9.46
  -4   0   7  168.65    6.66
  -4   0   7  155.86    6.22
  -4   0   7  160.94    6.79
  -4   0   8    4.62    1.29
  -4   0   8    6.02    1.45
  -4   0   8    5.17    1.58
  -4   0   8    8.29    1.45
  -4   0   8    4.12    1.24
  -4   0   9  411.85   11.90
  -4   0   9  415.79   11.85
  -4   0   9  448.99   13.01
  -4   0  10   11.37    1.78
  -4   0  10    8.28    1.37
  -4   0  10    7.51    1.33
  -4   0  11   19.24    1.84
  -4   0  11   16.25    1.81
  -4   0  11   15.22    1.42
  -4   0  11   17.06    1.86
  -4   0  11    0.45    0.41
  -4   0  11    0.06    0.39
  -4   0  12   95.18    3.79
  -4   1   2  514.31   13.52
  -4   1   3  360.27   10.53
  -4   1   3  346.22   10.25
  -4   1   4  282.52    9.09
  -4   1   4  284.84    9.30
  -4   1   5    0.35    0.95
  -4   1   5    0.33    0.86
  -4   1   6  175.59    7.31
  -4   1   6  185.94    7.22
  -4   1   7  160.41    6.83
  -4   1   7  155.38    6.90
  -4   1   7  164.61    6.84
  -4   1   8  163.93    7.05
  -4   1   8  166.44    6.87
  -4   1   8  148.94    6.53
  -4   1   9   48.01    3.44
  -4   1   9   47.59    3.19
  -4   1  10  343.52   10.40
  -4   1  10  319.76   10.29
  -4   1  10  319.81    9.64
  -4   1  11   41.69    2.49
  -4   1  11   45.87    2.85
  -4   1  11   46.78    2.90
  -4   1  12   34.91    1.88
  -4   1  12   37.33    2.04
  -4   2   3    8.38    1.52
  -4   2   4  477.06   13.68
  -4   2   5  226.85    8.42
  -4   2   5  235.61    7.95
  -4   2   6   17.94    2.37
  -4   2   6   21.77    2.27
  -4   2   7  418.39   12.40
  -4   2   7  429.77   13.15
  -4   2   8   16.87    2.06
  -4   2   8   18.29    2.41
  -4   2   9   62.19    3.59
  -4   2   9   60.09    3.85
  -4   2   9   64.46    3.64
  -4   2  10   86.94    3.99
  -4   2  10   85.88    4.03
  -4   2  11   99.25    3.96
  -4   2  11   96.08    3.76
  -4   2  12   48.38    2.26
  -4   2  12   54.62    2.31
  -4   3   4    6.63    1.38
  -4   3   5  502.90   14.03
  -4   3   6   36.23    2.94
  -4   3   7   80.08    4.34
  -4   3   7   79.13    3.70
  -4   3   8  238.54    8.05
  -4   3   8  226.62    7.16
  -4   3   9   47.28    2.85
  -4   3   9   40.82    2.43
  -4   3   9   45.90    2.93
  -4   3  10   44.70    2.34
  -4   3  10   48.82    2.61
  -4   3  10   49.50    2.74
  -4   3  11   42.29    2.13
  -4   3  11   39.00    1.97
  -4   4   6  119.88    4.57
  -4   4   7   31.58    2.16
  -4   4   8   18.03    1.61
  -4   4   9   56.54    2.59
  -4   4  10   44.70    1.93
  -3  -9  -6   18.98    1.59
  -3  -9  -5   41.95    2.33
  -3  -9  -4   26.99    1.88
  -3  -9  -4   33.28    2.07
  -3  -9  -4   31.96    1.98
  -3  -9  -3    4.86    1.12
  -3  -9  -3    5.98    1.04
  -3  -9  -3    3.58    0.86
  -3  -9  -2  123.12    4.21
  -3  -8  -9    8.88    1.30
  -3  -8  -8   76.11    3.63
  -3  -8  -7    0.43    0.90
  -3  -8  -7    2.93    1.30
  -3  -8  -6  201.09    6.66
  -3  -8  -6  214.27    6.83
  -3  -8  -5  149.91    5.72
  -3  -8  -5  157.23    6.06
  -3  -8  -5  154.01    5.76
  -3  -8  -4  229.32    7.73
  -3  -8  -4  225.68    7.59
  -3  -8  -4  221.14    7.50
  -3  -8  -3  105.49    4.73
  -3  -8  -3   98.41    4.61
  -3  -8  -3   92.59    4.47
  -3  -8  -2    1.82    1.19
  -3  -8  -1  214.83    7.18
  -3  -8  -1  205.03    7.06
  -3  -8  -1  215.26    7.02
  -3  -8   0  151.33    5.75
  -3  -8   0  151.17    5.70
  -3  -8   0  153.31    5.71
  -3  -8   1   47.51    2.87
  -3  -8   1   51.94    3.01
  -3  -8   1   50.00    2.88
  -3  -8   2   -0.07    0.93
  -3  -8   2    0.62    0.85
  -3  -8   3  190.81    5.97
  -3  -8   4    2.95    0.87
  -3  -7 -11   -0.11    0.31
  -3  -7 -10   98.02    3.99
  -3  -7 -10  109.88    3.88
  -3  -7  -9   32.93    2.62
  -3  -7  -9   29.90    2.12
  -3  -7  -8   24.15    2.03
  -3  -7  -8   26.75    2.57
  -3  -7  -7  124.18    4.81
  -3  -7  -7  121.75    4.93
  -3  -7  -7  126.26    5.13
  -3  -7  -7  137.00    5.82
  -3  -7  -6   72.98    3.99
  -3  -7  -6   70.61    3.84
  -3  -7  -6   73.90    4.27
  -3  -7  -6   62.19    3.32
  -3  -7  -5   74.01    4.16
  -3  -7  -5   75.84    4.07
  -3  -7  -4  379.47   11.57
  -3  -7  -4  389.97   11.43
  -3  -7  -4  377.95   11.51
  -3  -7  -4  348.19   11.02
  -3  -7  -3  189.53    7.22
  -3  -7  -3  189.25    7.36
  -3  -7  -3  178.75    6.99
  -3  -7  -2   33.33    2.96
  -3  -7  -2   34.85    2.81
  -3  -7  -2   35.55    2.91
  -3  -7  -1    8.38    1.75
  -3  -7  -1   10.95    1.86
  -3  -7  -1    9.08    1.74
  -3  -7  -1   10.67    1.98
  -3  -7  -1    8.17    1.69
  -3  -7   0  135.48    5.79
  -3  -7   0  136.21    5.67
  -3  -7   0  124.43    5.79
  -3  -7   0  120.17    5.13
  -3  -7   0  118.48    5.50
  -3  -7   0  133.91    5.81
  -3  -7   1  242.51    8.35
  -3  -7   1  243.52    8.35
  -3  -7   1  256.84    8.38
  -3  -7   1  236.87    8.66
  -3  -7   2   25.59    2.34
  -3  -7   2   19.96    2.15
  -3  -7   2   20.03    2.27
  -3  -7   2   20.75    2.39
  -3  -7   3  105.92    4.49
  -3  -7   3  108.54    4.55
  -3  -7   4  274.82    8.39
  -3  -7   4  244.40    8.73
  -3  -7   5    0.52    0.88
  -3  -7   5   -0.08    0.92
  -3  -7   6  134.52    5.03
  -3  -7   6  142.16    4.87
  -3  -7   7   59.15    2.67
  -3  -7   7   63.93    2.63
  -3  -6 -10   66.84    3.43
  -3  -6  -9   19.44    2.19
  -3  -6  -8    4.92    1.50
  -3  -6  -7   52.95    3.62
  -3  -6  -7   46.94    3.00
  -3  -6  -7   52.85    3.32
  -3  -6  -6  394.17   11.35
  -3  -6  -6  398.01   11.78
  -3  -6  -6  407.08   12.11
  -3  -6  -5  255.18    8.72
  -3  -6  -5  263.18    8.84
  -3  -6  -5  252.63    7.78
  -3  -6  -5  249.54    8.22
  -3  -6  -5  246.54    8.28
  -3  -6  -4    7.45    1.65
  -3  -6  -4    8.78    1.76
  -3  -6  -4    7.68    1.60
  -3  -6  -3  343.19   10.38
  -3  -6  -3  333.33   10.56
  -3  -6  -3  329.84    9.93
  -3  -6  -3  333.58   10.18
  -3  -6  -3  346.26   10.46
  -3  -6  -2  470.70   12.82
  -3  -6  -2  441.64   13.01
  -3  -6  -2  444.02   12.67
  -3  -6  -2  445.20   12.44
  -3  -6  -2  464.31   12.80
  -3  -6  -2  453.48   12.85
  -3  -6  -1  110.84    4.92
  -3  -6  -1  113.18    5.06
  -3  -6  -1  104.02    4.73
  -3  -6   0   46.70    2.96
  -3  -6   0   50.48    3.33
  -3  -6   0   54.27    3.38
  -3  -6   0   53.33    3.51
  -3  -6   0   48.73    3.17
  -3  -6   0   49.87    3.22
  -3  -6   0   52.34    3.40
  -3  -6   1  373.39   11.38
  -3  -6   1  384.49   11.22
  -3  -6   1  389.79   11.53
  -3  -6   1  387.65   10.77
  -3  -6   1  389.49   11.35
  -3  -6   1  379.83   10.89
  -3  -6   1  392.74   11.44
  -3  -6   2  485.27   13.47
  -3  -6   2  482.36   13.42
  -3  -6   2  491.05   13.30
  -3  -6   2  488.62   13.91
  -3  -6   2  491.35   14.01
  -3  -6   3    1.43    1.07
  -3  -6   3    2.19    1.25
  -3  -6   3    1.73    1.10
  -3  -6   3    1.17    1.09
  -3  -6   4  101.58    4.34
  -3  -6   4  104.67    5.15
  -3  -6   5  148.90    6.22
  -3  -6   6   18.76    2.09
  -3  -6   6   15.19    1.43
  -3  -6   7   36.97    2.52
  -3  -6   7    0.16    0.35
  -3  -6   8   22.41    1.81
  -3  -6   8   -0.11    0.22
  -3  -6   9   71.99    2.77
  -3  -5  -9  512.84   13.68
  -3  -5  -8  299.45    9.41
  -3  -5  -7   41.04    3.03
  -3  -5  -6   28.75    2.47
  -3  -5  -6   27.24    2.21
  -3  -5  -6   30.24    2.63
  -3  -5  -6   27.79    2.25
  -3  -5  -5  519.30   13.42
  -3  -5  -5  502.59   13.27
  -3  -5  -5  508.94   13.28
  -3  -5  -5  515.22   13.82
  -3  -5  -5  515.27   13.86
  -3  -5  -4  231.24    7.38
  -3  -5  -4  245.79    7.57
  -3  -5  -4  222.79    7.69
  -3  -5  -4  242.70    7.78
  -3  -5  -4  232.01    7.32
  -3  -5  -3   30.77    2.32
  -3  -5  -3   24.17    1.93
  -3  -5  -3   25.58    2.12
  -3  -5  -3   26.34    2.06
  -3  -5  -3   27.72    2.36
  -3  -5  -3   24.10    2.04
  -3  -5  -2  226.77    7.19
  -3  -5  -2  226.12    7.07
  -3  -5  -2  235.40    7.36
  -3  -5  -2  223.20    7.06
  -3  -5  -2  235.86    7.38
  -3  -5  -2  232.23    7.60
  -3  -5  -2  229.11    7.21
  -3  -5  -1  725.69   17.26
  -3  -5  -1  737.65   17.36
  -3  -5  -1  669.98   16.97
  -3  -5  -1  708.57   17.26
  -3  -5   0   55.57    3.13
  -3  -5   0   53.90    3.17
  -3  -5   0   51.54    2.95
  -3  -5   0   48.84    2.85
  -3  -5   0   49.63    2.94
  -3  -5   0   51.98    2.97
  -3  -5   1   61.27    3.36
  -3  -5   1   58.06    3.19
  -3  -5   1   59.95    3.34
  -3  -5   1   59.95    3.12
  -3  -5   1   65.48    3.69
  -3  -5   1   58.73    3.24
  -3  -5   2  209.19    7.07
  -3  -5   2  215.94    7.56
  -3  -5   2  201.77    6.87
  -3  -5   2  220.49    7.20
  -3  -5   2  215.68    7.08
  -3  -5   3  608.73   15.85
  -3  -5   3  582.29   15.00
  -3  -5   3  573.74   14.82
  -3  -5   3  579.84   14.56
  -3  -5   3  583.80   14.86
  -3  -5   3  608.40   15.45
  -3  -5   4    1.06    1.05
  -3  -5   4    3.22    1.00
  -3  -5   4    0.84    0.92
  -3  -5   4    1.12    0.93
  -3  -5   5  153.62    6.15
  -3  -5   5  152.44    6.31
  -3  -5   5  148.52    6.21
  -3  -5   5  162.32    5.97
  -3  -5   6  219.91    7.93
  -3  -5   6  226.91    7.82
  -3  -5   6  223.95    7.55
  -3  -5   6  198.71    7.55
  -3  -5   7   28.86    2.53
  -3  -5   7   34.35    2.63
  -3  -5   8  202.75    7.00
  -3  -5   8  196.55    6.80
  -3  -5   9   28.94    2.15
  -3  -5   9   25.95    2.03
  -3  -5  10  142.80    4.58
  -3  -5  10  143.36    4.54
  -3  -4  -7  181.49    6.39
  -3  -4  -6   36.96    2.23
  -3  -4  -6   35.83    2.58
  -3  -4  -5    2.11    0.93
  -3  -4  -5    2.50    1.03
  -3  -4  -5    3.05    0.95
  -3  -4  -5    2.01    0.98
  -3  -4  -4  916.59   20.66
  -3  -4  -4  903.26   21.14
  -3  -4  -3  210.52    6.23
  -3  -4  -3  210.44    6.58
  -3  -4  -2  211.77    6.68
  -3  -4  -2  227.82    6.48
  -3  -4  -1  913.89   20.62
  -3  -4   0  691.36   16.46
  -3  -4   1    7.15    1.38
  -3  -4   1    6.43    1.03
  -3  -4   1    6.87    1.13
  -3  -4   1    7.01    1.15
  -3  -4   2   40.24    2.40
  -3  -4   2   44.77    2.43
  -3  -4   2   45.90    2.55
  -3  -4   2   40.94    2.42
  -3  -4   2   48.31    2.87
  -3  -4   3  485.85   11.84
  -3  -4   3  465.87   12.13
  -3  -4   3  483.39   12.28
  -3  -4   3  441.71   12.01
  -3  -4   3  461.59   11.75
  -3  -4   3  449.73   11.73
  -3  -4   3  464.35   12.51
  -3  -4   4  461.31   11.93
  -3  -4   4  469.38   12.04
  -3  -4   4  491.88   12.89
  -3  -4   4  476.15   12.61
  -3  -4   4  483.23   12.92
  -3  -4   5  162.19    6.06
  -3  -4   5  163.06    6.05
  -3  -4   5  152.52    5.36
  -3  -4   5  170.54    6.36
  -3  -4   5  157.69    6.06
  -3  -4   6   98.97    4.69
  -3  -4   6  104.36    4.94
  -3  -4   6   97.96    4.65
  -3  -4   6   89.40    4.44
  -3  -4   7  278.79    9.32
  -3  -4   7  255.54    8.78
  -3  -4   7  280.31    9.05
  -3  -4   8  114.63    5.13
  -3  -4   8  116.81    5.21
  -3  -4   8  116.91    5.47
  -3  -4   9  155.57    5.98
  -3  -4   9  149.88    5.80
  -3  -4   9  157.00    6.26
  -3  -4  10   49.21    2.92
  -3  -4  10   56.08    2.94
  -3  -4  10   50.34    3.07
  -3  -4  11  176.86    5.23
  -3  -4  11  171.70    5.56
  -3  -3  -6  106.79    3.60
  -3  -3  -5   58.05    2.48
  -3  -3  -4  653.29   14.87
  -3  -3  -4  647.82   14.52
  -3  -3  -3 1099.25   23.71
  -3  -3  -3 1103.32   23.94
  -3  -3  -2  352.06    8.71
  -3  -3  -2  357.00    8.84
  -3  -3  -1    7.46    1.02
  -3  -3  -1    7.91    1.09
  -3  -3   0  184.85    5.23
  -3  -3   1  855.28   19.39
  -3  -3   1  878.88   19.52
  -3  -3   1  873.32   19.29
  -3  -3   2  218.51    6.03
  -3  -3   2  212.73    6.37
  -3  -3   3  307.25    8.41
  -3  -3   3  306.75    7.88
  -3  -3   3  308.56    8.39
  -3  -3   3  290.38    8.26
  -3  -3   4  834.59   18.40
  -3  -3   4  846.26   19.42
  -3  -3   4  809.94   19.29
  -3  -3   4  838.83   19.81
  -3  -3   4  828.82   19.06
  -3  -3   4  767.94   18.96
  -3  -3   5   78.97    3.58
  -3  -3   5   74.12    3.86
  -3  -3   5   75.76    2.91
  -3  -3   5   74.29    3.60
  -3  -3   5   64.25    3.22
  -3  -3   6  512.05   13.34
  -3  -3   6  470.10   12.87
  -3  -3   6  481.58   13.60
  -3  -3   7  113.54    4.94
  -3  -3   7  115.84    5.07
  -3  -3   7  114.54    5.37
  -3  -3   7  108.79    4.37
  -3  -3   8  271.74    8.94
  -3  -3   8  283.75    9.17
  -3  -3   9   16.88    1.96
  -3  -3   9   19.26    2.05
  -3  -3  10  171.14    6.32
  -3  -3  10  169.22    6.20
  -3  -3  10  171.95    6.72
  -3  -3  11  138.43    5.16
  -3  -3  11  136.03    5.33
  -3  -3  11  142.98    5.02
  -3  -3  12   38.55    1.89
  -3  -3  12   41.67    2.26
  -3  -3  12   41.32    2.18
  -3  -2  -5  512.69   11.85
  -3  -2  -5  547.11   12.24
  -3  -2  -4  213.36    5.63
  -3  -2  -4  211.12    5.78
  -3  -2  -3  964.09   20.74
  -3  -2  -3  939.89   20.79
  -3  -2  -2  146.51    4.30
  -3  -2  -2  137.39    3.66
  -3  -2  -1    6.85    0.76
  -3  -2  -1    6.98    0.95
  -3  -2   0   16.07    1.17
  -3  -2   1  290.42    7.50
  -3  -2   1  300.83    7.64
  -3  -2   2  248.71    6.69
  -3  -2   2  245.97    6.50
  -3  -2   3  139.33    4.42
  -3  -2   3  136.03    4.56
  -3  -2   3  141.78    4.21
  -3  -2   3  128.72    3.89
  -3  -2   4  626.22   14.79
  -3  -2   4  618.95   13.90
  -3  -2   4  616.52   14.35
  -3  -2   4  591.35   13.75
  -3  -2   5  646.70   15.43
  -3  -2   5  613.66   14.02
  -3  -2   6  215.16    6.97
  -3  -2   6  229.04    7.22
  -3  -2   6  214.76    7.04
  -3  -2   6  224.74    7.56
  -3  -2   7   90.68    4.19
  -3  -2   7   92.11    4.20
  -3  -2   7   90.32    4.13
  -3  -2   7   93.87    4.64
  -3  -2   7   91.06    4.15
  -3  -2   8  691.10   17.91
  -3  -2   8  722.40   17.80
  -3  -2   8  738.27   18.39
  -3  -2   8  692.48   17.64
  -3  -2   8  681.80   17.48
  -3  -2   8  739.01   18.69
  -3  -2   9  163.81    6.48
  -3  -2   9  154.52    5.90
  -3  -2   9  164.12    6.65
  -3  -2   9  161.38    6.35
  -3  -2  10    4.37    1.21
  -3  -2  10    3.67    1.20
  -3  -2  10    3.22    1.35
  -3  -2  11  184.95    6.55
  -3  -2  11  188.21    6.43
  -3  -2  11  184.10    6.66
  -3  -2  12  177.87    5.78
  -3  -2  12  179.24    5.51
  -3  -2  12  163.90    5.64
  -3  -2  13   71.74    2.62
  -3  -1  -3  202.39    4.63
  -3  -1  -2  215.49    5.30
  -3  -1   3  334.86    8.59
  -3  -1   4  298.27    8.17
  -3  -1   4  286.52    7.69
  -3  -1   5   52.94    2.82
  -3  -1   5   51.98    2.39
  -3  -1   5   51.29    2.19
  -3  -1   6  617.77   15.67
  -3  -1   6  636.98   15.65
  -3  -1   6  625.05   15.00
  -3  -1   6  617.94   14.48
  -3  -1   6  640.83   15.86
  -3  -1   6  616.83   15.74
  -3  -1   7   93.50    4.22
  -3  -1   7   94.53    4.41
  -3  -1   7   91.39    4.40
  -3  -1   7   94.68    4.41
  -3  -1   7   94.99    3.98
  -3  -1   8  188.27    6.67
  -3  -1   8  182.57    6.36
  -3  -1   8  193.11    6.89
  -3  -1   8  185.48    6.95
  -3  -1   8  194.13    7.08
  -3  -1   9  959.58   22.62
  -3  -1   9  938.68   22.70
  -3  -1   9  949.62   23.02
  -3  -1   9  953.66   23.37
  -3  -1   9  970.40   23.49
  -3  -1  10   30.14    2.62
  -3  -1  10   25.28    2.20
  -3  -1  10   25.88    2.38
  -3  -1  10   28.70    2.51
  -3  -1  10   27.83    2.29
  -3  -1  11    4.70    1.26
  -3  -1  11    4.49    1.25
  -3  -1  11    5.10    1.07
  -3  -1  11    4.59    1.18
  -3  -1  11    3.94    1.11
  -3  -1  12  101.56    4.33
  -3  -1  12  114.80    4.34
  -3  -1  12  104.69    4.17
  -3  -1  13  124.72    4.10
  -3  -1  13  117.77    3.72
  -3   0   5  193.72    5.75
  -3   0   5  191.69    6.56
  -3   0   6  170.26    6.37
  -3   0   6  189.94    6.45
  -3   0   6  174.44    6.12
  -3   0   7  789.92   19.83
  -3   0   7  799.93   19.50
  -3   0   7  777.38   19.24
  -3   0   8    2.39    1.03
  -3   0   8    2.42    1.11
  -3   0   8    2.94    1.25
  -3   0   8    2.58    1.02
  -3   0   8    2.82    1.12
  -3   0   9  463.37   13.62
  -3   0   9  434.28   12.51
  -3   0   9  475.56   13.37
  -3   0   9  440.62   12.66
  -3   0   9  470.77   12.87
  -3   0  10  908.10   22.04
  -3   0  10  880.21   22.44
  -3   0  10  880.25   21.56
  -3   0  10  862.06   21.40
  -3   0  11   22.41    2.26
  -3   0  11   21.50    2.04
  -3   0  11   20.05    1.91
  -3   0  11   22.37    2.10
  -3   0  12    0.32    0.79
  -3   0  12   -0.24    0.76
  -3   0  12    0.17    0.33
  -3   0  12    1.71    0.87
  -3   0  12    0.70    0.62
  -3   0  12    1.01    0.78
  -3   0  13   82.36    3.28
  -3   0  13   87.01    3.12
  -3   1   5    7.22    1.46
  -3   1   6  354.67   10.03
  -3   1   6  368.51   11.09
  -3   1   7  438.63   12.50
  -3   1   7  427.73   11.72
  -3   1   8  237.74    8.62
  -3   1   8  225.44    7.94
  -3   1   8  216.20    7.28
  -3   1   9   37.65    2.92
  -3   1   9   45.12    3.46
  -3   1   9   49.17    3.60
  -3   1   9   45.53    3.26
  -3   1  10   98.84    5.08
  -3   1  10   98.57    4.83
  -3   1  11  236.07    7.90
  -3   1  11  244.41    8.13
  -3   1  12  103.89    4.48
  -3   1  12  101.25    4.27
  -3   1  12  100.74    4.09
  -3   1  12   99.09    4.16
  -3   1  13   34.03    1.88
  -3   1  13   36.19    2.07
  -3   1  13   31.69    1.89
  -3   1  13   35.13    1.91
  -3   2   3   12.05    1.64
  -3   2   4 1231.08   29.59
  -3   2   4 1306.42   29.11
  -3   2   5  101.64    4.72
  -3   2   5  114.17    5.29
  -3   2   6   20.85    2.48
  -3   2   7  140.37    6.51
  -3   2   8  352.46   11.36
  -3   2   8  397.81   12.43
  -3   2   9  104.52    5.19
  -3   2   9  103.97    5.03
  -3   2  10    7.88    1.60
  -3   2  10    9.30    1.87
  -3   2  10    8.39    1.65
  -3   2  11  186.80    6.82
  -3   2  11  186.59    6.85
  -3   2  11  179.77    6.55
  -3   2  12  122.06    4.66
  -3   2  12  112.77    4.40
  -3   2  12  114.27    4.43
  -3   2  13    7.40    0.92
  -3   3   3   11.12    1.66
  -3   3   4  251.87    8.68
  -3   3   5  934.38   23.49
  -3   3   6    8.16    1.43
  -3   3   6    7.13    1.79
  -3   3   7  108.69    4.98
  -3   3   7  108.60    5.65
  -3   3   8  102.21    5.41
  -3   3   8   97.16    4.75
  -3   3   9  272.09    9.39
  -3   3   9  254.73    8.58
  -3   3  10   90.10    4.30
  -3   3  11   18.80    1.79
  -3   3  12   99.39    3.74
  -3   3  12  100.95    3.72
  -3   3  12  101.48    3.74
  -3   4   4   12.76    1.81
  -3   4   5   55.67    3.59
  -3   4   6  305.19    9.94
  -3   4   7    7.57    1.63
  -3   4   8    0.94    0.73
  -3   4   8   -0.32    1.05
  -3   4   9  150.96    5.91
  -3   4   9  143.06    5.12
  -3   4   9  161.99    5.94
  -3   4  10   55.81    2.71
  -3   4  10   62.89    3.25
  -3   4  10   63.79    3.18
  -3   4  11    0.85    0.48
  -3   4  11    1.91    0.71
  -3   4  11    0.16    0.65
  -3   5   6   66.84    3.27
  -3   5   7  150.60    5.32
  -3   5   8   73.02    3.32
  -3   5   9  112.11    4.10
  -3   5   9  125.26    4.30
  -3   5  10   12.37    1.11
  -3   5  10   15.24    1.19
  -2  -9  -6    0.08    0.61
  -2  -9  -5   59.19    2.56
  -2  -9  -5   66.15    2.53
  -2  -9  -4   51.60    2.33
  -2  -9  -4   66.86    2.61
  -2  -9  -3   12.82    1.24
  -2  -9  -2   -0.04    0.58
  -2  -9  -1  135.96    4.04
  -2  -8  -9    6.80    1.16
  -2  -8  -8   65.97    3.33
  -2  -8  -7  177.68    5.57
  -2  -8  -7  184.26    6.38
  -2  -8  -6   57.81    3.03
  -2  -8  -6   52.24    2.98
  -2  -8  -5   88.48    4.11
  -2  -8  -5   88.70    4.32
  -2  -8  -5   89.23    4.03
  -2  -8  -4    0.36    1.17
  -2  -8  -4    0.86    1.04
  -2  -8  -4   -0.56    1.23
  -2  -8  -3  121.06    4.96
  -2  -8  -3  125.90    5.14
  -2  -8  -3  130.12    5.07
  -2  -8  -2   68.85    3.55
  -2  -8  -1   32.64    2.59
  -2  -8  -1   28.31    2.34
  -2  -8   0  421.02   11.25
  -2  -8   0  413.58   11.43
  -2  -8   1    4.16    1.05
  -2  -8   2   -0.09    0.34
  -2  -8   3   64.87    2.93
  -2  -8   4   55.00    2.41
  -2  -7 -11   17.79    1.44
  -2  -7 -10  182.07    5.69
  -2  -7 -10  164.12    5.69
  -2  -7  -9   18.34    2.18
  -2  -7  -9   21.86    1.98
  -2  -7  -8   43.23    2.83
  -2  -7  -8   41.31    3.13
  -2  -7  -7  189.22    6.60
  -2  -7  -7  208.31    7.56
  -2  -7  -7  202.73    6.87
  -2  -7  -7  185.23    6.54
  -2  -7  -6  282.64    9.55
  -2  -7  -6  288.78    9.04
  -2  -7  -6  272.10    8.86
  -2  -7  -6  286.21    8.87
  -2  -7  -5   17.81    2.15
  -2  -7  -5   17.24    2.25
  -2  -7  -5   15.09    1.92
  -2  -7  -4  115.82    5.26
  -2  -7  -4  107.21    5.10
  -2  -7  -4  110.15    5.29
  -2  -7  -4  103.56    4.70
  -2  -7  -3    8.87    1.80
  -2  -7  -3    9.86    1.92
  -2  -7  -3    9.66    1.93
  -2  -7  -2   75.32    4.30
  -2  -7  -2   83.91    4.44
  -2  -7  -2   81.84    4.35
  -2  -7  -1    0.98    1.12
  -2  -7  -1    0.09    0.92
  -2  -7  -1    0.11    1.32
  -2  -7  -1   -0.22    1.15
  -2  -7   0   39.74    2.83
  -2  -7   0   48.46    3.30
  -2  -7   0   41.29    2.81
  -2  -7   0   45.38    3.22
  -2  -7   1  359.53   10.88
  -2  -7   1  370.68   10.92
  -2  -7   2   24.14    2.33
  -2  -7   2   27.21    2.63
  -2  -7   2   24.33    2.21
  -2  -7   3   21.51    2.01
  -2  -7   3   25.48    2.44
  -2  -7   3   20.81    1.86
  -2  -7   4   51.23    3.23
  -2  -7   5  233.55    7.56
  -2  -7   5  250.93    7.53
  -2  -7   6   16.12    1.55
  -2  -7   7   47.09    2.15
  -2  -6 -13   83.45    2.87
  -2  -6 -10  165.94    6.03
  -2  -6  -9  310.01    9.73
  -2  -6  -8   16.96    2.25
  -2  -6  -7    1.19    1.09
  -2  -6  -7    1.78    1.19
  -2  -6  -7    1.39    1.40
  -2  -6  -6  152.17    6.11
  -2  -6  -6  152.98    5.92
  -2  -6  -6  151.02    6.43
  -2  -6  -5  252.39    8.17
  -2  -6  -5  256.81    8.54
  -2  -6  -5  254.26    8.36
  -2  -6  -5  253.65    8.77
  -2  -6  -5  233.60    8.06
  -2  -6  -4   18.54    2.23
  -2  -6  -4   25.18    2.41
  -2  -6  -4   20.82    2.31
  -2  -6  -4   19.15    2.06
  -2  -6  -4   22.40    2.34
  -2  -6  -3   16.69    1.89
  -2  -6  -3   20.79    2.27
  -2  -6  -3   21.07    2.37
  -2  -6  -3   20.05    2.24
  -2  -6  -3   21.01    2.23
  -2  -6  -3   21.20    2.27
  -2  -6  -2  733.81   18.96
  -2  -6  -2  755.57   19.10
  -2  -6  -2  747.80   18.92
  -2  -6  -2  742.87   18.29
  -2  -6  -2  769.42   18.94
  -2  -6  -2  734.78   18.79
  -2  -6  -1   38.88    3.04
  -2  -6  -1   41.30    3.05
  -2  -6  -1   39.03    2.91
  -2  -6  -1   42.55    3.08
  -2  -6   0   -0.09    0.88
  -2  -6   0    0.44    1.04
  -2  -6   0    0.32    1.13
  -2  -6   0    0.70    1.19
  -2  -6   0    0.09    1.04
  -2  -6   0    0.31    1.22
  -2  -6   0    2.06    1.28
  -2  -6   0    0.73    1.07
  -2  -6   1  136.56    5.73
  -2  -6   1  147.33    5.83
  -2  -6   1  125.92    5.10
  -2  -6   1  141.72    5.70
  -2  -6   2  169.99    6.56
  -2  -6   2  181.00    6.64
  -2  -6   2  180.53    7.15
  -2  -6   3  261.15    9.07
  -2  -6   3  255.33    8.15
  -2  -6   3  250.93    8.12
  -2  -6   3  253.65    8.96
  -2  -6   4  149.32    6.33
  -2  -6   4  151.43    6.43
  -2  -6   5  105.21    5.01
  -2  -6   6  183.31    6.78
  -2  -6   7   34.11    2.51
  -2  -6   8   70.78    3.13
  -2  -6   9  102.85    3.45
  -2  -5  -9  334.86   10.13
  -2  -5  -8  383.23   11.30
  -2  -5  -7   56.86    3.56
  -2  -5  -6   14.38    1.83
  -2  -5  -6   11.10    1.57
  -2  -5  -6   13.50    1.92
  -2  -5  -5  391.11   10.80
  -2  -5  -5  378.87   11.14
  -2  -5  -5  416.94   11.56
  -2  -5  -5  406.58   10.98
  -2  -5  -4   97.05    4.26
  -2  -5  -4   97.17    4.47
  -2  -5  -4  102.79    4.52
  -2  -5  -4  107.68    4.47
  -2  -5  -4  100.60    4.57
  -2  -5  -3   10.42    1.53
  -2  -5  -3   10.47    1.56
  -2  -5  -3   10.36    1.58
  -2  -5  -3    9.67    1.54
  -2  -5  -3   11.98    1.63
  -2  -5  -3   12.87    1.49
  -2  -5  -2  127.78    4.92
  -2  -5  -2  116.65    4.89
  -2  -5  -2  116.26    4.76
  -2  -5  -2  119.03    4.93
  -2  -5  -2  125.28    4.94
  -2  -5  -2  123.26    4.96
  -2  -5  -1  800.60   19.48
  -2  -5  -1  809.91   19.16
  -2  -5  -1  796.79   19.23
  -2  -5   0   11.87    1.64
  -2  -5   0   12.88    1.65
  -2  -5   0   13.66    1.68
  -2  -5   0   14.67    1.61
  -2  -5   0   13.75    1.74
  -2  -5   0   11.91    1.62
  -2  -5   0   14.31    1.86
  -2  -5   0   14.42    1.77
  -2  -5   1    2.47    1.18
  -2  -5   1    1.10    0.86
  -2  -5   1    1.58    1.01
  -2  -5   1    0.85    0.92
  -2  -5   1    1.09    0.88
  -2  -5   1    0.41    1.10
  -2  -5   1    2.71    1.14
  -2  -5   2  162.05    5.90
  -2  -5   2  162.84    5.83
  -2  -5   2  165.79    5.95
  -2  -5   2  167.85    6.42
  -2  -5   3  216.12    7.15
  -2  -5   3  235.60    7.72
  -2  -5   3  227.75    7.32
  -2  -5   3  231.24    8.00
  -2  -5   4  112.58    4.55
  -2  -5   4  117.25    5.09
  -2  -5   4  117.57    5.37
  -2  -5   5  327.86    9.59
  -2  -5   5  333.05   10.21
  -2  -5   5  318.50   10.34
  -2  -5   6  457.93   12.63
  -2  -5   6  426.15   11.98
  -2  -5   6  417.31   12.60
  -2  -5   7  268.11    8.62
  -2  -5   7  256.76    8.26
  -2  -5   8    0.70    0.86
  -2  -5   8    0.25    0.82
  -2  -5   9  175.73    5.83
  -2  -5   9  180.67    5.84
  -2  -5  10  169.41    5.00
  -2  -4  -8   61.00    3.40
  -2  -4  -7  297.40    8.92
  -2  -4  -6   53.14    3.07
  -2  -4  -6   51.80    2.62
  -2  -4  -5  184.28    6.06
  -2  -4  -5  190.68    5.86
  -2  -4  -4 1833.68   38.23
  -2  -4  -4 1731.06   37.11
  -2  -4  -4 1805.13   38.45
  -2  -4  -3   72.27    3.15
  -2  -4  -3   68.56    2.12
  -2  -4  -3   72.87    3.27
  -2  -4  -2    9.91    1.38
  -2  -4  -2   11.75    1.39
  -2  -4  -1  546.70   13.20
  -2  -4  -1  544.49   13.70
  -2  -4   0  712.23   16.59
  -2  -4   0  709.56   16.69
  -2  -4   0  709.54   17.12
  -2  -4   1  126.30    4.50
  -2  -4   1  125.62    4.47
  -2  -4   1  124.52    4.46
  -2  -4   1  133.08    4.94
  -2  -4   2  324.77    8.97
  -2  -4   2  335.40    9.28
  -2  -4   2  343.11    9.57
  -2  -4   3  712.37   16.78
  -2  -4   3  676.57   16.43
  -2  -4   3  657.51   15.93
  -2  -4   3  670.44   16.13
  -2  -4   3  682.08   16.83
  -2  -4   4  361.13   10.56
  -2  -4   4  378.81   10.57
  -2  -4   4  387.94   10.44
  -2  -4   4  362.81   10.26
  -2  -4   4  362.77    9.72
  -2  -4   5    6.67    1.38
  -2  -4   5    6.47    1.34
  -2  -4   5    8.44    1.46
  -2  -4   5    6.95    1.29
  -2  -4   6   65.80    3.79
  -2  -4   6   67.33    3.67
  -2  -4   6   71.11    4.00
  -2  -4   7  390.74   11.69
  -2  -4   7  391.20   11.30
  -2  -4   7  365.06   11.31
  -2  -4   8  205.29    7.21
  -2  -4   8  204.45    7.67
  -2  -4   9   15.19    1.75
  -2  -4   9   12.21    1.87
  -2  -4  10  185.32    6.02
  -2  -4  10  189.92    6.60
  -2  -4  11  124.64    4.49
  -2  -3  -6  965.91   21.08
  -2  -3  -5    0.56    0.68
  -2  -3  -4  442.05   10.44
  -2  -3  -3  604.99   13.68
  -2  -3  -2  432.05   10.27
  -2  -3  -2  420.75   10.01
  -2  -3  -1  148.93    4.48
  -2  -3  -1  150.47    4.36
  -2  -3   0  595.80   14.05
  -2  -3   1  407.90    9.68
  -2  -3   1  404.04   10.25
  -2  -3   2  111.40    3.65
  -2  -3   2  116.92    4.15
  -2  -3   3  297.23    8.21
  -2  -3   3  296.64    7.58
  -2  -3   4  991.67   21.63
  -2  -3   4  983.87   22.54
  -2  -3   4  988.39   22.45
  -2  -3   4  975.42   22.32
  -2  -3   5  363.49   10.09
  -2  -3   5  371.35   10.17
  -2  -3   5  361.41    9.99
  -2  -3   5  365.64   10.46
  -2  -3   6   24.60    2.13
  -2  -3   6   24.99    2.16
  -2  -3   6   25.72    2.11
  -2  -3   6   27.17    2.37
  -2  -3   7  444.42   12.60
  -2  -3   7  477.30   13.01
  -2  -3   7  464.63   12.71
  -2  -3   7  466.90   13.40
  -2  -3   8  286.25    9.02
  -2  -3   9   98.71    4.57
  -2  -3  10   33.52    2.43
  -2  -3  11  245.38    7.12
  -2  -3  11  240.14    7.91
  -2  -3  12  184.96    5.85
  -2  -2  -5  207.31    5.17
  -2  -2  -4    9.20    0.66
  -2  -2  -4    7.38    0.78
  -2  -2  -3  400.88    8.99
  -2  -2  -3  404.14    9.19
  -2  -2  -2  373.44    8.44
  -2  -2  -2  366.98    8.53
  -2  -2  -1 3974.50   81.07
  -2  -2  -1 4025.66   81.30
  -2  -2  -1 3981.77   81.33
  -2  -2   0 9999.00  201.88
  -2  -2   1 1655.97   34.01
  -2  -2   1 1597.43   33.85
  -2  -2   1 1637.76   34.19
  -2  -2   2  522.26   11.81
  -2  -2   2  520.80   11.70
  -2  -2   2  509.37   11.45
  -2  -2   2  504.41   11.84
  -2  -2   3    7.71    1.00
  -2  -2   3    5.37    0.89
  -2  -2   3    5.71    0.73
  -2  -2   4    1.18    0.72
  -2  -2   4    1.37    0.70
  -2  -2   4    1.30    0.54
  -2  -2   5  954.60   21.70
  -2  -2   5  974.41   20.63
  -2  -2   5  979.95   21.88
  -2  -2   6  544.38   13.51
  -2  -2   6  557.90   13.64
  -2  -2   6  549.76   13.93
  -2  -2   7    4.61    1.06
  -2  -2   7    5.85    1.00
  -2  -2   7    6.99    1.29
  -2  -2   7    7.77    1.40
  -2  -2   7    5.32    0.99
  -2  -2   8  628.44   16.21
  -2  -2   8  622.73   15.93
  -2  -2   8  589.60   15.00
  -2  -2   8  631.57   16.54
  -2  -2   8  600.15   15.15
  -2  -2   9   59.81    3.85
  -2  -2   9   63.75    3.57
  -2  -2   9   56.21    3.59
  -2  -2   9   50.96    3.04
  -2  -2  10  247.29    7.86
  -2  -2  10  244.15    8.47
  -2  -2  11   17.10    1.72
  -2  -2  11   14.82    1.88
  -2  -2  12  228.96    7.24
  -2  -2  13  111.17    3.80
  -2  -1  -5  752.78   16.04
  -2  -1  -2  819.95   16.93
  -2  -1  -1 2503.89   51.02
  -2  -1   0 5405.72  109.50
  -2  -1   2  351.03    8.37
  -2  -1   2  354.30    7.76
  -2  -1   2  347.28    8.22
  -2  -1   3  646.58   14.26
  -2  -1   3  689.63   15.01
  -2  -1   3  674.37   14.64
  -2  -1   4   78.18    2.60
  -2  -1   4   79.86    2.71
  -2  -1   4   83.49    2.51
  -2  -1   5  565.87   13.07
  -2  -1   5  536.33   11.74
  -2  -1   6  490.76   12.18
  -2  -1   7  181.46    6.19
  -2  -1   7  166.85    5.57
  -2  -1   7  162.29    5.64
  -2  -1   7  164.41    5.58
  -2  -1   8  223.72    7.00
  -2  -1   8  231.06    7.48
  -2  -1   8  223.32    7.15
  -2  -1   8  237.11    7.80
  -2  -1   8  216.78    7.16
  -2  -1   9  290.80    9.27
  -2  -1   9  286.60    8.62
  -2  -1   9  293.36    9.00
  -2  -1   9  304.96    9.60
  -2  -1   9  291.85    9.10
  -2  -1  10   61.92    3.63
  -2  -1  10   61.26    3.45
  -2  -1  10   60.24    3.49
  -2  -1  10   60.36    3.70
  -2  -1  11  149.24    6.13
  -2  -1  11  145.31    5.59
  -2  -1  11  142.18    5.35
  -2  -1  11  137.75    5.71
  -2  -1  11  139.94    5.52
  -2  -1  12   86.15    4.21
  -2  -1  12   87.49    3.64
  -2  -1  12   81.97    3.67
  -2  -1  12   83.18    3.88
  -2  -1  13  180.16    5.58
  -2  -1  13  201.99    6.21
  -2   0   4  356.86    8.45
  -2   0   5   47.98    1.94
  -2   0   5   50.42    2.49
  -2   0   6 1030.11   23.23
  -2   0   7  262.48    7.61
  -2   0   7  254.15    7.91
  -2   0   7  247.14    7.65
  -2   0   7  253.79    7.73
  -2   0   8  293.55    8.48
  -2   0   8  286.06    8.96
  -2   0   8  294.89    8.89
  -2   0   8  289.96    8.87
  -2   0   9   40.30    2.81
  -2   0   9   43.40    2.98
  -2   0   9   42.48    2.92
  -2   0  10  212.20    7.23
  -2   0  10  202.91    7.24
  -2   0  10  201.01    7.37
  -2   0  11  238.85    7.98
  -2   0  11  242.52    8.29
  -2   0  11  222.80    7.27
  -2   0  11  234.72    7.78
  -2   0  11  249.22    8.16
  -2   0  12    3.76    1.01
  -2   0  12    1.76    0.90
  -2   0  12    0.52    0.92
  -2   0  12    1.04    0.82
  -2   0  13  134.73    4.55
  -2   0  13  134.54    4.15
  -2   0  14  116.82    3.83
  -2   1   7  271.19    8.88
  -2   1   7  278.06    8.30
  -2   1   8  159.06    5.71
  -2   1   8  155.32    6.35
  -2   1   8  146.88    5.48
  -2   1   8  156.08    6.06
  -2   1   9    1.14    1.15
  -2   1   9    1.76    0.88
  -2   1   9    1.93    1.11
  -2   1  10   30.46    2.68
  -2   1  10   25.32    2.52
  -2   1  11  178.38    6.65
  -2   1  11  178.13    6.89
  -2   1  12   42.12    2.72
  -2   1  12   43.50    2.99
  -2   1  12   37.50    2.43
  -2   1  12   46.22    3.01
  -2   1  13   25.19    1.91
  -2   1  13   25.02    1.98
  -2   1  14   38.55    2.00
  -2   2   9  376.13   12.08
  -2   2  10  186.87    7.53
  -2   2  11   88.92    4.59
  -2   2  11   88.10    4.56
  -2   2  12  334.07    9.81
  -2   2  12  311.51    9.31
  -2   2  13   36.31    2.18
  -2   2  13   37.65    2.23
  -2   2  14   11.48    0.98
  -2   3   9  412.15   12.45
  -2   3  10  111.29    5.56
  -2   3  10  106.18    5.18
  -2   3  11   15.05    1.87
  -2   3  11   17.90    2.08
  -2   3  12   43.03    2.70
  -2   3  12   43.81    2.76
  -2   3  13   93.43    3.50
  -2   3  13   77.34    2.97
  -2   4   9   34.20    3.05
  -2   4   9   27.54    2.62
  -2   4  10  282.44    9.00
  -2   4  11   31.40    2.28
  -2   4  11   35.15    2.46
  -2   4  12   18.60    1.65
  -2   4  12   18.53    1.57
  -2   4  12   21.16    1.68
  -2   4  13  180.46    4.85
  -2   5   8   69.24    3.98
  -2   5   9    2.56    1.04
  -2   5   9    3.00    1.06
  -2   5  10   22.18    1.89
  -2   5  10   20.65    1.52
  -2   5  10   24.58    2.02
  -2   5  11  122.25    4.17
  -2   5  11  126.56    4.05
  -2   6   6    5.03    1.05
  -2   6   7    8.85    1.28
  -2   6   8   74.61    3.30
  -2   6   8   77.08    3.22
  -2   6   9   24.31    1.55
  -2   6   9   23.83    1.65
  -1  -8  -9   35.65    1.94
  -1  -8  -8   40.78    2.44
  -1  -8  -7   97.28    3.48
  -1  -8  -7  103.55    4.25
  -1  -8  -6   28.62    2.02
  -1  -8  -5    0.21    0.87
  -1  -8  -5    0.42    1.10
  -1  -8  -4   27.40    2.20
  -1  -8  -4   24.82    2.30
  -1  -8  -4   27.07    2.10
  -1  -8  -3   65.50    3.33
  -1  -8  -3   62.12    3.32
  -1  -8  -3   56.88    3.02
  -1  -8  -2   13.24    1.52
  -1  -8  -2   14.11    1.59
  -1  -8  -1   81.54    3.57
  -1  -8  -1   67.60    3.13
  -1  -8   0   38.68    2.19
  -1  -8   0    0.10    0.40
  -1  -8   1   81.26    3.17
  -1  -8   2   21.80    1.65
  -1  -8   3   41.27    1.98
  -1  -7 -11    1.49    0.66
  -1  -7 -10   43.04    2.55
  -1  -7 -10   52.10    2.64
  -1  -7  -9   94.12    4.06
  -1  -7  -9   96.49    4.41
  -1  -7  -8   10.95    1.94
  -1  -7  -8   11.95    1.72
  -1  -7  -7    8.39    1.57
  -1  -7  -7   10.38    1.48
  -1  -7  -7    7.91    1.91
  -1  -7  -6  320.53    9.67
  -1  -7  -6  308.67    9.33
  -1  -7  -6  289.16    9.30
  -1  -7  -6  307.68   10.11
  -1  -7  -5   42.78    3.16
  -1  -7  -5   40.85    3.01
  -1  -7  -5   40.76    2.97
  -1  -7  -4   35.07    2.95
  -1  -7  -4   32.63    2.99
  -1  -7  -4   36.88    2.89
  -1  -7  -3  335.77   10.37
  -1  -7  -3  340.59   10.68
  -1  -7  -3  330.66   10.57
  -1  -7  -2  396.10   11.58
  -1  -7  -2  379.97   11.47
  -1  -7  -1    1.25    1.25
  -1  -7  -1    1.98    1.15
  -1  -7  -1    2.45    1.46
  -1  -7  -1    1.41    1.24
  -1  -7  -1    1.13    1.29
  -1  -7   0  124.06    5.41
  -1  -7   0  121.02    5.46
  -1  -7   0  117.58    5.15
  -1  -7   0  118.82    5.22
  -1  -7   1   53.76    3.43
  -1  -7   1   52.66    3.20
  -1  -7   1   50.85    3.26
  -1  -7   1   61.00    3.56
  -1  -7   2  218.83    7.11
  -1  -7   2  214.19    7.16
  -1  -7   3    3.69    1.01
  -1  -7   3    4.09    1.26
  -1  -7   4   -0.10    0.33
  -1  -7   4   39.50    2.40
  -1  -7   5   94.32    3.73
  -1  -7   6   59.25    2.52
  -1  -6 -12  102.20    3.83
  -1  -6 -11   15.48    1.76
  -1  -6 -10   93.58    4.38
  -1  -6  -9  181.99    6.94
  -1  -6  -8   49.50    3.56
  -1  -6  -7   44.74    2.95
  -1  -6  -7   49.05    3.33
  -1  -6  -7   38.56    2.83
  -1  -6  -7   44.29    3.43
  -1  -6  -6    1.07    1.09
  -1  -6  -6    1.97    1.25
  -1  -6  -6    1.65    1.22
  -1  -6  -6    4.75    1.65
  -1  -6  -6    2.70    1.36
  -1  -6  -5  830.91   21.08
  -1  -6  -5  873.12   21.24
  -1  -6  -5  856.08   21.29
  -1  -6  -5  881.49   21.47
  -1  -6  -4   67.38    3.85
  -1  -6  -4   65.09    3.79
  -1  -6  -4   69.02    3.93
  -1  -6  -4   68.85    3.95
  -1  -6  -4   74.79    4.31
  -1  -6  -3   57.19    3.57
  -1  -6  -3   64.96    3.78
  -1  -6  -3   65.72    3.76
  -1  -6  -3   66.32    3.92
  -1  -6  -3   70.03    3.98
  -1  -6  -3   62.86    3.89
  -1  -6  -2  192.51    7.04
  -1  -6  -2  191.89    7.17
  -1  -6  -2  193.37    7.08
  -1  -6  -2  192.17    7.16
  -1  -6  -2  202.90    7.27
  -1  -6  -2  193.88    7.07
  -1  -6  -1  459.03   12.93
  -1  -6  -1  469.18   13.12
  -1  -6  -1  465.41   12.97
  -1  -6  -1  453.59   12.83
  -1  -6   0   28.73    2.62
  -1  -6   0   31.33    2.56
  -1  -6   0   33.77    2.69
  -1  -6   0   33.12    2.98
  -1  -6   0   36.44    2.97
  -1  -6   0   34.96    2.89
  -1  -6   0   34.66    2.98
  -1  -6   1   43.57    3.14
  -1  -6   1   46.81    3.18
  -1  -6   1   44.09    3.43
  -1  -6   1   49.04    3.37
  -1  -6   1   44.80    3.20
  -1  -6   1   47.28    3.48
  -1  -6   1   42.57    3.23
  -1  -6   2  303.98    9.56
  -1  -6   2  311.70    9.90
  -1  -6   2  327.16   10.54
  -1  -6   2  319.83    9.70
  -1  -6   2  311.84    9.80
  -1  -6   2  310.99    9.99
  -1  -6   2  333.14   10.57
  -1  -6   3  170.66    6.56
  -1  -6   3  161.50    6.61
  -1  -6   3  159.83    5.88
  -1  -6   3  158.35    6.27
  -1  -6   3  149.10    5.93
  -1  -6   4  190.50    7.26
  -1  -6   4  191.17    6.80
  -1  -6   5    7.48    1.54
  -1  -6   5    6.62    1.32
  -1  -6   6  116.00    4.56
  -1  -6   6  185.23    5.98
  -1  -6   7   49.27    2.68
  -1  -6   7   60.25    3.02
  -1  -6   8   20.93    1.58
  -1  -5 -10    0.84    1.17
  -1  -5  -9   35.56    2.97
  -1  -5  -8  267.00    8.77
  -1  -5  -8  239.98    7.75
  -1  -5  -7  121.72    5.48
  -1  -5  -7  118.62    4.67
  -1  -5  -6   22.97    2.16
  -1  -5  -6   22.66    2.15
  -1  -5  -6   23.63    1.86
  -1  -5  -6   24.73    2.18
  -1  -5  -6   24.90    2.50
  -1  -5  -5  290.86    8.85
  -1  -5  -5  288.92    8.78
  -1  -5  -5  299.02    9.34
  -1  -5  -5  289.00    7.96
  -1  -5  -5  294.17    8.89
  -1  -5  -4  940.85   22.51
  -1  -5  -4 1026.04   23.38
  -1  -5  -4 1034.26   23.41
  -1  -5  -4 1002.02   23.26
  -1  -5  -4  968.74   23.07
  -1  -5  -3    0.16    0.93
  -1  -5  -3    0.99    0.95
  -1  -5  -3    0.59    0.93
  -1  -5  -3    0.89    1.09
  -1  -5  -3    0.25    0.83
  -1  -5  -3    1.33    1.11
  -1  -5  -2  121.77    4.93
  -1  -5  -2  130.99    5.03
  -1  -5  -2  122.07    4.92
  -1  -5  -2  128.01    5.12
  -1  -5  -2  122.83    5.01
  -1  -5  -2  123.85    5.00
  -1  -5  -1  179.09    6.27
  -1  -5  -1  184.81    6.28
  -1  -5  -1  184.39    6.44
  -1  -5  -1  183.90    6.58
  -1  -5   0  329.73    9.80
  -1  -5   0  340.44    9.89
  -1  -5   0  354.72   10.07
  -1  -5   0  345.12    9.71
  -1  -5   0  346.68   10.07
  -1  -5   0  343.65    9.96
  -1  -5   0  358.86   10.42
  -1  -5   1    9.86    1.61
  -1  -5   1   10.30    1.68
  -1  -5   1    8.40    1.55
  -1  -5   1   10.75    1.65
  -1  -5   1    9.75    1.54
  -1  -5   1    7.91    1.39
  -1  -5   2  486.58   12.89
  -1  -5   2  478.64   13.21
  -1  -5   2  459.93   12.24
  -1  -5   2  498.07   12.95
  -1  -5   2  489.15   13.41
  -1  -5   2  499.47   13.04
  -1  -5   3  544.28   14.07
  -1  -5   3  591.46   15.30
  -1  -5   3  556.97   14.35
  -1  -5   3  576.18   14.63
  -1  -5   3  539.57   14.26
  -1  -5   3  560.20   14.91
  -1  -5   3  587.70   15.58
  -1  -5   4   71.98    3.62
  -1  -5   4   78.16    4.24
  -1  -5   4   75.61    4.01
  -1  -5   4   75.70    4.33
  -1  -5   5  105.10    4.44
  -1  -5   5  103.97    4.44
  -1  -5   5  110.38    5.06
  -1  -5   5   96.86    4.65
  -1  -5   5  103.16    5.17
  -1  -5   6    3.53    1.28
  -1  -5   6    3.59    1.23
  -1  -5   6    4.20    1.08
  -1  -5   6    4.75    1.35
  -1  -5   6    3.68    1.04
  -1  -5   7  400.18   10.83
  -1  -5   7  423.88   11.81
  -1  -5   7  414.91   11.31
  -1  -5   8   65.92    3.34
  -1  -5   8   67.00    3.28
  -1  -5   9   31.59    1.99
  -1  -5  10  173.00    4.70
  -1  -4 -10   40.54    3.10
  -1  -4  -8  355.03   10.45
  -1  -4  -7  349.42   10.07
  -1  -4  -7  334.59    9.67
  -1  -4  -6  313.10    8.74
  -1  -4  -6  310.78    9.25
  -1  -4  -6  316.39    8.79
  -1  -4  -5   35.46    2.36
  -1  -4  -5   43.42    2.72
  -1  -4  -5   42.53    2.48
  -1  -4  -5   42.68    2.28
  -1  -4  -4  396.84   10.32
  -1  -4  -4  388.19   10.15
  -1  -4  -4  375.20   10.23
  -1  -4  -4  400.71    9.63
  -1  -4  -3  934.77   21.40
  -1  -4  -3  944.63   21.33
  -1  -4  -3  936.71   20.37
  -1  -4  -2  218.11    6.56
  -1  -4  -2  217.16    5.56
  -1  -4  -2  217.71    6.53
  -1  -4  -1  271.73    6.70
  -1  -4  -1  303.45    8.23
  -1  -4   0 1001.83   23.11
  -1  -4   0 1054.65   23.22
  -1  -4   1  479.74   12.21
  -1  -4   1  457.78   11.96
  -1  -4   2   34.71    2.45
  -1  -4   2   36.49    2.25
  -1  -4   2   33.53    2.17
  -1  -4   2   35.42    2.29
  -1  -4   2   33.51    2.14
  -1  -4   3  617.39   15.65
  -1  -4   3  626.49   15.45
  -1  -4   3  613.83   14.69
  -1  -4   3  602.91   15.19
  -1  -4   3  601.80   14.68
  -1  -4   3  609.66   14.82
  -1  -4   4  365.46   10.68
  -1  -4   4  374.21   10.58
  -1  -4   4  395.19   10.36
  -1  -4   4  370.35   10.29
  -1  -4   4  348.96   10.12
  -1  -4   4  345.79    9.33
  -1  -4   5   35.99    2.79
  -1  -4   5   34.04    2.59
  -1  -4   5   36.57    2.70
  -1  -4   5   34.42    2.53
  -1  -4   5   33.47    2.54
  -1  -4   6   83.57    4.44
  -1  -4   6   80.83    4.06
  -1  -4   6   83.00    4.13
  -1  -4   6   92.52    4.53
  -1  -4   6   83.22    4.37
  -1  -4   7   97.45    5.00
  -1  -4   7  108.12    5.13
  -1  -4   7  106.37    4.75
  -1  -4   7  104.64    4.69
  -1  -4   7  116.43    5.27
  -1  -4   8   21.91    2.31
  -1  -4   8   23.55    2.16
  -1  -4   8   23.00    2.34
  -1  -4   9    0.40    0.97
  -1  -4   9    0.49    0.93
  -1  -4   9    0.61    0.78
  -1  -4  10   99.28    4.32
  -1  -4  11  186.82    5.69
  -1  -3  -6   95.72    3.23
  -1  -3  -5  438.61   10.60
  -1  -3  -5  437.40   10.45
  -1  -3  -4   66.90    2.69
  -1  -3  -4   70.87    2.79
  -1  -3  -3  386.66    9.52
  -1  -3  -3  391.29    9.45
  -1  -3  -2  576.06   13.30
  -1  -3  -2  564.15   13.35
  -1  -3  -2  593.79   12.65
  -1  -3  -1   32.48    1.82
  -1  -3  -1   32.83    1.83
  -1  -3  -1   35.09    1.27
  -1  -3   0  812.26   17.02
  -1  -3   1  419.62   10.26
  -1  -3   1  411.26    9.87
  -1  -3   1  398.93    9.90
  -1  -3   2  203.48    6.09
  -1  -3   2  207.64    5.64
  -1  -3   2  201.71    5.76
  -1  -3   3   67.15    3.10
  -1  -3   3   68.19    2.61
  -1  -3   3   67.16    2.77
  -1  -3   4  968.81   21.81
  -1  -3   4  963.35   21.68
  -1  -3   4  935.00   21.39
  -1  -3   4  923.30   20.79
  -1  -3   5  336.23    9.62
  -1  -3   5  333.03    9.28
  -1  -3   5  341.54    9.60
  -1  -3   5  346.98   10.00
  -1  -3   6   12.41    1.67
  -1  -3   6   11.52    1.52
  -1  -3   6   11.06    1.53
  -1  -3   6   12.47    1.50
  -1  -3   6   12.12    1.75
  -1  -3   7  272.71    9.02
  -1  -3   7  242.82    8.29
  -1  -3   7  252.37    8.04
  -1  -3   7  253.55    8.37
  -1  -3   7  251.99    7.97
  -1  -3   8  774.36   20.33
  -1  -3   8  831.12   20.65
  -1  -3   8  802.02   19.75
  -1  -3   8  862.09   21.31
  -1  -3   9    3.80    1.27
  -1  -3   9    5.73    1.45
  -1  -3   9    5.77    1.19
  -1  -3  10   18.18    1.71
  -1  -3  10   19.79    2.12
  -1  -3  11  192.48    6.60
  -1  -3  12  159.39    5.09
  -1  -3  12  150.00    5.08
  -1  -2  -5  120.69    3.36
  -1  -2  -4  544.14   12.11
  -1  -2  -4  560.48   12.20
  -1  -2  -3  793.68   16.76
  -1  -2  -3  766.62   16.63
  -1  -2  -2 3075.51   63.15
  -1  -2  -2 3123.36   63.28
  -1  -2  -1 1146.32   23.84
  -1  -2  -1 1175.25   23.96
  -1  -2  -1 1124.08   23.32
  -1  -2   0   20.16    1.29
  -1  -2   1  563.44   12.62
  -1  -2   1  559.20   12.22
  -1  -2   1  558.95   12.24
  -1  -2   2  623.69   13.63
  -1  -2   2  629.31   13.59
  -1  -2   3  514.49   11.45
  -1  -2   3  509.40   11.26
  -1  -2   4  144.69    4.59
  -1  -2   4  145.87    3.98
  -1  -2   5 1680.88   36.15
  -1  -2   6    4.69    1.03
  -1  -2   6    7.02    1.08
  -1  -2   6    4.77    1.03
  -1  -2   6    3.76    0.85
  -1  -2   7   18.82    1.85
  -1  -2   7   19.08    1.95
  -1  -2   7   18.15    1.75
  -1  -2   7   14.79    1.57
  -1  -2   8  128.55    5.49
  -1  -2   8  138.63    5.94
  -1  -2   8  122.87    4.94
  -1  -2   8  127.58    5.08
  -1  -2   9  572.24   15.51
  -1  -2   9  550.45   14.47
  -1  -2   9  591.67   16.00
  -1  -2   9  550.79   14.73
  -1  -2  10   34.25    2.82
  -1  -2  10   31.66    2.32
  -1  -2  10   34.09    2.93
  -1  -2  11    1.00    1.00
  -1  -2  11    1.78    1.19
  -1  -2  12  206.43    6.78
  -1  -2  12  203.44    6.77
  -1  -2  13   94.44    3.50
  -1  -2  13   88.96    3.37
  -1  -1  -4 1434.25   29.27
  -1  -1  -3    9.04    0.46
  -1  -1  -3    9.68    0.59
  -1  -1  -2  155.94    3.69
  -1  -1  -2  157.67    3.58
  -1  -1  -1  108.36    2.51
  -1  -1  -1  109.33    2.67
  -1  -1  -1  108.23    2.72
  -1  -1   0  133.85    3.32
  -1  -1   1  285.89    6.34
  -1  -1   1  282.88    6.31
  -1  -1   1  278.29    6.25
  -1  -1   1  273.64    6.16
  -1  -1   2  164.41    4.03
  -1  -1   2  164.22    4.07
  -1  -1   2  160.87    3.93
  -1  -1   2  155.35    3.74
  -1  -1   3 1339.80   27.81
  -1  -1   3 1361.48   27.91
  -1  -1   3 1315.65   27.29
  -1  -1   4   41.37    1.25
  -1  -1   4   35.81    1.69
  -1  -1   4   38.28    1.74
  -1  -1   5  922.98   20.38
  -1  -1   5  939.42   20.35
  -1  -1   6 1640.84   35.39
  -1  -1   6 1669.22   35.17
  -1  -1   7   72.97    3.27
  -1  -1   7   73.07    3.36
  -1  -1   8    0.29    0.84
  -1  -1   8    0.68    0.76
  -1  -1   8    1.19    0.80
  -1  -1   8   -0.08    0.75
  -1  -1   9  363.14   10.69
  -1  -1   9  376.36   10.74
  -1  -1   9  406.36   11.65
  -1  -1   9  388.89   11.09
  -1  -1  10  492.94   13.07
  -1  -1  10  489.88   13.93
  -1  -1  10  500.47   13.67
  -1  -1  11   16.94    2.10
  -1  -1  11   16.65    2.03
  -1  -1  11   15.87    1.93
  -1  -1  12   95.78    4.47
  -1  -1  12   83.26    4.01
  -1  -1  13  198.06    6.24
  -1  -1  13  232.16    6.87
  -1  -1  14   70.85    2.68
  -1   0   2 1148.18   23.37
  -1   0   2 1161.07   24.00
  -1   0   3 2750.58   56.27
  -1   0   3 2805.90   56.85
  -1   0   4  364.61    8.31
  -1   0   4  339.62    7.61
  -1   0   4  351.40    8.50
  -1   0   5   69.92    2.61
  -1   0   5   73.80    2.98
  -1   0   6  115.15    3.76
  -1   0   7  863.73   19.66
  -1   0   7  893.67   19.60
  -1   0   7  868.13   20.31
  -1   0   8  651.96   15.82
  -1   0   8  590.41   14.85
  -1   0   8  630.73   15.32
  -1   0   8  628.88   15.70
  -1   0   9  239.82    7.98
  -1   0   9  241.84    8.03
  -1   0  10  176.17    6.67
  -1   0  10  183.59    6.52
  -1   0  10  187.94    6.96
  -1   0  11  325.01    9.49
  -1   0  11  311.84    9.79
  -1   0  11  345.10   10.41
  -1   0  12   21.56    1.93
  -1   0  12   23.48    2.06
  -1   0  12   26.21    2.39
  -1   0  13   16.91    1.83
  -1   0  13   14.44    1.38
  -1   0  13   16.68    1.73
  -1   0  14  270.56    7.39
  -1   1   1 1424.17   29.16
  -1   1   2  192.17    4.74
  -1   1   3  289.19    7.07
  -1   1   4 1047.53   22.80
  -1   1   5    1.00    0.35
  -1   1   5    1.44    0.95
  -1   1   6  166.56    5.60
  -1   1   7  596.68   13.93
  -1   1   7  583.21   14.82
  -1   1   7  564.98   14.54
  -1   1   8  906.09   21.04
  -1   1   8  951.76   22.68
  -1   1   8  941.82   21.69
  -1   1   8  961.92   22.40
  -1   1   9  185.28    6.65
  -1   1   9  176.46    6.92
  -1   1   9  170.52    6.07
  -1   1   9  175.72    6.67
  -1   1  10  836.50   20.36
  -1   1  10  778.59   19.72
  -1   1  10  816.08   19.58
  -1   1  11   74.75    3.74
  -1   1  11   73.79    3.65
  -1   1  11   84.72    4.49
  -1   1  12  232.37    8.05
  -1   1  13   20.25    1.81
  -1   1  13   22.55    2.07
  -1   1  14   10.03    1.23
  -1   1  14   10.00    1.21
  -1   2   2  185.59    4.64
  -1   2   3  141.82    4.08
  -1   2   4  344.22    8.66
  -1   2   5  753.82   17.42
  -1   2   6   68.59    3.30
  -1   2   7    4.19    1.26
  -1   2   8  640.32   15.77
  -1   2   8  604.23   15.67
  -1   2   9  889.15   21.65
  -1   2   9  825.99   21.35
  -1   2  10  215.56    8.02
  -1   2  11   97.37    4.80
  -1   2  11  101.68    4.42
  -1   2  12  193.15    6.45
  -1   2  13  100.80    4.30
  -1   2  14    0.09    0.47
  -1   2  14   -0.22    0.66
  -1   3   3  703.63   15.46
  -1   3   4   99.89    3.46
  -1   3   5  588.41   14.06
  -1   3   6  755.13   17.91
  -1   3   7  103.24    4.39
  -1   3   8   54.76    3.29
  -1   3   9   93.82    4.64
  -1   3   9   95.00    4.89
  -1   3  10  207.57    7.82
  -1   3  11   11.22    1.84
  -1   3  11   13.57    2.00
  -1   3  12   28.35    2.33
  -1   3  12   23.43    1.97
  -1   3  13   -0.05    0.30
  -1   3  13  223.05    5.36
  -1   3  14   22.66    1.49
  -1   3  14   24.58    1.60
  -1   4   9   57.41    3.72
  -1   4  10  303.19    9.76
  -1   4  11  135.88    5.83
  -1   4  11  141.49    5.67
  -1   4  12    0.63    0.82
  -1   4  12    1.63    0.86
  -1   4  12    1.09    0.93
  -1   4  13   89.20    3.34
  -1   4  13   83.00    3.32
  -1   5   9   12.40    1.81
  -1   5  10   34.65    2.56
  -1   5  11  109.42    4.68
  -1   5  11  109.35    4.33
  -1   5  12   41.30    2.16
  -1   5  12   41.41    2.29
  -1   5  12   41.67    2.18
  -1   5  12   37.09    2.00
  -1   6   8  149.36    5.39
  -1   6   9   57.05    3.33
  -1   6   9   56.03    2.85
  -1   6  10    7.08    1.25
  -1   6  10    6.30    0.98
  -1   6  11   61.32    2.69
  -1   7   7    4.44    0.88
  -1   7   8   18.15    1.41
   0  -8  -7    2.55    0.71
   0  -8  -6   85.71    3.13
   0  -8  -6   91.24    3.40
   0  -8  -5    0.72    0.74
   0  -8  -5    0.87    0.84
   0  -8  -5    0.68    0.71
   0  -8  -4   23.15    1.78
   0  -8  -4   20.61    1.76
   0  -8  -4   25.57    1.85
   0  -8  -3   65.41    2.84
   0  -8  -3   74.82    3.01
   0  -8  -2   45.26    2.39
   0  -8  -2   40.25    2.26
   0  -8  -1    0.39    0.63
   0  -8  -1    0.10    0.68
   0  -8   0   22.93    1.49
   0  -8   0   22.73    1.46
   0  -7 -10   28.40    1.78
   0  -7  -9   46.23    2.76
   0  -7  -8   21.95    2.01
   0  -7  -8   25.11    2.38
   0  -7  -7   25.44    1.99
   0  -7  -7   32.80    2.49
   0  -7  -7   31.91    2.76
   0  -7  -6  193.12    6.56
   0  -7  -6  204.99    7.02
   0  -7  -5   99.58    4.45
   0  -7  -5   93.82    4.90
   0  -7  -4    9.17    1.64
   0  -7  -4    8.80    1.96
   0  -7  -3   37.05    2.68
   0  -7  -3   35.23    2.88
   0  -7  -2   88.48    4.05
   0  -7  -2   98.32    4.38
   0  -7  -1  348.77    9.95
   0  -7  -1  341.39   10.29
   0  -7   0   45.12    2.88
   0  -7   0   44.71    3.09
   0  -7   0   45.15    2.90
   0  -7   1  101.58    4.23
   0  -7   1   99.72    4.50
   0  -7   1  100.30    4.31
   0  -7   2   55.24    3.14
   0  -7   2   54.50    2.77
   0  -7   2   57.86    3.00
   0  -7   3    2.72    0.94
   0  -7   3    1.63    0.88
   0  -7   4   50.07    2.40
   0  -7   4   55.85    2.54
   0  -6 -12  162.43    4.86
   0  -6 -11   46.02    2.58
   0  -6 -10   52.54    3.13
   0  -6  -9   30.45    2.73
   0  -6  -8  343.38   10.96
   0  -6  -7   50.21    3.06
   0  -6  -7   55.65    3.92
   0  -6  -6   97.30    4.71
   0  -6  -6  111.43    4.83
   0  -6  -6  113.52    5.29
   0  -6  -6  115.50    5.67
   0  -6  -5  410.17   11.54
   0  -6  -5  422.55   11.96
   0  -6  -5  431.47   12.53
   0  -6  -5  418.69   12.28
   0  -6  -5  406.64   11.89
   0  -6  -4   16.19    1.94
   0  -6  -4   20.81    2.19
   0  -6  -4   18.50    2.28
   0  -6  -4   16.30    2.21
   0  -6  -4   17.48    2.06
   0  -6  -4   16.93    2.47
   0  -6  -3   59.13    3.44
   0  -6  -3   68.15    3.85
   0  -6  -3   66.75    4.01
   0  -6  -3   67.15    4.07
   0  -6  -3   62.37    3.68
   0  -6  -3   66.47    4.14
   0  -6  -2    6.58    1.37
   0  -6  -2    6.61    1.79
   0  -6  -2    7.31    1.73
   0  -6  -2    6.95    1.59
   0  -6  -1   42.39    3.01
   0  -6  -1   38.74    2.78
   0  -6  -1   45.63    3.11
   0  -6  -1   44.03    3.29
   0  -6  -1   48.70    3.33
   0  -6   0  326.53    9.81
   0  -6   0  354.26   10.45
   0  -6   0  368.43   11.34
   0  -6   0  339.06   10.79
   0  -6   0  334.56   10.29
   0  -6   0  324.70   10.19
   0  -6   0  369.73   10.70
   0  -6   0  343.79   10.63
   0  -6   1  277.53    8.57
   0  -6   1  290.42    8.98
   0  -6   1  302.99    9.84
   0  -6   1  260.06    9.12
   0  -6   1  291.99    9.19
   0  -6   1  269.38    8.84
   0  -6   1  290.93    9.46
   0  -6   2  190.73    6.62
   0  -6   2  196.94    6.85
   0  -6   2  210.29    7.75
   0  -6   2  201.06    7.16
   0  -6   2  196.39    7.48
   0  -6   3   80.22    3.85
   0  -6   3   82.22    3.84
   0  -6   3   89.92    4.61
   0  -6   3   93.14    4.42
   0  -6   4    4.40    1.09
   0  -6   4    4.34    1.38
   0  -6   4    3.10    1.23
   0  -6   5   81.64    3.54
   0  -6   5   86.51    3.53
   0  -6   6  251.14    7.46
   0  -6   6  270.03    7.60
   0  -6   7   57.72    2.55
   0  -5 -13    2.54    0.81
   0  -5 -10   71.70    4.01
   0  -5  -9   78.60    4.46
   0  -5  -8   75.23    4.44
   0  -5  -8   69.01    3.77
   0  -5  -7  398.65   11.07
   0  -5  -7  391.63   11.23
   0  -5  -6   10.46    1.56
   0  -5  -6   10.03    1.68
   0  -5  -6   10.93    1.57
   0  -5  -6   10.44    2.07
   0  -5  -6   11.48    1.51
   0  -5  -5  236.80    7.66
   0  -5  -5  230.95    7.58
   0  -5  -5  229.98    7.57
   0  -5  -5  245.86    8.20
   0  -5  -5  228.20    8.25
   0  -5  -5  227.94    7.81
   0  -5  -5  228.95    7.22
   0  -5  -4  261.84    8.32
   0  -5  -4  280.96    8.57
   0  -5  -4  283.61    8.62
   0  -5  -4  283.22    8.99
   0  -5  -4  269.54    8.75
   0  -5  -4  278.66    8.06
   0  -5  -3   26.61    2.22
   0  -5  -3   27.00    2.27
   0  -5  -3   31.44    2.41
   0  -5  -3   36.15    2.73
   0  -5  -3   30.12    2.51
   0  -5  -3   31.96    2.69
   0  -5  -3   27.34    1.99
   0  -5  -3   27.65    2.45
   0  -5  -3   24.59    2.28
   0  -5  -2   57.12    3.12
   0  -5  -2   59.19    3.29
   0  -5  -2   60.81    3.34
   0  -5  -2   63.05    3.57
   0  -5  -2   60.11    3.52
   0  -5  -2   59.25    3.51
   0  -5  -2   53.34    2.80
   0  -5  -2   58.09    3.35
   0  -5  -2   58.08    3.38
   0  -5  -1  391.12   10.85
   0  -5  -1  395.80   11.32
   0  -5  -1  402.44   11.26
   0  -5  -1  400.72   11.29
   0  -5   0  268.49    8.36
   0  -5   0  282.81    8.59
   0  -5   0  278.14    8.59
   0  -5   0  284.15    9.21
   0  -5   0  278.76    8.88
   0  -5   0  272.98    8.65
   0  -5   0  287.79    8.86
   0  -5   0  279.40    8.91
   0  -5   1   55.24    3.27
   0  -5   1   58.66    3.31
   0  -5   1   62.74    3.39
   0  -5   1   59.42    3.72
   0  -5   1   53.40    3.45
   0  -5   1   63.78    3.94
   0  -5   1   58.05    3.47
   0  -5   1   61.46    3.65
   0  -5   2  116.37    4.97
   0  -5   2  119.63    4.94
   0  -5   2  125.02    5.53
   0  -5   2  119.15    5.28
   0  -5   2  125.13    5.70
   0  -5   2  120.58    4.96
   0  -5   2  124.23    5.55
   0  -5   3  369.36   10.55
   0  -5   3  357.80   10.22
   0  -5   3  362.02   11.14
   0  -5   3  362.96   11.28
   0  -5   3  357.91   10.66
   0  -5   3  351.50   10.19
   0  -5   3  376.92   11.41
   0  -5   4   74.61    3.91
   0  -5   4   82.37    4.38
   0  -5   4   78.09    4.44
   0  -5   4   81.67    4.57
   0  -5   5   46.86    3.05
   0  -5   5   48.72    3.27
   0  -5   5   45.69    3.36
   0  -5   5   43.98    2.71
   0  -5   6  214.73    7.07
   0  -5   6  218.94    7.28
   0  -5   6  216.76    7.58
   0  -5   6  193.36    6.61
   0  -5   7  200.26    6.45
   0  -5   7  192.68    6.32
   0  -5   7  206.95    6.91
   0  -5   7  189.73    6.23
   0  -5   8   25.91    1.74
   0  -5   8    3.17    0.81
   0  -5   9    0.08    0.30
   0  -5   9   43.33    2.00
   0  -4 -10  638.80   16.91
   0  -4  -9   36.56    3.02
   0  -4  -9   34.93    2.84
   0  -4  -8  245.25    8.39
   0  -4  -8  241.27    8.08
   0  -4  -7  239.84    8.16
   0  -4  -7  234.76    7.68
   0  -4  -6  176.31    6.34
   0  -4  -6  176.47    5.89
   0  -4  -6  185.37    5.97
   0  -4  -6  180.13    6.64
   0  -4  -6  180.22    6.11
   0  -4  -5    1.01    0.86
   0  -4  -5    0.62    0.88
   0  -4  -5    0.41    0.81
   0  -4  -5    0.15    0.76
   0  -4  -5    0.27    0.76
   0  -4  -5    0.53    1.06
   0  -4  -5    0.20    0.68
   0  -4  -4  232.22    6.83
   0  -4  -4  205.23    6.58
   0  -4  -4  214.50    6.78
   0  -4  -4  227.68    7.23
   0  -4  -4  226.77    6.59
   0  -4  -4  207.45    6.74
   0  -4  -3  284.93    8.19
   0  -4  -3  283.61    8.15
   0  -4  -3  291.67    8.41
   0  -4  -3  303.40    7.99
   0  -4  -3  294.56    8.36
   0  -4  -3  293.31    8.23
   0  -4  -2  545.20   13.77
   0  -4  -2  581.61   13.46
   0  -4  -2  565.57   13.97
   0  -4  -2  573.22   13.88
   0  -4  -2  553.89   13.95
   0  -4  -2  564.27   13.85
   0  -4  -1  691.55   16.71
   0  -4  -1  676.28   15.72
   0  -4  -1  662.61   16.28
   0  -4  -1  691.16   16.36
   0  -4   0  124.08    4.58
   0  -4   0  126.23    4.63
   0  -4   0  136.05    5.09
   0  -4   0  129.97    4.35
   0  -4   0  130.47    4.81
   0  -4   0  130.52    4.77
   0  -4   0  140.37    4.81
   0  -4   0  127.56    4.88
   0  -4   1  285.55    8.49
   0  -4   1  289.73    8.11
   0  -4   1  257.72    7.89
   0  -4   1  285.48    8.07
   0  -4   1  287.05    8.52
   0  -4   1  288.64    8.35
   0  -4   1  279.33    8.19
   0  -4   2   28.27    2.29
   0  -4   2   24.08    2.02
   0  -4   2   28.35    2.24
   0  -4   2   24.84    1.93
   0  -4   2   27.51    2.01
   0  -4   2   26.11    2.13
   0  -4   2   25.28    2.32
   0  -4   2   25.27    2.06
   0  -4   3   10.75    1.36
   0  -4   3    7.83    1.34
   0  -4   3    7.91    1.49
   0  -4   3    8.30    1.40
   0  -4   3    8.13    1.17
   0  -4   3    8.64    1.25
   0  -4   4 1057.78   23.62
   0  -4   4 1025.92   23.80
   0  -4   4 1026.58   24.22
   0  -4   5   35.20    2.92
   0  -4   5   34.91    2.70
   0  -4   5   32.03    2.52
   0  -4   5   31.03    2.74
   0  -4   5   36.28    2.73
   0  -4   6   36.53    3.05
   0  -4   6   35.73    2.76
   0  -4   6   30.29    2.53
   0  -4   6   34.39    2.79
   0  -4   6   32.83    2.79
   0  -4   7  584.41   16.26
   0  -4   7  603.23   15.90
   0  -4   7  568.13   15.24
   0  -4   7  607.38   16.00
   0  -4   7  599.36   15.94
   0  -4   8  227.05    7.90
   0  -4   9   22.91    2.15
   0  -4  10   29.33    1.97
   0  -4  10   32.29    2.17
   0  -4  11  106.57    3.50
   0  -3  -7  133.56    5.25
   0  -3  -6  340.45    8.72
   0  -3  -5  455.86   11.11
   0  -3  -5  456.85   11.50
   0  -3  -4  625.05   14.54
   0  -3  -4  631.49   14.68
   0  -3  -3 1017.99   22.08
   0  -3  -3  984.19   22.07
   0  -3  -3 1009.05   21.94
   0  -3  -2  455.77   10.97
   0  -3  -2  454.78   11.06
   0  -3  -2  464.28   10.77
   0  -3  -2  456.99   10.99
   0  -3  -1   85.41    2.97
   0  -3  -1   92.16    3.36
   0  -3  -1   90.05    3.25
   0  -3  -1   86.27    3.26
   0  -3   0 1048.62   22.89
   0  -3   0 1035.41   22.67
   0  -3   0 1028.31   22.37
   0  -3   1  234.20    6.63
   0  -3   1  223.93    6.09
   0  -3   1  225.67    6.40
   0  -3   1  231.06    6.31
   0  -3   2  234.63    6.46
   0  -3   3    9.01    1.19
   0  -3   3    9.30    1.08
   0  -3   4  419.23   10.96
   0  -3   4  425.19   10.78
   0  -3   4  407.22   10.01
   0  -3   5  916.58   21.56
   0  -3   5  934.58   21.26
   0  -3   5  901.72   21.83
   0  -3   6  254.06    8.18
   0  -3   6  255.48    7.80
   0  -3   6  252.32    8.41
   0  -3   7    5.35    1.31
   0  -3   7    7.01    1.64
   0  -3   7    6.36    1.20
   0  -3   7    6.57    1.55
   0  -3   8  297.40    9.99
   0  -3   8  325.52    9.95
   0  -3   8  320.30   10.53
   0  -3   8  309.31    9.90
   0  -3   9  536.81   14.73
   0  -3   9  559.25   15.50
   0  -3  10   20.63    2.03
   0  -3  11   75.63    3.43
   0  -3  12  145.63    4.35
   0  -2  -5 1236.80   26.13
   0  -2  -4  824.81   17.85
   0  -2  -3 1043.65   22.32
   0  -2  -3 1054.36   22.37
   0  -2  -2  718.11   15.69
   0  -2  -2  720.21   15.74
   0  -2  -2  723.60   15.65
   0  -2  -1 1216.60   25.32
   0  -2  -1 1220.31   25.39
   0  -2  -1 1169.25   25.06
   0  -2  -1 1200.91   25.32
   0  -2   0   32.59    1.59
   0  -2   0   33.77    1.40
   0  -2   1  441.23   10.33
   0  -2   1  465.54   10.25
   0  -2   1  461.95   10.50
   0  -2   2 2640.63   54.82
   0  -2   2 2702.85   55.02
   0  -2   3  382.29    8.84
   0  -2   3  387.31    9.55
   0  -2   4   80.10    3.25
   0  -2   4   76.91    2.42
   0  -2   5  491.88   12.30
   0  -2   5  481.47   12.16
   0  -2   6  359.29    9.99
   0  -2   6  348.45    9.85
   0  -2   6  357.53    9.38
   0  -2   6  354.75   10.04
   0  -2   6  362.81    9.74
   0  -2   7  125.69    5.14
   0  -2   7  125.63    5.10
   0  -2   7  124.01    4.55
   0  -2   7  127.81    5.24
   0  -2   8   30.49    2.59
   0  -2   8   30.70    2.53
   0  -2   9  248.51    9.04
   0  -2   9  259.04    8.61
   0  -2  10  234.74    8.12
   0  -2  10  245.24    8.71
   0  -2  11    3.16    1.07
   0  -2  11    2.15    1.11
   0  -2  12  191.35    6.05
   0  -2  12  174.89    6.15
   0  -2  13  171.96    4.77
   0  -2  13  152.96    4.81
   0  -1  -4  695.60   14.50
   0  -1  -3    0.87    0.41
   0  -1  -3    0.87    0.46
   0  -1  -2    2.33    0.49
   0  -1  -2    3.29    0.56
   0  -1  -1 5070.72  102.48
   0  -1  -1 5063.69  102.50
   0  -1  -1 5081.29  102.46
   0  -1   0    9.44    0.53
   0  -1   1  525.17   11.27
   0  -1   1  514.45   11.10
   0  -1   1  538.73   11.15
   0  -1   1  516.12   11.17
   0  -1   2 1085.52   22.51
   0  -1   2 1052.19   22.14
   0  -1   2 1081.38   22.05
   0  -1   2 1064.42   22.15
   0  -1   3 1049.03   22.28
   0  -1   3 1042.66   21.50
   0  -1   3 1049.23   21.96
   0  -1   4  895.39   19.92
   0  -1   4  927.15   19.66
   0  -1   5   34.26    1.95
   0  -1   5   34.35    1.80
   0  -1   6  499.77   12.60
   0  -1   6  522.17   12.41
   0  -1   7 1201.19   27.24
   0  -1   7 1188.74   27.18
   0  -1   7 1170.15   26.44
   0  -1   8    5.17    0.98
   0  -1   8    5.11    1.18
   0  -1   8    5.07    1.31
   0  -1   8    4.74    1.16
   0  -1   9   76.75    4.06
   0  -1   9   85.86    4.56
   0  -1   9   81.57    4.18
   0  -1  10  469.18   13.07
   0  -1  10  452.83   13.28
   0  -1  10  446.38   12.78
   0  -1  11  213.40    7.67
   0  -1  11  219.25    7.80
   0  -1  12    1.32    0.98
   0  -1  12    1.05    0.92
   0  -1  13  172.11    5.41
   0  -1  13  151.43    5.14
   0   0   1   26.93    0.72
   0   0   2   67.53    1.73
   0   0   3  592.06   12.47
   0   0   4  317.59    7.29
   0   0   4  343.78    7.93
   0   0   5  542.57   12.16
   0   0   5  594.54   13.10
   0   0   6   25.44    1.25
   0   0   6   27.48    1.88
   0   0   7  693.16   16.19
   0   0   7  638.54   15.92
   0   0   8  371.28   10.27
   0   0   8  367.09   10.35
   0   0   8  350.49   10.12
   0   0   8  343.91    9.55
   0   0   9   95.70    4.35
   0   0   9  102.96    4.67
   0   0   9   92.56    4.48
   0   0   9   92.29    4.46
   0   0   9   91.59    4.01
   0   0  10    0.92    0.80
   0   0  10    1.43    0.99
   0   0  10    0.82    1.02
   0   0  10    1.62    1.00
   0   0  11  353.67   10.80
   0   0  11  375.04   11.25
   0   0  12  169.95    6.50
   0   0  12  157.14    5.90
   0   0  12  169.99    6.46
   0   0  13   22.03    1.96
   0   0  13   16.91    1.54
   0   0  14  188.15    5.49
   0   1   1 4933.93   99.62
   0   1   2    2.24    0.56
   0   1   3    0.70    0.71
   0   1   4  672.77   15.12
   0   1   5 1439.56   31.00
   0   1   6   16.47    1.04
   0   1   7  265.36    7.78
   0   1   8  970.80   22.39
   0   1   9  105.98    4.94
   0   1   9  103.23    4.41
   0   1   9  101.04    4.38
   0   1  10    8.88    1.48
   0   1  10   10.31    1.53
   0   1  10    9.76    1.79
   0   1  11   43.73    2.87
   0   1  11   54.96    3.15
   0   1  12  330.15    8.87
   0   1  12  278.46    8.36
   0   1  13    5.74    0.92
   0   1  13   22.68    2.12
   0   1  14  100.58    3.85
   0   2   1 1205.05   24.97
   0   2   2  731.91   15.75
   0   2   3 1038.14   22.27
   0   2   4  849.12   18.90
   0   2   5 1255.13   27.49
   0   2   6  577.13   14.23
   0   2   7   12.17    1.65
   0   2   7   11.64    1.51
   0   2   8   21.66    2.19
   0   2   8   20.62    2.06
   0   2   9  261.60    8.77
   0   2   9  245.33    8.49
   0   2  10  100.67    4.80
   0   2  10  106.60    5.22
   0   2  10  104.65    5.15
   0   2  10  102.92    4.77
   0   2  11    2.13    1.10
   0   2  11    1.88    0.94
   0   2  11    2.00    1.29
   0   2  12  235.65    8.16
   0   2  12  219.07    7.24
   0   2  13    0.22    0.29
   0   2  13  143.38    4.85
   0   2  14    4.57    1.02
   0   2  14    4.01    0.71
   0   3   0  964.68   20.07
   0   3   1   86.41    2.51
   0   3   2  442.57   10.06
   0   3   3  983.35   21.33
   0   3   4  624.02   14.48
   0   3   5  469.31   11.70
   0   3   6  356.09    9.74
   0   3   7  137.62    5.28
   0   3   8   27.07    2.39
   0   3   8   27.64    2.45
   0   3   9  549.72   15.04
   0   3   9  544.55   15.10
   0   3  10   55.32    3.66
   0   3  10   53.11    3.64
   0   3  11   14.89    1.98
   0   3  11   14.16    2.09
   0   3  11   14.26    1.97
   0   3  12  137.20    5.69
   0   3  12  129.09    5.18
   0   3  13   -0.24    0.50
   0   3  13  202.58    5.49
   0   3  14   42.38    2.20
   0   3  14   44.30    2.36
   0   4   3  263.97    6.79
   0   4   4  207.21    5.95
   0   4   5    0.42    0.68
   0   4   6  173.19    5.84
   0   4   7  235.20    7.52
   0   4   8  241.36    8.06
   0   4   8  253.50    8.47
   0   4   9   34.90    2.83
   0   4   9   38.18    2.99
   0   4  10  666.44   17.55
   0   4  10  693.38   17.96
   0   4  11   81.91    4.32
   0   4  12   60.65    3.34
   0   4  12   67.08    3.57
   0   4  12   70.49    3.55
   0   4  13   56.38    2.62
   0   4  13   46.69    2.25
   0   4  14   84.89    3.05
   0   5   8   76.03    4.08
   0   5   9   83.64    4.30
   0   5  10   79.48    4.04
   0   5  11  127.08    4.98
   0   5  12   52.68    2.85
   0   5  12   51.94    2.71
   0   5  12   54.58    2.84
   0   5  13    2.80    0.69
   0   5  13    1.15    0.46
   0   5  13    3.20    0.67
   0   6   7   45.25    2.90
   0   6   8  328.58    9.49
   0   6   9   30.44    2.23
   0   6  10   58.49    2.87
   0   6  11   47.42    2.72
   0   6  11   40.90    2.09
   0   6  12  129.11    4.12
   0   6  12  151.49    4.58
   0   7  10   37.03    2.13
   1  -7  -8   22.37    1.87
   1  -7  -7    5.07    0.86
   1  -7  -7    5.68    1.35
   1  -7  -6   98.84    3.83
   1  -7  -5  110.42    4.33
   1  -7  -5  113.12    4.91
   1  -7  -4   12.29    1.56
   1  -7  -4   10.76    1.73
   1  -7  -3    2.24    0.80
   1  -7  -3    2.70    1.07
   1  -7  -3    0.26    1.10
   1  -7  -2  168.28    5.71
   1  -7  -2  148.30    5.05
   1  -7  -1   90.26    3.44
   1  -7  -1   87.87    3.75
   1  -7   0   -0.10    0.33
   1  -7   0    1.26    1.02
   1  -7   0    2.20    0.91
   1  -7   1   87.93    2.93
   1  -7   1   92.14    3.42
   1  -7   2  108.18    4.04
   1  -7   3   24.01    1.61
   1  -6 -11   56.44    2.46
   1  -6 -10    5.81    1.13
   1  -6  -9   52.89    3.08
   1  -6  -9   59.85    3.43
   1  -6  -8  152.07    5.81
   1  -6  -8  143.95    6.15
   1  -6  -7   66.55    3.35
   1  -6  -7   71.95    3.97
   1  -6  -7   73.33    4.39
   1  -6  -6   38.35    3.09
   1  -6  -6   43.67    2.87
   1  -6  -6   43.18    3.55
   1  -6  -5  105.33    4.74
   1  -6  -5  108.45    4.80
   1  -6  -5  103.05    5.06
   1  -6  -4   93.89    4.46
   1  -6  -4   96.57    4.63
   1  -6  -4   90.18    5.04
   1  -6  -3    2.56    1.03
   1  -6  -3    0.50    1.40
   1  -6  -3    0.50    1.15
   1  -6  -2  242.34    8.04
   1  -6  -2  247.11    8.73
   1  -6  -1  330.03   10.42
   1  -6  -1  322.48    9.89
   1  -6  -1  326.89   10.10
   1  -6  -1  352.25   11.13
   1  -6  -1  340.11    9.95
   1  -6   0    5.85    1.75
   1  -6   0    3.79    1.26
   1  -6   0    3.56    1.23
   1  -6   0    3.79    1.30
   1  -6   0    4.34    1.27
   1  -6   1    5.96    1.40
   1  -6   1    4.09    1.17
   1  -6   1    5.64    1.66
   1  -6   1    5.82    1.32
   1  -6   2   67.90    3.51
   1  -6   2   65.61    3.38
   1  -6   2   73.58    4.14
   1  -6   2   69.68    3.49
   1  -6   3  235.79    5.53
   1  -6   3  250.75    5.56
   1  -6   4   54.72    2.86
   1  -6   4   62.03    3.39
   1  -6   4   57.84    2.83
   1  -6   5   17.05    1.70
   1  -6   5   14.86    1.26
   1  -6   6  151.68    4.73
   1  -5 -12   40.91    2.21
   1  -5 -11  107.21    4.34
   1  -5 -10   31.31    2.51
   1  -5 -10   27.02    2.48
   1  -5  -9   15.18    2.10
   1  -5  -9   14.23    2.19
   1  -5  -8  246.72    8.96
   1  -5  -8  238.32    8.39
   1  -5  -7    2.83    1.47
   1  -5  -7    0.41    0.85
   1  -5  -7    0.53    1.56
   1  -5  -7    0.49    0.87
   1  -5  -6  306.57    9.64
   1  -5  -6  299.03    9.17
   1  -5  -6  288.47    9.10
   1  -5  -6  317.62   10.58
   1  -5  -6  297.53    9.33
   1  -5  -6  309.49    9.96
   1  -5  -5  164.83    6.26
   1  -5  -5  170.68    6.54
   1  -5  -5  167.18    6.28
   1  -5  -5  173.10    6.80
   1  -5  -5  182.62    7.38
   1  -5  -5  162.00    6.18
   1  -5  -5  160.45    6.35
   1  -5  -4  545.36   14.53
   1  -5  -4  556.06   14.57
   1  -5  -4  532.18   14.60
   1  -5  -4  579.24   15.29
   1  -5  -4  532.66   14.30
   1  -5  -4  527.56   14.61
   1  -5  -3  413.56   11.85
   1  -5  -3  427.42   11.91
   1  -5  -3  437.94   12.08
   1  -5  -3  429.42   12.72
   1  -5  -3  403.76   11.55
   1  -5  -3  403.59   11.95
   1  -5  -2   21.55    2.20
   1  -5  -2   21.49    2.19
   1  -5  -2   25.34    2.32
   1  -5  -2   21.41    2.51
   1  -5  -2   22.51    2.14
   1  -5  -2   24.14    2.25
   1  -5  -2   21.56    2.30
   1  -5  -1  542.21   14.53
   1  -5  -1  575.02   14.79
   1  -5  -1  561.46   15.25
   1  -5  -1  509.31   14.10
   1  -5  -1  574.06   14.53
   1  -5  -1  533.77   14.14
   1  -5   0  302.38    9.39
   1  -5   0  318.34    9.70
   1  -5   0  314.60    9.45
   1  -5   0  302.24    9.84
   1  -5   0  311.82    9.38
   1  -5   0  304.94    9.62
   1  -5   0  303.04    9.38
   1  -5   1   79.25    4.18
   1  -5   1   71.29    3.82
   1  -5   1   77.02    3.91
   1  -5   1   79.82    4.67
   1  -5   1   78.12    3.97
   1  -5   1   75.73    4.03
   1  -5   1   77.27    4.14
   1  -5   2    4.94    1.36
   1  -5   2    4.23    1.18
   1  -5   2    4.92    1.48
   1  -5   2    6.41    1.82
   1  -5   2    5.57    1.27
   1  -5   2    4.65    1.37
   1  -5   3  313.70    9.84
   1  -5   3  321.74    9.37
   1  -5   3  303.97    9.28
   1  -5   3  331.20    9.78
   1  -5   3  327.03   10.29
   1  -5   4   67.63    3.60
   1  -5   4   60.88    3.60
   1  -5   4   64.55    4.10
   1  -5   5   11.42    1.74
   1  -5   5   13.67    2.04
   1  -5   5   14.46    1.74
   1  -5   6   16.00    1.83
   1  -5   6   17.09    2.07
   1  -5   6   16.73    1.63
   1  -5   6   13.94    1.38
   1  -5   7  143.32    4.50
   1  -5   7  137.61    4.02
   1  -5   7  137.53    3.67
   1  -5   8   41.59    2.13
   1  -4 -13   85.98    3.27
   1  -4  -9   58.20    3.87
   1  -4  -9   48.22    3.40
   1  -4  -8   97.89    5.18
   1  -4  -8  102.76    4.87
   1  -4  -7  295.75   10.02
   1  -4  -7  298.81    9.41
   1  -4  -6   74.74    3.56
   1  -4  -6   74.07    3.54
   1  -4  -6   80.16    4.13
   1  -4  -6   77.12    4.42
   1  -4  -6   76.15    3.89
   1  -4  -6   67.61    3.55
   1  -4  -5  379.67   10.57
   1  -4  -5  392.27   11.15
   1  -4  -5  392.69   11.69
   1  -4  -5  384.15   10.83
   1  -4  -5  392.11   10.63
   1  -4  -5  379.69   10.67
   1  -4  -4  520.00   13.57
   1  -4  -4  515.28   13.85
   1  -4  -4  518.08   14.06
   1  -4  -4  541.66   13.64
   1  -4  -4  535.87   13.75
   1  -4  -4  536.68   13.76
   1  -4  -4  556.19   14.27
   1  -4  -3  493.51   12.80
   1  -4  -3  487.96   12.97
   1  -4  -3  500.47   13.27
   1  -4  -3  468.37   13.13
   1  -4  -3  493.90   13.56
   1  -4  -3  487.98   12.71
   1  -4  -3  517.68   12.93
   1  -4  -3  479.89   12.71
   1  -4  -3  501.55   12.93
   1  -4  -2   94.87    4.13
   1  -4  -2   98.76    4.31
   1  -4  -2  104.66    4.58
   1  -4  -2   93.90    4.44
   1  -4  -2   98.96    4.19
   1  -4  -2  102.37    4.68
   1  -4  -2  103.77    4.25
   1  -4  -2  101.81    4.21
   1  -4  -2  101.67    4.30
   1  -4  -2   98.68    3.88
   1  -4  -1   55.44    3.14
   1  -4  -1   53.65    3.33
   1  -4  -1   61.39    3.15
   1  -4  -1   56.07    3.01
   1  -4  -1   55.69    2.89
   1  -4   0  196.37    6.42
   1  -4   0  189.33    6.59
   1  -4   0  183.97    6.75
   1  -4   0  196.63    6.89
   1  -4   0  198.43    6.40
   1  -4   0  196.74    6.51
   1  -4   0  179.74    6.22
   1  -4   0  193.76    6.48
   1  -4   0  204.00    6.54
   1  -4   1  437.51   11.61
   1  -4   1  435.30   11.99
   1  -4   1  423.55   11.94
   1  -4   1  433.84   12.26
   1  -4   1  432.02   11.62
   1  -4   1  438.98   11.60
   1  -4   1  438.91   11.78
   1  -4   1  455.45   12.05
   1  -4   2  150.35    5.80
   1  -4   2  142.81    5.63
   1  -4   2  142.85    5.27
   1  -4   2  141.11    5.58
   1  -4   2  147.27    6.16
   1  -4   2  144.93    5.27
   1  -4   2  139.72    5.37
   1  -4   3  184.03    6.78
   1  -4   3  175.00    6.46
   1  -4   3  170.00    5.90
   1  -4   3  174.29    7.01
   1  -4   3  180.64    5.99
   1  -4   3  170.27    6.29
   1  -4   3  168.59    6.04
   1  -4   4  844.42   20.71
   1  -4   4  804.35   20.10
   1  -4   4  778.50   19.84
   1  -4   4  821.43   20.94
   1  -4   5    1.52    1.18
   1  -4   5    1.83    1.26
   1  -4   5    0.70    0.83
   1  -4   5    2.82    1.41
   1  -4   5    1.42    0.96
   1  -4   6  132.52    6.01
   1  -4   6  131.05    5.63
   1  -4   6  137.51    6.11
   1  -4   6  139.01    5.66
   1  -4   7   83.69    4.24
   1  -4   7   78.21    4.36
   1  -4   7   82.75    4.18
   1  -4   8  283.00    8.68
   1  -4   8  291.59    9.13
   1  -4   8  281.30    8.70
   1  -4   9   96.84    3.99
   1  -4   9  100.36    4.02
   1  -4  10   70.74    2.78
   1  -4  10   65.90    2.71
   1  -3 -10  201.80    7.70
   1  -3  -9   95.17    4.84
   1  -3  -8   44.85    3.36
   1  -3  -8   53.38    3.38
   1  -3  -7   96.79    4.84
   1  -3  -7  101.50    4.61
   1  -3  -6  767.43   18.60
   1  -3  -6  731.47   18.76
   1  -3  -6  742.00   17.34
   1  -3  -6  762.78   18.43
   1  -3  -5  553.23   13.56
   1  -3  -5  536.48   14.17
   1  -3  -5  588.67   13.61
   1  -3  -5  574.83   14.76
   1  -3  -5  541.49   13.54
   1  -3  -5  575.63   14.14
   1  -3  -4  103.71    4.19
   1  -3  -4  100.97    3.83
   1  -3  -4  105.06    4.08
   1  -3  -3  800.57   18.67
   1  -3  -3  837.01   18.91
   1  -3  -2  568.62   13.74
   1  -3  -2  587.74   13.85
   1  -3  -2  568.05   13.29
   1  -3  -1  159.65    5.14
   1  -3  -1  157.15    4.87
   1  -3   0   21.37    1.62
   1  -3   0   18.76    1.61
   1  -3   0   22.11    1.70
   1  -3   1  800.64   17.81
   1  -3   1  763.44   17.46
   1  -3   1  756.36   17.72
   1  -3   2 1451.12   30.65
   1  -3   2 1372.71   30.27
   1  -3   2 1330.62   30.01
   1  -3   2 1340.74   30.28
   1  -3   2 1403.04   30.00
   1  -3   2 1365.02   30.08
   1  -3   3   28.69    2.08
   1  -3   3   26.40    1.88
   1  -3   3   25.83    1.96
   1  -3   3   27.30    1.84
   1  -3   3   24.05    1.87
   1  -3   4  211.15    6.30
   1  -3   4  223.21    6.90
   1  -3   4  221.60    6.97
   1  -3   4  224.77    6.90
   1  -3   4  221.13    7.60
   1  -3   5  381.84   10.40
   1  -3   5  370.67   10.52
   1  -3   5  378.77   11.32
   1  -3   6    2.56    0.95
   1  -3   6    1.86    0.97
   1  -3   6    0.68    1.15
   1  -3   7  119.05    4.81
   1  -3   7  119.92    5.12
   1  -3   7  125.08    5.73
   1  -3   7  134.46    5.95
   1  -3   8   89.14    4.81
   1  -3   8   82.96    3.80
   1  -3   8   92.83    4.37
   1  -3   8  106.69    5.10
   1  -3   8  102.46    5.10
   1  -3   9  195.01    6.72
   1  -3   9  206.79    7.50
   1  -3  10   52.68    3.21
   1  -3  11  124.44    4.36
   1  -2 -11  105.36    5.32
   1  -2  -6   66.96    2.55
   1  -2  -5  776.20   17.25
   1  -2  -4  359.17    8.85
   1  -2  -4  360.56    9.32
   1  -2  -3  154.48    4.59
   1  -2  -3  156.34    4.78
   1  -2  -2  206.90    5.81
   1  -2  -2  225.82    6.00
   1  -2  -2  218.25    5.42
   1  -2  -1 1596.71   33.21
   1  -2  -1 1555.97   33.58
   1  -2  -1 1619.11   33.67
   1  -2   0  398.45    9.45
   1  -2   0  403.82    9.70
   1  -2   1   85.38    3.04
   1  -2   1   80.60    3.02
   1  -2   1   85.93    3.15
   1  -2   2  323.47    8.29
   1  -2   2  317.73    8.06
   1  -2   2  319.83    8.33
   1  -2   3 1105.59   24.37
   1  -2   3 1093.20   23.77
   1  -2   4    0.82    0.56
   1  -2   5  296.02    8.20
   1  -2   5  302.84    8.35
   1  -2   6  478.62   12.41
   1  -2   6  507.99   13.33
   1  -2   6  491.09   12.71
   1  -2   6  499.64   13.48
   1  -2   7   37.45    2.46
   1  -2   7   39.43    2.91
   1  -2   7   37.70    2.59
   1  -2   7   42.52    3.10
   1  -2   8  307.28    9.12
   1  -2   8  317.68   10.21
   1  -2   8  326.44    9.73
   1  -2   8  345.35   10.58
   1  -2   9  145.52    5.32
   1  -2   9  158.52    6.51
   1  -2   9  160.10    5.98
   1  -2  10  279.42    9.34
   1  -2  10  266.78    8.39
   1  -2  11   32.53    2.23
   1  -2  11   28.80    2.46
   1  -2  12   28.85    2.06
   1  -1  -5    1.96    0.56
   1  -1  -4 1055.82   22.31
   1  -1  -3  305.35    7.13
   1  -1  -2  196.50    4.87
   1  -1  -1 1518.38   30.78
   1  -1  -1 1478.09   31.12
   1  -1   0 1434.31   29.58
   1  -1   1   28.50    1.34
   1  -1   1   28.45    1.32
   1  -1   2   47.30    1.77
   1  -1   2   42.91    1.26
   1  -1   3  409.48    9.16
   1  -1   3  395.01    8.81
   1  -1   4 1247.04   26.07
   1  -1   4 1249.23   26.22
   1  -1   5  197.03    5.31
   1  -1   6  442.62   11.40
   1  -1   6  439.48   10.48
   1  -1   6  415.62   11.18
   1  -1   6  411.51   10.77
   1  -1   7  644.38   16.22
   1  -1   7  682.53   16.74
   1  -1   7  670.67   16.58
   1  -1   7  650.41   15.91
   1  -1   8  255.46    8.29
   1  -1   8  280.64    8.79
   1  -1   8  269.59    8.64
   1  -1   8  257.01    7.90
   1  -1   9  272.91    8.44
   1  -1   9  284.72    9.38
   1  -1   9  290.84    9.09
   1  -1   9  300.81    9.88
   1  -1  10   89.87    3.97
   1  -1  10   88.24    4.68
   1  -1  10   95.78    4.49
   1  -1  10   99.44    5.06
   1  -1  11  340.54    9.98
   1  -1  11  345.99   10.65
   1  -1  12    0.89    0.71
   1  -1  12    0.99    0.89
   1  -1  13   63.72    2.54
   1  -1  13   65.57    2.82
   1   0  -4  348.04    7.48
   1   0  -1   43.94    1.51
   1   0   0  365.06    7.94
   1   0   1  636.41   13.56
   1   0   2  218.73    5.10
   1   0   3  277.69    6.56
   1   0   4 2012.92   41.14
   1   0   4 1965.01   40.19
   1   0   5  529.17   12.33
   1   0   6 1282.26   27.95
   1   0   7  178.70    5.72
   1   0   7  166.22    5.60
   1   0   8  456.11   11.89
   1   0   8  432.67   11.74
   1   0   9   91.78    4.45
   1   0   9   95.06    4.33
   1   0   9   86.02    4.45
   1   0   9   87.29    4.09
   1   0  10  198.99    7.48
   1   0  10  205.23    7.64
   1   0  10  213.04    7.07
   1   0  11  270.55    8.74
   1   0  11  270.10    8.76
   1   0  11  263.02    8.92
   1   0  11  246.56    7.85
   1   0  12  129.51    4.46
   1   0  12  116.14    4.21
   1   0  13   15.46    1.48
   1   0  13   13.43    1.39
   1   1   5 1730.12   36.88
   1   1   6  453.77   11.49
   1   1   7  216.01    6.75
   1   1   7  205.85    6.55
   1   1   8  686.67   16.60
   1   1   8  645.81   16.08
   1   1   8  635.49   16.27
   1   1   8  640.26   16.07
   1   1   9  530.09   13.85
   1   1   9  506.08   13.73
   1   1   9  502.58   13.33
   1   1  10   12.74    1.75
   1   1  10   16.44    2.02
   1   1  10   14.80    2.08
   1   1  10   15.82    1.94
   1   1  11  243.34    8.64
   1   1  11  281.63    9.25
   1   1  11  254.23    8.43
   1   1  11  298.29    9.61
   1   1  11  291.73    8.81
   1   1  12  345.63   10.31
   1   1  12  322.17    9.15
   1   1  13   -0.25    0.25
   1   1  13  111.90    3.93
   1   1  14    8.69    0.98
   1   2   2 2998.48   61.52
   1   2   3  775.27   17.15
   1   2   4  554.66   13.01
   1   2   5  110.08    4.03
   1   2   6  505.87   12.83
   1   2   7  240.09    7.32
   1   2   8   67.85    3.56
   1   2   9 1303.43   30.34
   1   2   9 1303.77   30.09
   1   2  10   11.29    1.78
   1   2  10   10.05    1.91
   1   2  10   11.14    1.93
   1   2  11    7.05    1.53
   1   2  11    9.15    1.79
   1   2  11    8.13    1.78
   1   2  12  132.80    5.85
   1   2  12  131.49    5.35
   1   2  13  150.45    5.78
   1   2  13  141.83    4.99
   1   2  14  148.25    4.78
   1   3   2  612.72   13.87
   1   3   3  419.48   10.22
   1   3   4   65.11    2.88
   1   3   5  447.35   11.37
   1   3   6  104.07    4.29
   1   3   7 1069.96   24.47
   1   3   7 1018.12   24.15
   1   3   8   60.27    3.52
   1   3   8   49.60    3.15
   1   3   9  392.46   11.66
   1   3   9  386.11   11.58
   1   3  10 1283.38   30.17
   1   3  10 1277.65   30.09
   1   3  10 1234.77   29.86
   1   3  11    7.94    1.66
   1   3  11    6.80    1.30
   1   3  11    6.84    1.57
   1   3  11    6.52    1.63
   1   3  12    4.38    1.37
   1   3  12    3.41    1.38
   1   3  13   91.75    4.22
   1   3  13   82.99    3.75
   1   3  14   83.60    3.41
   1   4   1  295.96    7.57
   1   4   2  224.91    6.26
   1   4   3  964.42   21.51
   1   4   4  400.30   10.30
   1   4   5   41.34    2.48
   1   4   6  329.18    9.47
   1   4   7  355.23   10.24
   1   4   7  344.03   10.13
   1   4   8  371.04   10.97
   1   4   8  363.42   10.86
   1   4   9   98.93    4.83
   1   4   9   89.28    4.62
   1   4  10   46.72    3.43
   1   4  10   49.29    3.43
   1   4  11  233.53    8.17
   1   4  11  241.57    8.43
   1   4  12  102.27    4.53
   1   4  12  102.36    4.57
   1   4  13   27.07    2.06
   1   4  13   25.21    2.03
   1   4  14   96.70    3.34
   1   5   4  968.62   22.07
   1   5   5  289.58    8.43
   1   5   6   22.68    2.05
   1   5   7  123.49    5.13
   1   5   7  120.92    5.04
   1   5   8  245.71    8.36
   1   5   8  276.56    8.59
   1   5   9   27.91    2.57
   1   5   9   34.77    2.70
   1   5  10    0.37    0.92
   1   5  11  138.00    5.33
   1   5  12   77.95    3.61
   1   5  12   86.20    3.62
   1   5  12   87.11    3.97
   1   5  13   19.19    1.41
   1   5  13   21.63    1.67
   1   6  12   87.09    3.40
   1   7  11    0.91    0.65
   1   7  11    1.30    0.66
   2  -7  -6    6.98    0.93
   2  -7  -5   48.73    2.18
   2  -7  -5   49.07    2.38
   2  -7  -4   31.01    1.82
   2  -7  -4   30.44    1.96
   2  -7  -3    1.01    0.78
   2  -7  -3    0.88    0.69
   2  -7  -2   45.74    2.22
   2  -7  -2    6.60    0.84
   2  -7  -1   69.42    2.71
   2  -6  -7   11.61    1.28
   2  -6  -7   11.72    1.89
   2  -6  -6    5.48    1.16
   2  -6  -5  167.76    5.97
   2  -6  -5  171.98    5.97
   2  -6  -5  167.86    6.68
   2  -6  -4  136.56    5.31
   2  -6  -4  136.14    5.29
   2  -6  -4  132.51    5.81
   2  -6  -3   21.11    2.16
   2  -6  -3   26.74    2.32
   2  -6  -3   25.52    2.57
   2  -6  -2    7.98    1.57
   2  -6  -2    5.54    1.59
   2  -6  -1  148.47    5.53
   2  -6  -1  151.75    5.62
   2  -6  -1  151.41    6.15
   2  -6   0   66.85    3.40
   2  -6   0   65.94    3.36
   2  -6   0   64.96    3.80
   2  -6   1    2.01    1.08
   2  -6   1    1.43    0.87
   2  -6   2   18.12    1.69
   2  -6   2    8.79    1.09
   2  -6   3  211.06    6.17
   2  -6   4    2.66    0.74
   2  -6   4    5.27    1.07
   2  -6   5    0.32    0.56
   2  -5 -11  115.39    3.84
   2  -5 -10   22.60    1.86
   2  -5  -9    2.92    1.23
   2  -5  -8   63.81    3.60
   2  -5  -8   65.05    4.05
   2  -5  -7  275.97    8.22
   2  -5  -7  278.07    9.06
   2  -5  -7  282.27    9.84
   2  -5  -6  181.07    6.90
   2  -5  -6  175.79    6.38
   2  -5  -6  181.51    6.96
   2  -5  -6  189.60    7.82
   2  -5  -5   81.06    4.11
   2  -5  -5   79.60    4.32
   2  -5  -5   78.50    4.39
   2  -5  -5   67.57    3.99
   2  -5  -5   80.04    4.22
   2  -5  -4   33.87    2.77
   2  -5  -4   37.52    2.89
   2  -5  -4   38.64    3.04
   2  -5  -4   37.05    3.08
   2  -5  -4   40.91    3.58
   2  -5  -4   27.71    2.57
   2  -5  -4   36.77    2.93
   2  -5  -3  129.04    5.52
   2  -5  -3  126.51    5.56
   2  -5  -3  138.46    6.38
   2  -5  -3  114.84    5.38
   2  -5  -3  129.40    5.66
   2  -5  -3  127.23    5.50
   2  -5  -2   64.60    3.73
   2  -5  -2   60.88    3.73
   2  -5  -2   58.52    4.07
   2  -5  -2   51.66    3.47
   2  -5  -2   59.06    3.71
   2  -5  -2   54.62    3.52
   2  -5  -1   58.01    3.62
   2  -5  -1   55.42    3.86
   2  -5  -1   49.90    3.33
   2  -5   0  583.46   15.76
   2  -5   0  639.52   16.29
   2  -5   0  620.14   15.91
   2  -5   0  640.48   17.26
   2  -5   0  593.14   16.21
   2  -5   0  590.01   15.09
   2  -5   0  597.42   16.02
   2  -5   1   52.33    3.47
   2  -5   1   53.09    3.24
   2  -5   1   60.76    4.06
   2  -5   1   55.20    3.05
   2  -5   1   53.83    3.40
   2  -5   2   19.39    2.28
   2  -5   2   18.66    1.93
   2  -5   2   21.03    2.58
   2  -5   3  164.15    6.27
   2  -5   3  170.68    5.75
   2  -5   4  139.02    5.46
   2  -5   5   11.47    1.60
   2  -5   6   10.75    1.41
   2  -5   6    9.34    1.46
   2  -5   7  124.97    4.03
   2  -4 -12   16.94    1.39
   2  -4 -11   28.20    2.12
   2  -4 -10  279.26    8.62
   2  -4  -9   29.13    2.85
   2  -4  -9   29.51    2.57
   2  -4  -8  107.29    5.02
   2  -4  -8  106.82    5.60
   2  -4  -8  105.44    5.10
   2  -4  -7  213.10    6.89
   2  -4  -7  224.08    7.90
   2  -4  -7  223.47    8.68
   2  -4  -7  205.39    7.69
   2  -4  -6  447.22   12.85
   2  -4  -6  451.69   12.21
   2  -4  -6  461.43   13.99
   2  -4  -6  435.81   12.79
   2  -4  -6  443.61   12.13
   2  -4  -6  440.88   12.28
   2  -4  -5   64.93    3.62
   2  -4  -5   62.92    3.79
   2  -4  -5   68.09    4.49
   2  -4  -5   58.66    3.40
   2  -4  -5   63.38    3.74
   2  -4  -5   65.66    3.66
   2  -4  -4  419.11   11.52
   2  -4  -4  379.12   11.60
   2  -4  -4  393.23   11.29
   2  -4  -4  379.12   11.48
   2  -4  -4  418.97   11.62
   2  -4  -3    1.63    1.17
   2  -4  -3    1.66    1.17
   2  -4  -3    3.09    1.38
   2  -4  -3    1.70    1.25
   2  -4  -3    1.13    1.13
   2  -4  -3    2.07    1.55
   2  -4  -3    1.31    0.99
   2  -4  -2   77.89    3.99
   2  -4  -2   80.48    4.26
   2  -4  -2   74.66    4.19
   2  -4  -2   79.17    3.97
   2  -4  -2   84.66    4.73
   2  -4  -2   74.95    4.06
   2  -4  -2   81.60    4.09
   2  -4  -1    3.17    1.29
   2  -4  -1    1.49    1.43
   2  -4  -1    0.95    0.84
   2  -4  -1    0.51    0.90
   2  -4   0   32.55    2.52
   2  -4   0   25.29    2.52
   2  -4   0   31.36    2.48
   2  -4   0   28.39    2.82
   2  -4   0   26.39    2.49
   2  -4   0   26.96    2.14
   2  -4   0   30.61    2.53
   2  -4   0   30.97    2.28
   2  -4   1  959.44   22.43
   2  -4   1  918.44   22.78
   2  -4   1  928.72   23.70
   2  -4   1  930.82   22.94
   2  -4   1  925.62   22.21
   2  -4   1  921.97   21.70
   2  -4   1  966.23   22.57
   2  -4   1  927.19   22.09
   2  -4   2   34.06    2.56
   2  -4   2   31.07    2.78
   2  -4   2   36.01    3.23
   2  -4   2   37.00    2.48
   2  -4   2   36.91    2.63
   2  -4   2   37.62    2.75
   2  -4   2   35.40    2.69
   2  -4   3   24.57    2.14
   2  -4   3   23.50    2.37
   2  -4   3   26.34    2.59
   2  -4   3   27.77    2.23
   2  -4   3   24.48    2.76
   2  -4   3   22.71    2.14
   2  -4   4  110.76    5.18
   2  -4   4  122.13    5.41
   2  -4   4  110.05    4.41
   2  -4   4  118.42    5.76
   2  -4   5  349.15   10.38
   2  -4   5  311.20    9.61
   2  -4   6  105.94    4.78
   2  -4   6   89.67    4.19
   2  -4   7   99.46    4.43
   2  -4   7   90.98    4.01
   2  -4   8  331.64    8.74
   2  -4   8  276.32    8.10
   2  -4   9   69.69    2.77
   2  -4   9   51.58    2.27
   2  -3  -9  391.21   12.13
   2  -3  -9  410.27   12.21
   2  -3  -8   34.88    3.30
   2  -3  -8   33.67    2.85
   2  -3  -7    2.41    1.66
   2  -3  -7    3.11    1.21
   2  -3  -6  294.34    8.60
   2  -3  -6  321.09    9.73
   2  -3  -6  293.11    8.54
   2  -3  -6  304.63   10.30
   2  -3  -6  312.29    9.55
   2  -3  -6  292.81    8.63
   2  -3  -5  397.31   10.71
   2  -3  -5  391.47   10.62
   2  -3  -5  388.90   12.05
   2  -3  -5  383.30   10.64
   2  -3  -5  397.07   11.21
   2  -3  -4   11.82    1.64
   2  -3  -4   10.66    1.48
   2  -3  -4   12.76    2.05
   2  -3  -4   11.52    1.59
   2  -3  -4   10.51    1.54
   2  -3  -4   10.42    1.55
   2  -3  -3  103.70    4.36
   2  -3  -3  112.40    4.50
   2  -3  -3  106.64    4.55
   2  -3  -3  104.72    4.38
   2  -3  -3  111.56    4.63
   2  -3  -2 1052.37   24.19
   2  -3  -2 1021.77   24.35
   2  -3  -2 1042.12   25.18
   2  -3  -2 1042.69   24.15
   2  -3  -2 1090.76   24.48
   2  -3  -1  246.53    7.87
   2  -3  -1  248.93    8.37
   2  -3  -1  255.89    7.89
   2  -3  -1  247.37    6.82
   2  -3   0    3.45    1.07
   2  -3   0    2.88    0.87
   2  -3   0    3.68    1.07
   2  -3   0    3.06    1.00
   2  -3   0    3.41    1.12
   2  -3   0    4.37    1.30
   2  -3   0    2.41    1.05
   2  -3   1  263.35    7.74
   2  -3   1  261.49    8.12
   2  -3   1  259.32    7.87
   2  -3   1  263.35    7.91
   2  -3   1  262.57    7.80
   2  -3   1  257.02    8.40
   2  -3   1  270.80    8.44
   2  -3   1  266.00    7.94
   2  -3   2  365.03   10.27
   2  -3   2  374.90   10.54
   2  -3   2  374.36   10.18
   2  -3   2  367.72   10.01
   2  -3   2  369.25   10.11
   2  -3   2  371.28   10.20
   2  -3   2  362.67   11.06
   2  -3   3  240.61    7.82
   2  -3   3  250.28    7.94
   2  -3   3  245.99    7.46
   2  -3   3  239.55    7.25
   2  -3   3  242.26    8.47
   2  -3   3  244.01    7.36
   2  -3   3  242.18    7.46
   2  -3   4  124.53    5.08
   2  -3   4  112.35    4.38
   2  -3   4  121.33    5.59
   2  -3   4  110.76    4.31
   2  -3   4  112.03    4.48
   2  -3   5  141.28    5.63
   2  -3   5  141.47    6.28
   2  -3   6  440.90   12.28
   2  -3   7    3.57    1.23
   2  -3   8  135.72    5.10
   2  -3   8  144.71    5.93
   2  -3   9  221.31    7.47
   2  -3  10   51.50    2.75
   2  -3  11    7.20    0.83
   2  -2 -10  190.50    7.43
   2  -2  -9  366.64   11.38
   2  -2  -8  508.76   14.22
   2  -2  -7   24.97    2.69
   2  -2  -7   30.22    2.51
   2  -2  -6   41.66    2.81
   2  -2  -6   37.71    2.14
   2  -2  -6   39.85    2.69
   2  -2  -5  489.65   12.77
   2  -2  -5  475.58   11.93
   2  -2  -4  252.27    7.34
   2  -2  -4  267.67    7.82
   2  -2  -3    2.89    0.91
   2  -2  -2  109.93    4.04
   2  -2  -2  110.91    3.07
   2  -2  -1 1979.44   41.86
   2  -2  -1 1957.35   40.82
   2  -2   0   39.38    1.93
   2  -2   0   36.99    2.31
   2  -2   1    0.45    0.77
   2  -2   1    0.68    0.86
   2  -2   2  251.43    7.31
   2  -2   2  254.18    7.21
   2  -2   2  258.00    7.25
   2  -2   2  257.47    7.76
   2  -2   3  263.43    7.79
   2  -2   3  287.72    8.01
   2  -2   3  275.29    7.63
   2  -2   3  268.35    8.32
   2  -2   4  385.97   10.52
   2  -2   4  414.32   10.92
   2  -2   4  399.33   10.03
   2  -2   4  389.73   11.18
   2  -2   4  381.04   10.13
   2  -2   5  486.70   12.84
   2  -2   5  523.84   13.43
   2  -2   5  504.68   13.72
   2  -2   5  473.23   12.23
   2  -2   6  666.21   16.73
   2  -2   6  673.07   17.32
   2  -2   6  669.38   17.70
   2  -2   7  548.80   14.41
   2  -2   7  551.92   15.20
   2  -2   7  539.24   13.98
   2  -2   7  570.31   15.54
   2  -2   8    1.05    0.91
   2  -2   8    0.31    0.74
   2  -2   9  172.77    6.03
   2  -2  10    0.30    0.40
   2  -2  11   70.25    3.45
   2  -2  12    9.95    1.05
   2  -1 -10   29.14    2.76
   2  -1  -9    2.07    1.18
   2  -1  -8  160.70    6.31
   2  -1  -7  269.28    8.52
   2  -1  -6   57.75    2.37
   2  -1  -6   59.22    3.16
   2  -1  -5  113.31    3.72
   2  -1  -5  115.14    4.39
   2  -1  -4 3156.15   65.07
   2  -1  -4 3083.32   64.25
   2  -1  -3  334.00    8.38
   2  -1  -3  352.77    8.93
   2  -1  -2   59.20    2.41
   2  -1  -2   61.78    2.68
   2  -1  -1  765.59   16.11
   2  -1  -1  770.98   16.97
   2  -1  -1  771.90   17.31
   2  -1   0 1576.20   32.47
   2  -1   0 1545.18   33.37
   2  -1   1   50.99    2.04
   2  -1   1   49.39    2.17
   2  -1   1   50.67    2.43
   2  -1   2  319.70    7.91
   2  -1   2  306.90    7.77
   2  -1   3 1112.61   20.14
   2  -1   3 1096.37   19.70
   2  -1   4  743.68   17.72
   2  -1   4  774.46   17.24
   2  -1   4  805.87   18.05
   2  -1   5   51.66    2.71
   2  -1   5   54.73    2.94
   2  -1   5   52.96    2.18
   2  -1   5   54.19    3.08
   2  -1   5   47.51    2.48
   2  -1   6   45.76    2.70
   2  -1   6   50.29    3.14
   2  -1   6   43.60    2.47
   2  -1   7  357.61   10.06
   2  -1   7  346.54    9.59
   2  -1   7  333.55    9.32
   2  -1   7  364.80   10.84
   2  -1   8  304.34    9.23
   2  -1   8  321.08   10.03
   2  -1   8  294.08    8.82
   2  -1   8  305.42   10.06
   2  -1   9   48.71    3.04
   2  -1   9   45.25    3.37
   2  -1   9   44.65    2.78
   2  -1  10  210.42    6.97
   2  -1  10  211.06    6.78
   2  -1  10  223.55    8.07
   2  -1  11  195.09    6.18
   2  -1  11  221.06    7.43
   2  -1  12    9.73    1.34
   2  -1  13   73.08    2.63
   2   0  -5   47.86    1.83
   2   0  -3 1832.20   38.64
   2   0  -2  222.97    5.87
   2   0  -1    3.84    0.27
   2   0  -1    4.33    0.74
   2   0   0 1004.18   21.48
   2   0   1 1116.53   23.86
   2   0   2  768.23   16.36
   2   0   2  759.13   17.02
   2   0   3  497.55   11.13
   2   0   4 1130.41   24.17
   2   0   5  391.66    9.49
   2   0   5  387.58    8.91
   2   0   6    7.85    1.21
   2   0   6    5.90    1.25
   2   0   6    5.55    1.00
   2   0   6    8.52    1.07
   2   0   6    8.04    1.26
   2   0   7  278.92    8.76
   2   0   7  272.09    7.92
   2   0   7  266.01    7.64
   2   0   7  262.24    8.33
   2   0   7  272.80    8.20
   2   0   8  322.04    9.37
   2   0   8  330.35    9.37
   2   0   8  329.62    9.17
   2   0   8  326.19   10.08
   2   0   8  338.14    9.83
   2   0   9  108.88    4.65
   2   0   9  111.83    5.25
   2   0   9  103.39    4.37
   2   0   9  117.38    4.99
   2   0  10   32.77    2.45
   2   0  10   27.84    2.71
   2   0  10   32.29    2.87
   2   0  10   31.28    2.53
   2   0  11  283.50    8.46
   2   0  11  267.57    8.13
   2   0  11  281.14    9.08
   2   0  12  205.92    6.42
   2   0  12  245.71    7.39
   2   0  13    9.48    1.07
   2   1  -2  364.63    8.45
   2   1  -1 4231.73   85.82
   2   1   0 5426.53  109.75
   2   1   1 2527.77   51.74
   2   1   3    7.98    1.00
   2   1   4    1.85    0.81
   2   1   5  806.82   18.36
   2   1   6  550.28   13.30
   2   1   6  520.44   13.11
   2   1   7   61.65    3.11
   2   1   7   53.60    2.99
   2   1   7   54.05    2.99
   2   1   8  839.78   19.83
   2   1   8  801.37   19.99
   2   1   8  805.36   19.84
   2   1   9  131.12    5.38
   2   1   9  125.11    5.52
   2   1   9  123.70    5.34
   2   1  10  169.26    6.19
   2   1  10  170.59    6.50
   2   1  10  159.94    6.42
   2   1  10  184.30    7.09
   2   1  10  183.20    6.74
   2   1  11   14.82    1.75
   2   1  11   10.78    1.45
   2   1  11   10.54    1.63
   2   1  11   14.52    1.88
   2   1  12  186.24    6.23
   2   1  12  183.39    6.23
   2   1  13    0.20    0.37
   2   2  -1 1606.59   32.53
   2   2   5  198.42    6.18
   2   2   6  519.07   13.24
   2   2   7  200.88    6.73
   2   2   7  187.10    6.24
   2   2   8  194.73    6.87
   2   2   8  179.07    6.46
   2   2   8  182.63    6.56
   2   2   9  470.61   13.20
   2   2   9  467.73   13.10
   2   2   9  451.44   12.96
   2   2  10    6.54    1.60
   2   2  10    6.09    1.57
   2   2  10    8.25    1.71
   2   2  11  158.06    6.65
   2   2  11  163.58    6.44
   2   2  12   47.96    2.85
   2   2  12   54.24    3.50
   2   2  12   56.33    3.31
   2   2  13  214.94    6.72
   2   2  13  261.92    7.22
   2   3   3  585.81   13.98
   2   3   4  438.56   11.25
   2   3   5    0.54    0.95
   2   3   6 1041.42   24.09
   2   3   7  351.15    9.80
   2   3   8  195.38    6.80
   2   3   9  109.82    5.06
   2   3  10  193.11    7.50
   2   3  10  199.61    7.52
   2   3  10  201.98    7.61
   2   3  11  133.42    5.90
   2   3  11  129.58    5.81
   2   3  12   17.79    2.11
   2   3  12   20.54    2.24
   2   3  13   -0.06    0.41
   2   3  13  176.56    4.80
   2   3  14  166.05    4.76
   2   4   3   70.20    3.23
   2   4   4 1825.37   39.71
   2   4   5  204.55    6.71
   2   4   6   56.73    3.24
   2   4   7  304.96    9.34
   2   4   7  278.37    8.52
   2   4   8   69.24    3.93
   2   4   8   59.38    3.48
   2   4   9   -0.12    1.17
   2   4   9    0.61    1.02
   2   4  10   45.06    3.40
   2   4  10   50.47    3.39
   2   4  11  174.25    6.68
   2   4  12   93.45    4.35
   2   4  12   94.74    4.56
   2   4  13   10.07    1.33
   2   4  13   10.77    1.47
   2   4  14   61.43    2.46
   2   5   1  870.64   20.27
   2   5   2  134.10    4.91
   2   5   3   12.70    1.57
   2   5   4  109.80    4.56
   2   5   5  421.47   11.63
   2   5   6   14.51    1.88
   2   5   7   57.96    3.57
   2   5   8  387.40   11.62
   2   5   9  351.42   10.97
   2   5   9  355.91   10.32
   2   5  10  122.85    5.06
   2   5  11  113.67    4.63
   2   5  12   -0.12    0.35
   2   5  12  284.80    5.55
   2   5  13   41.43    2.37
   2   6   6  125.61    5.30
   2   6   7    1.59    1.04
   2   6   8   12.80    1.79
   2   6  11   18.70    2.01
   2   6  12   12.29    1.23
   2   6  12   17.28    1.64
   2   7  10  203.61    6.56
   2   7  11   18.84    1.60
   2   8   9    7.00    0.94
   3  -6  -7   64.99    2.45
   3  -6  -6    6.48    0.84
   3  -6  -6    5.27    0.91
   3  -6  -5  133.12    4.26
   3  -6  -5  129.48    4.47
   3  -6  -4   79.04    3.25
   3  -6  -4   76.24    3.16
   3  -6  -4   78.79    3.39
   3  -6  -3   40.01    2.30
   3  -6  -3   40.37    2.27
   3  -6  -3   37.83    2.39
   3  -6  -2   -0.23    0.86
   3  -6  -2   -0.73    0.90
   3  -6  -1  155.67    5.03
   3  -6  -1  163.46    5.07
   3  -6  -1  160.73    5.35
   3  -6   0  113.05    3.97
   3  -6   0  116.41    3.91
   3  -6   0  122.81    4.31
   3  -6   1    1.35    0.70
   3  -6   1    2.54    0.82
   3  -6   2   12.37    1.17
   3  -5  -7  140.22    4.64
   3  -5  -6   67.85    3.28
   3  -5  -5   -0.34    1.01
   3  -5  -5    0.32    0.96
   3  -5  -4   48.54    3.02
   3  -5  -4   48.21    3.15
   3  -5  -3  103.40    4.61
   3  -5  -3  102.15    4.72
   3  -5  -2  109.06    5.19
   3  -5  -2  101.98    4.78
   3  -5  -1   63.88    3.49
   3  -5  -1   54.32    3.68
   3  -5   0  164.27    5.91
   3  -5   0  159.83    6.47
   3  -5   0  156.99    5.99
   3  -5   1  146.73    5.36
   3  -5   1  151.15    6.08
   3  -5   1  148.26    5.54
   3  -5   2   26.27    2.22
   3  -5   2   24.20    1.88
   3  -5   2   23.56    2.37
   3  -5   3   39.42    2.40
   3  -5   3   36.44    2.55
   3  -5   4  125.17    4.52
   3  -5   4  131.52    4.88
   3  -5   5   43.30    2.23
   3  -5   5   47.84    2.45
   3  -4 -10   54.78    2.59
   3  -4  -9  138.29    4.99
   3  -4  -8    0.25    0.93
   3  -4  -7    8.19    1.37
   3  -4  -7    5.68    1.42
   3  -4  -7    7.97    1.28
   3  -4  -6  306.72    9.20
   3  -4  -6  318.44    9.99
   3  -4  -6  291.85    9.44
   3  -4  -6  322.53   10.93
   3  -4  -6  297.18    9.25
   3  -4  -5   62.46    3.56
   3  -4  -5   64.68    3.92
   3  -4  -5   53.58    3.55
   3  -4  -5   59.41    4.38
   3  -4  -5   57.07    3.50
   3  -4  -5   54.16    3.70
   3  -4  -5   59.76    3.58
   3  -4  -4   14.45    2.03
   3  -4  -4   14.54    2.16
   3  -4  -4   13.67    1.90
   3  -4  -4   15.43    2.04
   3  -4  -4   11.42    1.85
   3  -4  -3  379.78   11.07
   3  -4  -3  360.87   11.09
   3  -4  -3  346.29   10.73
   3  -4  -3  361.95   12.05
   3  -4  -3  334.52   11.02
   3  -4  -3  371.19   11.05
   3  -4  -2  735.71   18.48
   3  -4  -2  723.15   18.58
   3  -4  -2  716.05   18.33
   3  -4  -2  730.21   19.70
   3  -4  -2  658.07   18.57
   3  -4  -2  727.19   18.52
   3  -4  -1   15.41    2.06
   3  -4   0  207.53    7.35
   3  -4   0  193.30    7.86
   3  -4   0  196.64    7.17
   3  -4   0  207.95    7.40
   3  -4   1   65.60    3.64
   3  -4   1   64.17    4.20
   3  -4   1   57.38    3.48
   3  -4   1   64.36    3.71
   3  -4   2  204.04    6.96
   3  -4   2  198.03    7.87
   3  -4   2  204.84    7.11
   3  -4   3   31.46    2.32
   3  -4   3   37.14    3.20
   3  -4   3   35.72    2.59
   3  -4   4   60.15    3.87
   3  -4   5  160.31    6.07
   3  -4   5  120.22    4.62
   3  -4   6   97.03    4.19
   3  -4   6   62.10    2.93
   3  -4   7    0.04    0.27
   3  -3 -10   91.70    3.85
   3  -3  -9  238.54    7.58
   3  -3  -8   92.49    4.35
   3  -3  -7   97.42    4.57
   3  -3  -7  103.38    5.74
   3  -3  -6    7.39    1.50
   3  -3  -6    7.12    1.36
   3  -3  -6    7.30    1.77
   3  -3  -6    7.01    1.52
   3  -3  -6    7.20    1.43
   3  -3  -6   11.16    2.38
   3  -3  -5  979.62   22.60
   3  -3  -5  942.85   23.03
   3  -3  -5  896.84   22.45
   3  -3  -5  938.29   22.42
   3  -3  -5  939.60   24.43
   3  -3  -5  893.99   22.94
   3  -3  -5  941.66   22.51
   3  -3  -4  261.71    8.48
   3  -3  -4  257.99    8.63
   3  -3  -4  264.04    8.49
   3  -3  -4  241.64    8.33
   3  -3  -4  266.51    9.79
   3  -3  -4  270.94    8.56
   3  -3  -4  245.43    8.64
   3  -3  -3   11.84    1.81
   3  -3  -3   12.58    1.92
   3  -3  -3   12.87    1.86
   3  -3  -3    9.06    1.63
   3  -3  -3   10.59    1.71
   3  -3  -3   14.40    1.98
   3  -3  -2  256.22    8.50
   3  -3  -2  263.42    8.60
   3  -3  -2  274.37    9.75
   3  -3  -2  264.04    8.89
   3  -3  -2  259.45    8.53
   3  -3  -1  742.86   18.91
   3  -3  -1  766.26   20.20
   3  -3  -1  750.64   19.38
   3  -3   0   17.38    2.20
   3  -3   0   15.82    1.95
   3  -3   0   19.95    2.17
   3  -3   0   15.29    2.05
   3  -3   0   18.33    2.08
   3  -3   1   43.92    2.93
   3  -3   1   45.36    3.16
   3  -3   1   43.99    2.97
   3  -3   1   40.94    2.89
   3  -3   1   42.52    3.37
   3  -3   1   40.92    3.19
   3  -3   1   44.18    3.01
   3  -3   2  261.45    8.34
   3  -3   2  307.14    9.02
   3  -3   2  280.15    9.34
   3  -3   2  289.63    8.86
   3  -3   2  289.79    8.87
   3  -3   2  281.49    9.74
   3  -3   2  301.09    9.04
   3  -3   3  296.52    9.34
   3  -3   3  318.31   10.01
   3  -3   3  338.60    9.58
   3  -3   3  317.30   10.15
   3  -3   3  317.99    9.46
   3  -3   3  324.64   10.64
   3  -3   3  321.60    9.42
   3  -3   3  337.38    9.66
   3  -3   4  148.68    5.97
   3  -3   4  172.27    6.48
   3  -3   4  159.76    5.59
   3  -3   4  163.08    6.56
   3  -3   4  155.57    5.68
   3  -3   4  165.10    6.94
   3  -3   4  150.31    5.59
   3  -3   5   57.49    3.64
   3  -3   5   65.75    3.78
   3  -3   5   64.79    3.93
   3  -3   5   64.92    4.18
   3  -3   6  147.69    5.85
   3  -3   6  159.81    6.31
   3  -3   6  150.65    6.49
   3  -3   7   55.60    3.40
   3  -3   7   56.85    3.61
   3  -3   8   22.53    2.10
   3  -3   8   25.46    2.08
   3  -3   9  109.15    3.97
   3  -3   9   97.35    3.76
   3  -2  -9   93.43    4.84
   3  -2  -8  375.05   11.52
   3  -2  -7  135.47    5.86
   3  -2  -6   16.24    1.79
   3  -2  -6   19.28    2.24
   3  -2  -6   15.30    1.71
   3  -2  -6   15.02    2.40
   3  -2  -6   15.07    1.71
   3  -2  -6   18.90    2.09
   3  -2  -5  108.36    4.54
   3  -2  -5  118.69    5.07
   3  -2  -5  102.78    4.45
   3  -2  -5  103.67    5.49
   3  -2  -5  101.64    4.41
   3  -2  -5  103.73    4.80
   3  -2  -4 1281.25   29.03
   3  -2  -4 1328.84   29.41
   3  -2  -4 1259.91   28.84
   3  -2  -4 1231.24   30.48
   3  -2  -4 1260.63   28.92
   3  -2  -4 1293.98   29.55
   3  -2  -3   10.05    1.53
   3  -2  -3   10.31    1.59
   3  -2  -3    7.48    1.46
   3  -2  -3   11.37    1.49
   3  -2  -3    8.93    1.97
   3  -2  -3    9.32    1.54
   3  -2  -2  130.91    5.12
   3  -2  -2  138.58    5.21
   3  -2  -2  127.59    5.06
   3  -2  -2  137.08    5.28
   3  -2  -2  134.39    5.96
   3  -2  -2  140.48    5.20
   3  -2  -1  113.21    4.64
   3  -2  -1  112.81    4.59
   3  -2  -1   99.33    5.04
   3  -2  -1  117.57    4.64
   3  -2   0  331.78    8.46
   3  -2   0  346.78    9.77
   3  -2   0  338.94    9.67
   3  -2   0  337.01    9.73
   3  -2   0  353.74    9.73
   3  -2   0  338.36    9.64
   3  -2   1   44.02    2.32
   3  -2   1   45.08    2.80
   3  -2   1   47.58    2.87
   3  -2   1   42.60    2.79
   3  -2   1   45.62    2.72
   3  -2   1   43.28    2.98
   3  -2   1   43.52    2.76
   3  -2   2  359.38   10.18
   3  -2   2  355.87   10.27
   3  -2   2  358.58   10.02
   3  -2   2  355.80    9.87
   3  -2   2  344.37   10.48
   3  -2   2  348.17    9.94
   3  -2   3  845.81   20.37
   3  -2   3  879.11   21.16
   3  -2   3  861.21   20.51
   3  -2   3  883.92   20.51
   3  -2   3  873.12   21.45
   3  -2   3  860.83   20.50
   3  -2   4  216.27    7.39
   3  -2   4  219.15    7.28
   3  -2   4  215.52    6.88
   3  -2   4  219.68    7.65
   3  -2   4  220.38    6.90
   3  -2   4  218.71    7.92
   3  -2   4  223.28    6.96
   3  -2   5  296.26    9.21
   3  -2   5  289.16    9.17
   3  -2   5  292.20    9.76
   3  -2   6    5.23    1.43
   3  -2   6    4.98    1.34
   3  -2   6    4.33    1.08
   3  -2   6    3.40    1.54
   3  -2   7  396.91   11.41
   3  -2   7  382.46   11.69
   3  -2   7  403.54   12.21
   3  -2   8   76.63    3.88
   3  -2   8   82.31    4.46
   3  -2   9   46.47    2.78
   3  -2   9   52.20    3.21
   3  -2  10   -0.15    0.36
   3  -2  10  389.07    6.85
   3  -2  11   10.95    1.10
   3  -1  -9   44.81    3.28
   3  -1  -8  227.40    8.02
   3  -1  -7  456.44   12.82
   3  -1  -6  334.57    9.16
   3  -1  -6  357.93   10.29
   3  -1  -5    6.90    1.14
   3  -1  -5    9.41    1.29
   3  -1  -5   10.58    1.58
   3  -1  -5    8.19    1.69
   3  -1  -5    8.75    1.44
   3  -1  -4  346.23    9.72
   3  -1  -4  341.98    9.27
   3  -1  -4  350.08    9.95
   3  -1  -4  360.63    9.41
   3  -1  -3  908.88   21.18
   3  -1  -3  903.48   21.16
   3  -1  -3  907.08   20.84
   3  -1  -3  931.10   20.92
   3  -1  -3  955.50   21.61
   3  -1  -2   67.40    3.00
   3  -1  -2   62.97    3.22
   3  -1  -1  171.50    5.44
   3  -1  -1  174.36    5.83
   3  -1   0  892.90   20.82
   3  -1   1  664.00   15.74
   3  -1   1  669.99   15.00
   3  -1   1  645.35   15.78
   3  -1   1  686.97   16.48
   3  -1   1  664.42   15.67
   3  -1   2   94.78    3.82
   3  -1   2   96.27    3.52
   3  -1   2   89.35    3.81
   3  -1   2  101.07    3.90
   3  -1   2   96.01    3.74
   3  -1   2  100.58    4.31
   3  -1   2  103.28    3.84
   3  -1   3  634.46   15.58
   3  -1   3  642.73   15.32
   3  -1   3  626.39   15.46
   3  -1   3  640.46   15.30
   3  -1   3  665.04   15.38
   3  -1   4  447.13   11.24
   3  -1   4  456.59   11.67
   3  -1   4  425.59   11.98
   3  -1   4  439.15   11.50
   3  -1   4  429.24   11.17
   3  -1   5   33.11    2.44
   3  -1   5   32.27    2.07
   3  -1   5   30.12    2.56
   3  -1   5   30.95    2.28
   3  -1   6  195.36    6.81
   3  -1   6  192.34    6.97
   3  -1   6  191.60    7.20
   3  -1   6  188.97    6.41
   3  -1   7   52.84    3.28
   3  -1   7   52.37    3.48
   3  -1   7   55.67    3.68
   3  -1   7   46.94    2.87
   3  -1   8  110.71    4.86
   3  -1   8   97.75    4.95
   3  -1   8   95.34    4.08
   3  -1   9    2.27    1.03
   3  -1  10  121.42    4.75
   3  -1  10  121.44    5.33
   3  -1  11  290.89    7.73
   3  -1  11  275.41    8.45
   3  -1  12   73.90    2.81
   3  -1  12   58.60    2.60
   3   0 -10  845.68   21.30
   3   0  -9  467.27   13.41
   3   0  -8    2.42    1.15
   3   0  -7  809.61   19.98
   3   0  -6  186.40    6.49
   3   0  -5  194.94    5.61
   3   0  -5  193.55    6.41
   3   0  -4   69.61    3.29
   3   0  -3  201.59    6.19
   3   0  -2  442.12   11.06
   3   0  -1  142.77    4.65
   3   0   0  500.29   12.12
   3   0   1  490.99   12.07
   3   0   2   89.62    2.86
   3   0   2   95.39    3.76
   3   0   3   36.92    1.63
   3   0   4  745.21   17.25
   3   0   4  705.26   16.06
   3   0   4  760.47   17.28
   3   0   5  492.86   12.64
   3   0   5  477.22   12.20
   3   0   5  500.28   11.38
   3   0   5  476.73   12.25
   3   0   6   20.89    2.18
   3   0   6   18.36    1.83
   3   0   7  358.48   10.71
   3   0   7  332.24    9.77
   3   0   7  335.21   10.06
   3   0   8  999.21   23.87
   3   0   8 1046.04   24.54
   3   0   9   27.71    2.48
   3   0   9   25.34    2.16
   3   0  10   11.85    1.69
   3   0  10   10.92    1.29
   3   0  10   12.86    2.02
   3   0  11  144.71    5.22
   3   0  11  133.65    5.51
   3   0  12  146.28    4.60
   3   0  12  136.38    4.85
   3   1  -9  992.64   24.18
   3   1  -8  197.96    7.14
   3   1  -7   98.04    4.44
   3   1  -6  665.98   16.43
   3   1  -5   54.54    2.84
   3   1  -4  295.61    8.09
   3   1  -3  350.36    8.91
   3   1  -2 1679.64   35.46
   3   1  -1  738.96   16.37
   3   1   0   10.32    0.97
   3   1   1  738.34   16.53
   3   1   3  244.19    6.71
   3   1   4   20.83    1.60
   3   1   5 1656.55   36.40
   3   1   5 1691.43   36.02
   3   1   5 1662.79   36.35
   3   1   6  148.58    5.43
   3   1   6  148.81    5.16
   3   1   6  153.45    5.51
   3   1   7   25.07    2.21
   3   1   7   25.80    2.06
   3   1   8   97.09    4.54
   3   1   8  102.19    4.35
   3   1   9  611.14   16.18
   3   1   9  648.39   16.68
   3   1  10   21.87    2.44
   3   1  10   24.49    2.21
   3   1  10   26.37    2.48
   3   1  11    3.71    1.26
   3   1  11    3.27    0.88
   3   1  11    3.51    1.14
   3   1  12  226.67    6.66
   3   1  12  184.44    6.16
   3   1  13   88.92    3.13
   3   2  -7   93.35    4.22
   3   2  -6  217.40    6.82
   3   2  -5  625.79   14.93
   3   2  -4  641.34   14.79
   3   2  -3  153.09    4.34
   3   2  -2  251.66    6.05
   3   2  -1  292.35    6.72
   3   2   0   15.59    0.92
   3   2   4  204.89    6.42
   3   2   5  547.62   13.47
   3   2   5  515.05   13.03
   3   2   6 1838.60   39.45
   3   2   6 1765.69   38.84
   3   2   6 1798.23   39.22
   3   2   7   23.99    2.23
   3   2   7   24.11    2.07
   3   2   7   25.53    2.25
   3   2   8    7.07    1.50
   3   2   8    8.19    1.54
   3   2   8    6.37    1.39
   3   2   9  254.58    8.57
   3   2   9  245.56    8.39
   3   2   9  259.66    8.70
   3   2  10  487.01   12.96
   3   2  10  496.02   13.32
   3   2  11   36.89    2.73
   3   2  11   42.98    3.07
   3   2  12   55.85    2.91
   3   2  12   65.93    3.41
   3   2  13  214.98    6.33
   3   3   5   53.60    2.79
   3   3   6  115.63    4.91
   3   3   6  106.11    4.44
   3   3   7  620.81   16.00
   3   3   7  596.52   15.03
   3   3   7  596.02   15.53
   3   3   8  434.88   12.50
   3   3   8  411.77   11.74
   3   3   8  425.66   12.24
   3   3   9   25.72    2.59
   3   3   9   26.12    2.46
   3   3   9   26.51    2.68
   3   3  10  210.62    8.00
   3   3  10  236.74    8.15
   3   3  11  355.20   10.83
   3   3  12   36.28    2.62
   3   3  12   33.52    2.61
   3   3  13   -0.05    0.34
   3   3  13   12.10    1.47
   3   4   4  913.14   21.76
   3   4   5    9.42    1.64
   3   4   6   38.50    2.92
   3   4   7  194.23    7.24
   3   4   8  528.65   14.78
   3   4   9  320.53    9.94
   3   4   9  346.48   10.90
   3   4  10  431.53   13.16
   3   4  10  452.46   12.73
   3   4  10  469.04   13.58
   3   4  11   54.21    3.32
   3   4  11   61.77    3.86
   3   4  12  143.14    5.61
   3   4  13    9.50    1.36
   3   4  13   10.10    1.30
   3   5   3   28.06    2.40
   3   5   4  255.25    8.43
   3   5   5  564.76   15.18
   3   5   6   32.20    2.74
   3   5   7   46.76    3.43
   3   5   8  272.15    9.37
   3   5   9  520.01   14.96
   3   5   9  544.72   15.35
   3   5  10  232.69    8.51
   3   5  11  119.64    5.41
   3   5  12   71.69    3.67
   3   5  13   62.83    2.83
   3   6   1  111.41    4.95
   3   6   2  481.46   13.22
   3   6   3  355.82   10.65
   3   6   4    8.49    1.57
   3   6   5  252.99    8.53
   3   6   6  395.51   11.77
   3   6   7   48.22    3.47
   3   6   8    4.69    1.41
   3   6   9   24.78    2.62
   3   6  10   81.95    4.33
   3   6  11    9.79    1.58
   3   6  12    9.81    1.38
   3   7   9   34.63    2.61
   3   7  10  126.48    4.77
   3   7  11   73.04    3.08
   3   8   8   65.95    2.85
   3   8   9    8.20    0.99
   4  -5  -6   61.09    2.38
   4  -5  -5    3.82    0.82
   4  -5  -5    3.59    0.84
   4  -5  -4   18.26    1.69
   4  -5  -4   15.61    1.48
   4  -5  -4   14.16    1.39
   4  -5  -3   76.81    3.35
   4  -5  -3   67.03    3.06
   4  -5  -3   64.28    3.02
   4  -5  -3   73.11    3.24
   4  -5  -2   46.70    2.59
   4  -5  -2   46.37    2.61
   4  -5  -1    0.50    0.85
   4  -5  -1    0.06    0.88
   4  -5  -1    0.19    0.77
   4  -5  -1    1.16    0.77
   4  -5   0   27.44    1.97
   4  -5   0   25.29    1.74
   4  -5   0   26.71    1.91
   4  -5   1   60.19    2.72
   4  -5   1   52.12    2.34
   4  -5   1   54.25    2.61
   4  -5   2   54.17    2.44
   4  -5   3   43.43    1.91
   4  -4  -6  122.45    4.51
   4  -4  -6  119.11    4.58
   4  -4  -5  196.82    6.55
   4  -4  -5  205.40    6.98
   4  -4  -5  186.66    6.56
   4  -4  -4    1.96    1.19
   4  -4  -4    2.17    1.29
   4  -4  -4    2.17    1.14
   4  -4  -4    2.25    1.20
   4  -4  -3   62.27    3.47
   4  -4  -3   62.37    3.63
   4  -4  -3   55.49    3.45
   4  -4  -3   58.09    3.47
   4  -4  -2   92.77    4.42
   4  -4  -2   95.70    4.59
   4  -4  -2   91.03    4.52
   4  -4  -2  103.51    4.67
   4  -4  -1  194.97    6.95
   4  -4  -1  181.95    6.90
   4  -4   0   21.44    2.12
   4  -4   0   21.04    2.25
   4  -4   0   18.67    2.21
   4  -4   0   25.25    2.29
   4  -4   1  123.31    4.86
   4  -4   1  126.36    5.21
   4  -4   1  116.80    5.23
   4  -4   1  125.03    5.00
   4  -4   2   93.99    3.92
   4  -4   2  103.07    4.49
   4  -4   2   98.22    4.56
   4  -4   2   95.95    4.11
   4  -4   3   27.03    2.16
   4  -4   3   27.84    2.30
   4  -4   4  114.11    4.36
   4  -4   4  108.29    4.40
   4  -4   5   50.51    2.55
   4  -4   5   52.55    2.65
   4  -4   6   79.82    2.88
   4  -3  -6   36.19    2.60
   4  -3  -6   38.87    2.99
   4  -3  -6   34.78    2.59
   4  -3  -5  513.83   13.96
   4  -3  -5  532.21   14.46
   4  -3  -5  514.12   14.03
   4  -3  -4    4.91    1.53
   4  -3  -4    7.49    1.68
   4  -3  -4    5.49    1.47
   4  -3  -4    5.80    1.44
   4  -3  -3    5.39    1.52
   4  -3  -3    6.57    1.64
   4  -3  -3    5.70    1.62
   4  -3  -3    6.86    1.57
   4  -3  -2   22.72    2.41
   4  -3  -2   14.94    2.16
   4  -3  -2   21.57    2.33
   4  -3  -2   12.94    2.06
   4  -3  -2   20.50    2.32
   4  -3  -1   17.23    2.29
   4  -3  -1   14.59    2.15
   4  -3  -1   21.92    2.53
   4  -3   0  467.76   12.98
   4  -3   0  455.62   12.98
   4  -3   0  450.85   12.88
   4  -3   0  442.59   13.28
   4  -3   0  414.59   13.33
   4  -3   0  473.52   13.05
   4  -3   1  251.70    8.18
   4  -3   1  235.36    8.27
   4  -3   1  228.41    7.98
   4  -3   1  231.10    8.50
   4  -3   1  240.81    8.12
   4  -3   2  330.20    9.70
   4  -3   2  322.61   10.09
   4  -3   2  303.53    9.54
   4  -3   2  301.43   10.20
   4  -3   2  319.22    9.66
   4  -3   3  162.24    5.84
   4  -3   3  174.56    6.62
   4  -3   3  155.06    5.91
   4  -3   3  159.74    6.66
   4  -3   3  167.31    5.99
   4  -3   4    0.82    0.78
   4  -3   4    2.39    1.34
   4  -3   4    1.33    1.42
   4  -3   4    1.46    0.67
   4  -3   5   83.74    4.11
   4  -3   5   84.31    4.29
   4  -3   6  225.95    7.24
   4  -3   6  230.81    7.52
   4  -3   7  115.71    4.10
   4  -3   7   86.62    3.55
   4  -3   8   15.51    1.28
   4  -3   8    9.15    0.93
   4  -2  -7  397.89   12.05
   4  -2  -6   21.11    2.11
   4  -2  -6   19.67    2.32
   4  -2  -6   18.65    2.02
   4  -2  -6   16.27    2.16
   4  -2  -5  237.42    8.14
   4  -2  -5  225.49    7.77
   4  -2  -5  225.70    7.73
   4  -2  -5  221.32    8.21
   4  -2  -4  488.81   13.74
   4  -2  -4  513.50   13.91
   4  -2  -4  503.84   13.76
   4  -2  -4  494.61   14.34
   4  -2  -3    9.19    1.70
   4  -2  -3    6.71    1.55
   4  -2  -3    7.65    1.62
   4  -2  -3    8.00    1.72
   4  -2  -2   39.94    3.00
   4  -2  -2   42.70    2.93
   4  -2  -2   37.91    3.00
   4  -2  -2   41.78    3.01
   4  -2  -2   40.49    3.17
   4  -2  -1  378.05   10.84
   4  -2  -1  347.77   10.90
   4  -2  -1  365.17   10.91
   4  -2  -1  375.20   11.59
   4  -2   0  266.69    8.84
   4  -2   0  283.33    8.87
   4  -2   0  276.62    8.88
   4  -2   0  261.02    8.91
   4  -2   0  271.23    8.84
   4  -2   0  270.92    9.43
   4  -2   1  166.00    6.47
   4  -2   1  181.74    6.67
   4  -2   1  183.52    6.63
   4  -2   1  168.95    6.73
   4  -2   1  165.58    7.04
   4  -2   1  164.90    6.44
   4  -2   2  229.94    7.97
   4  -2   2  236.04    8.02
   4  -2   2  220.64    7.73
   4  -2   2  235.52    7.81
   4  -2   2  211.89    7.96
   4  -2   2  232.79    7.83
   4  -2   3  276.08    9.21
   4  -2   3  282.03    9.24
   4  -2   3  282.05    8.86
   4  -2   3  293.40    8.99
   4  -2   3  273.90    9.39
   4  -2   3  284.69    8.86
   4  -2   4  103.26    4.41
   4  -2   4  103.73    4.98
   4  -2   4  104.43    4.65
   4  -2   4  108.07    5.26
   4  -2   4  101.68    4.44
   4  -2   5   67.38    3.94
   4  -2   5   66.28    3.54
   4  -2   5   71.06    4.17
   4  -2   6  119.99    5.20
   4  -2   6  116.10    5.18
   4  -2   6  108.82    4.48
   4  -2   6  117.23    5.38
   4  -2   7  369.51   10.71
   4  -2   7  380.33   10.84
   4  -2   7  379.15   11.14
   4  -2   8   89.03    3.86
   4  -2   8   89.42    3.94
   4  -2   9   40.81    2.30
   4  -2   9   39.05    2.33
   4  -2  10   66.08    2.47
   4  -1  -8  148.79    6.26
   4  -1  -7  158.66    6.49
   4  -1  -6  175.14    6.85
   4  -1  -5    0.59    0.96
   4  -1  -5    1.03    0.97
   4  -1  -5    0.58    1.12
   4  -1  -5    0.65    1.05
   4  -1  -4  280.31    8.69
   4  -1  -4  270.66    8.41
   4  -1  -4  274.51    9.06
   4  -1  -4  279.68    8.54
   4  -1  -3  358.42   10.18
   4  -1  -3  352.60   10.33
   4  -1  -3  340.90    9.95
   4  -1  -3  355.56   10.72
   4  -1  -3  358.23   10.14
   4  -1  -2  518.08   13.44
   4  -1  -2  527.85   13.74
   4  -1  -2  505.08   13.34
   4  -1  -2  518.33   14.15
   4  -1  -2  511.43   13.43
   4  -1  -1  303.85    8.91
   4  -1  -1  301.46    9.07
   4  -1  -1  294.66    8.82
   4  -1  -1  312.54    9.66
   4  -1  -1  298.80    8.89
   4  -1   0  319.37    9.32
   4  -1   0  310.93    9.26
   4  -1   0  335.04    9.57
   4  -1   0  327.26   10.11
   4  -1   1  282.65    8.59
   4  -1   1  283.39    8.60
   4  -1   1  270.19    8.49
   4  -1   1  291.12    8.60
   4  -1   1  285.80    9.28
   4  -1   1  293.93    8.65
   4  -1   2    6.02    1.31
   4  -1   2    6.50    1.30
   4  -1   2    5.45    0.94
   4  -1   2    5.86    1.34
   4  -1   2    5.81    1.35
   4  -1   2    6.48    1.36
   4  -1   3   21.24    2.04
   4  -1   3   24.31    2.21
   4  -1   3   18.66    1.72
   4  -1   3   20.02    2.12
   4  -1   3   19.62    2.13
   4  -1   3   24.03    2.19
   4  -1   3   25.52    2.20
   4  -1   4  730.58   18.12
   4  -1   4  680.29   17.33
   4  -1   4  708.90   17.56
   4  -1   4  743.39   18.20
   4  -1   4  712.42   18.28
   4  -1   4  730.68   18.00
   4  -1   4  708.64   17.53
   4  -1   5   74.46    3.96
   4  -1   5   61.12    3.51
   4  -1   5   68.82    3.91
   4  -1   5   73.26    4.10
   4  -1   5   66.75    3.68
   4  -1   6    0.20    0.84
   4  -1   6    0.10    1.14
   4  -1   6    3.14    1.25
   4  -1   6   -0.36    0.90
   4  -1   7  502.35   14.05
   4  -1   7  531.75   14.59
   4  -1   8  249.96    8.03
   4  -1   8  244.95    8.01
   4  -1   8  232.31    7.10
   4  -1   9   36.61    2.48
   4  -1   9   31.48    2.41
   4  -1  10   18.87    1.65
   4  -1  10   18.80    1.70
   4  -1  10   18.70    1.80
   4  -1  11   50.90    2.29
   4   0  -8    6.88    1.49
   4   0  -7  158.42    6.33
   4   0  -6  283.80    9.13
   4   0  -5  267.53    7.82
   4   0  -5  261.95    7.81
   4   0  -5  281.08    8.76
   4   0  -4  163.14    5.62
   4   0  -4  150.67    5.26
   4   0  -4  153.90    5.90
   4   0  -3  644.48   15.68
   4   0  -3  644.79   15.82
   4   0  -3  624.56   15.46
   4   0  -3  674.82   16.43
   4   0  -2  401.87   10.62
   4   0  -2  386.13   10.34
   4   0  -2  404.59   11.01
   4   0  -1  223.45    6.88
   4   0  -1  221.00    6.74
   4   0  -1  236.58    7.35
   4   0   0  924.27   21.18
   4   0   0  944.38   21.99
   4   0   1  196.23    6.15
   4   0   1  186.66    5.28
   4   0   1  201.51    6.23
   4   0   1  204.21    6.46
   4   0   1  204.43    6.25
   4   0   1  209.91    6.80
   4   0   2  219.66    6.80
   4   0   2  216.66    6.76
   4   0   2  224.98    7.02
   4   0   2  216.19    6.69
   4   0   2  229.52    7.42
   4   0   3    1.88    0.88
   4   0   3    1.08    0.87
   4   0   3    1.80    0.85
   4   0   4  174.98    6.11
   4   0   4  165.30    6.02
   4   0   4  168.94    6.12
   4   0   4  177.01    5.78
   4   0   4  174.74    5.75
   4   0   5  985.41   23.37
   4   0   5  973.63   23.39
   4   0   5  983.31   23.34
   4   0   5  990.33   22.51
   4   0   6  246.01    8.09
   4   0   6  225.45    7.88
   4   0   6  242.76    8.19
   4   0   6  239.65    7.91
   4   0   7    0.85    1.04
   4   0   7    0.66    0.98
   4   0   8  217.23    7.90
   4   0   8  223.07    7.38
   4   0   9  335.95    9.86
   4   0   9  307.65    9.05
   4   0  10   32.29    2.35
   4   0  10   24.43    2.33
   4   0  11   50.35    2.56
   4   0  11   50.73    2.64
   4   0  11   45.51    2.62
   4   1  -7    0.78    0.86
   4   1  -6  226.69    7.56
   4   1  -5  646.06   16.22
   4   1  -4  814.61   19.34
   4   1  -3  424.63   11.07
   4   1  -2  641.26   15.33
   4   1  -1  662.81   15.65
   4   1   0   61.91    2.85
   4   1   1  334.47    8.96
   4   1   1  332.25    9.03
   4   1   2 1319.92   29.22
   4   1   3  403.18   10.61
   4   1   3  413.78   10.97
   4   1   3  415.09   10.48
   4   1   4    8.42    1.32
   4   1   4    9.85    1.24
   4   1   4    9.11    1.19
   4   1   5  314.65    9.17
   4   1   5  307.50    8.54
   4   1   5  335.65    9.39
   4   1   6  169.52    6.34
   4   1   6  166.51    6.18
   4   1   7   88.54    4.36
   4   1   7   85.43    4.33
   4   1   8    6.99    1.56
   4   1   8    6.00    1.43
   4   1   9  118.02    5.06
   4   1  10  210.30    7.16
   4   1  10  194.14    6.59
   4   1  11    0.38    0.96
   4   1  11   -0.06    0.31
   4   1  11   -0.07    0.74
   4   1  12  138.56    4.29
   4   1  12  132.42    4.08
   4   2  -4  477.83   11.72
   4   2  -3   60.61    2.55
   4   2  -2  110.25    3.58
   4   2  -1  987.62   21.47
   4   2   0  397.49    9.61
   4   2   3  822.53   19.60
   4   2   3  867.82   19.95
   4   2   4  275.86    8.18
   4   2   4  275.28    8.26
   4   2   4  271.00    7.86
   4   2   5   37.15    2.58
   4   2   5   35.18    2.50
   4   2   5   36.35    2.45
   4   2   6  254.33    8.13
   4   2   6  273.61    8.37
   4   2   7  496.44   13.67
   4   2   7  471.04   13.18
   4   2   7  515.01   13.66
   4   2   8    0.85    1.23
   4   2   8    1.72    1.16
   4   2   8    1.51    1.03
   4   2   9   85.27    4.48
   4   2   9   93.16    4.68
   4   2  10  304.52    9.47
   4   2  11  140.77    5.05
   4   2  11  110.09    4.40
   4   2  12    2.48    0.96
   4   2  12   -0.10    0.32
   4   2  13   92.54    3.18
   4   3   3  352.35    9.51
   4   3   4  102.76    4.54
   4   3   4   90.61    3.74
   4   3   5  187.58    6.77
   4   3   5  180.87    6.10
   4   3   6   14.89    1.96
   4   3   6   16.62    1.88
   4   3   7  295.95    9.62
   4   3   7  308.14    9.47
   4   3   8  358.55   11.35
   4   3   8  395.91   11.53
   4   3   9   72.09    4.19
   4   3   9   58.39    3.81
   4   3   9   71.00    4.15
   4   3  10    2.45    1.35
   4   3  10    2.11    1.38
   4   3  11  170.29    6.37
   4   3  11  173.98    6.51
   4   3  12   83.68    3.61
   4   3  13    4.63    0.89
   4   4   4  256.07    7.44
   4   4   5  394.69   10.76
   4   4   6    2.32    1.08
   4   4   6    4.68    1.52
   4   4   7  151.41    6.42
   4   4   7  156.49    6.19
   4   4   8  573.20   16.10
   4   4   8  585.66   15.88
   4   4   9   53.12    3.77
   4   4   9   60.95    3.88
   4   4  10   71.46    4.21
   4   4  11    7.34    1.66
   4   4  11    6.83    1.56
   4   4  12  195.68    6.62
   4   4  12  216.45    6.86
   4   4  13   25.06    1.61
   4   5   3  152.41    6.33
   4   5   4   97.75    5.01
   4   5   5  453.49   13.02
   4   5   5  417.82   11.71
   4   5   6  410.37   12.38
   4   5   6  397.02   11.53
   4   5   7    5.39    1.49
   4   5   7    6.25    1.66
   4   5   8   35.12    3.03
   4   5   9  190.53    7.39
   4   5  10   24.09    2.51
   4   5  11    3.07    1.31
   4   5  12  100.26    4.25
   4   5  12  109.39    4.30
   4   5  13  132.06    4.17
   4   5  13  141.78    4.28
   4   6   2  205.76    7.77
   4   6   3  224.73    8.28
   4   6   4  258.32    9.16
   4   6   5  149.31    6.51
   4   6   6  218.36    8.09
   4   6   6  203.84    7.34
   4   6   7   52.03    3.71
   4   6   7   50.73    3.50
   4   6   8   35.06    2.94
   4   6   9  244.88    8.36
   4   6  10   59.77    3.49
   4   6  11   10.54    1.54
   4   6  11   11.80    1.66
   4   6  12   38.14    2.21
   4   6  12   39.53    2.19
   4   7   4   64.05    3.97
   4   7   7  124.48    5.00
   4   7   8  124.17    4.94
   4   7   9    1.85    0.99
   4   7  10  400.08   10.38
   4   7  11   50.16    2.41
   4   7  11   41.34    2.12
   5  -4  -5  153.84    4.51
   5  -4  -5  140.72    4.49
   5  -4  -4    4.88    0.97
   5  -4  -4    3.57    0.89
   5  -4  -3    4.13    1.01
   5  -4  -3    5.56    0.95
   5  -4  -3    3.23    0.90
   5  -4  -2  131.93    4.59
   5  -4  -2  128.25    4.66
   5  -4  -1  159.53    5.17
   5  -4  -1  168.07    5.32
   5  -4   0    0.50    0.78
   5  -4   0    0.22    0.82
   5  -4   0   -0.15    0.68
   5  -4   1   92.47    3.42
   5  -4   1   87.14    3.12
   5  -4   1   83.92    3.19
   5  -4   2   83.40    3.09
   5  -3  -6   25.52    1.85
   5  -3  -6   23.51    1.83
   5  -3  -5   94.88    4.01
   5  -3  -5   93.38    4.03
   5  -3  -4   81.48    3.86
   5  -3  -4   77.06    3.83
   5  -3  -4   80.18    3.86
   5  -3  -3    9.36    1.62
   5  -3  -3   12.27    1.68
   5  -3  -3   10.80    1.64
   5  -3  -2   83.37    4.08
   5  -3  -2   84.00    4.05
   5  -3  -2   83.33    4.15
   5  -3  -1  380.04   10.82
   5  -3   0   38.76    2.70
   5  -3   0   41.16    2.79
   5  -3   0   41.66    2.83
   5  -3   1    0.65    1.02
   5  -3   1    1.24    1.08
   5  -3   1    0.55    0.91
   5  -3   1    0.95    0.98
   5  -3   2   45.07    2.59
   5  -3   2   44.52    2.76
   5  -3   2   45.69    2.68
   5  -3   3  163.08    4.52
   5  -3   3  143.84    4.21
   5  -3   3   33.27    1.88
   5  -3   4   52.74    2.69
   5  -3   4   49.30    2.59
   5  -3   5   15.20    1.33
   5  -3   5    0.07    0.23
   5  -2  -6  137.51    5.10
   5  -2  -6  132.16    5.07
   5  -2  -5   81.13    4.08
   5  -2  -5   85.52    4.22
   5  -2  -5   87.05    4.18
   5  -2  -4  331.60   10.06
   5  -2  -4  325.71   10.07
   5  -2  -3  398.51   11.33
   5  -2  -3  364.43   11.35
   5  -2  -3  384.79   12.16
   5  -2  -3  386.23   11.46
   5  -2  -2   90.01    4.41
   5  -2  -2   85.44    4.56
   5  -2  -2   82.66    4.90
   5  -2  -2   83.16    4.48
   5  -2  -1  391.48   11.18
   5  -2  -1  360.83   11.98
   5  -2   0  305.76    9.35
   5  -2   0  282.91    9.47
   5  -2   0  281.54   10.09
   5  -2   0  300.87    9.59
   5  -2   1   15.75    2.06
   5  -2   1   17.71    2.23
   5  -2   1   16.57    1.99
   5  -2   1   14.46    2.08
   5  -2   2    3.84    1.41
   5  -2   2    3.35    1.37
   5  -2   2    4.99    1.47
   5  -2   2    1.85    1.12
   5  -2   2    4.85    1.39
   5  -2   3  142.31    5.31
   5  -2   3  140.74    5.54
   5  -2   3  135.90    5.49
   5  -2   3  123.33    5.37
   5  -2   3  132.88    5.24
   5  -2   4   90.33    3.80
   5  -2   4  109.18    4.60
   5  -2   4  106.75    4.48
   5  -2   4   96.42    4.48
   5  -2   4   97.60    4.01
   5  -2   5   10.04    1.49
   5  -2   5   10.80    1.47
   5  -2   5   10.75    1.57
   5  -2   6   16.82    1.64
   5  -2   6    0.05    0.33
   5  -2   7  119.78    4.08
   5  -2   8   12.31    1.06
   5  -1  -6   12.57    1.72
   5  -1  -6   13.73    2.01
   5  -1  -5  333.20   10.22
   5  -1  -5  344.64   10.21
   5  -1  -5  338.14   10.98
   5  -1  -4  142.21    5.87
   5  -1  -4  144.46    5.78
   5  -1  -4  144.40    5.85
   5  -1  -4  139.07    6.30
   5  -1  -3  299.73    9.65
   5  -1  -3  312.08    9.51
   5  -1  -3  311.39    9.69
   5  -1  -3  303.14   10.33
   5  -1  -2  115.23    5.26
   5  -1  -2  122.21    5.13
   5  -1  -2  121.05    5.45
   5  -1  -2  122.66    5.36
   5  -1  -2  112.50    5.70
   5  -1  -1   47.13    3.10
   5  -1  -1   51.59    3.44
   5  -1  -1   51.59    3.37
   5  -1  -1   49.95    3.72
   5  -1  -1   46.37    3.26
   5  -1   0  165.11    6.52
   5  -1   0  175.81    6.38
   5  -1   0  177.55    6.76
   5  -1   0  162.42    7.06
   5  -1   1  213.15    7.62
   5  -1   1  214.31    7.36
   5  -1   1  213.89    7.59
   5  -1   2  123.34    5.43
   5  -1   2  122.77    5.43
   5  -1   2  130.55    5.37
   5  -1   2  126.98    5.44
   5  -1   3   54.81    3.49
   5  -1   3   42.50    3.11
   5  -1   3   48.87    3.20
   5  -1   3   51.39    3.34
   5  -1   3   44.22    3.10
   5  -1   3   46.90    3.18
   5  -1   4  761.30   19.02
   5  -1   4  735.39   18.50
   5  -1   4  762.56   18.77
   5  -1   4  701.99   18.42
   5  -1   4  737.96   18.22
   5  -1   5    2.27    1.32
   5  -1   5    3.32    1.30
   5  -1   5    4.23    1.31
   5  -1   5    2.70    1.20
   5  -1   6   23.53    2.33
   5  -1   6   23.72    2.24
   5  -1   6   21.87    2.09
   5  -1   7   57.29    3.26
   5  -1   7   54.33    3.02
   5  -1   7   50.91    2.78
   5  -1   8  159.91    4.13
   5  -1   8   -0.09    0.25
   5  -1   9   56.57    2.53
   5  -1   9   46.81    2.49
   5   0  -7   46.16    3.31
   5   0  -6  290.90    9.65
   5   0  -5  257.56    8.02
   5   0  -5  242.32    8.64
   5   0  -5  248.60    8.02
   5   0  -4  126.45    5.09
   5   0  -4  118.72    5.56
   5   0  -4  120.13    5.03
   5   0  -3  450.61   12.40
   5   0  -3  447.39   12.16
   5   0  -3  435.87   12.16
   5   0  -3  437.79   12.92
   5   0  -2  281.00    8.82
   5   0  -2  282.34    8.66
   5   0  -2  273.96    8.63
   5   0  -2  280.09    9.34
   5   0  -1   40.80    2.86
   5   0  -1   42.24    2.80
   5   0  -1   41.61    3.16
   5   0   0    3.44    1.04
   5   0   0    4.22    1.30
   5   0   0    4.09    1.25
   5   0   1  261.97    8.11
   5   0   1  262.01    8.22
   5   0   1  260.63    8.25
   5   0   1  244.66    8.67
   5   0   2  711.90   17.72
   5   0   2  698.83   17.43
   5   0   2  721.02   17.74
   5   0   2  708.82   17.77
   5   0   3   87.05    4.22
   5   0   3   81.14    4.01
   5   0   3   85.65    4.10
   5   0   3   81.29    4.03
   5   0   4  148.96    5.90
   5   0   4  134.96    5.49
   5   0   4  146.84    5.97
   5   0   4  148.82    5.62
   5   0   4  143.84    5.62
   5   0   5  460.45   12.79
   5   0   5  444.31   12.28
   5   0   5  437.13   12.27
   5   0   5  475.91   12.94
   5   0   5  432.09   11.86
   5   0   6   18.23    2.19
   5   0   6   16.94    1.99
   5   0   6   18.60    2.08
   5   0   7   92.81    4.45
   5   0   7   86.37    4.11
   5   0   7   87.88    4.20
   5   0   8   89.14    4.17
   5   0   8   83.44    3.85
   5   0   9  172.70    4.56
   5   0   9   49.16    2.68
   5   0  10   77.18    3.10
   5   0  10   63.76    3.00
   5   1  -5  317.94    8.92
   5   1  -5  288.20    9.34
   5   1  -4  167.46    5.82
   5   1  -4  159.53    6.14
   5   1  -3   21.20    1.98
   5   1  -3   20.39    1.95
   5   1  -3   20.18    2.01
   5   1  -2  170.95    5.91
   5   1  -2  156.12    5.76
   5   1  -2  174.49    6.20
   5   1  -1  486.28   12.69
   5   1  -1  482.41   13.01
   5   1   0  213.33    7.16
   5   1   1   23.27    1.92
   5   1   1   25.77    2.18
   5   1   1   27.48    2.19
   5   1   1   22.94    2.13
   5   1   2  173.92    5.96
   5   1   2  191.26    6.56
   5   1   2  179.08    6.21
   5   1   3  527.08   13.71
   5   1   3  538.74   14.23
   5   1   3  532.11   13.74
   5   1   4    0.97    0.96
   5   1   4   -0.20    1.10
   5   1   4    0.47    0.86
   5   1   5  254.28    8.18
   5   1   5  252.06    7.61
   5   1   5  238.21    7.54
   5   1   6  375.10   11.07
   5   1   6  376.95   11.26
   5   1   7    9.60    1.78
   5   1   7    8.59    1.51
   5   1   7    9.63    1.76
   5   1   8  112.95    5.00
   5   1   8  108.49    4.84
   5   1   9  185.44    6.39
   5   1   9  162.74    5.93
   5   1  10  175.38    5.51
   5   1  11   23.07    1.53
   5   2  -5   38.59    2.46
   5   2   0  512.03   12.55
   5   2   0  468.93   12.14
   5   2   1    1.32    0.78
   5   2   2  101.46    4.32
   5   2   3  164.63    5.60
   5   2   3  175.75    6.18
   5   2   3  167.32    6.03
   5   2   4  487.84   12.52
   5   2   4  495.40   13.11
   5   2   5   15.05    1.94
   5   2   5   15.96    1.71
   5   2   5   14.74    1.70
   5   2   5   15.96    1.85
   5   2   6  303.53    9.78
   5   2   6  315.35    9.55
   5   2   7  501.96   13.78
   5   2   8  243.59    8.26
   5   2   8  246.02    8.37
   5   2   9  207.76    7.24
   5   2   9  203.17    7.17
   5   2  10   53.50    3.10
   5   2  10   50.52    2.93
   5   2  11  186.08    5.93
   5   2  11  179.87    5.55
   5   3   1  203.22    6.35
   5   3   2    0.96    0.80
   5   3   3   88.72    4.09
   5   3   3   96.94    4.64
   5   3   4  609.01   15.47
   5   3   4  594.12   15.85
   5   3   4  579.89   14.60
   5   3   5  435.73   12.24
   5   3   5  418.10   12.30
   5   3   5  426.69   11.60
   5   3   6  275.04    8.95
   5   3   6  247.18    8.58
   5   3   6  267.89    8.42
   5   3   7  118.46    5.34
   5   3   7  116.67    5.06
   5   3   8  159.61    6.57
   5   3   8  214.50    7.28
   5   3   9   78.85    4.14
   5   3  10  121.37    5.09
   5   3  10  116.73    4.99
   5   3  11  116.15    4.57
   5   3  11  112.34    4.43
   5   3  12  109.98    3.84
   5   3  12  103.04    3.54
   5   4   3   17.69    1.87
   5   4   4  332.97    9.85
   5   4   4  323.42   10.50
   5   4   5  727.27   18.24
   5   4   5  709.72   18.86
   5   4   5  701.47   17.38
   5   4   6  243.64    8.42
   5   4   6  241.00    8.64
   5   4   6  240.09    7.88
   5   4   7  157.22    6.53
   5   4   7  143.90    6.38
   5   4   7  163.57    6.22
   5   4   8  177.28    6.95
   5   4   8  175.73    6.59
   5   4   9  294.17    9.79
   5   4   9  293.34    9.42
   5   4  10   24.27    2.31
   5   4  11  121.94    4.83
   5   4  11  115.39    4.66
   5   4  12  198.55    5.88
   5   4  12  192.83    5.78
   5   5   3  258.15    9.20
   5   5   4   43.91    2.98
   5   5   5  103.35    4.87
   5   5   6  171.80    6.81
   5   5   6  166.85    7.05
   5   5   6  170.46    6.23
   5   5   7   85.79    4.65
   5   5   7   72.04    4.47
   5   5   7   82.27    4.21
   5   5   8    4.23    1.36
   5   5   8    3.85    1.46
   5   5   9  442.07   12.87
   5   5   9  423.01   12.27
   5   5  10   50.90    3.34
   5   5  10   50.71    3.15
   5   5  11   10.05    1.47
   5   5  11   10.72    1.55
   5   5  12   45.40    2.24
   5   6   2  183.67    7.63
   5   6   3  283.79   10.04
   5   6   4   69.19    4.51
   5   6   5  183.84    6.86
   5   6   5  196.72    7.82
   5   6   6   28.12    2.61
   5   6   6   33.74    3.05
   5   6   7  263.41    8.76
   5   6   7  245.23    8.01
   5   6   8   45.20    3.25
   5   6   8   35.66    2.76
   5   6   9   38.31    2.94
   5   6   9   37.90    2.69
   5   6  10  596.12   14.99
   5   6  10  567.44   14.37
   5   6  11    0.68    0.70
   5   6  11    0.13    0.79
   5   7   7   43.88    2.78
   5   7   8  153.47    5.50
   5   7   9   44.48    2.61
   5   7  10    6.05    1.02
   6  -3  -4   73.38    2.77
   6  -3  -4   71.10    2.80
   6  -3  -3   15.96    1.37
   6  -3  -3   13.89    1.33
   6  -3  -2   10.72    1.20
   6  -3  -2    9.10    1.06
   6  -3  -2    9.90    1.20
   6  -3  -1   60.64    2.49
   6  -3   0   36.79    1.94
   6  -3   0   32.98    1.75
   6  -3   0   36.36    1.99
   6  -3   1    0.35    0.59
   6  -3   1    0.65    0.51
   6  -2  -6   79.36    2.97
   6  -2  -6   84.35    3.05
   6  -2  -5    8.71    1.25
   6  -2  -5    9.41    1.25
   6  -2  -4   74.94    3.44
   6  -2  -4   71.00    3.42
   6  -2  -3   78.54    3.69
   6  -2  -3   71.71    3.30
   6  -2  -3   76.20    3.71
   6  -2  -2    7.82    1.54
   6  -2  -2    5.83    1.21
   6  -2  -2    7.78    1.42
   6  -2  -1    9.83    1.42
   6  -2   0  329.96    9.39
   6  -2   0  309.19    8.80
   6  -2   0  338.08    9.50
   6  -2   1   70.33    3.33
   6  -2   1   70.29    3.37
   6  -2   2    3.92    1.07
   6  -2   2    3.85    0.95
   6  -2   2    3.91    0.98
   6  -2   3   -0.19    0.37
   6  -2   3   -0.13    0.31
   6  -2   4  131.96    4.04
   6  -1  -6  199.30    6.18
   6  -1  -6  210.67    6.28
   6  -1  -5   99.30    4.29
   6  -1  -4  347.08   10.22
   6  -1  -3   10.45    1.81
   6  -1  -2   24.98    2.16
   6  -1  -2   25.92    2.51
   6  -1  -1    2.91    1.54
   6  -1  -1    2.36    1.14
   6  -1   0    0.39    0.98
   6  -1   0    0.31    1.27
   6  -1   1  695.52   17.25
   6  -1   1  738.21   18.42
   6  -1   1  717.08   18.19
   6  -1   2   53.19    3.01
   6  -1   2   60.71    3.44
   6  -1   3    7.97    1.43
   6  -1   3   10.26    1.41
   6  -1   3    7.48    1.56
   6  -1   4   96.11    3.29
   6  -1   4  107.20    3.99
   6  -1   5  166.53    5.63
   6  -1   6   76.59    3.13
   6   0  -6  151.19    5.34
   6   0  -5  237.96    7.72
   6   0  -4   22.50    2.28
   6   0  -3  235.87    7.81
   6   0  -3  223.95    7.78
   6   0  -2  351.68   10.51
   6   0  -2  352.64   10.51
   6   0  -2  340.34   10.49
   6   0  -1  205.31    7.32
   6   0  -1  204.18    7.28
   6   0  -1  172.86    7.47
   6   0  -1  181.46    7.00
   6   0   0    0.32    1.19
   6   0   1  122.56    5.46
   6   0   1  129.83    5.51
   6   0   1  117.98    5.37
   6   0   2  320.55   10.14
   6   0   2  328.56   10.03
   6   0   3   68.13    3.75
   6   0   3   78.62    4.22
   6   0   3   74.63    3.95
   6   0   4   36.50    2.71
   6   0   4   32.10    2.50
   6   0   5   49.96    2.94
   6   0   5   46.75    2.90
   6   0   6  255.36    7.98
   6   0   6  258.03    7.91
   6   0   7   25.63    2.04
   6   0   7   20.10    1.79
   6   0   8   58.90    2.72
   6   0   8   50.42    2.35
   6   0   9   97.31    3.27
   6   1  -5  230.21    7.45
   6   1  -4  190.50    6.71
   6   1  -4  183.08    6.69
   6   1  -3    3.33    1.18
   6   1  -3    2.37    1.28
   6   1  -2   17.28    1.99
   6   1  -2   19.09    2.13
   6   1  -1  820.57   20.35
   6   1  -1  832.98   20.48
   6   1   0   16.16    2.03
   6   1   1    6.26    1.50
   6   1   1    5.58    1.47
   6   1   2  188.58    6.57
   6   1   2  195.52    6.97
   6   1   3  121.19    5.04
   6   1   3  127.47    5.52
   6   1   3  127.70    5.22
   6   1   3  109.10    5.01
   6   1   4  205.72    7.10
   6   1   4  219.14    7.64
   6   1   4  211.09    7.05
   6   1   5  147.11    5.70
   6   1   5  142.85    5.32
   6   1   6  240.09    7.83
   6   1   7  339.59    9.91
   6   1   7  356.08   10.15
   6   1   8    1.52    0.99
   6   1   9   63.88    2.91
   6   1   9   63.42    2.74
   6   2  -5   30.27    2.31
   6   2  -4  744.13   18.32
   6   2  -3  208.49    7.18
   6   2  -1  193.99    6.62
   6   2   1   16.46    1.95
   6   2   2   46.15    3.09
   6   2   2   47.32    3.10
   6   2   3  329.89    9.58
   6   2   3  352.45   10.48
   6   2   3  344.59   10.13
   6   2   4  284.07    8.65
   6   2   4  287.26    9.29
   6   2   4  286.68    8.79
   6   2   5   76.67    3.88
   6   2   5   80.10    4.29
   6   2   5   81.80    3.83
   6   2   6   21.75    2.15
   6   2   6   21.03    2.32
   6   2   7  116.87    4.87
   6   2   8  127.79    4.96
   6   2   8  113.71    4.86
   6   2   9   19.92    1.84
   6   2   9   16.86    1.73
   6   2  10   73.06    2.86
   6   2  10   39.72    2.00
   6   3  -5   43.27    2.64
   6   3   1  410.01   11.28
   6   3   2  245.70    7.95
   6   3   3   81.55    4.09
   6   3   3   70.92    4.17
   6   3   4  369.08   10.50
   6   3   4  302.04   10.07
   6   3   5  143.93    5.42
   6   3   5  145.45    5.97
   6   3   6    2.67    1.07
   6   3   6    3.81    1.43
   6   3   6    4.33    1.06
   6   3   7   59.52    3.40
   6   3   7   65.27    3.80
   6   3   8  110.84    4.68
   6   3   8  117.32    5.06
   6   3   9   29.48    2.24
   6   3  10    2.85    0.92
   6   3  10    4.77    1.06
   6   3  11  104.38    3.43
   6   3  11   92.16    3.26
   6   4   2  267.44    8.22
   6   4   3   20.57    2.10
   6   4   3   20.56    2.47
   6   4   4   28.49    2.51
   6   4   4   24.59    2.69
   6   4   5  230.93    7.79
   6   4   5  192.35    7.77
   6   4   6  110.33    4.57
   6   4   6  117.06    5.22
   6   4   7    7.69    1.42
   6   4   7    8.73    1.68
   6   4   8  268.04    8.24
   6   4   8  266.51    8.77
   6   4   9   76.73    3.66
   6   4   9   85.65    4.10
   6   4  10   51.68    2.72
   6   4  11    4.13    0.81
   6   4  11    4.36    0.89
   6   5   3  126.05    6.11
   6   5   4    7.73    1.48
   6   5   4    5.82    1.69
   6   5   5   39.24    2.90
   6   5   5   33.80    3.15
   6   5   6  169.38    6.58
   6   5   7   78.78    4.16
   6   5   7   66.40    3.40
   6   5   8   25.70    2.44
   6   5   8   20.16    1.90
   6   5   9  217.56    6.83
   6   5   9  237.02    7.60
   6   5  10    1.88    0.79
   6   5  10    0.65    0.89
   6   5  11   28.46    1.81
   6   6   2  229.30    8.84
   6   6   3  107.68    5.72
   6   6   6  204.97    7.07
   6   6   7  149.79    5.78
   6   6   8   62.73    3.46
   6   6   9   71.58    3.46
   6   6  10   92.59    3.60
   6   7   8   20.78    1.57
   6   7   9    0.29    0.52
   7  -2  -2   75.14    2.68
   7  -2  -2   80.45    2.78
   7  -1  -5   25.03    1.47
   7  -1  -5   25.76    1.50
   7  -1  -4    2.36    0.83
   7  -1  -4    1.47    0.75
   7  -1  -3   82.85    3.46
   7  -1  -3   85.83    3.52
   7  -1  -2  279.52    8.10
   7  -1  -2  295.25    8.21
   7  -1  -1   56.61    2.93
   7  -1   0   84.34    3.57
   7  -1   0   86.78    3.65
   7  -1   1   38.06    2.22
   7  -1   1   39.31    2.27
   7  -1   2   46.61    2.26
   7  -1   2   50.03    2.36
   7   0  -5  270.93    7.52
   7   0  -4  119.89    4.64
   7   0  -3    3.77    1.24
   7   0  -2   57.21    3.33
   7   0  -1  409.75   11.52
   7   0   1   48.58    3.03
   7   0   1   43.03    2.85
   7   0   2   75.72    3.74
   7   0   2   76.40    3.63
   7   0   3  108.12    4.51
   7   0   3  119.24    4.35
   7   0   4   -0.04    0.28
   7   0   4    0.04    0.25
   7   0   5   52.41    2.58
   7   0   6   52.27    2.27
   7   1  -5    0.47    0.84
   7   1  -4  395.19   10.90
   7   1  -3   14.39    1.91
   7   1  -2   37.33    2.78
   7   1  -1   40.31    2.84
   7   1  -1   42.71    3.02
   7   1   0  124.39    5.20
   7   1   1    8.13    1.63
   7   1   1    8.26    1.60
   7   1   2   63.97    3.59
   7   1   2   65.96    3.60
   7   1   3  333.69    9.86
   7   1   3  330.27    9.59
   7   1   4  189.86    6.52
   7   1   4  185.90    6.09
   7   1   5  198.26    6.50
   7   1   7  111.11    3.85
   7   2  -5    0.13    0.81
   7   2  -4   84.10    3.89
   7   2  -3  317.58    9.51
   7   2  -2    3.21    1.34
   7   2  -1   57.23    3.33
   7   2  -1   68.29    3.81
   7   2   0  194.42    6.86
   7   2   0  204.50    7.26
   7   2   1  151.87    5.86
   7   2   2   45.69    3.06
   7   2   2   43.85    3.03
   7   2   3  170.63    6.20
   7   2   4  229.06    7.29
   7   2   5   19.81    1.78
   7   2   5   14.51    1.50
   7   2   6  175.02    5.64
   7   2   7    4.59    1.00
   7   2   8   77.50    2.96
   7   3  -5   39.94    2.35
   7   3  -4   23.96    2.08
   7   3  -3   87.14    4.11
   7   3  -2  119.91    5.15
   7   3  -1   19.26    2.17
   7   3   1  177.97    6.31
   7   3   2   28.44    2.52
   7   3   3    5.68    1.40
   7   3   3    5.68    1.52
   7   3   4  268.09    8.53
   7   3   4  260.54    8.17
   7   3   5  229.94    7.58
   7   3   5  220.17    6.97
   7   3   6   12.38    1.66
   7   3   7  118.78    4.32
   7   3   7  133.72    4.97
   7   3   8  314.93    8.40
   7   3   8  350.21    9.16
   7   4  -4   33.14    2.30
   7   4   3   32.25    2.49
   7   4   4    1.45    1.04
   7   4   5  380.43   10.85
   7   4   5  371.58   10.39
   7   4   6  132.86    4.57
   7   4   6   -0.06    0.32
   7   4   7   30.28    2.35
   7   4   8   13.44    1.57
   7   4   9  270.27    7.48
   7   5   4   86.54    3.98
   7   5   5   44.47    2.85
   7   5   6  468.08    8.20
   7   5   6   19.17    1.85
   7   5   7   10.16    1.50
   7   5   8    3.70    1.08
   7   5   9   38.66    2.18
   7   6   7  167.98    5.34
   7   6   8   53.03    2.49
   8   0  -2   19.04    1.31
   8   0  -2   19.81    1.34
   8   0  -1    3.61    0.76
   8   0  -1    3.49    0.72
   8   0   0  160.64    4.68
   8   0   0  172.22    4.78
   8   1  -4  313.71    7.77
   8   1  -3   15.53    1.41
   8   1  -2   18.10    1.63
   8   1  -1  101.55    3.95
   8   1   1  155.63    5.10
   8   1   2   75.94    3.06
   8   2  -4   80.77    3.14
   8   2  -3  194.98    6.02
   8   2  -2  105.59    4.20
   8   2  -1   31.28    2.25
   8   2   1  114.71    4.27
   8   2   1  121.15    4.61
   8   2   2    5.19    1.14
   8   2   2    3.23    1.01
   8   2   3   18.81    1.65
   8   2   3   19.32    1.67
   8   2   4    0.04    0.32
   8   2   4  145.48    3.74
   8   2   5   16.25    1.38
   8   3  -4   11.56    1.25
   8   3  -3  133.00    4.67
   8   3  -2   83.62    3.69
   8   3  -1  130.17    4.95
   8   3   0  193.47    6.45
   8   3   2   77.29    3.49
   8   3   2   94.37    3.93
   8   3   3    0.89    0.86
   8   3   3    1.14    0.92
   8   3   4   13.87    1.52
   8   3   4   14.87    1.51
   8   3   5  242.88    6.87
   8   3   6   58.03    2.56
   8   4  -4  199.59    5.62
   8   4  -3   51.26    2.61
   8   4  -2  138.02    4.97
   8   4  -1  165.01    5.74
   8   4   0   37.25    2.54
   8   4   2  207.53    6.74
   8   4   3  117.07    4.53
   8   4   4    0.58    0.76
   8   4   4    1.30    0.91
   8   4   5   46.54    2.27
   8   4   5    0.19    0.34
   8   4   6   28.94    1.85
   8   5  -3   59.98    2.71
   8   5  -2   35.50    2.28
   8   5  -1  129.07    4.85
   8   5   3  185.31    6.14
   8   5   4   55.07    2.85
   8   5   5   -0.35    0.40
   8   6  -2    2.93    0.90
   8   6   5   -0.09    0.39
   9   4   0   27.30    1.64
   9   5   0   67.44    2.60
   0   0   0    0.00    0.00


TITL TX801 in P1
REM P1 (#1 in standard setting)
CELL 1.54184   7.304480   7.627848  11.866600  78.4310  87.9693  62.8999
ZERR    3.00   0.000334   0.000418   0.000448   0.0039   0.0034   0.0050
LATT -1
SFAC C H N O
UNIT 33.00 30.00 3.00 3.00
TREF
HKLF 4
END
_computing_structure_solution     'SHELXT 2014/5 (Sheldrick, 2014)'
;
_shelx_hkl_checksum              25244
_olex2_submission_special_instructions 'No special instructions were received'
_oxdiff_exptl_absorpt_empirical_details
;
Empirical correction (ABSPACK) includes:
- Absorption correction using spherical harmonics
- Frame scaling
;
_oxdiff_exptl_absorpt_empirical_full_max 1.431
_oxdiff_exptl_absorpt_empirical_full_min 0.835
loop_
_space_group_symop_operation_xyz
'x, y, z'
'-x, -y, -z'
loop_
_atom_site_label
_atom_site_type_symbol
_atom_site_fract_x
_atom_site_fract_y
_atom_site_fract_z
_atom_site_U_iso_or_equiv
_atom_site_adp_type
_atom_site_occupancy
_atom_site_site_symmetry_order
_atom_site_calc_flag
_atom_site_refinement_flags_posn
Br1 Br 1.04307(3) 0.11228(3) 0.86175(2) 0.02423(9) Uani 1 1 d .
O1 O 0.2911(2) 1.0603(2) 0.28555(15) 0.0263(4) Uani 1 1 d .
N1 N 0.6949(3) 0.5769(3) 0.38472(15) 0.0173(4) Uani 1 1 d .
C1 C 0.5277(3) 0.7657(3) 0.21131(19) 0.0196(4) Uani 1 1 d .
C14 C 0.5432(3) 0.7554(3) 0.40943(19) 0.0186(4) Uani 1 1 d .
C6 C 0.6886(3) 0.5806(3) 0.26535(18) 0.0181(4) Uani 1 1 d .
C12 C 0.7086(3) 0.5481(3) 0.57658(19) 0.0184(4) Uani 1 1 d .
C9 C 1.0291(3) 0.1573(3) 0.61826(19) 0.0201(4) Uani 1 1 d .
H9 H 1.134765 0.025972 0.634977 0.024 Uiso 1 1 calc R
C11 C 0.7824(3) 0.4513(3) 0.69034(19) 0.0202(4) Uani 1 1 d .
H11 H 0.727637 0.515219 0.751316 0.024 Uiso 1 1 calc R
C2 C 0.4844(3) 0.8098(3) 0.0941(2) 0.0232(5) Uani 1 1 d .
H2 H 0.376742 0.932053 0.058312 0.028 Uiso 1 1 calc R
C13 C 0.5478(3) 0.7439(3) 0.52609(19) 0.0192(4) Uani 1 1 d .
H13 H 0.463206 0.843515 0.564998 0.023 Uiso 1 1 calc R
C8 C 0.9615(3) 0.2522(3) 0.50545(19) 0.0191(4) Uani 1 1 d .
H8 H 1.022155 0.188844 0.445042 0.023 Uiso 1 1 calc R
C15 C 0.4304(3) 0.8880(3) 0.29996(19) 0.0200(4) Uani 1 1 d .
C7 C 0.7985(3) 0.4469(3) 0.48494(18) 0.0166(4) Uani 1 1 d .
C10 C 0.9396(3) 0.2573(3) 0.70871(19) 0.0198(4) Uani 1 1 d .
C5 C 0.8109(3) 0.4380(3) 0.2036(2) 0.0223(5) Uani 1 1 d .
H5 H 0.918402 0.315813 0.239563 0.027 Uiso 1 1 calc R
C3 C 0.6048(4) 0.6680(4) 0.0303(2) 0.0286(5) Uani 1 1 d .
H3 H 0.577882 0.694906 -0.049026 0.034 Uiso 1 1 calc R
C4 C 0.7661(4) 0.4850(4) 0.0851(2) 0.0269(5) Uani 1 1 d .
H4 H 0.845930 0.392066 0.041114 0.032 Uiso 1 1 calc R
loop_
_atom_site_aniso_label
_atom_site_aniso_U_11
_atom_site_aniso_U_22
_atom_site_aniso_U_33
_atom_site_aniso_U_23
_atom_site_aniso_U_13
_atom_site_aniso_U_12
Br1 0.02373(14) 0.02971(15) 0.01761(13) -0.00197(9) -0.00014(9) -0.01192(10)
O1 0.0207(8) 0.0211(8) 0.0304(9) -0.0051(7) 0.0000(7) -0.0038(6)
N1 0.0169(8) 0.0166(8) 0.0180(9) -0.0051(7) 0.0036(7) -0.0069(7)
C1 0.0161(10) 0.0202(10) 0.0234(11) -0.0040(8) 0.0017(8) -0.0093(8)
C14 0.0160(10) 0.0165(10) 0.0237(11) -0.0066(8) 0.0044(8) -0.0071(8)
C6 0.0179(10) 0.0228(10) 0.0164(10) -0.0036(8) 0.0017(8) -0.0120(8)
C12 0.0171(10) 0.0206(10) 0.0210(11) -0.0072(8) 0.0050(8) -0.0108(8)
C9 0.0167(10) 0.0182(10) 0.0243(11) -0.0039(8) 0.0019(8) -0.0073(8)
C11 0.0212(10) 0.0235(11) 0.0205(11) -0.0083(9) 0.0059(8) -0.0129(9)
C2 0.0204(11) 0.0243(11) 0.0229(11) 0.0000(9) -0.0023(9) -0.0104(9)
C13 0.0176(10) 0.0183(10) 0.0231(11) -0.0075(8) 0.0059(8) -0.0086(8)
C8 0.0183(10) 0.0203(10) 0.0199(10) -0.0075(8) 0.0051(8) -0.0089(8)
C15 0.0156(10) 0.0225(11) 0.0237(11) -0.0040(9) 0.0012(8) -0.0105(9)
C7 0.0154(9) 0.0194(10) 0.0169(10) -0.0044(8) 0.0033(8) -0.0095(8)
C10 0.0189(10) 0.0246(11) 0.0194(10) -0.0037(8) 0.0029(8) -0.0133(9)
C5 0.0231(11) 0.0184(10) 0.0238(11) -0.0053(9) 0.0018(9) -0.0078(9)
C3 0.0333(13) 0.0361(13) 0.0191(11) -0.0067(10) 0.0005(10) -0.0178(11)
C4 0.0323(12) 0.0261(11) 0.0227(12) -0.0100(9) 0.0041(10) -0.0120(10)
loop_
_atom_type_symbol
_atom_type_description
_atom_type_scat_dispersion_real
_atom_type_scat_dispersion_imag
_atom_type_scat_source
C C 0.0181 0.0091 'International Tables Vol C Tables 4.2.6.8 and 6.1.1.4'
H H 0.0000 0.0000 'International Tables Vol C Tables 4.2.6.8 and 6.1.1.4'
Br Br -0.6763 1.2805 'International Tables Vol C Tables 4.2.6.8 and 6.1.1.4'
N N 0.0311 0.0180 'International Tables Vol C Tables 4.2.6.8 and 6.1.1.4'
O O 0.0492 0.0322 'International Tables Vol C Tables 4.2.6.8 and 6.1.1.4'
loop_
_geom_angle_atom_site_label_1
_geom_angle_atom_site_label_2
_geom_angle_atom_site_label_3
_geom_angle
C14 N1 C6 110.85(18)
C7 N1 C14 109.72(17)
C7 N1 C6 139.33(18)
C6 C1 C15 108.76(19)
C2 C1 C6 120.6(2)
C2 C1 C15 130.6(2)
N1 C14 C15 108.03(18)
C13 C14 N1 109.43(19)
C13 C14 C15 142.5(2)
C1 C6 N1 108.01(18)
C5 C6 N1 130.3(2)
C5 C6 C1 121.7(2)
C11 C12 C13 132.6(2)
C11 C12 C7 119.90(19)
C7 C12 C13 107.45(19)
C8 C9 H9 119.7
C8 C9 C10 120.6(2)
C10 C9 H9 119.7
C12 C11 H11 121.3
C10 C11 C12 117.3(2)
C10 C11 H11 121.3
C1 C2 H2 120.7
C1 C2 C3 118.7(2)
C3 C2 H2 120.7
C14 C13 C12 106.62(18)
C14 C13 H13 126.7
C12 C13 H13 126.7
C9 C8 H8 121.2
C9 C8 C7 117.58(19)
C7 C8 H8 121.2
O1 C15 C1 128.1(2)
O1 C15 C14 127.6(2)
C14 C15 C1 104.30(17)
N1 C7 C12 106.76(17)
N1 C7 C8 131.51(19)
C8 C7 C12 121.7(2)
C9 C10 Br1 117.29(16)
C11 C10 Br1 119.86(17)
C11 C10 C9 122.8(2)
C6 C5 H5 121.5
C6 C5 C4 117.1(2)
C4 C5 H5 121.5
C2 C3 H3 120.0
C2 C3 C4 120.1(2)
C4 C3 H3 120.0
C5 C4 C3 121.9(2)
C5 C4 H4 119.1
C3 C4 H4 119.1
loop_
_geom_bond_atom_site_label_1
_geom_bond_atom_site_label_2
_geom_bond_distance
Br1 C10 1.903(2)
O1 C15 1.223(3)
N1 C14 1.389(3)
N1 C6 1.413(3)
N1 C7 1.370(3)
C1 C6 1.402(3)
C1 C2 1.376(3)
C1 C15 1.489(3)
C14 C13 1.370(3)
C14 C15 1.476(3)
C6 C5 1.381(3)
C12 C11 1.395(3)
C12 C13 1.436(3)
C12 C7 1.426(3)
C9 H9 0.9300
C9 C8 1.376(3)
C9 C10 1.409(3)
C11 H11 0.9300
C11 C10 1.377(3)
C2 H2 0.9300
C2 C3 1.390(3)
C13 H13 0.9300
C8 H8 0.9300
C8 C7 1.396(3)
C5 H5 0.9300
C5 C4 1.391(3)
C3 H3 0.9300
C3 C4 1.397(4)
C4 H4 0.9300
