#------------------------------------------------------------------------------
#$Date: 2019-11-22 19:06:54 +0200 (Fri, 22 Nov 2019) $
#$Revision: 231276 $
#$URL: file:///home/coder/svn-repositories/cod/cif/4/51/63/4516377.cif $
#------------------------------------------------------------------------------
#
# This file is available in the Crystallography Open Database (COD),
# http://www.crystallography.net/
#
# All data on this site have been placed in the public domain by the
# contributors.
#
data_4516377
loop_
_publ_author_name
'Khan, Tariq'
'Tang, Yuanyuan'
'Sun, Zhihua'
'Zhang, Shuquan'
'Asghar, Muhammad Adnan'
'Chen, Tianliang'
'Zhao, Sangen'
'Luo, Junhua'
_publ_section_title
;
 Dibutylammonium Hydrogen Oxalate: An Above-Room-Temperature
 Order--Disorder Phase Transition Molecular Material
;
_journal_issue                   11
_journal_name_full               'Crystal Growth &amp; Design'
_journal_page_first              5263
_journal_paper_doi               10.1021/acs.cgd.5b00758
_journal_volume                  15
_journal_year                    2015
_chemical_formula_moiety         'C2 H O4, C8 H20 N'
_chemical_formula_sum            'C10 H21 N O4'
_chemical_formula_weight         219.28
_space_group_crystal_system      triclinic
_space_group_IT_number           2
_space_group_name_Hall           '-P 1'
_space_group_name_H-M_alt        'P -1'
_atom_sites_solution_hydrogens   mixed
_audit_creation_method           SHELXL-2014/7
_cell_angle_alpha                74.239(4)
_cell_angle_beta                 84.747(4)
_cell_angle_gamma                81.205(4)
_cell_formula_units_Z            2
_cell_length_a                   5.5144(3)
_cell_length_b                   9.4520(5)
_cell_length_c                   13.4040(5)
_cell_measurement_temperature    173(2)
_cell_volume                     663.55(6)
_computing_structure_refinement  'SHELXL-2014/7 (Sheldrick, 2014)'
_diffrn_ambient_temperature      173(2)
_diffrn_measured_fraction_theta_full 0.998
_diffrn_measured_fraction_theta_max 0.998
_diffrn_measurement_device_type  'SuperNova, Dual, Cu at zero, Atlas'
_diffrn_measurement_method       '\w scans'
_diffrn_radiation_type           MoK\a
_diffrn_radiation_wavelength     0.71073
_diffrn_reflns_av_R_equivalents  0.0242
_diffrn_reflns_av_unetI/netI     0.0271
_diffrn_reflns_Laue_measured_fraction_full 0.998
_diffrn_reflns_Laue_measured_fraction_max 0.998
_diffrn_reflns_limit_h_max       6
_diffrn_reflns_limit_h_min       -6
_diffrn_reflns_limit_k_max       11
_diffrn_reflns_limit_k_min       -11
_diffrn_reflns_limit_l_max       16
_diffrn_reflns_limit_l_min       -16
_diffrn_reflns_number            8328
_diffrn_reflns_point_group_measured_fraction_full 0.998
_diffrn_reflns_point_group_measured_fraction_max 0.998
_diffrn_reflns_theta_full        25.242
_diffrn_reflns_theta_max         26.372
_diffrn_reflns_theta_min         3.079
_exptl_absorpt_coefficient_mu    0.084
_exptl_absorpt_correction_T_max  0.9753
_exptl_absorpt_correction_T_min  0.9633
_exptl_absorpt_correction_type   multi-scan
_exptl_crystal_colour            colorless
_exptl_crystal_density_diffrn    1.097
_exptl_crystal_description       prism
_exptl_crystal_F_000             240
_exptl_crystal_size_max          0.450
_exptl_crystal_size_mid          0.350
_exptl_crystal_size_min          0.300
_refine_diff_density_max         0.195
_refine_diff_density_min         -0.222
_refine_diff_density_rms         0.037
_refine_ls_extinction_method     none
_refine_ls_goodness_of_fit_ref   1.089
_refine_ls_hydrogen_treatment    mixed
_refine_ls_matrix_type           full
_refine_ls_number_parameters     140
_refine_ls_number_reflns         2709
_refine_ls_number_restraints     0
_refine_ls_restrained_S_all      1.089
_refine_ls_R_factor_all          0.0563
_refine_ls_R_factor_gt           0.0433
_refine_ls_shift/su_max          0.000
_refine_ls_shift/su_mean         0.000
_refine_ls_structure_factor_coef Fsqd
_refine_ls_weighting_details
'w=1/[\s^2^(Fo^2^)+(0.0425P)^2^+0.2026P] where P=(Fo^2^+2Fc^2^)/3'
_refine_ls_weighting_scheme      calc
_refine_ls_wR_factor_gt          0.1055
_refine_ls_wR_factor_ref         0.1141
_reflns_Friedel_coverage         0.000
_reflns_number_gt                2194
_reflns_number_total             2709
_reflns_threshold_expression     'I > 2\s(I)'
_cod_data_source_file            cg5b00758_si_004.cif
_cod_data_source_block           E:\175K
_cod_database_code               4516377
_shelx_shelxl_version_number     2014/7
_shelx_space_group_comment
;
The symmetry employed for this shelxl refinement is uniquely defined
by the following loop, which should always be used as a source of
symmetry information in preference to the above space-group names.
They are only intended as comments.
;
_shelx_estimated_absorpt_t_min   0.963
_shelx_estimated_absorpt_t_max   0.975
_shelx_res_file
;

    E:\CRYSTA~1\GOODON~1\K-19-1~1\175K.res created by SHELXL-2014/7

REM reset to P-1 #2
REM <HKL>D:/DATA/LJH/TYY/20140406/K-19-175K/struct/olex2_K-19-175K/K-19-175K.h
REM kl</HKL>
REM  K-19-175K in P-1 #2
REM R1 =  0.0521 for   2458 Fo > 4sig(Fo)  and  0.0717 for all   3218 data
REM    138 parameters refined using      0 restraints
REM Highest difference peak  0.590,  deepest hole -0.242,  1-sigma level  0.046
REM The information below was added by Olex2.
REM
REM R1 = 0.0521 for 2458 Fo > 4sig(Fo) and n/a for all 9015 data
REM n/a parameters refined using n/a restraints
REM Highest difference peak 0.59, deepest hole -0.24
REM Mean Shift 0, Max Shift 0.
REM +++ Tabular Listing of Refinement Information +++
REM R1_all = n/a
REM R1_gt = 0.0521
REM wR_ref = 0.1387
REM GOOF = 1.075
REM Shift_max = 0
REM Shift_mean = 0
REM Reflections_all = 9015
REM Reflections_gt = 2458
REM Parameters = n/a
REM Hole = 0.59
REM Peak = -0.24
REM Flack = n/a
REM  K-19-175K in P-1 #2
REM R1 =  0.0481 for   2458 Fo > 4sig(Fo)  and  0.0679 for all   3218 data
REM    140 parameters refined using      0 restraints
REM Highest difference peak  0.284,  deepest hole -0.238,  1-sigma level  0.039
REM  K-19-175K in P-1 #2
REM R1 =  0.0433 for   2194 Fo > 4sig(Fo)  and  0.0564 for all   2709 data
REM    140 parameters refined using      0 restraints
REM Highest difference peak  0.194,  deepest hole -0.221,  1-sigma level  0.037
REM  K-19-175K in P-1 #2
REM R1 =  0.0433 for   2194 Fo > 4sig(Fo)  and  0.0564 for all   2709 data
REM    140 parameters refined using      0 restraints
REM Highest difference peak  0.194,  deepest hole -0.221,  1-sigma level  0.037
TITL K-19-175K in P-1 #2
CELL 0.71073 5.5144 9.4520 13.4040 74.239 84.747 81.205
ZERR 2.0000 0.0003 0.0005 0.0005 0.004 0.004 0.004
LATT 1
SFAC C H N O
UNIT 20 42 2 8
MERG 2
SHEL 999.00 0.80
FMAP 2
GRID
PLAN 20
TEMP -100
SIZE 0.45 0.35 0.3
BOND
HTAB 3.0
EQIV $1 -x, -y+3, -z-1
EQIV $2 -x, -y+2, -z
EQIV $3 -x+1, -y+2, -z
EQIV $4 -x-1, -y+3, -z-1
HTAB N1 O3_$1
HTAB N1 O2_$2
HTAB O2 O2_$3
HTAB O4 O4_$4
HTAB N1 O1
HTAB N1 O4
L.S. 20
ACTA
WGHT    0.042500    0.202600
FVAR      11.69074
O2    4    0.303039    0.957998    0.036322    11.00000    0.01546    0.04128 =
         0.02674    0.00752   -0.00347   -0.00667
O1    4    0.144288    1.114869   -0.105593    11.00000    0.02152    0.05535 =
         0.02839    0.01691   -0.00404   -0.01189
N1    3   -0.225172    1.259180   -0.246889    11.00000    0.02424    0.02826 =
         0.01877    0.00171   -0.00190   -0.00610
AFIX  23
H2    2   -0.123407    1.306494   -0.298285    11.00000   -1.20000
H1    2   -0.131223    1.205123   -0.193607    11.00000   -1.20000
AFIX   0
O4    4   -0.298907    1.464777   -0.462842    11.00000    0.01659    0.05904 =
         0.02811    0.01400   -0.00365   -0.01171
O3    4   -0.148429    1.602867   -0.611419    11.00000    0.02105    0.05010 =
         0.02459    0.01142   -0.00495   -0.00815
C4    1   -0.345461    1.156749   -0.286560    11.00000    0.03631    0.03242 =
         0.02429    0.00096   -0.00523   -0.01207
AFIX  23
H7A   2   -0.440313    1.214058   -0.347222    11.00000   -1.20000
H7B   2   -0.461712    1.107813   -0.232048    11.00000   -1.20000
AFIX   0
C10   1   -0.126553    1.521402   -0.523817    11.00000    0.01788    0.02976 =
         0.02174    0.00041   -0.00111   -0.00443
C5    1   -0.401789    1.372212   -0.209943    11.00000    0.03259    0.03241 =
         0.02541   -0.00152    0.00252   -0.00097
AFIX  23
H9A   2   -0.518831    1.321946   -0.156470    11.00000   -1.20000
H9B   2   -0.496755    1.436373   -0.268637    11.00000   -1.20000
AFIX   0
C9    1    0.126849    1.023242   -0.022045    11.00000    0.01795    0.02833 =
         0.02134   -0.00137   -0.00112   -0.00491
C3    1   -0.159011    1.040678   -0.317796    11.00000    0.06718    0.03609 =
         0.03277   -0.00674    0.00790   -0.01059
AFIX  23
H6A   2   -0.072329    0.979069   -0.255944    11.00000   -1.20000
H6B   2   -0.035778    1.089963   -0.368435    11.00000   -1.20000
AFIX   0
C6    1   -0.267812    1.466328   -0.164763    11.00000    0.05776    0.04113 =
         0.03757   -0.01019    0.00609   -0.01484
AFIX  23
H10A  2   -0.194422    1.404002   -0.099895    11.00000   -1.20000
H10B  2   -0.132006    1.502120   -0.214266    11.00000   -1.20000
AFIX   0
C2    1   -0.276260    0.942151   -0.365365    11.00000    0.15336    0.04832 =
         0.04526   -0.01530   -0.00336   -0.03353
AFIX  23
H5A   2   -0.352554    1.003458   -0.429863    11.00000   -1.20000
H5B   2   -0.408916    0.899957   -0.316707    11.00000   -1.20000
AFIX   0
C7    1   -0.431039    1.598010   -0.141454    11.00000    0.09359    0.04241 =
         0.05226   -0.01352    0.02141   -0.01368
AFIX  23
H11A  2   -0.569857    1.562334   -0.093800    11.00000   -1.20000
H11B  2   -0.500180    1.661923   -0.206767    11.00000   -1.20000
AFIX   0
C8    1   -0.299053    1.690484   -0.092781    11.00000    0.16361    0.06192 =
         0.06908   -0.03625    0.03339   -0.04685
AFIX 137
H12A  2   -0.160577    1.725850   -0.139229    11.00000   -1.50000
H12B  2   -0.238002    1.629614   -0.026067    11.00000   -1.50000
H12C  2   -0.413487    1.775607   -0.081666    11.00000   -1.50000
AFIX   0
C1    1   -0.098975    0.816314   -0.390737    11.00000    0.26549    0.05077 =
         0.06834   -0.03026    0.04615   -0.03284
AFIX 137
H4A   2   -0.186199    0.759243   -0.423411    11.00000   -1.50000
H4B   2   -0.029840    0.751382   -0.326729    11.00000   -1.50000
H4C   2    0.033938    0.856813   -0.438504    11.00000   -1.50000
AFIX   0
H3    2    0.500000    1.000000    0.000000    10.50000    0.06987
H4    2   -0.500000    1.500000   -0.500000    10.50000    0.08803
HKLF 4

REM  K-19-175K in P-1 #2
REM R1 =  0.0433 for    2194 Fo > 4sig(Fo)  and  0.0563 for all    2709 data
REM    140 parameters refined using      0 restraints

END

WGHT      0.0424      0.2060

REM Instructions for potential hydrogen bonds
HTAB N1 O4
HTAB N1 O3_$1
HTAB N1 O2_$2
HTAB N1 O1
HTAB C4 O4
HTAB C4 O4_$4
HTAB C4 O3_$4
HTAB C4 O2_$2
EQIV $5 x-1, y, z
HTAB C4 O1_$5
HTAB C5 O2_$2
HTAB C5 O1_$5
HTAB C5 O4
HTAB C5 O3_$4
HTAB C3 O2_$2
HTAB C3 O1
HTAB C3 O3_$1
HTAB C6 O2_$2
HTAB C6 O1
HTAB C6 O3_$1
HTAB O2 O2_$3
HTAB O2 O1_$3
HTAB O4 O4_$4
HTAB O4 O3_$4

REM Highest difference peak  0.195,  deepest hole -0.222,  1-sigma level  0.037
Q1    1   0.0000  1.5000 -0.5000  10.50000  0.05    0.19
Q2    1   0.0000  1.0000  0.0000  10.50000  0.05    0.19
Q3    1  -0.5427  1.6217 -0.1975  11.00000  0.05    0.15
Q4    1  -0.4772  1.7080 -0.1174  11.00000  0.05    0.14
Q5    1  -0.4333  1.3891 -0.3018  11.00000  0.05    0.13
Q6    1  -0.1012  1.7045 -0.1251  11.00000  0.05    0.12
Q7    1  -0.4954  1.1604 -0.2414  11.00000  0.05    0.12
Q8    1  -0.1029  1.5972 -0.0204  11.00000  0.05    0.12
Q9    1   0.1360  1.0239 -0.1021  11.00000  0.05    0.12
Q10   1   0.3048  0.8955  0.0971  11.00000  0.05    0.12
Q11   1  -0.1138  0.7315 -0.4218  11.00000  0.05    0.12
Q12   1  -0.3216  1.3703 -0.4035  11.00000  0.05    0.12
Q13   1  -0.3026  1.2077 -0.2632  11.00000  0.05    0.11
Q14   1  -0.4153  1.4961 -0.1886  11.00000  0.05    0.11
Q15   1  -0.5554  1.2937 -0.1809  11.00000  0.05    0.11
Q16   1  -0.1590  1.4178 -0.4094  11.00000  0.05    0.10
Q17   1   0.2985  1.0154  0.0978  11.00000  0.05    0.10
Q18   1  -0.3241  1.3145 -0.2278  11.00000  0.05    0.10
Q19   1  -0.3452  0.7736 -0.4458  11.00000  0.05    0.10
Q20   1  -0.1320  1.1409 -0.4208  11.00000  0.05    0.10
;
_shelx_res_checksum              69758
_shelx_hkl_file
;
   0   0   2 5035.58 168.557   3
   0   0   2 4981.65 203.525   4
   0   0  -3 761.086 62.9075   7
   0   0   3 741.732 56.1932   7
   0   0   3 786.495 109.368   4
   0   0   3 745.766 87.5428   3
   0   0  -4 7830.54 220.025   7
   0   0   4 7841.96 194.565   7
   0   0   4 7765.40 296.733   3
   0   0   4 7990.19 366.428   4
   0   0  -5 15.1351 32.1295   7
   0   0   5-20.4896 49.6234   3
   0   0   5 18.6525 27.1322   7
   0   0   5-11.2288 59.5178   4
   0   0   6 316.994 89.4749   3
   0   0  -6 354.943 64.7996   7
   0   0   6 337.443 100.888   4
   0   0   6 357.581 58.6165   7
   0   0  -6 242.108 89.7779   3
   0   0   7 224.655 46.7083   7
   0   0   7 218.369 94.8787   3
   0   0   7 365.175 113.294   4
   0   0  -7 285.817 66.7271   7
   0   0   8 23437.2 920.932   4
   0   0   8 22904.4 719.840   3
   0   0   8 22139.4 731.204   2
   0   0  -8 22238.4 511.443   7
   0   0   9 180.348 115.867   4
   0   0   9 283.976 113.800   2
   0   0   9 502.023 169.070   5
   0   0  -9 331.020 118.748   3
   0   0   9 410.766 123.085   3
   0   0   9 201.385 135.285   1
   0   0  -9 184.959 66.6305   7
   0   0 -10 1342.04 137.574   7
   0   0 -10 1581.54 248.561   3
   0   0  10 1252.32 208.726   2
   0   0  10 1348.78 234.629   5
   0   0  10 1599.59 231.255   3
   0   0 -11 383.077 85.0413   7
   0   0  11 362.893 146.601   2
   0   0  11 694.229 190.158   5
   0   0 -11 323.456 149.533   3
   0   0 -12 10133.8 330.821   7
   0   0  12 10062.5 709.776   5
   0   0  12 9737.21 619.154   2
   0   0 -12 10663.0 659.125   3
   0   0  13 3011.82 415.482   5
   0   0 -13 2914.48 388.092   3
   0   0  13 2422.90 354.204   2
   0   0  14 14576.4 943.910   5
   0   0  14 15290.7 872.258   2
   0   0 -14 15180.6 874.060   3
   0   0  15 750.115 251.727   5
   0   0 -15 541.547 212.930   3
   0   0  15 863.120 256.097   2
   0   0 -16 3263.12 458.883   3
   0   0  16 3938.23 583.655   5
   0   0  16 3929.30 507.136   2
   0   0  17 297.035 230.190   2
   0  -1  17 3.66914 194.570   2
   0  -1  16 930.422 261.728   2
   0  -1  15 6342.39 610.216   2
   0  -1  15 6955.82 710.274   5
   0  -1  14 333.434 160.375   2
   0  -1  14 162.478 222.431   5
   0  -1  13 21593.1 1132.96   5
   0  -1  13 21584.7 990.889   2
   0   1 -12-174.342 157.942   3
   0  -1  12 107.259 106.382   2
   0  -1  12 21.1620 137.248   5
   0  -1  11 8938.29 664.985   5
   0  -1  11 8239.75 563.414   2
   0   1 -11 8921.55 590.438   3
   0  -1  10 521.208 167.401   5
   0  -1  10 499.925 180.485   2
   0   1 -10 530.285 164.909   3
   0  -1   9 1079.37 212.888   5
   0   1  -9 1193.81 247.319   4
   0  -1   9 1180.98 200.825   2
   0  -1   9 935.878 172.518   3
   0   1  -9 1055.52 191.651   3
   0   1  -8-12.1551 18.0917   7
   0  -1   8-100.335 80.6823   3
   0  -1   8-19.4898 39.0628   4
   0   1  -8 78.6121 88.0044   3
   0  -1   8-21.4482 69.4595   1
   0  -1   8-119.477 88.9709   2
   0  -1   7 5718.58 448.705   4
   0  -1   7 5133.82 357.207   2
   0   1  -7 5027.73 163.289   7
   0  -1   7 5588.56 361.180   3
   0  -1   6 218.521 68.3370   3
   0   1  -6 202.182 33.9342   7
   0  -1   6 252.588 107.628   4
   0   1  -6 97.8806 78.1881   3
   0  -1   6 74.2987 78.3707   2
   0  -1   5 44825.7 869.001   3
   0   1  -5 46591.2 917.885   5
   0   1  -5 45019.9 408.432   7
   0  -1   5 46367.3 1068.27   4
   0  -1   5 45405.4 897.931   2
   0  -1   4-12.2144 52.0391   2
   0   1  -4 2.96171 39.1743   5
   0  -1   4 5.15312 74.6273   4
   0  -1   4 51.5667 54.9418   3
   0  -1   3 999999. 3993.27   4
   0   1  -2 428.034 72.7365   2
   0  -1   2 405.850 71.6807   3
   0  -1   2 476.878 90.4149   4
   0   1  -2 378.121 70.6605   5
   0  -1   1 42.1128 20.0582   7
   0   1   2 52.6801 25.7839   3
   0   1   3 259868. 1552.45   7
   0   1   3 263965. 1367.74   3
   0  -1  -3 260650. 1606.99   7
   0   1   4 541.092 82.8119   3
   0   1   4 446.013 79.1499   7
   0  -1  -4 654.514 97.7038   7
   0   1   5 26299.1 548.213   7
   0   1   5 25848.9 565.130   3
   0  -1  -5 26701.9 589.806   7
   0  -1  -6 440.060 91.4895   7
   0   1   6 656.310 146.645   4
   0   1   6 453.210 87.1800   3
   0   1   6 481.559 90.2788   7
   0  -1  -6 444.711 106.737   3
   0   1   7 1123.52 152.441   3
   0  -1  -7 929.738 144.785   3
   0   1   7 1045.36 124.224   7
   0   1   7 1131.40 191.820   4
   0  -1  -7 978.333 140.944   7
   0   1   8 180.606 82.1784   3
   0  -1  -8 133.750 68.2802   7
   0   1   8 210.697 140.034   4
   0   1   8 88.2253 54.0313   7
   0  -1  -9 9904.56 522.296   3
   0   1   9 9482.23 608.811   4
   0   1   9 9790.56 632.534   1
   0   1   9 11072.4 512.650   3
   0   1   9 10429.4 386.007   7
   0  -1  -9 9824.80 433.073   7
   0   1  10 1438.51 218.884   3
   0  -1 -10 1469.34 179.383   7
   0   1  10 1232.42 216.190   5
   0  -1 -10 1013.91 189.472   3
   0   1  10 1252.78 146.016   7
   0  -1 -11 268.333 121.732   3
   0  -1 -11 243.977 90.1139   7
   0   1  11 281.782 160.960   5
   0   1  11 214.848 78.6885   7
   0  -1 -12-98.2770 114.537   3
   0   1  12-25.4904 45.0837   7
   0   1  12 63.4336 137.958   5
   0  -1 -12 48.1252 66.5058   7
   0   1  13 8742.56 616.369   2
   0  -1 -13 7200.38 559.406   3
   0   1  13 7180.78 612.047   5
   0   1  14 125.522 89.3661   2
   0  -1 -14-198.788 145.931   3
   0   1  14-25.5178 126.575   5
   0   1  15 11675.6 803.867   2
   0   1  15 13441.9 811.780   6
   0  -1 -15 12608.2 821.021   3
   0   1  15 11790.1 872.862   5
   0  -1 -16 271.272 192.950   3
   0   1  16 24.2660 168.955   6
   0   1  16 324.586 221.152   5
   0   1  16-260.993 174.020   2
   0  -1 -17 898.869 295.502   3
   0   1  17 1323.75 317.482   6
   0   1  17 871.473 242.817   2
   0   1  18-1.30877 176.514   2
   0  -2  16-109.616 90.5097   2
   0  -2  15 429.972 221.013   2
   0  -2  15 243.310 240.045   5
   0  -2  14 4273.91 469.202   2
   0  -2  14 3410.65 514.195   5
   0  -2  13 146.810 149.060   2
   0  -2  13 199.240 194.999   5
   0  -2  12 29114.5 1308.27   5
   0  -2  12 26749.4 1100.73   2
   0  -2  11-76.7372 153.631   5
   0  -2  11-1.48971 84.9764   2
   0   2 -11-225.824 174.026   4
   0   2 -10 20929.9 1033.46   4
   0  -2  10 19133.4 952.403   5
   0  -2  10 19887.3 857.306   2
   0   2  -9 107.052 155.922   4
   0  -2   9 270.054 155.487   5
   0  -2   9 280.904 150.768   2
   0  -2   8 4529.42 423.369   1
   0  -2   8 4412.75 365.781   3
   0   2  -8 4795.29 446.822   4
   0  -2   8 4393.15 373.574   2
   0  -2   8 3922.96 393.417   5
   0  -2   7-31.7458 119.145   4
   0   2  -7-44.1704 84.3370   5
   0  -2   7 184.428 103.239   2
   0  -2   7-76.5267 122.764   1
   0  -2   7 77.5768 79.0068   3
   0  -2   6 233375. 2344.63   3
   0   2  -6 236369. 2403.12   5
   0  -2   6 239367. 2398.54   2
   0  -2   6 232268. 2844.01   4
   0   2  -5-3.79860 69.1744   2
   0  -2   5-57.1169 69.4512   1
   0   2  -5 11.8326 59.9900   5
   0  -2   5 129.235 104.936   4
   0  -2   5 34.2876 58.2340   3
   0  -2   5 34.6631 67.0875   2
   0   2  -5 28.3148 26.9739   7
   0  -2   4 82010.6 1213.21   2
   0   2  -4 84820.7 1243.60   2
   0   2  -4 84310.6 1264.79   5
   0  -2   4 82097.4 1208.60   3
   0   2  -4 81776.9 728.732   7
   0  -2   4 80473.6 1262.61   1
   0   2  -3 94.9084 40.2759   7
   0  -2   3 113.111 40.8315   7
   0   2  -3 158.444 70.2358   2
   0   2  -3 112.218 63.3624   5
   0   2  -2 2744.53 204.104   5
   0   2  -2 2525.24 151.832   7
   0   2  -2 2960.91 203.606   2
   0  -2   2 2712.90 147.593   7
   0   2  -1 2509.02 177.893   5
   0  -2   1 2437.15 155.718   7
   0   2  -1 2678.41 177.678   2
   0  -2   0 266899. 1711.80   7
   0   2   0 266179. 1564.63   2
   0  -2  -1 2157.70 171.077   7
   0   2   1 1957.97 142.631   2
   0  -2  -2 921931. 3568.07   7
   0  -2  -3 241.408 66.2150   6
   0   2   3 246.543 63.0279   3
   0  -2  -3 360.843 96.8291   7
   0   2   3 277.418 74.1388   1
   0   2   3 223.591 58.1970   2
   0   2   4 274608. 2112.39   1
   0   2   4 272645. 1680.66   3
   0   2   4 275402. 2122.34   7
   0  -2  -4 283236. 2181.98   7
   0  -2  -4 283126. 1830.59   6
   0   2   5 4540.25 310.866   1
   0   2   5 4711.80 289.173   7
   0  -2  -5 4291.16 285.543   7
   0   2   5 3983.33 224.867   3
   0   2   5 3972.88 253.866   6
   0   2   6 7747.82 335.457   3
   0   2   6 7927.67 377.579   6
   0  -2  -6 7186.16 341.955   3
   0   2   6 7782.82 377.681   7
   0   2   6 7843.39 445.184   1
   0  -2  -6 7686.64 397.826   7
   0   2   7 3644.67 254.591   3
   0  -2  -7 3466.11 280.772   7
   0  -2  -7 3546.69 262.442   3
   0   2   7 3426.17 264.426   6
   0   2   7 3504.73 329.800   1
   0   2   7 3276.81 255.713   7
   0   2   8 192.921 134.698   1
   0   2   8 212.088 86.3184   3
   0   2   8 79.5040 70.9755   6
   0   2   8 90.2558 66.0282   7
   0  -2  -9 1116.33 196.836   3
   0   2   9 1075.32 222.107   1
   0   2   9 1296.04 197.892   6
   0   2   9 1328.33 180.873   3
   0   2   9 1535.29 252.623   4
   0  -2  -9 1201.76 187.878   7
   0   2   9 1169.03 170.669   7
   0   2  10 4900.68 325.754   7
   0   2  10 4936.06 379.548   6
   0  -2 -10 5203.70 395.829   3
   0  -2 -10 4623.27 353.406   7
   0   2  10 4269.43 337.886   3
   0  -2 -11 226.144 126.268   3
   0  -2 -11 249.589 96.2302   7
   0   2  11 54.6122 89.7836   6
   0   2  11 259.951 99.1145   7
   0   2  12 44.3465 90.9881   6
   0  -2 -12 190.520 84.9342   7
   0   2  12 23.0382 66.9352   5
   0   2  12 22.8916 61.9107   7
   0  -2 -12 94.3926 96.2540   3
   0   2  13 1049.51 219.892   6
   0  -2 -13 1165.39 244.321   3
   0   2  13 1314.19 277.851   5
   0   2  13 876.567 152.031   7
   0  -2 -13 1219.64 209.158   7
   0   2  14 2029.81 220.232   7
   0   2  14 1663.43 292.588   6
   0   2  14 2509.05 370.776   5
   0  -2 -14 2009.30 326.915   3
   0   2  15 185.967 135.080   2
   0   2  15 72.1141 183.044   6
   0   2  15 324.374 214.490   5
   0  -2 -15-241.601 161.343   3
   0   2  16 6460.43 656.856   5
   0   2  16 7350.41 688.030   2
   0   2  16 7447.75 632.844   6
   0  -2 -16 7558.93 659.792   3
   0  -2 -17 444.387 245.205   3
   0   2  17 95.4528 196.074   2
   0  -2 -18-563.722 270.702   3
   0   2  18 125.996 236.231   2
   0  -3  15 152.714 213.909   2
   0  -3  14 83.1035 177.361   2
   0  -3  14 142.364 250.422   5
   0  -3  13 4507.81 511.551   2
   0  -3  13 5051.78 623.813   5
   0  -3  12-33.1766 129.824   2
   0   3 -12 100.531 214.596   4
   0  -3  12 120.782 147.186   5
   0  -3  11 63947.3 1697.76   2
   0   3 -11 62434.4 1959.60   4
   0  -3  11 64662.0 1943.06   5
   0   3 -10-161.028 205.111   4
   0  -3  10 66.6912 133.715   2
   0  -3  10 49.8372 185.800   5
   0  -3   9 11163.9 659.608   2
   0  -3   9 10007.8 698.689   5
   0   3  -9 11624.1 789.460   4
   0  -3   8 102.867 121.992   1
   0  -3   8 54.9271 108.483   5
   0   3  -8-281.417 176.315   4
   0  -3   8 140.546 140.709   2
   0  -3   7 13800.3 660.563   2
   0   3  -7 14569.3 786.834   4
   0  -3   7 14356.9 670.668   3
   0  -3   7 13904.0 704.442   1
   0   3  -7 13893.4 674.489   5
   0  -3   7 13351.7 704.350   5
   0  -3   6 58.3244 91.2768   5
   0   3  -6 11.4905 32.1601   7
   0   3  -6 77.3446 76.3856   5
   0   3  -6-13.9470 58.8514   2
   0  -3   6 113.211 96.7330   2
   0  -3   6 151.321 107.369   3
   0   3  -5 13226.9 583.132   2
   0  -3   5 13162.7 589.980   1
   0  -3   5 12969.2 574.974   2
   0  -3   5 13834.3 595.086   3
   0   3  -5 12699.6 576.141   5
   0   3  -5 13836.0 378.178   7
   0   3  -4 240.915 93.3073   5
   0  -3   4 188.082 94.6953   1
   0  -3   4 152.688 99.0362   3
   0   3  -4 205.173 78.3896   2
   0   3  -4 135.259 58.9635   7
   0   3  -3 1050.50 124.401   7
   0   3  -3 821.906 137.386   2
   0  -3   3 1139.78 149.062   1
   0   3  -3 756.426 146.761   5
   0  -3   3 857.059 104.875   7
   0  -3   2 562.319 95.2198   1
   0  -3   2 852.731 111.703   7
   0   3  -2 731.476 124.914   2
   0   3  -2 629.632 123.935   5
   0   3  -2 640.029 108.350   7
   0   3  -1 23813.4 604.518   7
   0   3  -1 24213.7 616.181   2
   0  -3   1 24391.7 431.720   1
   0  -3   1 23529.1 591.051   7
   0   3   0 714.455 114.142   2
   0  -3   0 647.147 120.279   7
   0  -3  -1 318927. 2392.15   7
   0   3   1 314121. 2075.87   2
   0   3   2 110.288 71.6335   2
   0  -3  -2 132.786 79.9520   7
   0   3   2 63.0651 33.4311   1
   0   3   3 453921. 2192.40   1
   0  -3  -3 450492. 3082.23   7
   0   3   3 455055. 2482.40   2
   0   3   4 2166.83 179.502   2
   0   3   4 2034.25 190.605   1
   0   3   4 2214.66 191.406   3
   0  -3  -4 2274.34 234.948   7
   0   3   5 73150.1 1036.66   2
   0   3   5 74602.4 1314.11   7
   0  -3  -5 75058.1 1115.14   6
   0   3   5 76110.7 1231.79   1
   0  -3  -5 73639.1 1340.05   7
   0   3   5 73958.6 1057.56   3
   0   3   6 830.293 131.482   3
   0  -3  -6 1030.10 145.740   6
   0   3   6 942.634 161.424   1
   0  -3  -6 1048.05 140.018   3
   0  -3  -6 1160.86 192.150   7
   0   3   6 899.251 170.119   7
   0   3   7 1280.92 191.128   7
   0   3   7 1465.82 171.412   3
   0  -3  -7 1673.17 226.409   7
   0   3   7 1744.89 240.959   1
   0   3   8-165.556 128.005   1
   0   3   8 58.4998 78.8135   3
   0   3   8 60.1146 78.3829   6
   0   3   8 27.6379 73.5156   7
   0  -3  -8 170.926 101.194   7
   0   3   9 1586.37 217.927   7
   0   3   9 1419.41 254.021   1
   0  -3  -9 1794.50 225.111   3
   0   3   9 1606.59 227.897   6
   0  -3  -9 2008.30 247.114   7
   0   3  10-17.2619 114.838   7
   0   3  10 78.6387 69.1433   6
   0  -3 -10 116.969 96.1159   7
   0   3  10-48.7137 90.7312   3
   0  -3 -10 114.014 107.899   3
   0  -3 -11 7462.22 494.423   3
   0   3  11 7476.73 511.221   6
   0   3  11 7583.57 467.418   7
   0  -3 -11 6978.17 501.927   7
   0   3  12-9.97824 74.6442   7
   0   3  12-8.03788 92.4072   6
   0  -3 -12-145.575 130.807   7
   0  -3 -12 23.3462 97.8713   3
   0   3  13 271.998 166.510   6
   0   3  13 359.825 130.222   7
   0  -3 -13 327.565 181.889   3
   0  -3 -13 145.668 99.6417   7
   0   3  14 111.723 150.374   6
   0  -3 -14 74.3588 151.453   3
   0   3  14 444.871 168.702   5
   0   3  14 151.741 78.0960   7
   0  -3 -15 937.806 247.710   3
   0   3  15 856.974 247.808   6
   0   3  15 913.711 254.334   5
   0  -3 -16 2150.50 374.448   3
   0   3  16 1423.05 316.225   6
   0   3  16 1573.79 348.446   5
   0  -3 -17 17407.3 1018.70   3
   0   3  17 19982.3 1144.44   2
   0   3  18 3691.56 559.842   2
   0  -3 -18 2149.84 406.318   3
   0  -4  14 3091.95 471.674   2
   0   4 -13-259.690 198.891   4
   0  -4  13 71.1822 181.757   5
   0  -4  13 190.819 164.987   2
   0   4 -12 3088.60 500.155   4
   0  -4  12 2146.16 434.109   5
   0  -4  12 2072.11 354.707   2
   0  -4  11 140.517 146.272   2
   0  -4  11 18.4646 57.0467   5
   0   4 -11 67.9706 172.531   4
   0  -4  10 83903.6 2198.24   5
   0   4 -10 86567.2 2333.05   4
   0  -4  10 85972.2 1986.36   2
   0  -4   9 56.5214 138.537   5
   0   4  -9-341.818 214.953   4
   0  -4   9 72.0526 128.810   2
   0  -4   8 10995.2 731.111   5
   0  -4   8 11444.4 672.845   2
   0   4  -8 11378.5 786.740   4
   0   4  -7 157.279 43.9712   7
   0   4  -7 165.159 178.405   4
   0  -4   7 118.033 133.348   5
   0  -4   7 27.4313 70.6755   1
   0  -4   7 233.625 140.551   2
   0   4  -6 891.254 198.592   2
   0  -4   6 698.349 191.350   5
   0   4  -6 582.790 94.9068   7
   0  -4   6 666.986 168.654   3
   0  -4   6 772.079 198.062   2
   0   4  -6 408.090 165.975   4
   0  -4   5 221.424 108.847   2
   0  -4   5 346.218 130.382   3
   0   4  -5 311.408 115.063   2
   0   4  -5 392.004 94.8561   7
   0  -4   5 255.605 123.600   5
   0  -4   5 510.522 147.282   1
   0   4  -5 542.839 138.884   5
   0  -4   4 23034.4 784.599   2
   0  -4   4 21907.6 562.882   7
   0  -4   4 23247.7 731.577   1
   0   4  -4 22114.0 624.914   7
   0   4  -4 22830.0 811.957   5
   0   4  -4 25053.0 837.311   2
   0  -4   3 1183.33 147.221   7
   0  -4   3 1128.81 156.954   1
   0   4  -3 1105.09 178.369   5
   0   4  -3 1051.23 147.714   7
   0   4  -3 1136.79 182.450   2
   0  -4   2 1540.04 146.536   1
   0   4  -2 1400.79 174.745   7
   0  -4   2 1722.24 184.753   7
   0   4  -2 1373.81 192.630   5
   0   4  -2 1733.76 205.948   2
   0   4  -1 41.5559 81.8229   7
   0   4  -1 55.7535 67.3935   2
   0  -4   1 166.895 82.4610   7
   0  -4   1 32.7690 36.7551   1
   0  -4   0 5558.73 355.182   7
   0   4   0 5381.64 353.549   7
   0   4   0 5915.27 336.934   2
   0   4   1 12172.2 480.365   2
   0  -4  -1 12197.9 544.760   7
   0  -4  -2 54381.4 1174.70   7
   0   4   2 55560.7 1020.50   2
   0  -4  -3 866.442 174.699   7
   0   4   3 544.184 81.1929   1
   0   4   3 698.457 144.509   2
   0  -4  -4 200411. 2378.27   7
   0   4   4 198899. 1643.18   1
   0  -4  -5 288.152 131.594   7
   0   4   5 158.077 94.1627   1
   0   4   5 267.597 110.848   2
   0   4   6 55314.3 1140.02   1
   0   4   6 54516.3 1027.92   2
   0   4   6 54115.1 1302.98   7
   0  -4  -6 54842.2 1316.56   7
   0   4   6 53967.7 1061.67   3
   0  -4  -6 55027.7 1094.25   6
   0   4   7 2197.23 230.159   3
   0  -4  -7 2344.05 238.834   6
   0  -4  -7 2460.89 302.259   7
   0   4   7 1807.08 206.993   2
   0   4   7 1805.16 245.533   1
   0   4   7 1844.56 272.272   7
   0   4   8 10787.1 595.289   7
   0  -4  -8 11662.3 639.959   7
   0   4   8 10249.9 493.356   3
   0  -4  -8 10868.4 496.922   3
   0   4   8 12282.2 640.571   1
   0  -4  -9 502.835 186.195   7
   0  -4  -9 239.270 115.562   3
   0   4   9 329.787 148.378   7
   0   4   9 219.938 124.209   3
   0   4   9 466.742 160.928   1
   0  -4 -10 1371.16 234.231   7
   0   4  10 1129.94 218.280   7
   0  -4 -10 1570.24 229.911   3
   0  -4 -11 156.245 112.988   7
   0   4  11 152.773 123.974   7
   0  -4 -11 104.311 97.2517   3
   0  -4 -12 3121.30 352.627   3
   0  -4 -12 3130.44 391.600   7
   0   4  12 3506.44 376.778   7
   0  -4 -13 1264.21 262.974   3
   0   4  13 1799.99 279.133   7
   0   4  14 8085.34 552.657   7
   0  -4 -14 7108.58 575.856   3
   0  -4 -15 3175.76 414.973   3
   0   4  15 3108.49 357.259   7
   0   4  16 1752.65 336.764   5
   0  -4 -16 1908.41 336.182   3
   0  -4 -17 1841.88 365.655   3
   0  -4 -18 3953.09 552.334   3
   0  -5  13 7140.29 693.340   2
   0  -5  12-215.912 213.106   2
   0   5 -12 14.7172 181.298   4
   0  -5  12-79.0610 260.179   5
   0  -5  11 1840.34 368.724   5
   0  -5  11 1507.28 324.737   2
   0   5 -11 1512.82 376.706   4
   0  -5  10 36.8389 80.8461   5
   0  -5  10 246.101 212.604   2
   0  -5   9 35242.6 1305.86   2
   0   5  -9 36414.2 1559.08   4
   0  -5   9 35237.9 1428.63   5
   0   5  -8 138.867 45.4860   7
   0  -5   8 248.127 171.118   2
   0   5  -8 55.4713 150.154   4
   0   5  -7 10226.2 386.478   7
   0  -5   7 11207.9 662.613   1
   0   5  -7 9956.36 751.258   4
   0  -5   7 10858.2 672.463   2
   0   5  -6 126.874 75.9064   7
   0  -5   6 172.974 138.421   2
   0   5  -6 121.625 140.111   4
   0  -5   5 2571.80 318.244   2
   0   5  -5 2361.57 233.129   7
   0  -5   5 2905.45 288.302   1
   0   5  -5 2431.51 364.866   4
   0  -5   4 248.375 130.067   2
   0  -5   4 360.438 115.328   1
   0   5  -4 136.817 111.688   2
   0   5  -4 117.080 100.985   5
   0   5  -4 216.794 100.597   7
   0   5  -4 355.394 154.480   4
   0  -5   4 229.444 87.4416   7
   0   5  -3 9261.93 531.372   2
   0  -5   3 9257.88 448.573   7
   0   5  -3 9950.57 503.638   7
   0  -5   3 9256.89 410.162   1
   0   5  -3 8617.48 538.067   5
   0  -5   3 10411.5 566.581   2
   0  -5   2 1005.85 163.012   7
   0  -5   2 789.349 114.189   1
   0   5  -2 926.848 168.275   7
   0   5  -2 1037.16 191.594   5
   0   5  -2 930.487 178.929   2
   0  -5   1 3295.70 301.382   7
   0  -5   1 2875.07 141.971   1
   0   5  -1 3759.88 327.469   7
   0   5  -1 3333.61 296.580   2
   0   5   0 2631.14 288.715   7
   0   5   0 2676.83 262.238   2
   0  -5   0 2236.91 259.060   7
   0  -5  -1 2447.31 281.325   7
   0   5   1 2468.08 241.352   2
   0   5   2 138.466 98.8332   2
   0  -5  -2 206.213 124.644   7
   0   5   3 58994.9 556.559   1
   0   5   3 62037.3 1219.80   2
   0  -5  -3 61848.8 1426.16   7
   0   5   4 3365.69 196.753   1
   0   5   4 3838.67 320.183   2
   0   5   5 163077. 1656.13   1
   0  -5  -5 160795. 2406.03   7
   0   5   5 159439. 1963.61   2
   0  -5  -6 770.814 154.146   6
   0  -5  -6 774.746 184.058   7
   0   5   6 815.095 170.269   2
   0  -5  -6 849.620 153.367   3
   0   5   6 803.695 210.200   7
   0   5   6 1012.67 162.709   1
   0  -5  -7 48998.6 1047.80   3
   0   5   7 47093.0 1330.09   7
   0   5   7 49263.7 1158.28   1
   0  -5  -7 45825.8 1120.16   6
   0   5   7 47518.8 1085.46   2
   0  -5  -7 48805.7 1388.02   7
   0   5   8 4257.93 417.736   7
   0  -5  -8 4188.15 344.222   6
   0   5   8 3876.86 343.340   3
   0   5   8 4338.72 383.781   1
   0  -5  -8 4246.84 328.750   3
   0  -5  -8 4255.02 430.225   7
   0   5   8 4256.59 343.462   2
   0   5   9 1570.81 268.025   1
   0   5   9 1889.40 251.198   2
   0  -5  -9 1834.32 308.361   7
   0  -5  -9 1915.85 247.009   3
   0   5   9 1489.63 265.498   7
   0   5  10 4412.10 441.555   7
   0  -5 -10 3749.14 350.587   3
   0   5  10 3734.83 414.547   1
   0   5  11 10977.1 695.683   7
   0  -5 -11 11134.1 617.170   3
   0   5  12 10267.6 669.877   7
   0  -5 -12 10634.4 632.425   3
   0   5  13 22582.3 997.160   7
   0  -5 -13 20318.7 909.713   3
   0  -5 -14 2333.73 352.359   3
   0   5  14 2145.75 334.054   7
   0  -5 -15 367.299 163.608   3
   0   5  15 131.812 159.083   7
   0   5  16 37.1862 82.5887   7
   0  -5 -16 298.371 169.354   3
   0  -5 -17 1318.65 294.429   3
   0  -5 -18-71.5071 180.937   3
   0  -6  12 1327.88 345.999   2
   0   6 -11-9.16534 149.014   4
   0  -6  11 345.060 205.197   2
   0   6 -10 5067.26 658.943   4
   0  -6  10 4463.26 522.491   2
   0   6  -9 878.946 305.444   4
   0  -6   9 842.335 270.397   2
   0   6  -8 21867.7 1229.40   4
   0  -6   8 20292.1 1012.59   2
   0   6  -7 119.664 95.6381   7
   0   6  -7 119.163 128.271   4
   0  -6   7 536.806 208.300   2
   0  -6   7 242.789 167.690   1
   0  -6   6 11504.8 630.301   1
   0   6  -6 11230.1 525.598   7
   0  -6   6 11794.2 721.055   2
   0   6  -6 10588.6 809.246   4
   0   6  -5 2587.24 284.728   7
   0   6  -5 2337.38 381.054   4
   0  -6   5 3436.67 285.335   7
   0  -6   5 2767.34 353.620   2
   0  -6   5 2646.65 284.827   1
   0   6  -4 125.014 129.638   4
   0  -6   4 21.0166 69.7047   7
   0  -6   4 64.3439 80.3151   1
   0  -6   4-146.493 151.198   2
   0  -6   3 334.237 95.3839   1
   0  -6   3 604.990 133.123   7
   0  -6   3 392.759 158.303   2
   0  -6   2 7268.89 464.215   7
   0   6  -2 6828.47 507.731   5
   0  -6   2 6592.20 490.033   2
   0  -6   2 6236.96 263.958   1
   0  -6   1 191.500 111.490   7
   0   6  -1 375.901 147.489   5
   0  -6   1 254.279 151.192   2
   0   6  -1 392.309 148.506   2
   0  -6   1 242.109 37.2351   1
   0   6   0 1436.32 227.431   2
   0  -6   0 1427.72 248.641   7
   0   6   1 2546.11 312.964   7
   0   6   1 2254.33 278.721   2
   0  -6  -1 2696.40 330.981   7
   0  -6  -2 8168.50 564.757   7
   0   6   2 8109.01 495.195   2
   0   6   2 6990.36 516.511   7
   0   6   3 756.147 165.092   2
   0  -6  -3 940.111 226.560   7
   0   6   4 47783.4 1190.16   2
   0  -6  -4 48627.7 1409.68   7
   0  -6  -4 48142.0 1105.50   2
   0   6   4 47167.3 582.193   1
   0  -6  -5 489.112 150.329   3
   0   6   5 480.288 94.8923   1
   0  -6  -5 504.043 176.864   7
   0  -6  -5 352.339 134.964   2
   0   6   5 506.827 164.304   2
   0  -6  -6 46868.9 1095.52   3
   0   6   6 49644.0 1478.29   7
   0   6   6 44540.0 1165.77   2
   0  -6  -6 47751.8 1457.49   7
   0   6   6 46788.0 943.391   1
   0   6   7 6935.49 422.983   1
   0  -6  -7 6573.28 421.383   3
   0   6   7 5914.09 442.890   2
   0   6   7 6122.77 530.845   7
   0  -6  -7 5950.62 456.989   6
   0  -6  -8 2065.43 258.577   3
   0   6   8 2080.63 338.019   7
   0   6   8 2090.76 282.576   1
   0  -6  -8 1828.99 270.363   6
   0   6   9 10103.7 619.923   1
   0   6   9 10578.7 713.487   7
   0  -6  -9 9819.74 576.628   6
   0  -6  -9 10403.5 557.700   3
   0   6  10 40847.3 1290.80   1
   0  -6 -10 41548.5 1181.39   6
   0  -6 -10 42442.9 1159.95   3
   0   6  10 42156.5 1427.33   7
   0  -6 -11 6176.95 478.663   3
   0   6  11 5884.19 562.453   7
   0  -6 -12 1331.85 231.428   3
   0   6  12 1141.21 269.844   7
   0  -6 -13 36.7354 120.736   3
   0   6  13 163.717 164.192   7
   0  -6 -14-36.8167 111.071   3
   0   6  14 144.251 154.203   7
   0   6  15-243.576 187.445   7
   0  -6 -15 30.0886 153.395   3
   0   6  16-119.672 228.328   7
   0  -6 -16 253.228 187.627   3
   0  -6 -17 207.329 133.031   3
   0  -7  10 113.701 176.820   2
   0   7 -10-129.282 209.123   4
   0   7  -9 3845.94 593.156   4
   0  -7   9 3754.50 484.457   2
   0   7  -8 592.049 323.941   4
   0  -7   8 1018.03 272.070   2
   0   7  -7 23638.5 1306.62   4
   0  -7   7 24701.7 1157.50   2
   0  -7   6 1284.07 293.736   2
   0   7  -6 845.930 309.906   4
   0  -7   5 5876.92 410.924   7
   0  -7   5 5372.78 388.428   1
   0   7  -5 5491.70 607.128   4
   0  -7   5 5912.09 544.524   2
   0  -7   4 373.255 202.768   2
   0   7  -4 331.245 152.453   7
   0   7  -4 131.026 182.986   4
   0  -7   4 523.775 136.601   1
   0  -7   4 530.139 172.692   7
   0  -7   3 307.386 146.390   7
   0  -7   3 236.346 168.248   2
   0  -7   3 380.595 85.9252   1
   0   7  -3 246.387 154.782   7
   0   7  -2 2020.93 297.651   7
   0  -7   2 1707.89 305.221   2
   0  -7   2 1645.86 121.309   1
   0  -7   2 1863.48 278.104   7
   0  -7   1 6262.83 490.387   7
   0   7  -1 6111.71 513.376   7
   0  -7   1 5421.93 476.245   2
   0  -7   0 851.427 226.145   7
   0  -7   0 778.845 214.823   2
   0  -7  -1 927.757 214.202   2
   0   7   1 816.266 234.474   7
   0  -7  -1 1100.63 238.183   7
   0   7   2 652.500 198.226   7
   0  -7  -2 851.344 215.996   2
   0   7   3 152.659 125.852   7
   0  -7  -3 196.733 143.332   2
   0  -7  -4 691.735 193.194   3
   0   7   4 443.487 192.021   7
   0  -7  -4 464.480 161.296   2
   0   7   5 1831.25 312.145   7
   0  -7  -5 1956.53 273.297   2
   0   7   5 1684.87 128.979   1
   0  -7  -5 1746.00 256.735   3
   0   7   6 28072.7 1173.45   7
   0  -7  -6 28261.6 924.756   3
   0   7   6 28147.1 640.089   1
   0   7   7 144343. 2686.70   7
   0  -7  -7 142410. 2060.16   3
   0   7   7 137859. 1693.91   1
   0   7   8 14452.3 875.712   7
   0  -7  -8 13519.4 650.901   3
   0   7   8 12070.6 576.014   1
   0   7   9 2536.05 310.074   1
   0   7   9 2941.00 413.260   7
   0  -7  -9 3273.21 344.604   3
   0   7  10 1746.68 274.912   1
   0  -7 -10 1229.96 247.556   3
   0   7  10 1537.77 341.424   7
   0  -7 -11 174.148 118.691   3
   0   7  11 365.608 211.995   7
   0   7  12 69.3462 131.782   7
   0  -7 -12 283.636 174.402   3
   0   7  13 149.041 178.512   7
   0  -7 -13 72.3580 154.943   3
   0   7  14 1047.96 299.012   7
   0  -7 -14 636.573 243.155   3
   0  -7 -15 360.121 159.227   3
   0   7  15 844.318 232.800   7
   0  -7 -16-169.714 138.195   3
   0   7  16 73.7724 147.611   7
   0  -7 -17 346.723 233.522   3
   0  -8   9 1228.75 337.100   2
   0   8  -8 2403.84 451.462   4
   0  -8   8 2403.10 422.972   2
   0  -8   7-142.775 197.496   2
   0   8  -7 33.8053 185.586   4
   0   8  -6 12483.0 992.836   4
   0  -8   6 12551.7 861.377   2
   0   8  -5 1060.74 213.579   7
   0   8  -5 1419.46 340.448   4
   0  -8   5 644.836 229.927   2
   0  -8   4 4536.99 517.463   2
   0   8  -4 4312.17 574.409   4
   0   8  -4 4545.84 449.624   7
   0   8  -3 131.113 111.823   7
   0  -8   3 377.874 202.244   2
   0  -8   2 525.742 188.391   2
   0   8  -2 198.827 115.046   7
   0   8  -1-36.2001 73.1156   7
   0  -8   1 43.1691 127.473   2
   0  -8   0 1550.16 291.844   2
   0   8   0 1276.93 283.292   7
   0   8   1 1177.48 284.361   7
   0  -8  -1 1144.02 291.839   2
   0  -8  -2 9268.06 623.464   2
   0   8   2 9378.92 716.127   7
   0   8   3 12326.7 810.408   7
   0  -8  -3 14201.5 745.983   2
   0  -8  -4 43784.3 1263.25   2
   0  -8  -4 43118.2 1264.67   3
   0   8   4 44261.9 1529.45   7
   0  -8  -5 5467.90 458.528   3
   0  -8  -5 5459.21 463.713   2
   0   8   5 5555.23 571.526   7
   0   8   6 2099.31 151.193   1
   0   8   6 2099.30 364.509   7
   0  -8  -6 2279.65 302.142   3
   0   8   7 60.0057 56.6145   1
   0  -8  -7-129.277 134.256   3
   0   8   7-1.04044 140.324   7
   0   8   8 8072.94 428.065   1
   0  -8  -8 8217.93 543.963   3
   0  -8  -9 448.865 146.529   3
   0   8   9 214.098 111.128   1
   0   8   9 196.125 200.472   7
   0  -8 -10 2398.16 330.405   3
   0   8  10 2209.02 304.783   1
   0   8  10 2673.02 451.828   7
   0  -8 -11-119.430 116.895   3
   0   8  11 70.8847 164.814   7
   0   8  12 990.984 304.899   7
   0  -8 -12 762.893 240.746   3
   0   8  13 252.299 198.931   7
   0  -8 -13 139.138 162.754   3
   0  -8 -14 360.098 202.520   3
   0   8  14 857.780 269.016   7
   0  -8 -15-87.0902 216.463   3
   0   8  15-326.532 198.324   7
   0   8  16 647.344 207.461   7
   0  -8 -16 928.539 234.717   3
   0   9  -7 1549.86 480.507   4
   0  -9   7 1810.65 411.906   2
   0  -9   6 443.581 218.080   2
   0   9  -6 555.067 249.494   4
   0   9  -5 6087.14 742.350   4
   0  -9   5 6655.74 673.864   2
   0   9  -4 108.981 179.485   4
   0  -9   4-102.629 209.027   2
   0   9  -4-28.1449 128.848   7
   0   9  -3 3587.21 417.484   7
   0  -9   3 3545.32 475.152   2
   0  -9   2 180.910 171.953   2
   0   9  -2-58.1202 76.6383   7
   0  -9   1 4718.20 531.189   2
   0   9  -1 4848.29 536.559   7
   0  -9   0 8137.37 663.834   2
   0   9   0 9938.85 758.879   7
   0  -9  -1 21503.3 1029.39   2
   0   9   1 22513.9 1134.27   7
   0   9   2 5722.62 600.490   7
   0  -9  -2 4692.39 487.366   2
   0  -9  -3 1267.06 290.536   2
   0   9   3 2294.08 386.887   7
   0  -9  -4-234.498 176.617   2
   0   9   4-51.0655 129.077   7
   0  -9  -4-11.7472 124.370   3
   0  -9  -5-11.3247 143.398   3
   0  -9  -5 478.325 189.305   2
   0   9   5 514.256 205.721   7
   0  -9  -6 87.7702 145.830   2
   0   9   6-12.4931 143.400   7
   0  -9  -6 68.3433 115.785   3
   0   9   7 1852.48 355.652   7
   0  -9  -7 1525.30 272.821   3
   0   9   8 726.250 249.367   7
   0  -9  -8 665.801 199.657   3
   0   9   9 8951.70 793.587   7
   0  -9  -9 6829.14 540.242   3
   0  -9 -10-77.5353 134.474   3
   0   9  10-182.947 185.902   7
   0  -9 -11 3317.58 400.277   3
   0   9  11 4326.15 570.138   7
   0  -9 -12 644.163 210.726   3
   0   9  12 390.920 261.271   7
   0  -9 -13 848.228 251.839   3
   0   9  13 841.873 280.985   7
   0  -9 -14 465.096 204.478   3
   0   9  14 463.114 286.361   7
   0   9  15 269.445 211.832   7
   0  -9 -15 177.007 219.007   3
   0  10  -4 14449.4 1185.84   4
   0 -10   4 13860.7 985.921   2
   0  10  -3 5580.84 596.371   7
   0 -10   3 4886.69 591.709   2
   0 -10   2 1825.72 398.251   2
   0  10  -2 1430.72 336.678   7
   0  10  -1 605.032 241.982   7
   0 -10   1 935.754 299.352   2
   0  10   0 1030.20 302.590   7
   0 -10   0 662.525 321.243   2
   0 -10  -1 150.996 205.304   2
   0  10   1 49.2560 148.330   7
   0 -10  -2 279.048 202.145   2
   0  10   2 661.304 223.733   7
   0 -10  -3 54.2439 173.259   2
   0  10   3-157.721 187.534   7
   0 -10  -4-116.901 173.150   2
   0 -10  -4 58.8256 166.205   3
   0  10   4 186.165 185.887   7
   0 -10  -5 511.104 212.934   3
   0 -10  -5 415.067 186.919   2
   0  10   5 412.813 235.061   7
   0 -10  -6 448.518 197.174   3
   0 -10  -6 341.980 157.139   2
   0  10   6 218.127 203.784   7
   0 -10  -7 151.523 159.413   3
   0  10   7-111.737 156.676   7
   0  10   8 4191.57 573.482   7
   0 -10  -8 4484.98 460.274   3
   0 -10  -9 20.0839 133.543   3
   0  10   9 213.242 223.479   7
   0  10  10 6238.12 731.654   7
   0 -10 -10 5879.77 551.538   3
   0  10  11 27.4389 192.859   7
   0 -10 -11 376.142 168.458   3
   0  10  12 187.771 248.908   7
   0 -10 -12 121.673 156.092   3
   0 -10 -13 87.6919 162.761   3
   0  11  -2 648.968 272.716   7
   0 -11   1 397.601 228.485   2
   0  11  -1 531.344 248.078   7
   0  11   0 293.392 165.795   7
   0 -11   0-16.6905 117.479   2
   0 -11  -1 19.3782 165.150   2
   0  11   1-316.006 196.678   7
   0 -11  -2 1051.66 302.660   2
   0  11   2 282.019 172.205   7
   0  11   3 270.304 187.258   7
   0 -11  -3 313.509 224.271   2
   0 -11  -3 34.2606 214.566   3
   0  11   4-112.296 178.155   7
   0 -11  -4 81.9693 197.049   3
   0 -11  -4 217.955 199.757   2
   0 -11  -5 1151.64 310.833   2
   0 -11  -5 726.431 253.837   3
   0  11   5 1166.67 351.179   7
   0  11   6 293.953 231.966   7
   0 -11  -6 8.72834 166.594   3
   0 -11  -6 195.217 207.821   2
   0  11   7 1670.54 436.618   7
   0 -11  -7 1784.84 350.125   3
   0 -11  -8 77.0461 160.950   3
   0  11   8 1.47356 129.608   7
   0  11   9-30.2362 209.383   7
   0 -11  -9-39.5696 131.650   3
   0 -11 -10-28.8802 137.410   3
   0  12  -1 718.419 293.590   7
   0  12   0 1752.85 407.207   7
   0  12   1-13.2799 95.3732   7
   0  12   2 316.466 256.080   7
   0  12   3 213.736 294.305   7
   0  12   4 1279.44 408.146   7
  -1  12   2 222.580 220.517   7
  -1  12   1 152.775 227.450   7
  -1  12   0-6.91492 197.574   7
  -1  11   7 283.122 215.696   7
   1 -11  -7 274.284 227.104   3
  -1  11   6 1489.99 353.748   7
   1 -11  -6 1444.80 309.991   3
   1 -11  -5-193.413 214.328   3
  -1  11   5-84.2194 165.665   7
   1 -11  -4 141.353 188.017   3
  -1  11   4 248.119 177.318   7
   1 -11  -4 417.627 216.709   2
   1 -11  -3 114.345 141.264   3
   1 -11  -3 133.540 158.536   2
  -1  11   3 297.410 204.364   7
   1 -11  -2 167.616 151.654   3
  -1  11   2 24.9257 123.757   7
   1 -11  -2-17.9298 153.079   2
  -1  11   1 1064.93 315.307   7
   1 -11  -1 464.495 270.499   2
   1 -11  -1 1123.53 322.626   3
  -1  11   0 1373.03 348.947   7
  -1  11  -1 218.383 174.180   7
   1 -10 -11 3091.80 450.844   3
  -1  10  11 2450.19 471.051   7
   1 -10 -10 1517.00 299.089   3
  -1  10  10 661.190 328.324   7
  -1  10   9 1928.92 397.573   7
   1 -10  -9 2260.22 369.046   3
   1 -10  -8-15.0291 129.036   3
  -1  10   8 144.060 190.636   7
  -1  10   7 29.8826 153.851   7
   1 -10  -7 385.931 191.632   3
  -1  10   6 262.484 224.702   7
   1 -10  -6 144.915 159.885   3
  -1  10   5-122.371 99.7205   7
   1 -10  -5-51.9344 107.191   3
  -1  10   4 319.107 235.649   7
   1 -10  -4 294.536 193.171   3
   1 -10  -4 419.287 224.809   2
   1 -10  -3 149.021 170.046   2
  -1  10   3-204.438 204.095   7
   1 -10  -3 117.658 168.858   3
   1 -10  -2 810.278 267.573   3
   1 -10  -2 354.134 216.943   2
  -1  10   2 322.788 193.263   7
   1 -10  -1-56.9709 197.947   2
  -1  10   1-51.1434 166.530   7
   1 -10   0 1689.97 356.696   2
  -1  10   0 2647.54 410.780   7
   1 -10   1 2850.48 459.920   2
  -1  10  -1 2789.87 443.819   7
  -1  10  -2 2109.07 382.519   7
   1 -10   2 2113.00 398.163   2
  -1  10  -3-261.394 125.893   7
   1 -10   3 60.0746 169.107   2
   1 -10   4 598.853 254.427   2
   1  -9 -13 295.257 200.908   3
  -1   9  13 71.3983 240.417   7
   1  -9 -12 1875.73 347.245   3
  -1   9  12 1064.60 307.800   7
   1  -9 -11 318.138 184.805   3
  -1   9  11-42.8877 193.958   7
   1  -9 -10 496.576 221.579   3
  -1   9  10 352.697 235.339   7
  -1   9   9 549.381 249.873   7
   1  -9  -9 315.315 177.232   3
  -1   9   8-65.1264 188.378   7
   1  -9  -8 118.471 137.849   3
   1  -9  -7 431.660 155.973   3
  -1   9   7 547.657 253.675   7
  -1   9   6 242.263 258.910   7
   1  -9  -6 464.475 189.280   3
  -1   9   5 33.1040 168.841   7
   1  -9  -5 30.4168 109.209   3
   1  -9  -4-57.6276 151.121   2
  -1   9   4 72.2303 162.454   7
   1  -9  -4 241.932 177.694   3
   1  -9  -3 270.579 184.024   2
   1  -9  -3 411.758 199.712   3
  -1   9   3 278.444 159.297   7
   1  -9  -2-203.303 150.855   2
   1  -9  -2 126.143 153.808   3
  -1   9   2-105.606 143.154   7
  -1   9   1 451.034 235.858   7
   1  -9  -1 306.098 202.787   2
   1  -9   0 3870.53 475.264   2
  -1   9   0 4420.48 503.174   7
   1  -9   1 10074.1 754.339   2
  -1   9  -1 11317.3 766.097   7
  -1   9  -2 4914.53 504.800   7
   1  -9   2 4191.78 525.093   2
   1  -9   3 907.944 304.859   2
  -1   9  -3 785.036 240.551   7
   1  -9   4 866.767 281.831   2
  -1   9  -4 999.016 244.443   7
  -1   9  -4 1512.85 394.794   4
  -1   9  -5-26.8637 182.593   4
   1  -9   5 386.528 264.068   2
  -1   9  -6 568.341 282.834   4
   1  -9   6 757.852 253.768   2
  -1   8  15 538.836 240.447   7
  -1   8  14-277.383 250.993   7
   1  -8 -14-343.224 247.475   3
   1  -8 -13-76.1424 206.801   3
  -1   8  13-56.5527 159.215   7
  -1   8  12-409.376 251.027   7
   1  -8 -12-127.273 164.038   3
  -1   8  11-159.876 180.935   7
   1  -8 -11-68.8428 118.297   3
   1  -8 -10 1158.56 258.322   3
  -1   8  10 957.440 287.286   7
  -1   8   9 119.796 158.354   7
   1  -8  -9 72.3608 152.084   3
  -1   8   8 2406.04 397.944   7
   1  -8  -8 2627.13 342.287   3
   1  -8  -7-124.901 144.465   3
  -1   8   7 113.713 87.5729   1
  -1   8   7-40.7431 124.630   7
  -1   8   6 787.177 253.863   7
  -1   8   6 550.192 100.629   1
   1  -8  -6 463.663 171.698   3
   1  -8  -5 572.442 181.890   3
  -1   8   5 500.639 237.110   7
  -1   8   4 10470.3 757.602   7
   1  -8  -4 9446.00 611.771   3
   1  -8  -4 9816.77 627.173   2
  -1   8   3 13715.7 847.965   7
   1  -8  -3 13925.5 756.589   2
   1  -8  -3 13565.9 741.577   3
  -1   8   2 6685.30 593.978   7
   1  -8  -2 7379.10 560.398   2
   1  -8  -1 131.749 171.026   2
  -1   8   1-6.09359 120.398   7
   1  -8   0 114.640 198.204   2
  -1   8   0 157.588 150.668   7
  -1   8  -1-84.0490 128.229   7
   1  -8   1 138.460 167.896   2
  -1   8  -2 2606.49 350.357   7
   1  -8   2 3105.94 403.373   2
   1  -8   3 1890.80 342.716   2
  -1   8  -3 1645.04 261.031   7
  -1   8  -4-356.568 236.163   4
   1  -8   4 12.5101 148.102   2
  -1   8  -4-141.086 128.942   7
   1  -8   5 2102.08 385.764   2
  -1   8  -5 1394.71 234.038   7
  -1   8  -5 1845.75 422.454   4
  -1   8  -6 78.0840 215.270   4
   1  -8   6 278.101 188.468   2
   1  -8   7 996.111 304.502   2
  -1   8  -7 1131.84 384.836   4
   1  -8   8 773.902 266.117   2
  -1   8  -8 554.212 276.216   4
   1  -8   9 240.354 247.834   2
  -1   7  16 201.601 179.838   7
  -1   7  15 555.553 263.067   7
   1  -7 -15 626.739 232.893   3
  -1   7  14 9.85617 108.450   7
   1  -7 -14-84.1477 172.815   3
  -1   7  13 282.869 216.985   7
   1  -7 -13-129.500 147.932   3
   1  -7 -12 359.995 153.350   3
  -1   7  12 598.775 241.710   7
  -1   7  11 305.702 226.212   7
   1  -7 -11 378.642 172.386   3
   1  -7 -10 108.571 100.663   6
  -1   7  10 297.265 134.567   1
  -1   7  10 270.753 177.269   7
   1  -7 -10 118.674 137.579   3
   1  -7  -9 987.083 229.194   3
  -1   7   9 772.565 270.252   7
  -1   7   9 1090.27 198.288   1
   1  -7  -9 1145.65 246.981   6
   1  -7  -8-7.02271 141.270   3
   1  -7  -8-200.735 137.214   6
  -1   7   8 187.415 102.284   1
  -1   7   8 103.061 160.753   7
  -1   7   7 1682.53 234.514   1
   1  -7  -7 1902.07 279.028   3
  -1   7   7 1515.10 314.274   7
  -1   7   6 18230.4 960.817   7
  -1   7   6 17361.5 591.252   1
   1  -7  -6 17662.9 765.891   3
  -1   7   5 18732.8 951.948   7
   1  -7  -5 17646.7 757.399   3
  -1   7   5 16860.1 484.003   1
   1  -7  -4 7115.58 499.414   2
   1  -7  -4 6082.88 461.946   3
  -1   7   4 6301.36 553.944   7
  -1   7   3 8257.22 617.041   7
   1  -7  -3 7996.60 530.937   2
   1  -7  -2 891.943 213.036   2
  -1   7   2 1283.49 265.790   7
  -1   7   1 299.809 165.755   7
   1  -7  -1 398.343 187.335   2
   1  -7   0 4639.23 444.982   2
  -1   7   0 4296.03 423.774   7
   1  -7   0 4254.43 449.747   7
   1  -7   1 3441.51 396.172   2
   1  -7   1 3642.97 419.755   7
  -1   7  -1 3394.94 365.401   7
  -1   7  -2 530.047 178.039   7
   1  -7   2 932.932 218.455   7
   1  -7   2 755.661 222.294   2
   1  -7   3 7544.95 543.912   7
   1  -7   3 6420.51 557.729   2
  -1   7  -3 7745.80 515.669   7
   1  -7   4 4006.02 299.924   1
  -1   7  -4 4678.66 397.333   7
   1  -7   4 4310.43 380.661   7
   1  -7   4 4784.56 500.240   2
  -1   7  -4 4035.43 532.418   4
  -1   7  -5 455.668 241.565   4
   1  -7   5 894.280 184.391   7
   1  -7   5 450.244 197.560   2
  -1   7  -6 170.617 177.820   4
   1  -7   6-173.948 167.722   2
  -1   7  -7 11323.3 931.968   4
   1  -7   7 10357.8 758.376   2
   1  -7   8 3863.27 484.075   2
  -1   7  -8 3408.09 522.959   4
  -1   7  -9 2402.20 474.749   4
   1  -7   9 2772.34 415.805   2
   1  -7  10-134.696 175.367   2
   1  -7  11 208.159 222.660   2
   1  -6 -16 860.113 266.123   3
  -1   6  16 800.784 240.032   7
   1  -6 -15 8.30820 152.133   3
  -1   6  15 234.542 150.467   7
  -1   6  14 1470.52 316.364   7
   1  -6 -14 1503.01 303.378   3
   1  -6 -13 1003.87 252.688   3
  -1   6  13 1500.41 289.611   7
   1  -6 -12-67.9960 127.594   3
  -1   6  12 8.27379 119.071   7
  -1   6  11 1116.48 261.049   7
   1  -6 -11 919.408 223.125   3
   1  -6 -10 8801.91 584.923   3
  -1   6  10 10640.7 725.854   7
   1  -6  -9 20745.6 843.046   3
   1  -6  -9 20743.3 759.305   6
  -1   6   9 19043.7 878.470   1
  -1   6   9 21162.4 1000.02   7
   1  -6  -8 24180.3 841.795   6
  -1   6   8 26765.8 1117.28   7
  -1   6   8 24623.3 928.159   1
   1  -6  -8 25634.9 905.424   3
   1  -6  -7 6014.15 431.867   3
  -1   6   7 5932.43 534.994   7
  -1   6   7 5950.85 423.041   1
   1  -6  -6 47.3632 119.967   3
  -1   6   6 275.558 164.827   7
  -1   6   5 482.313 178.006   7
   1  -6  -5 429.924 139.653   3
  -1   6   4 60.2101 104.667   7
   1  -6  -4 137.718 117.169   3
   1  -6  -4-97.7746 112.932   2
   1  -6  -4 53.6033 135.942   7
  -1   6   3 135.184 127.493   2
   1  -6  -3 42.3439 102.038   3
   1  -6  -3 32.8093 99.3550   2
  -1   6   3-100.491 137.680   7
   1  -6  -3 243.187 148.049   7
   1  -6  -2 2031.37 268.042   2
  -1   6   2 2132.44 304.652   7
   1  -6  -2 2159.37 263.998   3
  -1   6   2 1437.32 236.489   2
   1  -6  -2 2047.20 303.907   7
   1  -6  -1 7940.60 565.019   7
  -1   6   1 7522.34 518.448   7
   1  -6  -1 7199.54 483.218   2
  -1   6   1 7343.85 496.949   2
   1  -6   0 305.790 152.850   2
  -1   6   0 452.794 170.913   7
   1  -6   0 391.307 153.070   7
  -1   6  -1 9709.03 563.052   5
  -1   6  -1 9783.55 565.870   7
   1  -6   1 10188.5 608.102   7
   1  -6   1 9346.21 581.048   2
  -1   6  -2 7909.60 518.195   5
   1  -6   2 8676.17 573.721   2
   1  -6   2 8067.46 530.080   7
  -1   6  -3 6599.18 488.414   5
   1  -6   3 6873.32 468.620   7
   1  -6   3 6713.65 517.678   2
   1  -6   3 6971.75 342.280   1
   1  -6   4 135.093 106.889   7
   1  -6   4 17.5314 138.796   2
  -1   6  -4-79.9336 152.507   4
   1  -6   4 33.5340 80.2118   1
  -1   6  -5 15730.0 969.795   4
   1  -6   5 15644.2 617.098   7
  -1   6  -5 15570.6 581.414   7
   1  -6   5 16168.7 823.581   2
   1  -6   6 5212.82 323.025   7
   1  -6   6 5161.18 490.724   2
  -1   6  -6 5806.65 615.062   4
  -1   6  -6 5307.74 311.167   7
   1  -6   6 5004.56 389.613   1
  -1   6  -7 1216.59 131.603   7
   1  -6   7 1345.01 290.073   2
  -1   6  -8 1160.85 318.309   4
   1  -6   8 506.329 213.392   2
  -1   6  -9 635.288 254.085   4
   1  -6   9 542.610 216.246   2
   1  -6  10 548.278 211.015   2
  -1   6 -10 600.492 249.211   4
   1  -6  11-71.9099 196.236   2
  -1   6 -11 74.4594 147.076   4
   1  -6  12 686.485 261.668   2
  -1   5  16-400.106 159.228   7
   1  -5 -16-11.1302 127.706   3
  -1   5  16-263.343 216.549   5
  -1   5  15 615.456 233.418   7
   1  -5 -15 529.602 238.229   3
   1  -5 -14 605.135 225.439   3
  -1   5  14 182.974 148.154   7
   1  -5 -13 1116.37 256.977   3
  -1   5  13 1021.69 249.948   7
  -1   5  12 5639.09 513.873   7
   1  -5 -12 5725.94 499.583   3
   1  -5 -11 12184.7 696.987   3
  -1   5  11 11666.0 705.897   7
   1  -5 -10 14426.9 720.592   3
  -1   5  10 13726.5 765.995   7
   1  -5  -9 5000.75 411.587   3
  -1   5   9 4301.27 429.716   7
  -1   5   8 135.451 134.795   7
   1  -5  -8 23.9363 106.411   3
   1  -5  -8-13.5554 68.6694   6
   1  -5  -7 191.865 156.057   7
   1  -5  -7 228.040 104.329   6
  -1   5   7 440.732 172.167   7
   1  -5  -7 271.310 113.485   3
  -1   5   6 992.884 218.357   7
   1  -5  -6 929.063 241.961   7
  -1   5   6 1090.29 198.384   2
   1  -5  -5 12588.0 722.210   7
  -1   5   5 12445.2 593.722   2
   1  -5  -4 635.784 171.136   7
  -1   5   4 904.049 182.519   2
   1  -5  -3 7126.94 524.189   7
  -1   5   3 7555.71 464.426   2
   1  -5  -2 91.1084 116.192   7
  -1   5   2 297.506 151.284   2
  -1   5   1 2414.16 116.995   1
  -1   5   1 2767.65 282.542   2
   1  -5  -1 2707.94 308.982   7
  -1   5   0 32076.9 938.445   2
   1  -5   0 31952.2 928.741   2
   1  -5   0 31538.9 993.911   7
   1  -5   1 27160.0 874.349   2
  -1   5  -1 25401.8 812.859   5
   1  -5   1 24529.1 854.972   7
  -1   5  -1 26228.0 847.501   2
  -1   5  -2 2241.53 248.150   7
  -1   5  -2 2136.84 245.605   5
   1  -5   2 2049.86 254.642   7
   1  -5   2 1952.99 266.484   2
  -1   5  -2 1449.08 226.180   2
   1  -5   2 1895.12 166.913   1
  -1   5  -3 33195.0 990.794   5
   1  -5   3 34407.5 940.601   7
  -1   5  -3 33295.9 1007.94   2
   1  -5   3 34084.2 1024.74   2
   1  -5   3 34504.6 748.148   1
  -1   5  -3 34610.8 879.613   7
  -1   5  -4 3715.98 359.233   2
  -1   5  -4 3727.02 277.079   7
  -1   5  -4 3999.14 444.692   4
  -1   5  -4 4393.12 373.784   5
   1  -5   4 3556.80 358.801   2
   1  -5   4 3964.03 306.629   7
   1  -5   4 4260.92 302.940   1
  -1   5  -5 8788.70 385.051   7
   1  -5   5 8338.17 397.354   7
  -1   5  -5 8668.44 674.971   4
   1  -5   5 8441.09 549.642   2
  -1   5  -6 3683.01 469.869   4
  -1   5  -6 3224.63 208.575   7
   1  -5   6 3304.33 223.232   7
   1  -5   6 3653.54 386.108   2
   1  -5   6 3907.40 361.379   1
  -1   5  -7 485.266 217.863   4
   1  -5   7 504.282 169.353   1
  -1   5  -7 495.188 72.4286   7
   1  -5   7 299.135 174.978   2
   1  -5   8 3285.28 391.612   2
   1  -5   8 3711.68 443.415   5
  -1   5  -8 3013.14 469.729   4
   1  -5   9 518.799 207.451   5
   1  -5   9 483.592 224.715   2
  -1   5  -9 356.905 220.736   4
  -1   5 -10 976.037 336.654   4
   1  -5  10 1774.79 342.097   5
   1  -5  10 1135.08 260.838   2
  -1   5 -11-59.9949 173.462   4
   1  -5  11 158.640 200.287   5
   1  -5  11 215.083 182.289   2
   1  -5  12 157.573 207.350   5
   1  -5  12 166.064 202.725   2
  -1   5 -12-377.462 297.379   4
   1  -5  13 1087.99 291.785   2
   1  -5  14 12518.9 916.764   2
   1  -4 -17-263.443 281.733   3
  -1   4  16 2486.94 430.464   5
   1  -4 -16 2448.17 423.081   3
  -1   4  15 10924.4 680.038   7
  -1   4  15 9410.54 749.530   5
   1  -4 -15 9903.86 760.667   3
   1  -4 -14 17238.8 938.941   3
  -1   4  14 17687.3 988.455   5
  -1   4  14 17019.6 836.787   7
  -1   4  13 6645.19 504.042   7
   1  -4 -13 5116.36 497.974   3
  -1   4  12 192.360 127.620   7
   1  -4 -12-186.789 144.035   3
   1  -4 -11 3434.50 379.200   3
  -1   4  11 3437.50 373.225   7
   1  -4 -10 193.659 142.669   3
  -1   4  10 154.102 140.553   7
  -1   4   9 2292.73 296.313   7
   1  -4  -9 2319.37 289.718   3
   1  -4  -9 2325.66 319.331   7
   1  -4  -8 1363.18 268.745   7
  -1   4   8 1160.54 191.326   3
  -1   4   8 1125.59 216.858   7
   1  -4  -8 1288.55 205.660   3
   1  -4  -7 4908.58 448.973   7
   1  -4  -7 4613.96 287.652   6
  -1   4   7 4542.04 411.673   7
  -1   4   7 5380.65 380.831   3
  -1   4   6 6202.70 393.546   2
   1  -4  -6 6267.51 483.565   7
  -1   4   6 6156.00 387.888   3
  -1   4   6 5895.14 434.209   7
   1  -4  -6 6185.49 338.424   6
  -1   4   5 2123.19 235.569   3
  -1   4   5 2005.75 223.032   2
   1  -4  -5 1848.06 259.833   7
   1  -4  -4 25099.8 905.623   7
  -1   4   4 23675.2 718.576   2
   1  -4  -3 6967.92 466.300   7
  -1   4   3 7695.11 419.262   2
   1  -4  -2 58884.6 1294.09   7
  -1   4   2 59622.6 1150.56   2
  -1   4   1 65938.0 692.998   1
  -1   4   1 64903.9 1198.59   2
   1  -4  -1 64579.8 1319.89   7
   1  -4   0 16022.1 640.261   7
  -1   4   0 15267.4 350.007   1
  -1   4   0 15607.4 588.851   2
  -1   4   0 15730.4 595.664   7
  -1   4  -1 34016.4 863.012   2
  -1   4  -1 33023.2 830.128   7
  -1   4  -1 33810.9 619.225   1
  -1   4  -1 33214.4 818.761   5
   1  -4   1 32247.2 875.848   7
   1  -4   1 32544.3 855.222   2
  -1   4  -2 723.731 131.265   7
   1  -4   2 928.677 161.412   7
   1  -4   2 707.193 164.116   2
   1  -4   2 897.196 119.920   1
  -1   4  -2 820.073 131.637   1
  -1   4  -2 776.024 142.094   2
  -1   4  -2 911.711 155.238   5
   1  -4   3 49140.6 881.957   1
  -1   4  -3 48215.5 1099.08   2
  -1   4  -3 46493.6 1057.44   5
  -1   4  -3 46717.4 882.159   7
   1  -4   3 46703.0 968.085   7
   1  -4   3 47720.9 1092.36   2
  -1   4  -4 3804.60 325.261   2
  -1   4  -4 3737.34 315.061   5
  -1   4  -4 3157.69 215.842   7
   1  -4   4 3878.69 286.696   1
   1  -4   4 3584.24 324.643   2
  -1   4  -4 3859.53 412.448   4
   1  -4   4 3745.57 259.505   7
   1  -4   5 6620.16 413.842   1
   1  -4   5 6856.64 484.354   5
   1  -4   5 6160.44 290.103   7
  -1   4  -5 6784.57 452.862   5
  -1   4  -5 6349.43 440.190   2
   1  -4   5 6508.59 435.701   2
  -1   4  -5 5730.82 505.532   4
  -1   4  -5 6239.66 268.998   7
   1  -4   6 11650.3 596.792   2
   1  -4   6 10637.3 632.384   5
  -1   4  -6 10977.5 717.729   4
   1  -4   6 10890.1 320.476   7
  -1   4  -6 11812.3 621.913   2
   1  -4   6 10757.9 594.413   3
  -1   4  -6 11771.3 614.559   5
  -1   4  -6 11035.2 298.975   7
   1  -4   7 8892.44 613.910   5
  -1   4  -7 9634.47 704.391   4
   1  -4   7 8697.36 571.262   1
   1  -4   7 8876.10 557.321   2
   1  -4   8-110.317 99.7061   2
   1  -4   8-57.2192 122.271   5
  -1   4  -8-272.687 164.008   4
   1  -4   9 585.529 176.132   2
   1  -4   9 630.934 208.566   5
  -1   4  -9 440.236 215.840   4
  -1   4 -10-128.197 141.910   4
   1  -4  10-108.921 182.445   5
   1  -4  10 137.682 146.757   2
  -1   4 -11 7549.72 745.680   4
   1  -4  11 6807.93 573.068   2
   1  -4  12 659.024 273.937   5
  -1   4 -12 714.094 273.522   4
   1  -4  12 653.056 236.225   2
  -1   4 -13 1314.69 394.699   4
   1  -4  13 1980.79 412.177   5
   1  -4  13 1557.57 318.547   2
   1  -4  14 984.855 242.438   2
   1  -4  15 10519.8 836.347   2
   1  -3 -17 1658.29 429.609   3
  -1   3  16 1776.33 384.467   5
   1  -3 -16 1261.04 344.242   3
  -1   3  15 985.984 220.145   7
  -1   3  15 1106.69 303.729   5
   1  -3 -15 1139.33 322.476   3
  -1   3  14 513.210 182.792   5
   1  -3 -14 709.717 245.449   3
  -1   3  14 496.717 181.684   7
  -1   3  13 2568.47 313.372   7
   1  -3 -13 2552.98 358.189   3
  -1   3  13 2588.60 372.933   5
  -1   3  12 178.946 90.8534   7
   1  -3 -12 349.798 186.777   3
   1  -3 -12 435.449 160.487   7
   1  -3 -11 3272.11 370.255   3
  -1   3  11 3443.92 340.268   7
   1  -3 -11 3369.14 387.582   7
   1  -3 -10 1871.25 277.054   3
  -1   3  10 1792.44 243.701   7
   1  -3 -10 1434.07 253.069   7
  -1   3   9 23.9741 82.6123   7
   1  -3  -9 23.4732 89.6150   3
   1  -3  -9 108.524 104.751   7
   1  -3  -8 6055.27 408.201   3
   1  -3  -8 5996.34 465.899   7
  -1   3   8 6346.45 422.874   7
  -1   3   8 6163.28 393.004   3
   1  -3  -7 617.691 162.113   7
  -1   3   7 630.468 163.293   7
  -1   3   7 747.373 143.003   3
   1  -3  -6 7999.05 319.172   6
  -1   3   6 8491.76 465.727   7
  -1   3   6 7910.72 404.933   3
   1  -3  -6 8085.37 499.371   7
  -1   3   5 26057.3 792.737   7
   1  -3  -5 25377.7 562.878   6
   1  -3  -5 26336.7 857.551   7
  -1   3   5 24657.2 678.415   3
   1  -3  -4 39713.4 1030.05   7
  -1   3   4 38441.6 818.650   3
  -1   3   4 38842.3 826.718   2
   1  -3  -3 214435. 2273.70   7
  -1   3   3 219597. 1915.40   3
  -1   3   3 220349. 1916.91   2
  -1   3   2 4242.73 274.374   2
   1  -3  -2 3797.37 300.737   7
   1  -3  -1 997.827 162.383   7
  -1   3   1 1028.96 151.110   2
  -1   3   0 179.981 83.7766   2
   1  -3   0 108.743 71.1536   7
  -1   3   0 150.437 78.6867   7
  -1   3   0 278.672 63.1469   1
   1  -3   1 39607.8 852.058   7
  -1   3  -1 40474.2 777.784   5
   1  -3   1 40937.0 841.952   2
  -1   3  -1 41424.0 830.582   2
  -1   3  -1 42100.0 807.713   7
  -1   3  -1 39895.2 639.023   1
  -1   3  -2 48573.3 930.245   2
  -1   3  -2 48312.1 900.971   5
   1  -3   2 45576.9 867.854   7
   1  -3   2 46327.2 757.167   1
  -1   3  -2 46919.7 803.843   7
   1  -3   2 48471.1 940.293   2
  -1   3  -2 48234.0 832.381   1
  -1   3  -3 1065.48 152.093   5
  -1   3  -3 1173.64 157.950   2
   1  -3   3 1156.76 139.620   7
   1  -3   3 1086.59 140.556   1
  -1   3  -3 1355.88 132.054   7
   1  -3   3 1161.70 173.199   5
  -1   3  -3 1296.67 165.423   1
   1  -3   3 1151.07 168.685   2
  -1   3  -4 48847.4 1076.41   1
   1  -3   4 49188.1 1014.17   2
  -1   3  -4 49689.6 686.264   7
   1  -3   4 48541.9 1093.85   5
   1  -3   4 48192.8 773.452   7
  -1   3  -4 49701.4 1043.88   2
   1  -3   4 51172.4 1000.48   1
  -1   3  -4 48522.7 1022.00   5
   1  -3   5 13936.2 353.146   7
   1  -3   5 14487.0 636.245   5
   1  -3   5 13910.3 573.274   2
  -1   3  -5 14503.8 594.500   5
  -1   3  -5 14197.5 592.377   2
   1  -3   5 15266.7 615.693   1
  -1   3  -5 14147.1 309.803   7
   1  -3   6 10672.3 538.094   3
  -1   3  -6 11387.3 558.734   5
  -1   3  -6 10599.0 544.208   2
   1  -3   6 11058.8 596.459   5
   1  -3   6 10137.9 514.650   2
  -1   3  -6 11028.1 671.802   4
   1  -3   7 18500.9 731.599   2
   1  -3   7 17125.1 786.519   5
  -1   3  -7 17756.3 736.672   5
  -1   3  -7 17936.2 736.443   2
   1  -3   7 16947.8 702.661   3
  -1   3  -7 16344.5 853.075   4
   1  -3   7 18230.6 803.310   1
  -1   3  -8 50822.3 1290.39   2
   1  -3   8 49908.6 1266.06   3
   1  -3   8 50401.1 1424.26   5
  -1   3  -8 49317.3 1561.02   4
   1  -3   8 49024.3 1245.24   2
   1  -3   8 53517.1 1464.53   1
  -1   3  -9 687.849 234.795   4
   1  -3   9 553.139 206.881   5
   1  -3   9 764.202 205.828   2
   1  -3  10 2052.25 296.671   2
  -1   3 -10 2500.47 413.024   4
   1  -3  10 2398.26 402.341   5
   1  -3  11 219.551 165.579   2
  -1   3 -11 198.548 144.320   4
   1  -3  11 184.050 185.829   5
  -1   3 -12 2996.94 474.998   4
   1  -3  12 2891.19 398.886   2
   1  -3  12 3411.66 475.854   5
   1  -3  13 469.076 219.969   5
  -1   3 -13 426.068 216.980   4
   1  -3  13 406.453 167.145   2
   1  -3  14 232.655 143.595   2
   1  -3  14-16.5267 97.8625   5
   1  -3  15 131.802 118.992   2
   1  -3  16 5434.06 594.624   2
   1  -2 -17 221.304 284.469   3
  -1   2  17 849.870 334.815   2
   1  -2 -16 571.788 249.163   3
  -1   2  16 860.940 318.396   5
  -1   2  15 1088.16 305.704   5
   1  -2 -15 754.027 271.866   3
  -1   2  14-58.1968 115.965   6
  -1   2  14 7.12126 92.5305   5
   1  -2 -14 100.994 162.854   3
   1  -2 -13 2401.13 331.751   7
  -1   2  13 2932.49 301.962   7
  -1   2  13 2501.44 285.004   6
  -1   2  13 2961.73 406.441   5
   1  -2 -13 3105.10 400.185   3
   1  -2 -12 3893.77 397.736   7
  -1   2  12 3940.47 331.540   7
   1  -2 -12 3569.71 411.533   3
  -1   2  12 3964.35 352.935   6
  -1   2  12 4229.53 449.604   5
  -1   2  11 696.267 188.072   5
  -1   2  11 942.324 164.694   7
  -1   2  11 1046.55 196.143   6
   1  -2 -11 992.332 234.997   3
   1  -2 -11 777.849 168.491   7
  -1   2  10 8697.31 554.874   5
   1  -2 -10 9017.74 557.695   3
   1  -2 -10 9659.00 565.657   7
  -1   2  10 8419.08 437.090   6
  -1   2  10 9430.12 486.381   7
  -1   2   9 9314.40 500.702   3
   1  -2  -9 8884.17 532.707   7
  -1   2   9 9339.21 426.041   6
  -1   2   9 8572.23 567.379   4
   1  -2  -9 9616.52 541.030   3
  -1   2   9 9755.89 483.827   7
  -1   2   8 7428.35 408.173   7
  -1   2   8 6858.94 339.044   6
   1  -2  -8 6588.25 441.495   7
  -1   2   8 6800.81 405.098   3
  -1   2   7 47289.5 1005.33   7
  -1   2   7 46192.4 812.943   6
  -1   2   7 46773.2 994.168   3
   1  -2  -7 46168.7 1107.28   7
  -1   2   6 1673.25 191.137   7
   1  -2  -6 1481.48 200.737   7
  -1   2   6 1861.30 195.484   3
  -1   2   5 17996.7 585.050   7
   1  -2  -5 17847.1 632.124   7
  -1   2   5 17476.4 533.151   3
  -1   2   4 245.584 73.2915   3
   1  -2  -4 258.067 52.8733   6
   1  -2  -4 348.707 103.417   7
   1  -2  -3 18491.0 589.480   7
  -1   2   3 19602.8 498.444   3
  -1   2   2 9635.56 344.084   2
   1  -2  -2 9918.86 411.634   7
  -1   2   2 9757.81 338.556   3
   1  -2  -1 206.121 80.5865   7
  -1   2   1 712.047 109.325   2
  -1   2   0 1351.67 120.114   1
   1  -2   0 1256.58 142.775   7
  -1   2   0 1322.25 137.955   2
   1  -2   1 8172.95 286.497   1
  -1   2  -1 8281.00 287.624   5
   1  -2   1 8270.71 323.058   7
  -1   2  -1 8625.04 287.492   1
  -1   2  -1 8285.47 301.419   7
   1  -2   1 8219.12 321.912   2
  -1   2  -1 8482.39 321.560   2
   1  -2   2 9694.12 328.085   7
   1  -2   2 10039.9 367.578   5
  -1   2  -2 9690.95 300.466   7
  -1   2  -2 10002.5 362.475   1
  -1   2  -2 9913.52 348.488   5
   1  -2   2 10368.5 351.880   1
  -1   2  -2 9674.65 353.196   2
   1  -2   2 9932.08 364.019   2
  -1   2  -3 41982.0 554.325   7
  -1   2  -3 41644.3 778.269   5
   1  -2   3 41531.8 772.866   2
   1  -2   3 42283.6 805.083   1
   1  -2   3 40750.5 627.053   7
  -1   2  -3 42137.1 860.451   1
   1  -2   3 43099.1 836.006   5
  -1   2  -3 41934.3 787.825   2
  -1   2  -4 281.052 83.7388   2
   1  -2   4 226.365 101.205   1
  -1   2  -4 269.991 43.5630   7
   1  -2   4 278.781 92.2414   2
   1  -2   4 289.643 57.3991   7
   1  -2   4 243.602 91.4185   5
  -1   2  -4 318.323 110.241   1
  -1   2  -4 366.923 93.1193   5
  -1   2  -5 870.204 147.100   2
   1  -2   5 535.123 129.630   2
   1  -2   5 886.965 141.159   3
  -1   2  -5 696.477 139.361   5
  -1   2  -5 591.916 159.378   1
   1  -2   5 618.802 140.487   5
   1  -2   5 640.390 139.644   1
   1  -2   6 2813.22 341.066   4
   1  -2   6 2712.37 250.720   2
   1  -2   6 2512.42 234.359   3
   1  -2   6 2411.79 266.490   5
  -1   2  -6 2735.26 255.915   2
   1  -2   7 99363.6 1749.23   5
   1  -2   7 98616.2 2048.61   4
   1  -2   7 101523. 1557.68   3
   1  -2   7 104104. 1590.92   2
  -1   2  -7 102762. 1999.83   4
   1  -2   7 103154. 1879.75   1
   1  -2   8 18016.4 806.296   5
  -1   2  -8 18741.3 899.736   4
   1  -2   8 18493.2 716.261   2
   1  -2   8 19942.8 883.987   1
   1  -2   8 17767.5 693.248   3
   1  -2   9 24144.1 842.853   3
   1  -2   9 23945.3 980.890   5
   1  -2   9 24783.5 872.560   2
  -1   2  -9 25196.5 1095.43   4
   1  -2  10 45.5218 123.874   2
  -1   2 -10 97.3223 157.405   4
   1  -2  10 107.652 128.589   5
   1  -2  11 3736.11 469.082   5
   1  -2  11 4178.96 406.680   2
  -1   2 -11 3169.11 444.360   4
   1  -2  12 472.854 189.836   2
   1  -2  12 742.138 247.152   5
   1  -2  13 488.157 227.774   5
   1  -2  13 343.178 184.561   2
   1  -2  14 178.176 214.965   5
   1  -2  14 69.7246 133.218   2
   1  -2  15 230.168 191.017   2
   1  -2  15 136.309 230.835   5
   1  -2  16-46.3520 106.649   2
   1  -1 -16 518.006 217.440   3
  -1   1  16 1374.17 326.693   5
  -1   1  16 1291.51 367.944   2
  -1   1  15 1760.29 281.994   6
   1  -1 -15 1174.92 306.870   3
  -1   1  15 1620.09 349.789   2
  -1   1  15 1105.54 316.262   5
  -1   1  14 612.285 183.924   6
   1  -1 -14 786.703 264.686   3
  -1   1  14 567.651 234.205   5
  -1   1  14 769.129 253.595   2
  -1   1  13 526.222 184.648   5
  -1   1  13 592.328 168.659   6
   1  -1 -13 691.292 238.539   3
  -1   1  12 2618.19 377.358   5
   1  -1 -12 2611.61 361.233   3
   1  -1 -12 2338.77 287.459   7
   1  -1 -11 2568.36 336.809   3
   1  -1 -11 2917.18 309.756   7
  -1   1  11 2651.21 344.558   5
  -1   1  10 8718.80 432.222   7
  -1   1  10 7728.03 533.351   5
   1  -1 -10 8967.84 569.029   3
   1  -1 -10 7506.78 466.500   7
  -1   1   9 14048.8 732.071   4
  -1   1   9 14718.7 684.865   5
   1  -1  -9 15790.8 705.340   3
   1  -1  -9 14737.8 618.209   7
  -1   1   9 14737.6 542.951   7
  -1   1   9 13967.5 623.013   3
  -1   1   8 17359.2 689.856   5
  -1   1   8 17407.8 655.439   3
   1  -1  -8 16720.7 629.557   7
  -1   1   8 16405.1 733.519   4
  -1   1   8 17735.1 577.937   7
  -1   1   7 4014.52 301.165   3
   1  -1  -7 3921.20 294.708   7
  -1   1   7 4434.19 357.148   4
  -1   1   7 4051.43 267.161   7
   1  -1  -6 17511.6 586.553   7
  -1   1   6 18278.4 590.817   3
  -1   1   6 17977.3 537.063   7
  -1   1   5 13719.5 453.254   7
  -1   1   5 12954.3 459.584   3
   1  -1  -5 13355.6 485.600   7
  -1   1   5 13042.1 313.379   6
  -1   1   4 25527.6 360.794   6
  -1   1   4 26674.4 602.510   3
   1  -1  -4 26170.6 640.788   7
  -1   1   4 26977.0 605.766   7
  -1   1   3 1591.14 136.249   3
   1  -1  -3 1287.53 139.965   7
   1  -1  -2 11310.5 370.639   7
  -1   1   2 11476.7 318.802   3
   1  -1  -1 73440.4 886.964   7
  -1   1   1 73179.4 718.444   3
  -1   1   0 51367.9 607.715   2
   1  -1   0 49465.6 683.155   7
   1  -1   0 50350.4 556.235   3
   1  -1   1 35942.2 508.290   2
  -1   1  -1 35487.2 425.499   5
   1  -1   1 36516.9 454.215   5
   1  -1   1 35501.7 536.473   7
  -1   1  -1 37429.1 587.084   1
  -1   1  -1 36191.4 515.482   2
  -1   1  -2 280878. 1797.71   1
   1  -1   2 276573. 1488.75   2
  -1   1  -2 277567. 1998.56   4
   1  -1   2 276730. 1534.00   5
  -1   1  -2 277324. 1499.29   2
   1  -1   2 273838. 1366.24   7
  -1   1  -2 273609. 1336.44   7
  -1   1  -2 277094. 1464.37   5
   1  -1   3 52104.5 777.897   5
  -1   1  -3 54387.7 926.434   1
   1  -1   3 54259.4 546.180   7
   1  -1   3 53931.1 725.894   2
  -1   1  -3 52303.0 733.336   2
   1  -1   3 53020.7 993.897   4
  -1   1  -4 492163. 3176.19   1
   1  -1   4 491693. 2380.94   3
   1  -1   4 497648. 3361.51   4
   1  -1   4 496428. 2730.80   5
   1  -1   4 490186. 2452.45   2
   1  -1   4 486127. 1442.02   7
  -1   1  -4 493375. 2487.16   2
   1  -1   5 964.687 152.420   5
   1  -1   5 1225.87 203.250   4
   1  -1   5 1153.24 142.742   2
  -1   1  -5 1095.00 139.347   2
  -1   1  -5 885.759 177.517   1
   1  -1   5 1127.42 135.532   3
   1  -1   6 22869.8 632.493   2
  -1   1  -6 22695.6 831.278   1
   1  -1   6 22054.2 711.535   5
   1  -1   6 22632.7 621.486   3
   1  -1   6 23150.0 855.706   4
   1  -1   7 7267.28 525.761   4
   1  -1   7 6547.72 371.111   2
   1  -1   7 6378.61 468.438   1
   1  -1   7 7180.46 445.910   5
   1  -1   7 6741.25 367.811   3
   1  -1   8 3313.18 368.849   1
   1  -1   8 3686.52 405.954   4
   1  -1   8 3139.27 326.723   5
   1  -1   8 3005.95 272.146   2
  -1   1  -8 3099.81 367.430   4
   1  -1   8 3505.31 284.806   3
  -1   1  -9 6322.03 517.124   4
   1  -1   9 5836.06 458.966   5
   1  -1   9 6175.63 397.264   3
   1  -1   9 6347.35 417.215   2
   1  -1  10 8841.54 600.598   5
   1  -1  10 9056.63 505.373   3
   1  -1  10 8811.81 520.233   2
  -1   1 -10 8370.09 641.180   4
   1  -1  11 45.8839 110.983   2
   1  -1  11 36.5623 130.185   5
   1  -1  12 2645.05 394.028   5
   1  -1  12 2889.88 339.955   2
   1  -1  13 255.111 155.013   2
   1  -1  13 175.564 198.219   5
   1  -1  14 80.2498 87.6612   2
   1  -1  14 37.1454 91.9304   5
   1  -1  15 1636.92 321.038   2
   1  -1  15 1257.18 341.180   5
   1  -1  16 300.055 147.676   2
   1  -1  17 2325.08 389.733   2
  -1   0  16-136.497 192.215   2
   1   0 -16-163.632 264.098   3
  -1   0  15 980.590 311.235   5
   1   0 -15 744.446 266.640   3
  -1   0  15 636.642 207.182   2
   1   0 -14 2997.02 444.807   3
  -1   0  14 3477.64 484.039   5
  -1   0  14 3379.63 447.259   2
  -1   0  13 9.27531 140.920   5
  -1   0  13 22.2045 158.510   2
   1   0 -13 283.173 181.306   3
   1   0 -12 438.259 112.288   7
   1   0 -12 402.821 175.850   3
  -1   0  12 346.167 164.252   2
  -1   0  12 200.493 149.281   5
  -1   0  11 4853.55 482.986   5
   1   0 -11 4511.85 448.539   3
  -1   0  11 3841.06 406.505   2
   1   0 -11 3873.44 316.523   7
   1   0 -10 4893.05 442.325   3
  -1   0  10 4854.06 445.809   5
   1   0 -10 5254.40 347.444   7
   1   0  -9 3594.07 356.837   3
  -1   0   9 3846.70 379.315   5
  -1   0   9 3712.90 400.975   4
   1   0  -9 3975.07 297.539   7
  -1   0   8 11282.2 587.248   5
  -1   0   8 12458.1 574.381   3
  -1   0   8 12100.7 658.381   4
   1   0  -8 11677.4 479.506   7
  -1   0   7 22702.9 829.130   4
  -1   0   7 24085.0 748.003   3
   1   0  -7 22773.1 636.016   7
   1   0  -6 2879.47 215.230   7
  -1   0   6 2940.62 250.886   3
  -1   0   6 2768.77 269.334   4
  -1   0   5 31533.9 741.921   3
   1   0  -5 29876.5 635.566   7
  -1   0   5 30145.2 781.763   4
  -1   0   4 7322.74 340.593   4
  -1   0   4 7466.31 332.987   3
   1   0  -4 7654.64 302.470   7
  -1   0   3 6609.11 277.959   4
   1   0  -3 6597.53 261.980   7
  -1   0   3 6323.98 275.345   3
   1   0  -2 38450.1 513.070   5
  -1   0   2 37977.4 589.297   3
  -1   0   2 37137.5 522.223   4
   1   0  -2 37286.3 585.963   7
   1   0  -1 195082. 1291.26   7
  -1   0   1 194711. 1132.01   3
   1   0   0 3981.28 128.688   3
  -1   0  -2 36531.9 583.630   4
  -1   0  -2 37055.7 647.963   1
  -1   0  -2 37773.2 361.345   2
   1   0   2 38220.1 611.233   4
   1   0   2 36899.1 350.238   2
  -1   0  -3 96514.5 1197.59   1
  -1   0  -3 96743.8 739.717   2
  -1   0  -3 98813.8 1139.58   4
   1   0   3 97155.4 733.169   2
   1   0   3 99424.6 1171.16   4
   1   0   3 96636.3 708.353   3
  -1   0  -4 22958.6 432.316   3
   1   0   4 23253.2 439.461   2
   1   0   4 23090.0 378.353   7
   1   0   4 22794.8 421.923   3
   1   0   4 23681.5 659.224   4
  -1   0  -4 23984.9 689.436   1
   1   0   5 22088.0 481.278   3
   1   0   5 23244.6 726.966   4
   1   0   5 22408.3 388.260   7
   1   0   5 22566.2 504.406   2
  -1   0  -5 22394.2 748.500   1
  -1   0  -5 21917.4 498.628   3
   1   0   6 1258.21 94.1999   7
  -1   0  -6 1568.18 226.982   1
  -1   0  -6 1177.94 139.546   3
   1   0   6 1649.44 187.480   5
   1   0   6 1229.35 198.776   4
   1   0   6 1289.65 135.411   3
   1   0   6 1362.43 146.673   2
  -1   0  -7 48121.5 923.612   3
   1   0   7 49150.0 1078.94   5
   1   0   7 48688.8 531.922   7
   1   0   7 49050.9 923.655   2
   1   0   7 48170.2 876.030   3
   1   0   7 50394.5 1267.87   4
  -1   0  -8 6394.19 367.502   3
   1   0   8 7062.53 448.155   5
   1   0   8 6738.49 376.384   2
   1   0   8 6561.71 168.617   7
   1   0   8 7110.86 368.562   3
   1   0   8 6828.37 508.730   4
   1   0   9 7074.24 477.914   5
   1   0   9 6738.27 404.006   2
   1   0   9 7016.61 393.892   3
   1   0  10 7011.78 418.285   3
   1   0  10 7082.42 515.770   5
  -1   0 -10 7067.51 450.734   3
   1   0  10 6989.02 439.757   2
   1   0  11 6072.35 417.725   3
  -1   0 -11 5448.81 421.993   3
   1   0  11 5219.37 479.130   5
   1   0  11 5779.82 427.691   2
   1   0  12 2685.31 313.463   2
  -1   0 -12 2153.80 290.653   3
   1   0  12 2142.98 349.436   5
   1   0  13 3558.47 377.985   2
   1   0  13 3697.33 453.182   5
   1   0  14 10337.0 786.861   5
   1   0  14 11286.0 692.555   2
   1   0  15 91.4617 76.7709   2
   1   0  15-106.734 156.773   5
   1   0  16 1001.36 247.615   2
   1   0  16 712.331 286.991   5
   1   0  17-272.608 217.474   2
  -1  -1  16 380.542 171.393   2
  -1  -1  15-72.9218 89.1297   5
  -1  -1  15 200.382 166.644   2
  -1  -1  14 703.031 242.752   2
  -1  -1  14 811.970 300.474   5
   1   1 -14 694.361 226.138   3
  -1  -1  13 3162.02 435.912   2
  -1  -1  13 4216.96 517.170   5
   1   1 -13 3577.56 454.431   3
  -1  -1  12 1572.11 332.106   5
   1   1 -12 1304.24 280.955   3
  -1  -1  12 1800.41 321.962   2
   1   1 -11 118.982 86.3265   7
  -1  -1  11 113.180 143.139   2
  -1  -1  11 140.420 174.234   5
   1   1 -11 271.084 185.462   3
  -1  -1  10 7609.02 549.439   2
   1   1 -10 8057.13 568.954   3
  -1  -1  10 7631.61 594.145   5
   1   1 -10 8122.42 392.215   7
  -1  -1   9 7393.17 543.778   5
   1   1  -9 7293.56 514.023   3
  -1  -1   9 7129.52 504.758   2
   1   1  -9 7415.64 364.663   7
  -1  -1   8 5168.93 425.185   5
  -1  -1   8 4416.76 379.626   2
  -1  -1   8 4823.66 442.534   4
   1   1  -8 4664.32 273.150   7
   1   1  -8 4915.10 400.789   3
  -1  -1   8 4403.88 363.681   3
  -1  -1   7 15245.3 628.846   3
  -1  -1   7 15372.5 653.156   2
   1   1  -7 15818.4 474.908   7
  -1  -1   7 15902.2 727.233   4
   1   1  -6 96213.9 1457.11   5
   1   1  -6 92886.8 1077.54   7
  -1  -1   6 92895.9 1448.46   3
  -1  -1   6 92506.3 1613.70   4
  -1  -1   5 115.453 72.4516   3
  -1  -1   5 75.0871 66.3003   4
   1   1  -5 21.7874 63.5397   5
   1   1  -5 13.4338 46.6252   7
   1   1  -5 39.8767 83.9843   4
  -1  -1   4 260418. 2204.57   4
   1   1  -4 263593. 2067.73   5
  -1  -1   4 263394. 2111.94   3
   1   1  -4 263084. 1689.63   7
   1   1  -4 264624. 2155.18   4
   1   1  -3 60950.8 923.542   4
  -1  -1   3 60661.4 927.794   3
  -1  -1   3 59804.8 925.059   4
   1   1  -3 61103.4 916.459   5
   1   1  -2 946260. 3269.77   5
  -1  -1   2 900700. 3072.17   4
  -1  -1   1 41598.1 606.942   3
   1   1  -1 43215.7 626.881   5
  -1  -1   0 40314.8 495.336   3
  -1  -1  -1 17891.2 406.243   6
   1   1   1 17676.8 241.127   2
  -1  -1  -1 18148.9 419.057   1
  -1  -1  -2 75421.4 884.803   1
  -1  -1  -3 1005.55 102.570   7
  -1  -1  -3 731.807 55.5575   3
  -1  -1  -3 566.923 106.284   1
   1   1   3 650.746 48.5679   3
   1   1   3 1165.57 114.269   7
   1   1   4 25443.3 368.972   3
  -1  -1  -4 26276.0 695.311   1
  -1  -1  -4 25808.6 500.521   7
   1   1   4 25769.2 531.199   7
  -1  -1  -4 26004.3 403.309   3
   1   1   4 25547.3 637.084   4
  -1  -1  -5 5075.38 231.699   7
  -1  -1  -5 4757.85 209.607   3
   1   1   5 5102.17 322.158   4
  -1  -1  -5 5284.58 360.766   1
   1   1   5 4958.20 201.251   3
   1   1   5 5109.37 254.605   7
   1   1   6 44194.4 1035.76   4
  -1  -1  -6 42373.5 1091.04   1
  -1  -1  -6 42509.7 721.112   3
  -1  -1  -6 43573.3 687.303   7
   1   1   6 43425.0 682.975   3
   1   1   6 43040.3 747.694   7
  -1  -1  -7 1117.25 119.233   7
  -1  -1  -7 729.582 175.442   1
  -1  -1  -7 667.054 114.281   3
   1   1   7 667.028 108.488   7
   1   1   7 800.598 114.923   3
   1   1   7 736.345 155.397   4
   1   1   8 44697.2 1242.66   4
  -1  -1  -8 46776.1 936.428   3
   1   1   8 46643.4 870.142   3
  -1  -1  -8 45648.7 746.215   7
   1   1   8 46469.6 793.070   7
   1   1   9 12271.7 707.677   4
  -1  -1  -9 11937.1 388.580   7
   1   1   9 13482.9 732.292   1
   1   1   9 12701.9 410.400   7
   1   1   9 12212.2 509.199   2
   1   1   9 11629.0 473.502   3
   1   1  10 2922.56 272.207   2
   1   1  10 2879.40 263.523   3
   1   1  10 3410.55 210.553   7
   1   1  10 2969.00 332.989   5
  -1  -1 -10 3006.51 200.871   7
  -1  -1 -11 3519.12 327.383   3
  -1  -1 -11 3384.66 207.023   7
   1   1  11 3745.95 389.828   5
   1   1  11 3510.07 199.469   7
   1   1  11 3696.08 327.347   2
   1   1  11 3487.34 303.008   3
   1   1  12 4583.24 465.902   5
   1   1  12 4193.24 375.988   2
  -1  -1 -12 4988.91 411.561   3
   1   1  12 4927.28 216.472   7
   1   1  13 2738.94 336.992   2
  -1  -1 -13 2846.19 349.320   3
   1   1  13 2557.72 378.406   5
   1   1  14 2544.93 338.109   2
  -1  -1 -14 2336.33 345.446   3
   1   1  14 2384.43 383.292   5
   1   1  15 25.1449 113.103   2
  -1  -1 -15 10.0062 119.928   3
   1   1  15 36.2684 163.858   5
   1   1  16 611.778 177.857   2
   1   1  16 558.797 216.628   6
  -1  -1 -16 156.147 135.766   3
   1   1  16 323.061 194.141   5
   1   1  17 212.867 141.771   2
   1   1  17-479.199 224.771   6
   1   1  18 442.482 189.801   6
  -1  -2  15-57.7029 135.191   2
  -1  -2  14-40.7776 139.033   2
  -1  -2  14 113.202 236.544   5
  -1  -2  13 1352.66 298.673   2
  -1  -2  13 405.616 218.932   5
  -1  -2  12 3102.58 424.612   2
  -1  -2  12 3494.78 489.161   5
  -1  -2  11 3750.94 459.393   5
   1   2 -11 3816.91 242.919   7
   1   2 -11 3575.79 223.497   7
  -1  -2  11 3793.00 425.321   2
  -1  -2  10 59.6123 104.581   2
  -1  -2  10-46.6634 148.634   5
   1   2 -10-91.1205 148.033   3
   1   2 -10-16.2270 46.1770   7
   1   2  -9 1258.22 146.884   7
   1   2  -9 951.743 214.830   3
   1   2  -9 941.513 236.038   4
  -1  -2   9 1356.43 252.925   2
  -1  -2   9 1077.83 264.137   5
   1   2  -8 15676.1 732.797   3
  -1  -2   8 15588.7 736.782   2
  -1  -2   8 15112.3 766.125   5
   1   2  -8 15135.8 453.247   7
  -1  -2   8 14359.4 793.312   4
   1   2  -8 15447.0 776.287   4
   1   2  -7 55905.7 1380.40   4
  -1  -2   7 55541.3 1310.51   2
  -1  -2   7 54018.6 1429.68   4
   1   2  -7 56885.4 1287.88   5
  -1  -2   7 56377.5 1276.16   3
   1   2  -7 53468.5 827.458   7
   1   2  -6 3329.46 303.030   5
  -1  -2   6 3171.74 297.710   3
   1   2  -6 3389.05 208.036   7
  -1  -2   6 2978.79 322.135   4
   1   2  -5 16634.7 628.291   5
  -1  -2   5 17157.0 633.843   3
  -1  -2   5 15686.8 668.734   4
   1   2  -5 16433.8 658.175   4
   1   2  -4 354.470 100.598   5
  -1  -2   4 546.384 120.460   3
   1   2  -4 445.689 118.622   4
   1   2  -3 184793. 1858.78   5
  -1  -2   3 185968. 1810.58   3
   1   2  -3 186754. 1863.00   4
   1   2  -2 21313.2 593.221   5
   1   2  -2 20321.9 552.170   2
   1   2  -2 20578.1 571.961   4
  -1  -2   2 21225.7 567.235   3
   1   2  -1 2788.13 189.168   2
  -1  -2   1 2937.31 196.595   3
   1   2  -1 3140.23 215.496   5
   1   2   0 2565.95 162.017   2
   1   2   1 745.143 82.3578   2
  -1  -2  -1 739.292 107.929   7
  -1  -2  -2 42558.2 512.468   2
   1   2   2 44896.8 693.233   1
  -1  -2  -2 44591.8 756.393   7
  -1  -2  -2 43648.6 670.650   1
  -1  -2  -2 45229.2 808.270   6
   1   2   2 43302.8 511.132   2
  -1  -2  -3 2078.50 172.314   7
  -1  -2  -3 2227.64 179.414   1
   1   2   3 2047.82 116.956   2
  -1  -2  -3 2199.10 185.515   6
  -1  -2  -3 2032.79 116.920   3
   1   2   3 2194.26 174.429   1
  -1  -2  -4 28353.7 714.291   1
   1   2   4 29374.0 691.823   1
  -1  -2  -4 29367.6 702.509   6
   1   2   4 27871.0 681.885   7
  -1  -2  -4 28191.1 639.222   7
   1   2   4 27807.2 467.898   3
  -1  -2  -4 28786.7 440.756   3
   1   2   4 28902.5 429.483   2
   1   2   5 4153.88 298.542   1
   1   2   5 2971.21 234.323   7
  -1  -2  -5 4723.99 332.319   1
  -1  -2  -5 3663.08 185.736   3
   1   2   5 3522.94 178.280   3
  -1  -2  -5 3351.86 232.141   7
  -1  -2  -6 1352.35 157.354   7
   1   2   6 1438.75 177.696   7
   1   2   6 1355.70 190.002   6
  -1  -2  -6 1413.75 134.608   3
  -1  -2  -6 1272.13 213.369   1
   1   2   6 1362.36 126.536   3
   1   2   7 23281.2 768.773   6
  -1  -2  -7 21595.8 625.451   7
  -1  -2  -7 23787.1 872.881   1
   1   2   7 22654.9 680.560   7
   1   2   7 22923.6 534.430   3
  -1  -2  -7 24084.7 591.900   3
   1   2   8 30621.8 1031.86   1
   1   2   8 29022.0 901.256   6
   1   2   8 30897.7 1023.62   4
  -1  -2  -8 29056.2 717.288   3
  -1  -2  -8 29902.2 754.156   7
   1   2   8 29353.1 783.834   7
   1   2   8 29094.1 658.252   3
  -1  -2  -9 23960.1 690.653   7
   1   2   9 25123.9 880.371   6
   1   2   9 24591.3 983.337   1
   1   2   9 24197.6 967.364   4
   1   2   9 23514.7 646.836   3
   1   2   9 24188.6 712.518   7
  -1  -2 -10 14836.8 555.063   7
   1   2  10 13952.9 698.298   6
   1   2  10 14534.6 542.256   3
   1   2  10 14870.4 567.210   7
   1   2  11 1375.33 185.322   7
   1   2  11 1252.05 183.994   3
  -1  -2 -11 1262.73 211.000   3
  -1  -2 -11 1191.19 176.549   7
   1   2  11 1126.82 233.119   6
   1   2  12 2378.27 264.562   3
   1   2  12 1940.54 301.082   6
  -1  -2 -12 2057.27 272.405   3
   1   2  12 1654.53 193.258   7
  -1  -2 -12 1922.14 219.866   7
  -1  -2 -13 5197.51 439.083   3
   1   2  13 5669.76 526.283   6
   1   2  13 5172.11 434.835   2
   1   2  13 6185.90 341.532   7
   1   2  13 5507.37 527.291   5
   1   2  14 388.129 184.046   6
   1   2  14-0.92778 106.328   5
   1   2  14 20.7634 139.413   2
  -1  -2 -14 26.7264 102.785   3
  -1  -2 -15 903.843 236.326   3
   1   2  15 694.545 246.636   5
   1   2  15 1146.00 301.689   6
   1   2  15 929.889 227.297   2
   1   2  16 211.546 182.423   2
  -1  -2 -16 29.9375 116.631   3
   1   2  16 411.246 184.174   5
   1   2  16 138.570 190.652   6
   1   2  17 911.892 254.083   2
   1   2  17 111.078 134.917   6
  -1  -2 -17 575.320 234.120   3
   1   2  18 72.1935 190.054   6
  -1  -3  14 247.637 195.857   5
  -1  -3  14 494.794 244.548   2
  -1  -3  13-82.3567 153.988   2
  -1  -3  13 128.709 217.123   5
  -1  -3  12 204.000 213.545   5
  -1  -3  12 145.399 168.304   2
   1   3 -11 1262.37 299.476   4
  -1  -3  11 1061.98 248.370   2
  -1  -3  11 1202.29 298.838   5
   1   3 -10 1254.74 134.933   7
   1   3 -10 1100.36 122.140   7
  -1  -3  10 1010.18 265.402   5
  -1  -3  10 651.876 187.391   2
   1   3 -10 1000.82 255.274   4
  -1  -3   9 1509.17 317.036   5
   1   3  -9 982.289 135.504   7
  -1  -3   9 1402.95 268.171   2
   1   3  -9 1389.75 136.783   7
   1   3  -9 1091.38 258.141   4
   1   3  -8 91566.6 1086.29   7
  -1  -3   8 90087.4 1986.63   5
   1   3  -8 92433.5 2010.14   4
  -1  -3   8 92820.9 1865.94   2
   1   3  -8 94251.6 1217.26   7
  -1  -3   7 18586.4 799.372   2
  -1  -3   7 17428.4 828.013   5
   1   3  -7 19869.4 893.347   4
   1   3  -7 17313.3 491.707   7
   1   3  -7 17813.3 536.444   7
   1   3  -6 49116.1 890.628   7
   1   3  -6 49348.4 1322.22   4
   1   3  -6 49233.2 1242.88   5
  -1  -3   6 49106.6 1231.65   2
  -1  -3   6 49436.0 1228.06   3
   1   3  -5 8051.31 487.894   5
  -1  -3   5 8300.68 480.584   3
   1   3  -5 7633.23 356.570   7
   1   3  -4 90149.0 1539.33   5
  -1  -3   4 93131.6 1514.13   3
   1   3  -4 92315.6 1611.92   4
   1   3  -4 92635.1 1222.77   7
   1   3  -4 95679.5 1526.70   2
   1   3  -3 564.595 112.757   7
   1   3  -3 930.328 168.460   4
  -1  -3   3 585.739 129.140   3
   1   3  -3 692.500 127.685   2
   1   3  -3 767.863 147.536   5
   1   3  -2 59475.3 988.968   7
   1   3  -2 61492.2 1150.62   5
   1   3  -2 61210.9 1081.56   2
   1   3  -1 1981.91 186.782   2
   1   3   0 23202.6 577.633   2
  -1  -3   0 22597.2 610.055   7
   1   3   1 21359.5 519.605   2
  -1  -3  -1 20676.5 594.709   7
   1   3   2 20322.0 476.034   2
  -1  -3  -2 20594.3 456.269   1
  -1  -3  -2 20445.7 473.589   2
  -1  -3  -2 20438.5 604.118   7
  -1  -3  -3 68479.1 936.075   1
   1   3   3 68727.5 914.647   1
   1   3   3 67866.0 845.165   2
  -1  -3  -3 68835.5 816.083   2
  -1  -3  -3 68077.5 1131.61   7
  -1  -3  -4 2992.00 233.748   1
  -1  -3  -4 3007.77 250.140   7
  -1  -3  -4 3145.39 255.524   6
   1   3   4 3082.25 189.752   2
   1   3   4 2839.11 266.060   7
   1   3   4 3002.77 221.189   1
  -1  -3  -5 111235. 1523.14   6
   1   3   5 109854. 1600.31   7
  -1  -3  -5 111704. 1585.79   1
   1   3   5 115498. 1478.74   1
  -1  -3  -5 113724. 1087.03   3
   1   3   5 114370. 1118.31   2
  -1  -3  -5 113121. 1543.78   7
   1   3   6 6462.81 398.566   1
  -1  -3  -6 5541.07 264.284   3
   1   3   6 5897.40 404.413   6
   1   3   6 5617.08 381.246   7
  -1  -3  -6 5508.00 396.323   1
  -1  -3  -6 6291.38 381.227   7
   1   3   6 5665.10 281.649   3
   1   3   6 5763.76 266.184   2
   1   3   7 17790.2 720.724   1
   1   3   7 15584.2 663.974   6
  -1  -3  -7 15849.4 488.644   3
  -1  -3  -7 15081.1 603.155   7
   1   3   7 15893.8 488.047   3
   1   3   7 16378.1 655.046   7
  -1  -3  -7 16670.2 721.621   1
   1   3   8 8527.29 518.104   6
   1   3   8 8250.76 476.550   7
  -1  -3  -8 8333.50 387.244   3
   1   3   8 8484.69 546.072   1
  -1  -3  -8 8870.98 476.422   7
   1   3   8 8467.41 373.587   3
   1   3   9 509.952 113.852   3
   1   3   9 523.628 176.342   6
   1   3   9 549.286 147.840   7
   1   3   9 538.523 182.168   1
  -1  -3  -9 414.698 122.930   7
   1   3  10 9552.66 594.803   6
  -1  -3 -10 9368.65 517.068   7
   1   3  10 9169.90 438.207   3
   1   3  10 9003.35 511.888   7
  -1  -3 -10 8751.59 460.852   3
  -1  -3 -11 694.155 156.099   7
   1   3  11 679.962 214.914   6
  -1  -3 -11 626.241 147.937   3
   1   3  11 239.069 109.642   3
   1   3  11 454.975 157.223   7
   1   3  12 959.208 243.140   6
   1   3  12 1320.16 198.072   3
  -1  -3 -12 1377.19 227.021   3
   1   3  12 1078.75 193.603   7
  -1  -3 -12 1480.80 218.223   7
   1   3  13 257.904 105.392   7
  -1  -3 -13 246.714 126.131   3
   1   3  13 405.094 197.743   6
  -1  -3 -13 434.371 125.301   7
  -1  -3 -14 2860.81 342.357   3
   1   3  14 2668.11 397.145   6
   1   3  14 2693.88 271.736   7
   1   3  15-179.823 146.582   6
  -1  -3 -15-169.624 134.364   3
   1   3  15 115.662 168.143   5
   1   3  15 171.916 189.634   2
   1   3  16 44.8212 177.825   6
   1   3  16-136.404 134.151   5
   1   3  16-142.880 183.296   2
  -1  -3 -16-158.739 134.617   3
   1   3  17 733.172 273.939   6
  -1  -3 -17 188.940 211.477   3
   1   3  17 568.021 231.995   2
   1   3  18 3988.80 540.494   6
  -1  -4  13 1555.26 348.042   2
  -1  -4  13 1851.36 400.500   5
  -1  -4  12 941.183 326.391   5
  -1  -4  12 850.079 254.192   2
   1   4 -12 953.517 285.192   4
   1   4 -11 28816.1 1365.10   4
  -1  -4  11 25492.5 1303.44   5
  -1  -4  11 24686.8 1157.28   2
  -1  -4  10 239.849 190.063   2
   1   4 -10 238.375 193.296   4
  -1  -4  10 144.540 164.590   5
  -1  -4   9 1550.18 282.837   2
   1   4  -9 1647.05 180.587   7
   1   4  -9 1464.11 299.045   4
  -1  -4   9 1624.02 340.922   5
   1   4  -9 1615.60 148.051   7
   1   4  -8 451.179 88.2871   7
  -1  -4   8 322.457 175.239   5
   1   4  -8 594.506 121.735   7
   1   4  -8 756.948 223.704   4
  -1  -4   8 720.028 204.223   2
  -1  -4   7 5584.83 517.002   5
   1   4  -7 5067.53 330.173   7
   1   4  -7 4873.95 494.433   4
  -1  -4   7 5477.09 477.991   2
  -1  -4   6 8949.25 609.924   5
  -1  -4   6 9211.54 578.292   2
   1   4  -6 8886.60 430.959   7
   1   4  -6 8934.23 620.981   4
   1   4  -5 10628.6 469.952   7
   1   4  -5 9964.20 633.057   4
   1   4  -5 9616.67 576.062   5
  -1  -4   5 10130.7 573.818   3
  -1  -4   5 10448.0 582.745   2
   1   4  -5 10876.2 592.539   2
   1   4  -4 12525.6 516.634   7
  -1  -4   4 12485.2 609.079   3
   1   4  -4 13296.8 652.164   5
   1   4  -4 13560.1 631.643   2
   1   4  -3 41949.6 1102.62   5
   1   4  -3 43397.4 1076.64   2
  -1  -4   3 43231.6 1075.05   3
   1   4  -3 41633.6 946.277   7
   1   4  -2 171.434 85.2751   7
   1   4  -2 609.693 142.908   2
   1   4  -2 399.617 125.681   5
  -1  -4   1 16026.1 570.439   7
   1   4  -1 15976.1 587.557   2
   1   4  -1 15567.5 591.458   7
  -1  -4   0 373.958 107.647   7
   1   4   0 504.633 118.679   2
  -1  -4  -1 9386.05 455.469   7
  -1  -4  -1 8925.81 298.238   1
   1   4   1 8454.87 387.995   2
  -1  -4  -2 62953.3 781.571   1
  -1  -4  -2 62001.9 996.536   2
  -1  -4  -2 60929.6 1183.75   7
   1   4   2 60842.1 985.979   2
  -1  -4  -3 2376.70 182.158   1
  -1  -4  -3 2782.56 272.591   7
  -1  -4  -3 2662.01 210.828   2
   1   4   3 2554.81 185.995   1
   1   4   3 2560.03 210.477   2
   1   4   4 126360. 1345.74   1
  -1  -4  -4 125915. 1787.92   7
  -1  -4  -4 121849. 1422.49   1
  -1  -4  -4 120549. 1356.92   3
   1   4   4 123246. 1378.91   2
  -1  -4  -4 123769. 1295.35   2
   1   4   5 8565.37 396.868   1
  -1  -4  -5 7671.37 448.104   6
  -1  -4  -5 7734.43 338.904   3
  -1  -4  -5 8259.92 476.162   7
   1   4   5 7983.18 498.256   7
   1   4   5 8363.32 370.774   2
  -1  -4  -5 8345.01 424.832   1
  -1  -4  -6 3064.40 290.658   6
  -1  -4  -6 2879.83 300.990   7
   1   4   6 2806.47 304.924   7
  -1  -4  -6 3188.35 294.800   1
   1   4   6 3229.54 237.434   2
   1   4   6 3268.20 277.298   1
  -1  -4  -6 3381.35 228.412   3
  -1  -4  -7 11048.3 549.943   6
   1   4   7 10987.7 553.357   1
   1   4   7 10715.2 423.769   2
   1   4   7 10535.5 591.720   7
  -1  -4  -7 10065.3 404.651   3
  -1  -4  -7 10109.9 555.369   7
   1   4   8 550.676 127.866   3
   1   4   8 741.565 184.456   1
  -1  -4  -8 660.326 156.683   7
   1   4   8 491.573 116.304   2
   1   4   8 379.263 155.114   7
   1   4   9 8445.24 570.795   1
  -1  -4  -9 7498.15 499.704   7
   1   4   9 7025.17 394.964   3
   1   4   9 7162.73 514.054   7
   1   4   9 7487.99 388.660   2
  -1  -4 -10-116.644 92.3782   3
   1   4  10 46.2470 82.6253   3
   1   4  10-53.5979 119.379   7
   1   4  10 48.4878 126.640   6
  -1  -4 -10 147.304 95.9944   7
   1   4  11 9471.31 587.679   7
  -1  -4 -11 9207.94 580.748   7
   1   4  11 8885.32 628.775   6
   1   4  11 9431.10 498.175   3
  -1  -4 -11 8989.02 497.842   3
  -1  -4 -12 513.945 160.581   3
   1   4  12 235.151 149.426   6
   1   4  12 343.599 147.533   7
  -1  -4 -12 417.991 124.682   7
  -1  -4 -13 2341.50 318.529   7
   1   4  13 2530.65 364.473   6
   1   4  13 2460.58 312.938   7
  -1  -4 -13 2616.52 314.685   3
   1   4  14 55.9497 88.1499   7
   1   4  14 262.267 187.379   6
  -1  -4 -14 251.865 157.895   3
   1   4  15 16742.6 1003.88   6
   1   4  15 17788.8 800.024   7
  -1  -4 -15 17669.1 870.234   3
  -1  -4 -16 685.223 213.611   3
   1   4  16 298.038 197.626   6
  -1  -4 -17-48.1499 171.265   3
   1   4  17 251.256 176.524   6
   1   4  18 192.022 252.710   6
   1   5 -13 1449.61 447.787   4
  -1  -5  12 3018.19 536.795   5
  -1  -5  12 3567.75 490.661   2
   1   5 -12 3869.49 566.337   4
  -1  -5  11 584.168 263.845   2
  -1  -5  11 528.326 237.708   5
   1   5 -11 626.489 247.090   4
  -1  -5  10 880.483 255.836   2
   1   5 -10 890.178 271.504   4
  -1  -5  10 1117.31 313.769   5
   1   5  -9 622.646 256.728   4
   1   5  -9 1004.12 156.314   7
  -1  -5   9 1155.23 298.017   2
  -1  -5   8 2223.16 354.300   2
   1   5  -8 2184.41 244.624   7
   1   5  -8 3124.43 437.107   4
  -1  -5   7-14.3823 109.583   2
   1   5  -7 67.9607 137.361   4
   1   5  -7 148.772 101.855   7
   1   5  -6 9425.82 498.607   7
   1   5  -6 9433.85 685.379   4
  -1  -5   6 9431.94 627.986   2
  -1  -5   5 3760.34 387.292   2
   1   5  -5 3640.09 322.507   7
   1   5  -5 3331.72 405.503   4
   1   5  -4 2311.01 254.065   7
   1   5  -4 2875.91 367.649   4
  -1  -5   4 2264.58 295.574   2
   1   5  -3 10669.1 586.434   2
   1   5  -3 10882.6 552.856   7
   1   5  -3 11215.9 628.072   5
   1   5  -2 37182.8 1113.60   5
   1   5  -2 37765.0 1049.21   2
  -1  -5   2 37839.5 958.060   7
  -1  -5   1 6823.31 417.169   7
   1   5  -1 7030.39 433.467   2
  -1  -5   0 25626.7 822.845   7
   1   5   0 24926.0 780.645   2
  -1  -5  -1 12123.9 581.413   7
  -1  -5  -1 11725.3 328.547   1
   1   5   1 12279.7 524.368   2
   1   5   2 1087.74 166.060   2
  -1  -5  -2 1148.45 110.666   1
  -1  -5  -2 878.681 176.122   7
  -1  -5  -3 1834.13 157.303   1
   1   5   3 2338.98 228.791   2
  -1  -5  -3 2186.12 265.655   7
  -1  -5  -4 18.8840 61.9852   1
  -1  -5  -4 12.5715 86.9874   7
  -1  -5  -4 122.241 89.4428   2
   1   5   4 65.1431 79.6322   1
   1   5   4 35.9607 75.6952   2
  -1  -5  -5 9005.90 410.373   2
  -1  -5  -5 11499.7 618.697   7
   1   5   5 10013.6 424.391   1
  -1  -5  -5 9360.21 452.982   1
   1   5   5 11037.9 485.888   2
  -1  -5  -6 227.630 147.582   7
   1   5   6 315.104 169.363   7
  -1  -5  -6 208.084 116.576   6
   1   5   6 75.5889 90.4737   1
   1   5   6 366.349 116.713   2
  -1  -5  -6 192.007 108.287   1
  -1  -5  -7 11.1405 99.0972   7
   1   5   7-25.9727 128.598   7
  -1  -5  -7 14.7930 74.1692   6
   1   5   7 88.2842 87.8123   2
   1   5   7 155.245 95.0900   1
  -1  -5  -8-19.8013 118.576   7
   1   5   8-94.3491 113.887   7
  -1  -5  -8 140.070 109.187   6
  -1  -5  -8 12.6077 67.5464   3
   1   5   8 109.959 96.9997   2
   1   5   8 105.839 96.0147   1
   1   5   9 152.943 111.963   2
  -1  -5  -9 177.189 94.0054   3
   1   5   9 274.528 162.707   7
   1   5   9 243.746 141.964   1
  -1  -5  -9 139.461 98.8528   7
   1   5  10 6142.67 415.024   3
  -1  -5 -10 6744.64 531.275   7
   1   5  10 7346.53 569.030   7
  -1  -5 -10 6634.33 416.512   3
   1   5  10 6015.36 395.141   2
  -1  -5 -11 44.3223 120.648   3
   1   5  11 245.864 167.686   7
   1   5  11 243.502 112.978   2
   1   5  12 4364.56 455.955   7
  -1  -5 -12 4280.43 376.556   3
   1   5  13 4480.52 459.637   7
  -1  -5 -13 4486.82 406.774   3
  -1  -5 -14 7215.82 536.888   3
   1   5  14 7458.78 588.759   7
   1   5  15-0.81467 119.938   7
  -1  -5 -15 162.554 143.828   3
  -1  -5 -16 1763.84 305.105   3
  -1  -5 -17 26.5326 145.910   3
   1   6 -12 469.509 336.378   4
  -1  -6  11-16.6431 96.4551   2
   1   6 -11-209.011 240.114   4
  -1  -6  10-33.3595 136.046   2
   1   6 -10-231.947 204.814   4
  -1  -6   9 721.151 251.799   2
   1   6  -9 712.940 260.642   4
  -1  -6   8 3675.44 471.906   2
   1   6  -8 4030.06 523.155   4
   1   6  -8 3469.52 328.131   7
   1   6  -7 5817.11 609.208   4
  -1  -6   7 6478.91 593.054   2
  -1  -6   6 453.377 197.665   2
  -1  -6   6 257.183 127.547   1
   1   6  -6 464.400 215.744   4
   1   6  -5 5499.76 553.807   4
  -1  -6   5 4735.82 464.645   2
  -1  -6   4 1255.92 252.415   2
   1   6  -4 601.598 210.335   4
  -1  -6   3 5150.86 443.890   2
  -1  -6   2 9237.95 522.337   7
   1   6  -2 9767.77 588.063   7
  -1  -6   2 10745.7 606.422   2
  -1  -6   1 26574.6 903.414   7
   1   6  -1 25826.1 958.489   7
   1   6  -1 26820.0 925.742   2
  -1  -6   1 26324.1 909.791   2
  -1  -6   0-24.1593 105.438   7
   1   6   0 178.065 125.440   7
  -1  -6   0-43.1134 116.803   2
   1   6   0 157.106 90.5771   2
  -1  -6  -1 15972.5 728.874   7
   1   6   1 14986.1 745.817   7
  -1  -6  -1 14490.7 335.216   1
   1   6   1 15771.5 668.930   2
  -1  -6  -1 15602.3 668.055   2
  -1  -6  -2 830.651 87.0612   1
   1   6   2 1298.28 207.413   2
   1   6   2 1201.24 246.914   7
  -1  -6  -2 1226.38 226.884   7
  -1  -6  -2 1153.33 201.938   2
  -1  -6  -3 5950.79 474.052   7
  -1  -6  -3 6487.94 410.671   2
   1   6   3 6164.15 402.446   2
  -1  -6  -3 5702.05 254.338   1
  -1  -6  -4 1050.11 214.758   7
   1   6   4 681.033 151.859   2
  -1  -6  -4 659.474 116.567   1
  -1  -6  -5 9806.22 624.505   7
   1   6   5 9424.44 397.043   1
   1   6   5 10732.1 532.732   2
  -1  -6  -5 9075.29 469.724   3
  -1  -6  -5 9765.07 433.964   1
   1   6   5 9495.71 636.866   7
  -1  -6  -6 393.984 152.741   6
   1   6   6 350.738 165.673   7
   1   6   6 801.013 178.471   2
  -1  -6  -6 470.552 117.079   3
  -1  -6  -6 505.902 148.882   7
   1   6   6 612.574 136.878   1
   1   6   7 69.4268 89.3622   1
  -1  -6  -7 10.0653 68.6651   3
   1   6   7 13.3393 92.9634   2
  -1  -6  -7 83.6813 137.250   6
   1   6   7-124.029 158.780   7
   1   6   8 43.2950 106.780   1
   1   6   8 139.029 134.242   7
  -1  -6  -8 48.2215 88.9720   3
   1   6   8-31.8599 108.302   2
   1   6   9 40531.2 1189.51   1
  -1  -6  -9 40047.6 998.065   3
   1   6   9 40309.1 1072.31   2
   1   6   9 41277.6 1431.67   7
   1   6  10 7154.12 473.575   2
   1   6  10 5843.47 503.053   1
   1   6  10 7472.77 630.513   7
  -1  -6 -10 6740.39 437.244   3
  -1  -6 -11 21605.8 810.662   3
   1   6  11 21672.9 1047.30   7
  -1  -6 -12 17.6815 101.952   3
   1   6  12 233.695 161.837   7
  -1  -6 -13 96.2518 83.4122   3
   1   6  13 149.862 139.565   7
   1   6  14 85.8760 113.581   7
  -1  -6 -14 58.3064 109.090   3
   1   6  15-59.9066 152.891   7
  -1  -6 -15 36.0324 148.662   3
  -1  -6 -16 159.669 137.728   3
   1   6  16-173.974 121.982   7
  -1  -6 -17 1552.88 279.783   3
  -1  -7  10 531.440 238.500   2
   1   7 -10 875.558 307.176   4
  -1  -7   9 66.6187 193.879   2
   1   7  -9-11.3195 129.447   4
   1   7  -8 89.9712 184.967   4
  -1  -7   8 255.175 200.882   2
  -1  -7   7 2544.77 398.042   2
   1   7  -7 2035.00 408.582   4
   1   7  -7 1887.03 288.211   7
  -1  -7   6 2005.68 345.482   2
  -1  -7   6 1968.77 295.504   1
   1   7  -6 2257.47 410.015   4
   1   7  -6 2182.91 314.348   7
  -1  -7   5 321.186 191.875   2
   1   7  -5 105.323 175.202   4
   1   7  -5 239.965 140.582   7
  -1  -7   4 3741.33 342.036   1
  -1  -7   4 4190.27 446.624   2
   1   7  -4 4415.83 437.254   7
   1   7  -4 4038.52 496.342   4
   1   7  -3 851.437 210.194   7
  -1  -7   3 971.680 172.471   1
  -1  -7   3 799.056 229.731   2
  -1  -7   2 2365.61 290.250   7
   1   7  -2 1897.11 299.781   7
  -1  -7   2 2447.61 333.668   2
  -1  -7   1 5443.62 448.947   7
  -1  -7   1 5433.36 468.971   2
   1   7  -1 6365.66 526.273   7
   1   7   0 7601.02 583.979   7
  -1  -7   0 8164.59 562.009   7
  -1  -7   0 7561.15 240.885   1
  -1  -7   0 8399.88 561.738   2
  -1  -7  -1 95.2319 125.190   7
   1   7   1-77.8875 144.362   7
  -1  -7  -1 283.885 144.872   2
   1   7   2 455.842 171.382   7
  -1  -7  -2 484.121 153.986   2
   1   7   3 64.5191 98.3420   2
  -1  -7  -3 103.658 129.409   2
   1   7   3 199.625 130.149   7
   1   7   4 1329.84 210.658   2
  -1  -7  -4 1058.91 209.653   2
   1   7   4 1186.47 269.608   7
  -1  -7  -5 151.926 131.091   3
   1   7   5 180.473 167.214   7
   1   7   5 201.170 145.880   2
  -1  -7  -5 206.241 133.072   2
  -1  -7  -6 29796.9 899.487   2
   1   7   6 28912.1 957.496   2
   1   7   6 30659.7 757.837   1
  -1  -7  -6 31750.0 939.633   3
   1   7   6 31281.0 1256.82   7
   1   7   7 22050.1 1080.62   7
   1   7   7 20046.1 672.288   1
   1   7   7 20791.0 828.365   2
  -1  -7  -7 20579.1 755.520   3
  -1  -7  -8 21726.7 779.540   3
   1   7   8 21832.2 769.351   1
   1   7   8 21408.2 1077.33   7
  -1  -7  -9 296.343 135.683   3
   1   7   9 155.792 151.287   7
   1   7   9 255.528 109.838   1
   1   7  10 2301.95 399.636   7
   1   7  10 2264.39 295.397   1
  -1  -7 -10 2202.44 279.853   3
   1   7  11-176.511 152.134   7
  -1  -7 -11 46.9653 113.181   3
  -1  -7 -12 16.1606 102.173   3
   1   7  12 41.5830 122.729   7
   1   7  13 23.8179 146.648   7
  -1  -7 -13 24.7893 130.412   3
  -1  -7 -14 65.0477 168.354   3
   1   7  14 44.7585 159.846   7
   1   7  15 290.201 223.029   7
  -1  -7 -15 124.673 157.647   3
   1   7  16-11.1691 78.5404   7
  -1  -7 -16-56.9319 73.3866   3
  -1  -7 -17 102.117 136.649   3
   1   8  -9 566.725 224.857   4
  -1  -8   8 19.1890 120.160   2
   1   8  -8-92.0506 143.274   4
   1   8  -7-47.9589 142.588   4
  -1  -8   7-63.0502 196.733   2
   1   8  -6 2823.78 364.069   7
  -1  -8   6 1933.82 390.168   2
   1   8  -6 1663.11 420.669   4
  -1  -8   5 2018.99 377.475   2
   1   8  -5 1804.86 385.567   4
   1   8  -5 2619.52 368.938   7
  -1  -8   4 764.582 238.231   2
   1   8  -4 920.693 284.605   4
   1   8  -4 364.258 137.145   7
   1   8  -3 5502.83 525.239   7
  -1  -8   3 5201.74 522.818   2
   1   8  -2 780.355 234.168   7
  -1  -8   2 634.018 116.541   1
  -1  -8   2 325.862 180.972   2
  -1  -8   1 205.077 163.925   2
  -1  -8   1 104.707 41.5725   1
  -1  -8   1 126.772 44.4293   1
   1   8   0-3.68092 131.440   7
  -1  -8   0 725.913 223.798   2
   1   8   1 6528.36 599.405   7
  -1  -8  -1 6497.78 540.967   2
   1   8   2-98.2804 184.316   7
  -1  -8  -2 193.610 136.318   2
  -1  -8  -3 40698.7 1233.42   2
   1   8   3 42733.2 1503.82   7
   1   8   4 13677.3 866.934   7
  -1  -8  -4 13664.6 705.581   2
  -1  -8  -5 39616.8 1166.76   3
   1   8   5 39839.2 1492.14   7
  -1  -8  -5 41834.5 1167.77   2
  -1  -8  -6 91.7108 131.759   3
  -1  -8  -6-188.765 147.684   2
   1   8   6 17.7509 129.041   7
  -1  -8  -7 198.129 136.784   3
   1   8   7 296.991 114.469   1
   1   8   7-81.6894 194.746   7
   1   8   8 261.524 107.313   1
   1   8   8-153.774 197.226   7
  -1  -8  -8-92.0257 90.1099   3
   1   8   9 835.996 268.572   7
  -1  -8  -9 895.398 198.587   3
   1   8   9 975.475 191.057   1
   1   8  10 228.483 186.297   7
  -1  -8 -10-132.388 111.099   3
   1   8  10-4.99319 116.536   1
   1   8  11 889.430 297.030   7
  -1  -8 -11 1174.74 235.902   3
  -1  -8 -12 86.5825 127.116   3
   1   8  12 168.246 217.599   7
  -1  -8 -13 86.6590 128.860   3
   1   8  13 142.344 159.156   7
   1   8  14 229.560 186.230   7
  -1  -8 -14 346.294 157.764   3
   1   8  15 38.8909 186.036   7
  -1  -8 -15-12.3217 114.728   3
   1   8  16 880.486 296.675   7
  -1  -8 -16 296.547 178.074   3
  -1  -8 -17 815.341 236.679   3
   1   8  17 404.220 288.059   7
   1   9  -7 312.985 272.438   4
  -1  -9   7-506.274 309.612   2
  -1  -9   6-168.328 189.936   2
   1   9  -6 438.699 294.859   4
   1   9  -5 655.246 206.298   7
  -1  -9   5 777.795 257.144   2
   1   9  -5 844.985 300.909   4
  -1  -9   4 3601.21 501.590   2
   1   9  -4 4333.44 612.291   4
   1   9  -4 4462.75 536.423   7
   1   9  -3 292.000 220.660   7
  -1  -9   3 48.0796 201.782   2
   1   9  -2 2684.78 400.289   7
  -1  -9   2 2579.18 384.989   2
   1   9  -1 115.852 156.188   7
  -1  -9   1 89.3723 207.161   2
   1   9   0 13440.7 901.504   7
  -1  -9   0 15415.3 886.794   2
   1   9   1 9123.43 756.796   7
  -1  -9  -1 9833.50 709.375   2
  -1  -9  -2 8277.56 638.973   2
   1   9   2 8601.60 732.790   7
   1   9   3 386.219 227.389   7
  -1  -9  -3 651.781 222.139   2
   1   9   4 3439.90 474.529   7
  -1  -9  -4 3393.67 386.263   2
   1   9   5 140.868 146.749   7
  -1  -9  -5 101.525 146.857   2
  -1  -9  -5-156.555 141.800   3
   1   9   6-78.0474 181.640   7
  -1  -9  -6 22.6791 125.593   2
  -1  -9  -6 24.2773 134.797   3
  -1  -9  -7 323.198 142.613   3
   1   9   7 333.962 249.580   7
  -1  -9  -8-0.68543 114.074   3
   1   9   8 3.72353 194.977   7
  -1  -9  -9 974.076 215.209   3
   1   9   9 1122.09 312.137   7
   1   9  10 2.61323 273.309   7
  -1  -9 -10 5.63419 116.960   3
   1   9  11 589.503 266.297   7
  -1  -9 -11 996.297 233.241   3
   1   9  12 28.6372 172.588   7
  -1  -9 -12 155.637 129.684   3
   1   9  13 1078.96 317.417   7
  -1  -9 -13 930.479 226.130   3
   1   9  14 516.209 293.610   7
  -1  -9 -14 325.153 193.784   3
  -1  -9 -15 719.249 224.953   3
   1   9  15 1134.38 315.081   7
   1   9  16 127.729 216.555   7
  -1  -9 -16-1.00770 199.481   3
   1  10  -5 355.459 259.684   4
   1  10  -4 1082.00 266.204   7
  -1 -10   4 680.425 320.122   2
   1  10  -4 765.738 294.310   4
  -1 -10   3 1580.17 359.398   2
   1  10  -3 1366.32 340.007   7
   1  10  -2 2561.64 453.470   7
  -1 -10   2 2199.69 443.011   2
  -1 -10   1 23561.1 1199.15   2
   1  10  -1 23150.8 1242.73   7
   1  10   0 218.744 178.640   7
  -1 -10   0 557.700 260.352   2
  -1 -10  -1 1215.55 291.337   2
   1  10   1 1430.16 328.583   7
   1  10   2-47.5397 132.583   7
  -1 -10  -2 231.027 193.031   2
   1  10   3 1514.11 360.054   7
  -1 -10  -3 2192.31 361.884   2
   1  10   4 112.652 174.060   7
  -1 -10  -4 311.085 173.556   2
   1  10   5 1005.66 318.194   7
  -1 -10  -5 634.061 211.061   3
  -1 -10  -5 961.912 248.431   2
   1  10   6 1336.44 348.963   7
  -1 -10  -6 1503.46 285.709   2
  -1 -10  -6 1183.68 246.450   3
  -1 -10  -7 76.5594 143.326   3
   1  10   7 132.830 193.566   7
  -1 -10  -7 271.421 174.176   2
  -1 -10  -8 1034.40 258.571   3
   1  10   8 1264.96 345.866   7
   1  10   9 822.151 299.393   7
  -1 -10  -9 545.699 203.582   3
  -1 -10 -10 295.685 164.840   3
   1  10  10 722.742 310.839   7
   1  10  11 169.560 199.130   7
  -1 -10 -11 395.612 178.023   3
   1  10  12 1367.10 357.248   7
  -1 -10 -12 1050.48 256.935   3
   1  10  13-62.9981 205.378   7
  -1 -10 -13 192.279 143.406   3
  -1 -10 -14 406.534 167.424   3
  -1 -10 -15-53.1830 138.209   3
   1  11  -3 1468.67 349.184   7
   1  11  -2 2.67789 186.297   7
   1  11  -1-75.1987 101.874   7
  -1 -11   1 341.133 245.168   2
   1  11   0 2029.16 414.106   7
  -1 -11   0 1435.42 363.379   2
   1  11   1-388.424 200.732   7
  -1 -11  -1-44.5517 207.363   2
  -1 -11  -2 31.5341 193.236   2
   1  11   2 330.978 267.138   7
   1  11   3 311.401 257.821   7
  -1 -11  -3 813.006 274.882   2
   1  11   4 539.830 231.965   7
  -1 -11  -4 435.160 231.756   2
  -1 -11  -5 515.470 215.069   3
   1  11   5 366.845 221.553   7
  -1 -11  -5 320.338 211.370   2
   1  11   6 271.950 219.347   7
  -1 -11  -6-79.5687 156.750   2
  -1 -11  -6 60.1630 155.515   3
   1  11   7 730.167 298.972   7
  -1 -11  -7 466.459 197.174   3
  -1 -11  -7 963.431 262.534   2
  -1 -11  -8 80.3649 170.600   3
   1  11   8-270.461 166.466   7
   1  11   9 247.269 256.662   7
  -1 -11  -9 268.272 151.379   3
   1  11  10 470.046 297.617   7
  -1 -11 -10 431.923 187.141   3
  -1 -11 -11 453.637 208.528   3
  -1 -11 -12 248.823 175.359   3
   1  12  -1-320.275 235.889   7
   1  12   0 202.641 158.712   7
   1  12   1 584.719 294.090   7
   1  12   2 105.764 184.957   7
   1  12   3-122.687 214.315   7
  -1 -12  -3 229.458 207.842   2
  -1 -12  -4 387.356 239.543   2
   1  12   4 455.674 250.252   7
  -1 -12  -4 547.353 219.396   3
   1  12   5 66.4424 180.244   7
  -1 -12  -5 447.229 244.085   2
  -1 -12  -5 585.296 261.651   3
  -1 -12  -6 228.146 198.783   3
  -1 -12  -6 20.1456 174.199   2
  -1 -12  -7 216.750 202.576   3
  -2  11   4 607.963 291.341   7
  -2  11   3 397.259 233.598   7
  -2  11   2 2102.98 402.434   7
  -2  11   1 19.7340 198.825   7
  -2  11   0 1681.51 328.669   7
  -2  11  -1-208.119 204.682   7
   2 -10  -8 1966.24 368.484   3
  -2  10   8 2322.32 475.536   7
   2 -10  -7 1029.93 263.647   3
  -2  10   7 1023.67 278.119   7
  -2  10   6-375.088 253.593   7
   2 -10  -6 364.888 203.045   3
  -2  10   5 1224.42 353.170   7
   2 -10  -5 1062.54 252.684   3
   2 -10  -4 178.429 170.004   3
  -2  10   4-194.092 162.358   7
   2 -10  -3 623.263 214.158   3
   2 -10  -3 84.2426 219.929   2
  -2  10   3 252.816 203.483   7
  -2  10   2 223.465 203.060   7
   2 -10  -2 491.202 224.774   3
   2 -10  -2-54.7680 161.232   2
   2 -10  -1 2156.76 397.223   3
   2 -10  -1 2787.09 461.527   2
  -2  10   1 2795.52 443.527   7
   2 -10   0 992.219 278.996   3
  -2  10   0 627.435 244.290   7
   2 -10   0 156.632 172.293   2
  -2  10  -1 3761.80 463.080   7
   2 -10   1 3841.76 500.516   3
   2 -10   2-32.2042 160.836   2
  -2  10  -2-19.9865 108.056   7
  -2   9  11 2672.34 471.886   7
   2  -9 -11 1847.45 381.499   3
   2  -9 -10-329.756 227.575   3
  -2   9  10 178.585 199.816   7
  -2   9   9-37.6407 187.907   7
   2  -9  -9 94.8253 113.190   3
   2  -9  -8 305.617 201.044   3
  -2   9   8 660.659 281.117   7
   2  -9  -7 223.220 170.810   3
  -2   9   7 175.998 197.866   7
   2  -9  -6 826.800 235.199   3
  -2   9   6 1174.33 290.544   7
   2  -9  -5 564.587 193.884   3
  -2   9   5 283.614 207.607   7
   2  -9  -4 1014.11 254.385   3
  -2   9   4 944.093 278.419   7
  -2   9   3 221.382 191.356   7
   2  -9  -3 374.262 187.625   3
   2  -9  -3-226.785 174.964   2
   2  -9  -2 293.491 137.401   3
   2  -9  -2 103.668 151.758   2
  -2   9   2 249.907 188.596   7
  -2   9   1-186.955 138.117   7
   2  -9  -1 71.7990 170.853   2
   2  -9  -1-56.0847 107.701   3
  -2   9   0 7102.70 614.389   7
   2  -9   0 6412.15 598.735   3
   2  -9   0 7146.23 618.836   2
   2  -9   1 1225.84 301.891   2
  -2   9  -1 1161.07 273.971   7
  -2   9  -2 2828.62 371.023   7
   2  -9   2 2073.73 371.113   2
  -2   9  -3 419.741 172.447   7
   2  -9   3 367.282 233.775   2
  -2   9  -4 5032.92 688.401   4
   2  -9   4 5915.91 620.403   2
   2  -9   5 759.291 289.744   2
  -2   9  -5 29.3626 183.430   4
   2  -9   6 402.428 185.627   2
  -2   8  13-185.978 223.694   7
  -2   8  12-57.8137 74.8685   7
   2  -8 -12 112.191 149.002   3
  -2   8  11 1239.94 305.318   7
   2  -8 -11 598.768 252.579   3
  -2   8  10-123.132 196.246   7
   2  -8 -10-259.454 170.125   3
   2  -8  -9 612.358 217.622   3
  -2   8   9 833.517 285.155   7
   2  -8  -8 440.228 208.259   3
  -2   8   8 717.118 275.664   7
   2  -8  -7 132.572 152.378   3
  -2   8   7 450.377 221.831   7
   2  -8  -6 184.690 143.562   3
  -2   8   6 23.7647 121.374   7
   2  -8  -5 1963.13 309.858   3
  -2   8   5 2110.52 360.116   7
   2  -8  -4 153.463 154.654   3
  -2   8   4 268.587 173.621   7
  -2   8   4 208.222 58.1769   1
   2  -8  -3 5041.71 476.765   2
   2  -8  -3 4286.28 434.419   3
  -2   8   3 4890.44 516.717   7
  -2   8   2 741.907 268.290   7
   2  -8  -2 1394.39 281.065   2
   2  -8  -2 825.616 231.226   3
   2  -8  -1 394.789 171.128   3
  -2   8   1 49.9064 128.700   7
   2  -8  -1 324.606 183.194   2
   2  -8   0-40.2326 167.833   2
   2  -8   0 135.433 181.798   3
  -2   8   0-258.575 172.370   7
  -2   8  -1 10410.6 670.560   7
   2  -8   1 10909.9 731.799   2
   2  -8   2 797.056 283.066   2
  -2   8  -2 847.994 206.506   7
   2  -8   3 7727.19 658.733   2
  -2   8  -3 8748.55 577.397   7
  -2   8  -4 789.550 191.307   7
   2  -8   4 603.060 244.326   2
  -2   8  -4 530.406 254.139   4
  -2   8  -5 4993.99 668.039   4
   2  -8   5 4607.14 528.601   2
  -2   8  -6 2402.85 457.413   4
   2  -8   6 2338.67 404.775   2
   2  -8   7 314.564 187.112   2
  -2   8  -7-242.592 155.800   4
   2  -8   8 223.320 241.254   2
  -2   7  15-132.031 166.076   7
  -2   7  14-165.708 187.672   7
   2  -7 -14 498.583 202.155   3
   2  -7 -13-12.8265 129.369   3
  -2   7  13 95.2285 134.519   7
  -2   7  12 1475.51 345.625   7
   2  -7 -12 1166.41 303.884   3
  -2   7  11 348.854 180.047   7
   2  -7 -11 472.541 205.074   3
  -2   7  10 3849.16 492.926   7
   2  -7 -10 4096.10 453.196   3
  -2   7   9 1091.66 289.481   7
   2  -7  -9 1040.79 244.558   3
   2  -7  -8 1355.66 256.700   3
  -2   7   8 1419.70 302.175   7
   2  -7  -8 1545.23 238.563   6
   2  -7  -7 434.135 164.347   3
  -2   7   7 255.586 162.350   7
  -2   7   6 4391.04 497.080   7
   2  -7  -6 4447.54 423.094   3
   2  -7  -5 76.5578 130.578   3
  -2   7   5 109.054 185.585   7
  -2   7   4 1257.53 271.530   7
   2  -7  -4 1241.57 234.893   3
  -2   7   3 849.653 119.037   1
  -2   7   3 719.023 222.274   7
  -2   7   2 7286.54 286.693   1
   2  -7  -2 8604.41 565.815   3
  -2   7   2 8412.14 618.671   7
   2  -7  -2 8044.45 562.762   2
  -2   7   1 108.124 128.666   7
   2  -7  -1 156.260 137.247   3
  -2   7   1 35.7099 44.7706   1
   2  -7  -1 255.380 161.395   2
  -2   7   0 422.517 168.084   7
  -2   7   0 337.672 83.3232   1
  -2   7   0 711.405 166.896   5
   2  -7   0 238.557 175.306   2
   2  -7   0 409.695 190.360   3
  -2   7  -1 84.1337 100.813   7
  -2   7  -1 352.192 170.651   5
   2  -7   1 378.941 195.799   2
  -2   7  -2 7622.50 519.918   7
   2  -7   2 8225.14 614.814   2
  -2   7  -3 1442.51 238.435   7
   2  -7   3 1302.13 301.210   2
   2  -7   3 1488.96 277.941   7
   2  -7   4 14395.6 837.371   2
   2  -7   4 14690.1 787.734   7
  -2   7  -4 13898.1 978.248   4
  -2   7  -4 14350.4 650.760   7
  -2   7  -5 340.840 122.887   7
   2  -7   5 74.5287 172.176   2
  -2   7  -5-167.706 197.191   4
   2  -7   6 1587.52 340.199   2
  -2   7  -6 1192.79 322.872   4
  -2   7  -7 11387.8 949.683   4
   2  -7   7 10697.2 789.979   2
   2  -7   8 2108.46 378.103   2
  -2   7  -8 2206.78 483.490   4
   2  -7   9 1086.35 292.280   2
  -2   7  -9 1299.57 393.099   4
   2  -7  10 3779.04 515.323   2
   2  -7  11 514.492 293.092   2
  -2   6  16 586.777 278.101   5
  -2   6  16-60.4414 204.945   7
  -2   6  15 1431.39 293.064   7
   2  -6 -14 195.498 175.417   3
  -2   6  14 22.1197 208.912   7
   2  -6 -13 1911.16 352.285   3
  -2   6  13 1472.23 303.317   7
   2  -6 -12 687.153 222.357   3
  -2   6  12 799.447 266.601   7
  -2   6  11 2403.61 387.692   7
   2  -6 -11 1983.32 312.410   3
   2  -6 -10 637.686 227.179   3
  -2   6  10 435.997 194.709   7
  -2   6   9 433.128 196.657   7
   2  -6  -9 384.729 174.839   3
   2  -6  -9 514.615 140.130   6
   2  -6  -8 1232.02 247.657   3
   2  -6  -8 1120.21 171.590   6
  -2   6   8 1016.04 242.253   7
  -2   6   7 11158.0 724.706   7
   2  -6  -7 11573.7 643.540   3
   2  -6  -6 3384.45 347.475   3
  -2   6   6 4648.03 467.994   7
  -2   6   5 8003.87 598.507   7
   2  -6  -5 7850.51 498.544   3
   2  -6  -4 936.450 208.989   3
  -2   6   4 1217.47 270.506   7
  -2   6   3 11969.9 697.539   7
   2  -6  -3 12322.8 609.916   3
   2  -6  -2 936.881 191.619   3
  -2   6   2 1067.59 231.873   7
  -2   6   2 1066.89 143.998   1
   2  -6  -2 1128.56 222.470   2
  -2   6   1 4980.30 427.205   7
  -2   6   1 4617.77 258.757   1
   2  -6  -1 4907.28 402.896   3
   2  -6  -1 5167.41 426.160   2
   2  -6   0 271.728 174.840   7
  -2   6   0 636.407 166.520   7
  -2   6   0 520.479 113.237   1
   2  -6   0 319.196 161.967   2
  -2   6   0 417.882 138.395   5
   2  -6   0 688.894 195.746   3
   2  -6   1 291.115 131.552   7
  -2   6  -1 264.830 139.591   7
  -2   6  -1 239.977 109.842   5
   2  -6   1 167.263 137.142   2
  -2   6  -1 475.697 111.760   1
  -2   6  -2 78.7752 90.5267   7
   2  -6   2 319.001 128.596   7
  -2   6  -2 327.372 119.495   5
   2  -6   2 237.160 152.734   2
  -2   6  -2 129.846 96.5282   1
   2  -6   3 4073.27 409.298   7
  -2   6  -3 3205.47 333.256   5
   2  -6   3 3052.82 376.932   2
  -2   6  -3 2953.91 286.910   1
  -2   6  -3 3483.41 324.153   7
  -2   6  -4 15139.3 942.254   4
   2  -6   4 15712.1 747.190   7
   2  -6   4 15391.7 800.830   2
  -2   6  -5 56120.2 1843.48   4
   2  -6   5 54503.5 1531.38   2
   2  -6   5 53235.6 1261.55   1
   2  -6   5 53963.3 1307.03   7
  -2   6  -6 958.750 148.062   7
   2  -6   6 1164.74 215.071   1
   2  -6   6 1051.06 267.148   2
  -2   6  -6 861.153 294.163   4
   2  -6   7 630.219 229.462   2
  -2   6  -7 414.262 239.309   4
  -2   6  -8 8612.22 804.215   4
   2  -6   8 8113.34 643.435   2
   2  -6   9 296.792 176.293   2
  -2   6  -9 316.187 188.872   4
   2  -6  10 387.313 204.510   2
  -2   6 -10 524.676 207.860   4
   2  -6  11 424.779 271.385   2
   2  -6  12-142.721 247.903   2
  -2   5  16 3425.87 464.148   7
  -2   5  16 3609.87 523.900   5
   2  -5 -15-135.813 208.723   3
  -2   5  15-23.3107 186.451   5
  -2   5  15-115.128 144.196   7
  -2   5  14 1795.80 321.382   7
   2  -5 -14 2257.88 396.685   3
  -2   5  14 2082.47 379.671   5
  -2   5  13 121.528 164.267   7
   2  -5 -13-393.461 210.643   3
   2  -5 -12 851.511 234.279   3
  -2   5  12 735.158 245.379   7
   2  -5 -11 1848.37 324.613   3
  -2   5  11 2115.55 331.830   7
   2  -5 -10 15947.0 826.865   3
  -2   5  10 16644.1 866.142   7
   2  -5  -9 4088.54 418.974   3
  -2   5   9 4422.18 458.715   7
   2  -5  -8 5363.13 304.933   6
  -2   5   8 4824.14 462.801   7
   2  -5  -8 4779.57 425.639   3
   2  -5  -7 2262.29 214.172   6
  -2   5   7 2388.21 322.917   7
   2  -5  -7 2127.82 278.637   3
   2  -5  -6 3361.79 332.544   3
  -2   5   6 3581.88 387.393   7
  -2   5   5 4830.31 433.652   7
   2  -5  -5 4605.82 365.975   3
   2  -5  -4 5476.38 387.983   3
  -2   5   4 5838.01 459.163   7
   2  -5  -3 2008.30 322.462   7
  -2   5   3 2837.31 323.917   7
  -2   5   3 3046.45 324.283   2
   2  -5  -3 2519.87 268.997   3
   2  -5  -2 16916.7 652.994   3
  -2   5   2 19000.2 781.214   2
   2  -5  -2 17108.2 831.625   7
  -2   5   2 18831.0 781.196   7
   2  -5  -1 4219.82 349.933   2
  -2   5   1 5183.33 401.886   7
  -2   5   1 4519.49 275.530   1
   2  -5  -1 4576.00 348.138   3
  -2   5   1 4322.80 389.549   2
   2  -5  -1 4617.57 431.097   7
  -2   5   0 2484.69 206.903   1
  -2   5   0 2721.07 253.248   5
  -2   5   0 2543.60 297.155   2
  -2   5   0 2399.21 277.325   7
   2  -5   0 2329.10 263.479   3
   2  -5   0 2630.25 334.901   7
   2  -5   0 2396.60 277.168   2
  -2   5  -1 18951.5 592.108   1
  -2   5  -1 18853.0 662.772   5
  -2   5  -1 18674.8 768.145   2
   2  -5   1 19285.2 744.559   2
   2  -5   1 18900.8 823.742   7
  -2   5  -1 19180.9 720.768   7
  -2   5  -2 25761.2 797.368   5
   2  -5   2 24795.3 872.089   2
  -2   5  -2 25311.1 744.431   1
  -2   5  -2 26528.9 906.669   2
   2  -5   2 25568.6 930.747   7
   2  -5   3 10270.8 583.257   7
  -2   5  -3 8813.51 488.858   1
   2  -5   3 9880.42 570.775   2
  -2   5  -3 10348.4 585.522   2
  -2   5  -3 10085.8 522.305   5
   2  -5   4 366.679 149.106   7
  -2   5  -4 263.408 120.581   5
   2  -5   4 518.448 168.847   2
  -2   5  -4 440.855 180.918   4
  -2   5  -4 440.691 153.710   1
  -2   5  -5 6891.27 618.041   4
  -2   5  -5 7264.50 510.641   1
  -2   5  -5 7075.59 474.337   5
   2  -5   5 6722.66 457.756   1
   2  -5   5 6722.82 502.397   2
   2  -5   5 6570.61 431.365   7
  -2   5  -5 7110.65 370.080   7
  -2   5  -6 28734.2 1280.05   4
   2  -5   6 27206.8 949.810   1
   2  -5   6 26801.1 1002.75   2
   2  -5   6 27734.2 785.408   7
  -2   5  -6 28165.0 672.427   7
   2  -5   7 2326.56 331.658   2
  -2   5  -7 2784.40 428.191   4
  -2   5  -8 11765.9 899.781   4
   2  -5   8 12222.7 728.679   2
  -2   5  -9 6331.91 692.785   4
   2  -5   9 6070.91 549.445   2
   2  -5  10 870.634 230.798   2
   2  -5  10 736.328 266.417   5
  -2   5 -10 603.282 266.309   4
   2  -5  11 514.071 218.082   2
   2  -5  11 550.889 238.429   5
  -2   5 -11 197.729 243.308   4
   2  -5  12 111.948 198.052   2
   2  -5  12 184.752 220.749   5
   2  -5  13-28.4751 147.203   2
  -2   4  16 125.979 153.731   5
  -2   4  15 37.4236 65.6830   7
   2  -4 -15 197.073 148.336   3
  -2   4  15 338.790 203.446   5
  -2   4  14 4525.28 486.582   7
  -2   4  14 4614.08 512.241   5
   2  -4 -14 4772.34 542.057   3
  -2   4  13 16571.9 911.910   5
  -2   4  13 15785.4 854.159   7
   2  -4 -13 13801.0 863.962   3
  -2   4  12 687.570 210.006   7
  -2   4  12 1133.70 282.831   5
   2  -4 -12 854.878 267.508   3
   2  -4 -11-174.359 134.153   3
  -2   4  11-112.510 139.681   7
   2  -4 -10 631.294 208.319   3
  -2   4  10 706.864 204.745   7
   2  -4  -9 2743.14 334.223   3
  -2   4   9 3338.65 355.754   7
  -2   4   8 1632.49 266.044   7
   2  -4  -8 1596.31 250.293   3
   2  -4  -7 19985.0 480.658   6
  -2   4   7 20486.8 844.507   7
   2  -4  -7 21182.4 799.215   3
   2  -4  -6 2220.79 324.908   7
   2  -4  -6 2059.06 173.251   6
  -2   4   6 2253.31 289.136   7
   2  -4  -6 2331.80 268.522   3
   2  -4  -5 17112.1 652.372   3
  -2   4   5 17409.8 746.669   7
  -2   4   5 17150.4 686.412   3
   2  -4  -5 16274.5 803.572   7
  -2   4   5 16160.6 673.418   2
   2  -4  -4 13909.2 721.980   7
  -2   4   4 14586.0 627.171   2
  -2   4   4 13843.5 606.500   3
   2  -4  -4 13896.9 565.163   3
   2  -4  -3 6134.79 367.414   3
  -2   4   3 5652.97 388.264   2
   2  -4  -3 6343.28 488.694   7
  -2   4   2 11183.0 545.629   2
   2  -4  -2 10856.5 478.980   3
   2  -4  -2 10300.5 595.218   7
   2  -4  -1 171006. 1870.31   3
  -2   4   1 171134. 2110.20   2
   2  -4  -1 172281. 2345.02   7
   2  -4  -1 172142. 1941.44   2
   2  -4   0 59389.1 1342.51   7
  -2   4   0 59837.6 982.170   5
  -2   4   0 59105.5 989.050   1
   2  -4   0 56543.9 1086.64   3
  -2   4   0 59726.5 1229.24   2
   2  -4   0 60375.8 1163.71   2
  -2   4  -1 1566.27 179.790   5
   2  -4   1 1517.28 226.384   7
  -2   4  -1 1639.45 183.121   1
  -2   4  -1 1851.08 229.733   2
   2  -4   1 1716.38 219.195   2
  -2   4  -2 6302.98 366.678   1
  -2   4  -2 6086.15 362.802   7
  -2   4  -2 6497.44 358.868   5
  -2   4  -2 6242.00 398.458   2
   2  -4   2 6479.28 431.358   7
   2  -4   2 6039.58 397.650   2
   2  -4   3 1248.69 196.228   7
  -2   4  -3 1074.80 152.575   7
  -2   4  -3 1423.70 198.614   2
  -2   4  -3 1281.50 177.233   5
  -2   4  -3 861.609 215.993   4
  -2   4  -3 1199.39 195.832   1
   2  -4   3 1542.68 223.242   2
  -2   4  -4 375.716 137.674   1
  -2   4  -4 299.229 112.899   5
   2  -4   4 529.118 142.766   7
  -2   4  -4 238.255 118.743   2
   2  -4   4 303.822 141.195   2
  -2   4  -4 123.134 114.471   4
  -2   4  -4 295.386 98.0373   7
  -2   4  -5 23702.7 794.457   5
  -2   4  -5 22720.2 1021.87   4
  -2   4  -5 23144.3 832.061   2
  -2   4  -5 23061.4 602.101   7
   2  -4   5 20907.5 789.923   2
  -2   4  -5 21945.3 864.166   1
   2  -4   5 23855.7 731.532   7
   2  -4   6 2138.09 209.434   7
  -2   4  -6 2667.67 340.791   1
  -2   4  -6 2521.42 281.931   5
   2  -4   6 2197.89 283.300   5
  -2   4  -6 2161.70 278.174   2
  -2   4  -6 2474.50 360.105   4
   2  -4   6 2583.13 292.936   2
   2  -4   6 1822.04 265.029   1
   2  -4   7 27361.6 570.951   7
   2  -4   7 30978.4 1036.75   3
   2  -4   7 27213.4 1003.08   1
   2  -4   7 29136.9 1088.30   5
  -2   4  -7 29062.6 1251.86   4
   2  -4   7 28785.3 982.473   2
   2  -4   8 1765.66 274.013   2
   2  -4   8 2009.65 319.844   5
  -2   4  -8 2658.90 400.632   4
   2  -4   9 11406.6 762.834   5
  -2   4  -9 11887.7 888.676   4
   2  -4   9 10977.1 669.179   2
   2  -4  10 9913.50 751.084   5
  -2   4 -10 10060.6 840.778   4
   2  -4  10 11372.2 699.213   2
   2  -4  11 1442.54 369.817   5
   2  -4  11 1198.50 271.959   2
  -2   4 -11 1158.91 311.075   4
   2  -4  12 197.962 186.453   2
   2  -4  12 28.1567 145.610   5
  -2   4 -12-220.988 234.146   4
   2  -4  13 350.112 221.118   2
   2  -4  13 322.153 244.958   5
   2  -4  14 239.874 214.468   2
  -2   3  16 8704.50 805.325   5
   2  -3 -15 296.532 194.736   3
  -2   3  15 381.817 219.340   5
   2  -3 -14 2945.47 441.257   3
  -2   3  14 3363.76 454.398   5
  -2   3  14 2833.34 361.396   7
  -2   3  13 77.5019 121.057   7
   2  -3 -13 194.496 210.956   3
  -2   3  13 146.727 140.780   5
  -2   3  12 3484.80 418.495   5
   2  -3 -12 4101.11 474.635   3
  -2   3  12 3776.72 404.003   7
  -2   3  11 436.479 159.624   7
   2  -3 -11 32.5603 142.717   3
  -2   3  11 237.571 152.599   5
   2  -3 -10 923.107 226.797   3
  -2   3  10 980.569 215.432   5
  -2   3  10 993.903 206.595   7
  -2   3   9 6.69441 98.2296   7
   2  -3  -9 121.367 135.263   3
   2  -3  -8 9765.64 641.441   7
  -2   3   8 10217.0 571.260   7
   2  -3  -8 9918.70 560.948   3
   2  -3  -7 3324.76 317.612   3
   2  -3  -7 3238.52 368.417   7
  -2   3   7 3910.32 352.265   7
  -2   3   6 47747.2 1169.95   7
   2  -3  -6 47735.9 1308.20   7
  -2   3   6 47518.7 1086.29   3
   2  -3  -6 47063.1 1093.11   3
   2  -3  -5 6104.28 463.679   7
  -2   3   5 6203.78 386.268   3
   2  -3  -5 7145.67 412.439   3
  -2   3   5 6644.81 436.630   7
   2  -3  -4 9580.70 447.771   3
  -2   3   4 10077.3 482.730   2
  -2   3   4 9854.31 464.550   3
   2  -3  -4 9668.98 554.822   7
   2  -3  -3 178071. 1804.07   3
  -2   3   3 174416. 1875.74   3
   2  -3  -3 174705. 2265.68   7
  -2   3   3 172558. 1901.90   2
  -2   3   2 7705.74 403.981   2
   2  -3  -2 7222.83 358.196   3
   2  -3  -2 7253.12 458.244   7
   2  -3  -1 235.070 93.5548   3
   2  -3  -1 466.303 120.962   7
  -2   3   1 324.202 118.204   2
  -2   3   0 81031.8 1286.45   7
  -2   3   0 79681.4 914.348   5
  -2   3   0 78868.5 1183.26   1
   2  -3   0 79815.6 1136.15   3
  -2   3   0 78727.5 1269.78   2
   2  -3   0 80910.6 1417.02   7
   2  -3   0 78776.5 1180.24   2
  -2   3  -1 1651.96 148.180   5
  -2   3  -1 1760.24 191.221   1
   2  -3   1 1427.41 165.307   3
  -2   3  -1 1736.63 199.514   2
   2  -3   1 1893.18 193.957   2
   2  -3   1 1787.29 216.400   7
  -2   3  -1 1620.20 185.751   7
  -2   3  -2 28639.4 752.648   1
   2  -3   2 28443.0 736.657   2
  -2   3  -2 29350.8 640.017   5
   2  -3   2 28770.5 795.327   7
  -2   3  -2 27767.4 743.534   2
  -2   3  -2 29552.2 723.910   7
   2  -3   3 1067.77 165.019   7
  -2   3  -3 817.813 127.676   7
  -2   3  -3 1146.44 165.547   2
  -2   3  -3 1082.41 148.649   5
  -2   3  -3 958.648 178.920   1
   2  -3   3 1110.89 188.712   1
   2  -3   3 1057.98 167.486   2
  -2   3  -3 672.037 172.321   4
  -2   3  -4 988.767 127.833   7
  -2   3  -4 1080.78 190.419   1
   2  -3   4 878.502 140.123   7
   2  -3   4 875.936 162.364   5
  -2   3  -4 1130.46 155.205   5
   2  -3   4 1050.59 168.111   2
  -2   3  -4 1060.65 206.946   4
  -2   3  -4 1001.62 161.332   2
  -2   3  -5 48.1266 98.8075   1
   2  -3   5 7.65755 52.1960   7
  -2   3  -5 102.763 80.3427   2
  -2   3  -5 145.463 78.7745   5
   2  -3   5 54.1522 83.5089   2
   2  -3   5 4.35205 63.9522   5
  -2   3  -5 46.4581 80.5515   4
   2  -3   6 20012.3 796.851   1
   2  -3   6 19933.1 788.703   5
  -2   3  -6 19724.5 726.638   2
  -2   3  -6 19683.7 929.745   4
   2  -3   6 20457.9 726.016   2
  -2   3  -6 19893.6 858.999   1
   2  -3   6 20085.1 546.438   7
   2  -3   7 6219.74 241.332   7
   2  -3   7 6921.71 445.721   3
  -2   3  -7 6034.88 513.508   1
   2  -3   7 6207.38 484.731   1
   2  -3   7 6298.27 475.806   5
  -2   3  -7 6546.98 444.760   2
  -2   3  -7 5721.82 517.446   4
   2  -3   7 6162.04 423.033   2
   2  -3   8 24209.9 852.158   3
   2  -3   8 22849.9 956.552   5
  -2   3  -8 23084.7 854.959   2
  -2   3  -8 24541.0 1132.96   4
   2  -3   8 24602.2 862.601   2
   2  -3   9 171.593 102.681   2
   2  -3   9 382.808 150.511   3
   2  -3   9 281.307 179.168   5
  -2   3  -9 261.418 180.602   4
   2  -3  10 16978.4 932.247   5
  -2   3 -10 15672.5 989.829   4
   2  -3  10 16551.8 781.582   2
   2  -3  11 12695.6 853.391   5
  -2   3 -11 12769.3 928.941   4
   2  -3  11 13686.0 737.091   2
   2  -3  12 1391.83 276.965   2
   2  -3  12 1586.61 360.139   5
  -2   3 -12 1350.19 319.657   4
   2  -3  13 361.861 186.612   2
  -2   3 -13 765.965 306.144   4
   2  -3  14 295.637 194.777   2
   2  -3  14 66.4903 231.278   5
  -2   2  16-313.138 270.231   5
   2  -2 -15 2805.49 464.489   3
  -2   2  15 2349.28 415.725   5
   2  -2 -14 687.981 275.360   3
  -2   2  14 636.640 257.630   5
   2  -2 -13 10252.6 758.065   3
  -2   2  13 10601.8 761.475   5
   2  -2 -12 1589.06 331.655   3
  -2   2  12 1804.81 301.261   5
  -2   2  11 7101.16 547.726   5
  -2   2  11 7529.75 514.454   7
   2  -2 -11 7236.86 576.635   3
   2  -2 -10 106.813 144.869   3
  -2   2  10 85.1082 119.482   5
  -2   2  10-8.87928 89.2222   7
  -2   2   9 3632.34 341.659   7
  -2   2   9 3144.71 324.017   5
  -2   2   9 3873.34 383.752   4
   2  -2  -9 3747.27 387.349   7
   2  -2  -9 3236.36 356.133   3
   2  -2  -8 4794.73 404.391   3
   2  -2  -8 5688.03 460.622   7
  -2   2   8 5762.30 401.932   5
  -2   2   8 5740.95 414.271   7
   2  -2  -7 323.457 121.898   7
  -2   2   7 328.950 114.437   3
  -2   2   7 444.367 136.278   7
   2  -2  -7 218.104 119.380   3
   2  -2  -6 64381.1 1396.62   7
  -2   2   6 63826.7 1204.38   3
  -2   2   6 65085.6 1286.38   7
  -2   2   5 171904. 1874.59   3
   2  -2  -5 175717. 2236.32   7
  -2   2   5 176923. 2061.66   7
  -2   2   4 142.283 81.4384   3
   2  -2  -4 80.7889 99.9160   3
   2  -2  -4 36.3132 76.8872   7
   2  -2  -3 17693.6 539.614   3
  -2   2   3 17729.4 542.646   3
   2  -2  -3 16712.7 636.235   7
   2  -2  -2 34778.1 706.452   3
   2  -2  -2 34600.9 877.822   7
  -2   2   2 34425.1 753.047   2
  -2   2   2 33868.9 717.396   3
  -2   2   1 60430.5 931.095   3
   2  -2  -1 59908.2 873.193   3
  -2   2   1 58896.9 953.809   2
   2  -2  -1 62135.4 1134.73   7
   2  -2   0 12920.1 505.327   7
  -2   2   0 13436.5 455.911   2
   2  -2   0 13707.6 404.894   3
   2  -2   1 115477. 1444.66   7
  -2   2  -1 112896. 879.620   5
   2  -2   1 114083. 1235.60   2
  -2   2  -1 112392. 1427.34   1
  -2   2  -1 114333. 1377.58   7
   2  -2   1 113738. 1158.52   3
  -2   2  -1 115028. 1329.15   2
  -2   2  -2 5296.00 322.621   1
  -2   2  -2 5858.58 236.451   5
  -2   2  -2 5687.49 367.871   4
  -2   2  -2 5856.62 301.344   2
  -2   2  -2 5604.98 299.128   7
   2  -2   2 5212.51 279.096   2
   2  -2   2 5684.43 313.176   7
  -2   2  -3 19532.6 649.304   1
   2  -2   3 20776.5 565.008   2
   2  -2   3 20227.7 548.854   5
  -2   2  -3 20204.1 719.433   4
   2  -2   3 19614.1 661.501   1
  -2   2  -3 20161.4 556.629   2
   2  -2   3 20568.2 572.185   7
  -2   2  -4 4607.25 348.905   1
   2  -2   4 4757.50 268.921   7
   2  -2   4 4633.64 295.206   5
   2  -2   4 4394.22 331.906   1
  -2   2  -4 4107.97 353.957   4
  -2   2  -4 4643.75 283.908   2
   2  -2   4 4636.31 282.048   2
  -2   2  -5 759.458 121.638   2
   2  -2   5 697.683 104.290   7
  -2   2  -5 883.606 180.218   1
   2  -2   5 460.526 120.351   2
   2  -2   5 518.970 127.402   5
   2  -2   6 13462.5 519.123   3
  -2   2  -6 12413.9 670.502   1
   2  -2   6 13642.2 650.807   1
   2  -2   6 12263.2 568.344   5
  -2   2  -6 13996.3 547.308   2
  -2   2  -6 11487.7 657.297   4
   2  -2   6 12483.5 507.624   2
   2  -2   6 12678.2 383.569   7
   2  -2   7 35137.8 877.393   3
   2  -2   7 35637.1 1039.89   5
  -2   2  -7 35891.8 917.195   2
  -2   2  -7 36059.8 1229.51   4
   2  -2   7 36557.0 903.282   2
   2  -2   7 38501.3 1158.67   1
  -2   2  -7 34597.2 1185.15   1
   2  -2   7 34351.0 490.811   7
   2  -2   7 35560.8 543.398   7
   2  -2   8 14964.2 605.718   3
  -2   2  -8 14350.1 814.278   1
   2  -2   8 15003.2 724.456   5
  -2   2  -8 15648.8 845.676   4
   2  -2   8 16750.9 646.171   2
   2  -2   9 21324.8 920.365   5
   2  -2   9 22930.9 783.167   3
  -2   2  -9 22258.2 1056.20   4
   2  -2   9 22323.9 789.248   2
   2  -2  10 1736.54 241.501   3
   2  -2  10 1673.57 242.347   2
   2  -2  10 1548.47 285.744   5
  -2   2 -10 1211.10 296.276   4
   2  -2  11 12310.8 797.599   5
  -2   2 -11 12124.2 864.781   4
   2  -2  11 13322.3 686.332   2
   2  -2  12 8709.33 709.544   5
  -2   2 -12 10035.7 831.656   4
   2  -2  12 9805.48 623.910   2
   2  -2  13 560.914 209.056   2
   2  -2  13 476.264 226.318   5
   2  -2  14 1152.54 266.545   2
   2  -2  14 521.404 244.137   5
   2  -2  15 877.967 351.025   5
  -2   1  16-39.1421 179.660   5
   2  -1 -15 799.016 293.067   3
  -2   1  15 1421.16 332.035   2
  -2   1  15 763.419 274.332   5
  -2   1  14 4425.48 546.978   5
   2  -1 -14 4120.65 537.861   3
   2  -1 -13 977.781 275.083   3
  -2   1  13 699.879 241.293   5
  -2   1  12 21803.3 1043.05   5
  -2   1  12 22288.7 681.399   6
   2  -1 -12 22083.3 1074.05   3
  -2   1  11 7807.53 374.309   6
  -2   1  11 7922.43 603.262   5
   2  -1 -11 8274.08 635.311   3
   2  -1 -11 8034.41 570.814   7
   2  -1 -10 446.168 131.205   7
  -2   1  10 440.097 94.9948   6
  -2   1  10 762.804 192.750   5
   2  -1 -10 609.273 212.098   3
   2  -1  -9 9582.69 593.481   3
  -2   1   9 8983.48 328.330   6
  -2   1   9 9518.21 570.485   5
  -2   1   9 9381.31 606.439   4
   2  -1  -9 9597.45 569.289   7
  -2   1   8 11911.4 324.547   6
  -2   1   8 12855.4 616.414   5
   2  -1  -8 12956.4 633.833   7
  -2   1   8 11953.1 629.006   4
   2  -1  -8 12918.7 655.533   3
  -2   1   7 3225.74 302.880   3
  -2   1   7 3065.40 287.000   7
  -2   1   7 3218.16 310.131   4
   2  -1  -7 3408.06 317.397   7
  -2   1   6 7472.35 393.600   5
   2  -1  -6 7342.09 440.830   7
  -2   1   6 7661.52 429.713   4
  -2   1   6 8148.19 443.235   7
  -2   1   6 7413.95 415.220   3
  -2   1   5 5801.25 344.917   3
  -2   1   5 5476.31 307.251   5
  -2   1   5 5515.67 358.065   7
   2  -1  -5 5772.52 372.664   7
  -2   1   4 73984.6 1242.88   7
   2  -1  -4 72453.4 1171.47   3
  -2   1   4 73727.3 1131.55   3
  -2   1   4 73066.9 976.163   5
   2  -1  -4 74324.8 1272.74   7
  -2   1   3 8542.77 359.475   3
  -2   1   3 8414.06 285.276   5
   2  -1  -3 8947.43 385.054   3
   2  -1  -3 9333.16 436.884   7
  -2   1   2 20480.0 350.791   5
  -2   1   2 20727.1 512.976   3
   2  -1  -2 20420.2 525.106   3
   2  -1  -2 20511.8 612.739   7
   2  -1  -1 61769.3 1027.23   7
  -2   1   1 62143.1 810.819   3
   2  -1  -1 61857.8 819.314   3
  -2   1   0 43080.4 640.044   3
   2  -1   0 43219.8 617.357   3
   2  -1   0 42383.6 822.219   7
  -2   1   0 43641.8 686.546   2
  -2   1  -1 24519.8 510.962   2
  -2   1  -1 24363.5 573.500   4
  -2   1  -1 24009.9 673.131   1
   2  -1   1 24672.5 432.084   3
   2  -1   1 25601.2 617.946   7
   2  -1   2 83171.7 1070.94   7
   2  -1   2 82815.8 789.805   5
  -2   1  -2 81739.2 1244.34   1
  -2   1  -2 80986.6 1149.58   4
  -2   1  -2 82305.7 921.454   2
   2  -1   2 82990.3 783.601   3
   2  -1   2 84941.9 878.163   2
  -2   1  -3 36722.7 875.622   1
   2  -1   3 35738.3 622.917   5
  -2   1  -3 35802.4 832.077   4
  -2   1  -3 36217.8 614.565   2
   2  -1   3 34770.1 597.413   2
   2  -1   3 36890.1 688.055   7
  -2   1  -4 45032.4 1049.04   1
   2  -1   4 46420.2 819.959   5
   2  -1   4 46854.2 1045.54   1
  -2   1  -4 46028.1 741.969   2
  -2   1  -4 47817.7 1052.03   4
   2  -1   4 44897.0 718.183   2
   2  -1   4 46293.0 742.547   7
   2  -1   5 33267.5 632.461   3
  -2   1  -5 31784.8 950.764   1
   2  -1   5 33270.0 777.083   5
  -2   1  -5 33296.0 678.530   2
   2  -1   5 33258.8 999.132   4
  -2   1  -5 32320.6 942.552   4
   2  -1   5 32571.4 650.147   2
   2  -1   5 32792.7 597.573   7
  -2   1  -6 940.944 200.077   1
   2  -1   6 772.165 118.214   2
   2  -1   6 745.024 89.5699   7
   2  -1   6 655.570 109.570   3
   2  -1   6 647.443 139.511   5
   2  -1   6 790.630 176.362   1
  -2   1  -6 799.863 123.518   2
   2  -1   6 595.595 160.748   4
  -2   1  -6 812.875 176.589   4
   2  -1   7 2828.09 227.391   2
   2  -1   7 2744.34 316.735   1
   2  -1   7 2720.30 150.096   7
   2  -1   7 2918.43 282.889   5
   2  -1   7 2877.11 353.925   4
  -2   1  -7 3120.10 341.269   4
   2  -1   7 2798.08 160.301   7
   2  -1   7 2814.47 221.905   3
  -2   1  -7 2260.59 315.374   1
   2  -1   8 22715.2 830.926   5
  -2   1  -8 21613.1 928.716   4
   2  -1   8 23273.0 688.610   2
   2  -1   8 20942.7 348.747   7
  -2   1  -8 22418.0 993.961   1
   2  -1   8 20215.8 328.691   7
   2  -1   8 22972.9 657.016   3
   2  -1   9 1620.69 197.570   3
   2  -1   9 1530.68 251.849   5
   2  -1   9 1690.82 217.617   2
  -2   1  -9 1462.86 289.893   1
  -2   1  -9 1607.21 290.230   4
   2  -1  10 30050.1 1099.30   5
   2  -1  10 29294.6 886.974   2
  -2   1 -10 28361.5 1196.01   4
   2  -1  10 29039.3 835.146   3
   2  -1  11 3364.53 410.923   5
   2  -1  11 3441.05 311.335   3
   2  -1  11 3677.28 345.619   2
   2  -1  12 9176.90 692.267   5
   2  -1  12 8314.72 538.559   2
   2  -1  13 8404.50 691.647   5
   2  -1  13 9610.46 607.978   2
   2  -1  14 81.7057 151.419   2
   2  -1  14 175.865 174.315   5
   2  -1  15 388.444 224.158   5
   2   0 -15-299.999 172.967   3
  -2   0  15 338.077 258.876   5
  -2   0  15 340.785 197.965   2
   2   0 -14 5881.12 633.346   3
  -2   0  14 6066.36 650.925   5
  -2   0  14 5389.50 584.117   2
  -2   0  13 654.924 225.349   2
   2   0 -13 834.792 261.398   3
  -2   0  13 1330.23 320.719   5
   2   0 -12 1056.50 204.752   7
   2   0 -12 988.592 274.525   3
  -2   0  12 1146.57 273.228   5
   2   0 -11 45676.6 1475.07   3
  -2   0  11 43241.8 1437.29   5
   2   0 -11 40978.0 1191.33   7
   2   0 -10 7627.83 590.427   3
  -2   0  10 7317.76 563.602   5
   2   0 -10 6981.05 480.054   7
   2   0  -9 6521.30 512.960   3
   2   0  -9 6271.96 429.456   7
  -2   0   9 7056.21 516.711   5
  -2   0   9 6273.28 513.488   4
   2   0  -8-73.3186 83.7821   7
  -2   0   8-130.933 104.670   5
   2   0  -8-87.0052 126.853   3
  -2   0   8-302.969 147.054   4
   2   0  -7 683.523 141.381   7
  -2   0   7 597.538 147.041   3
   2   0  -7 730.187 164.798   3
  -2   0   7 593.897 142.156   5
  -2   0   7 672.695 155.395   4
  -2   0   6 2410.05 253.269   4
  -2   0   6 2327.07 250.561   3
   2   0  -6 2371.39 233.975   7
  -2   0   5 8697.54 418.950   5
  -2   0   5 8151.10 421.603   3
  -2   0   5 9414.53 433.464   4
   2   0  -5 8193.08 413.054   7
   2   0  -4 1618.44 181.524   7
  -2   0   4 1483.26 164.347   5
  -2   0   4 1744.50 168.037   4
  -2   0   4 1809.41 191.435   3
   2   0  -4 1727.09 199.406   3
   2   0  -3 134430. 1552.83   7
  -2   0   3 132978. 1441.83   3
  -2   0   3 137366. 1317.51   5
  -2   0   3 135281. 1201.39   4
   2   0  -3 134503. 1503.39   3
  -2   0   2 58361.8 734.521   5
   2   0  -2 58162.7 664.895   5
  -2   0   2 58787.0 869.153   3
   2   0  -2 57545.0 988.754   7
   2   0  -2 58114.3 898.939   3
   2   0  -1 87456.6 1194.02   7
   2   0  -1 87252.9 855.411   6
  -2   0   1 85840.5 931.050   3
   2   0  -1 85635.6 966.202   3
  -2   0   0 202224. 1221.06   3
   2   0   0 202054. 1467.23   6
   2   0   0 200221. 1283.03   3
  -2   0  -1 84730.8 759.382   4
  -2   0  -1 83561.1 659.342   3
   2   0   1 84508.4 695.330   3
  -2   0  -1 83031.1 737.692   2
   2   0   2 109.246 27.7652   3
  -2   0  -2 120.517 47.1096   2
   2   0   2 180.473 63.0802   4
  -2   0  -2 138.297 119.201   1
  -2   0  -2 191.158 65.8289   4
  -2   0  -3 84980.8 1316.33   1
  -2   0  -3 83872.5 1102.35   4
  -2   0  -3 83980.1 675.475   2
   2   0   3 84683.5 481.740   3
   2   0   3 84345.1 634.898   2
   2   0   4 8425.90 204.884   3
  -2   0  -4 9503.11 254.727   2
   2   0   4 10081.9 457.486   4
  -2   0  -4 9705.88 429.278   4
   2   0   4 9486.27 242.857   2
  -2   0  -4 9340.27 474.948   1
  -2   0  -5 27611.3 868.091   1
   2   0   5 28689.4 848.716   4
  -2   0  -5 26886.9 783.141   4
   2   0   5 27949.4 475.915   2
   2   0   5 26589.3 426.232   3
  -2   0  -6 1771.35 256.489   1
   2   0   6 1423.52 173.297   5
   2   0   6 1508.75 146.117   7
  -2   0  -6 1599.10 223.095   4
   2   0   6 1636.57 137.292   2
   2   0   6 1814.66 244.250   4
   2   0   6 1529.94 123.054   3
  -2   0  -7 1100.57 219.762   1
   2   0   7 1284.43 130.250   3
   2   0   7 1354.00 186.776   5
   2   0   7 1229.05 137.017   2
   2   0   7 1421.32 227.408   4
   2   0   7 1415.64 140.969   7
   2   0   8 297.110 80.7525   3
   2   0   8 378.638 159.928   1
   2   0   8 335.787 90.9061   2
   2   0   8 324.964 73.2371   7
   2   0   8 488.285 132.236   5
   2   0   8 379.074 159.847   4
  -2   0  -8 362.000 170.329   1
   2   0   9 16411.1 409.961   7
   2   0   9 16481.5 723.980   5
   2   0   9 18082.1 599.419   2
  -2   0  -9 17061.2 906.116   1
   2   0   9 16988.6 536.446   3
   2   0  10 1164.38 181.097   2
   2   0  10 969.516 146.578   3
   2   0  10 762.410 200.356   5
   2   0  10 930.975 70.7443   7
   2   0  10 909.112 61.7263   7
   2   0  11 29525.9 1103.51   5
   2   0  11 28217.5 805.999   3
   2   0  11 28177.8 864.542   2
   2   0  12 1850.90 251.433   2
   2   0  12 1827.09 251.077   3
   2   0  12 2237.39 353.460   5
   2   0  13 12.1817 110.623   2
   2   0  13-198.911 152.522   5
   2   0  14 8728.65 725.292   5
   2   0  14 8940.81 588.415   2
   2   0  15 6473.20 519.581   2
   2   0  15 7021.40 706.189   5
   2   0  16 323.365 242.899   5
  -2  -1  15 121.331 195.508   2
   2   1 -15 552.011 245.713   3
  -2  -1  15 60.1695 206.944   5
  -2  -1  14 1276.13 298.902   2
   2   1 -14 693.485 311.369   3
  -2  -1  14 1232.89 349.010   5
  -2  -1  13 7911.27 731.990   5
  -2  -1  13 6789.21 638.804   2
   2   1 -13 7202.95 684.716   3
   2   1 -12 4095.45 473.885   3
  -2  -1  12 4188.48 519.782   5
  -2  -1  12 4271.09 493.917   2
  -2  -1  11 1749.59 331.228   2
   2   1 -11 1509.06 225.300   7
   2   1 -11 1386.34 314.539   3
  -2  -1  11 1243.67 278.676   5
   2   1 -10 30398.2 1168.34   3
  -2  -1  10 29452.9 1172.93   5
  -2  -1  10 30635.6 1169.22   2
   2   1 -10 29413.3 914.242   7
   2   1  -9 5932.52 513.181   3
  -2  -1   9 5818.72 523.910   4
  -2  -1   9 6335.37 521.373   5
   2   1  -9 6073.74 405.630   7
  -2  -1   9 5338.28 471.973   2
   2   1  -8 8125.68 548.115   3
  -2  -1   8 8082.73 549.941   5
  -2  -1   8 7837.77 551.005   4
   2   1  -8 8639.18 459.046   7
   2   1  -7 871.079 154.116   7
  -2  -1   7 1088.29 198.210   3
   2   1  -7 615.790 159.484   3
  -2  -1   7 779.803 176.482   5
  -2  -1   7 819.842 185.188   4
   2   1  -6 2368.53 230.531   7
   2   1  -6 2248.08 239.941   5
  -2  -1   6 2424.57 268.775   4
  -2  -1   6 2084.30 243.794   3
   2   1  -5 1887.37 202.020   7
   2   1  -5 1694.78 198.205   5
  -2  -1   5 1677.46 216.607   5
  -2  -1   5 1871.58 214.349   4
  -2  -1   5 1622.04 204.575   3
   2   1  -4 47592.8 1028.62   3
   2   1  -4 48266.9 960.186   7
   2   1  -4 47867.6 918.760   5
  -2  -1   4 48091.2 992.492   5
  -2  -1   4 46597.1 888.260   4
  -2  -1   4 46782.0 972.275   3
   2   1  -3 75774.4 1195.78   3
   2   1  -3 71677.9 1035.82   5
  -2  -1   3 73529.4 1119.21   5
  -2  -1   3 72435.1 951.936   4
  -2  -1   3 73655.1 1130.34   3
   2   1  -2 61669.1 986.781   3
   2   1  -2 63448.5 900.930   5
  -2  -1   2 60750.2 941.159   3
   2   1  -1 15664.8 415.553   5
  -2  -1   1 14454.0 395.705   6
   2   1  -1 14792.1 435.881   3
  -2  -1   1 16126.9 435.542   3
  -2  -1   0 73398.8 932.812   6
   2   1   0 76109.8 856.872   3
  -2  -1   0 74406.3 806.865   3
   2   1   1 120474. 1349.29   6
   2   1   1 121575. 891.477   3
  -2  -1  -1 120877. 836.312   3
  -2  -1  -2 66185.6 1123.54   1
   2   1   2 67744.3 762.645   4
  -2  -1  -3 28992.8 760.112   1
   2   1   3 29175.9 611.589   4
   2   1   4 120760. 1393.54   7
  -2  -1  -4 119199. 1621.71   1
   2   1   4 122962. 1452.51   4
  -2  -1  -5 3371.26 308.263   1
   2   1   5 3529.30 241.515   7
   2   1   5 3600.83 283.946   4
   2   1   5 3185.87 110.985   2
   2   1   5 3477.88 101.924   3
  -2  -1  -6 18593.4 756.268   1
   2   1   6 17344.7 535.082   7
   2   1   6 17541.0 313.206   3
   2   1   6 17021.7 349.827   2
   2   1   6 17592.6 683.368   4
  -2  -1  -7 1189.44 122.458   3
   2   1   7 1224.43 151.762   7
  -2  -1  -7 1388.38 241.453   1
   2   1   7 1328.09 123.958   2
   2   1   7 1201.87 202.771   4
   2   1   7 1088.13 101.373   3
   2   1   8 444.310 96.8965   2
  -2  -1  -8 346.855 89.2635   3
   2   1   8 416.659 166.406   4
   2   1   8 591.858 88.1395   3
   2   1   8 433.459 110.032   7
  -2  -1  -8 772.001 223.220   1
   2   1   9 722.815 129.198   7
  -2  -1  -9 607.017 117.742   3
  -2  -1  -9 509.356 188.495   1
   2   1   9 647.715 123.730   2
   2   1   9 606.996 108.877   3
   2   1  10 84.2126 85.2305   2
   2   1  10 166.007 132.982   5
   2   1  10 160.492 87.2884   7
  -2  -1 -10 33.8424 74.6198   3
  -2  -1 -10 273.432 166.916   1
   2   1  10 24.8275 59.5448   3
   2   1  11 2026.18 299.361   5
   2   1  11 1712.03 192.736   3
   2   1  11 1711.99 212.543   2
   2   1  11 2052.26 180.894   7
   2   1  12 70648.6 849.279   7
   2   1  12 71331.8 1250.44   3
   2   1  12 72696.6 1770.83   5
   2   1  12 73927.4 1400.34   2
   2   1  13 872.685 184.775   2
   2   1  13 1340.40 287.663   5
   2   1  14 133.631 124.929   2
   2   1  14 150.635 144.592   5
   2   1  15 6230.31 650.318   6
   2   1  15 5554.68 597.804   5
   2   1  15 7090.85 516.814   2
   2   1  16-370.566 252.456   6
   2   1  16-120.707 125.376   5
   2   1  17-66.8920 209.545   6
  -2  -2  14-180.346 210.557   5
  -2  -2  14 263.809 218.851   2
  -2  -2  13-50.0376 118.834   2
   2   2 -13-213.451 220.949   3
  -2  -2  13 251.543 203.682   5
  -2  -2  12 6851.07 675.817   5
  -2  -2  12 6594.00 627.323   2
   2   2 -12 6460.41 623.743   3
  -2  -2  11 6317.48 614.039   5
  -2  -2  11 5416.88 553.224   2
   2   2 -11 6272.55 595.366   3
   2   2 -10 6213.51 562.631   3
  -2  -2  10 6386.73 593.703   5
   2   2 -10 5770.65 391.565   7
  -2  -2  10 6402.83 573.145   2
   2   2  -9 37161.4 1273.45   3
  -2  -2   9 38324.5 1332.10   5
  -2  -2   9 39186.5 1307.35   2
   2   2  -9 39888.3 978.752   7
  -2  -2   8 509.705 192.495   2
   2   2  -8 455.469 176.232   3
  -2  -2   8 240.159 150.899   5
  -2  -2   8 627.931 197.557   4
   2   2  -8 537.720 124.660   7
   2   2  -7 30013.8 961.541   5
  -2  -2   7 29701.5 1047.26   5
  -2  -2   7 29359.1 1023.66   2
  -2  -2   7 28526.3 1015.73   4
   2   2  -7 29271.4 970.552   4
   2   2  -7 27426.2 983.624   3
   2   2  -7 28398.7 790.501   7
   2   2  -6 19191.8 783.048   3
   2   2  -6 18062.0 620.794   7
   2   2  -6 18309.4 718.194   5
  -2  -2   6 17915.2 749.354   4
  -2  -2   6 18968.7 746.972   3
   2   2  -5 6697.63 417.473   5
  -2  -2   5 6865.68 429.071   4
   2   2  -5 6656.57 399.855   4
  -2  -2   5 6591.29 424.228   3
   2   2  -4 101514. 1582.77   3
   2   2  -4 101479. 1524.81   5
   2   2  -4 103921. 1426.08   4
  -2  -2   4 102675. 1546.43   3
   2   2  -3 47896.7 1014.56   3
   2   2  -3 50739.6 1020.61   5
   2   2  -3 50501.3 896.438   4
  -2  -2   3 51394.8 1027.73   3
   2   2  -2 19257.3 601.865   5
  -2  -2   2 18248.4 584.622   2
   2   2  -2 19211.5 487.256   4
   2   2  -2 18299.2 581.085   3
  -2  -2   2 19596.2 589.883   3
  -2  -2   1 102911. 1244.08   3
   2   2  -1 106447. 1325.14   5
  -2  -2   1 105581. 1267.63   2
   2   2  -1 104423. 1010.30   4
  -2  -2   0 51945.9 944.795   6
  -2  -2   0 54216.6 813.212   3
  -2  -2   0 52414.7 807.850   2
  -2  -2  -1 21073.3 450.001   3
  -2  -2  -1 20768.9 596.466   6
  -2  -2  -1 20947.8 438.865   2
  -2  -2  -2 106780. 874.569   3
  -2  -2  -2 105080. 1377.87   6
  -2  -2  -2 108138. 1444.52   1
  -2  -2  -2 106283. 802.945   2
  -2  -2  -3 43531.9 924.580   1
   2   2   3 42578.7 902.057   7
   2   2   4 26129.0 710.767   7
  -2  -2  -4 27359.0 773.456   1
  -2  -2  -4 26034.6 292.457   3
  -2  -2  -5 52854.1 1161.40   1
   2   2   5 51077.2 1015.22   7
  -2  -2  -5 49024.8 487.383   3
  -2  -2  -6 3422.28 339.815   1
  -2  -2  -6 3551.92 161.608   3
   2   2   6 3591.58 306.791   4
   2   2   6 3459.99 156.897   3
   2   2   6 3307.41 127.410   2
   2   2   6 3403.97 277.471   7
  -2  -2  -7 1764.25 279.546   1
   2   2   7 1858.25 130.922   2
   2   2   7 2019.11 254.171   4
   2   2   7 1865.15 219.558   7
   2   2   7 1979.62 135.314   3
  -2  -2  -7 1615.28 132.262   3
   2   2   8 4643.72 339.185   7
   2   2   8 5197.91 432.903   6
   2   2   8 4784.97 419.874   1
   2   2   8 4596.52 233.424   2
   2   2   8 5313.62 427.902   4
   2   2   8 4606.21 219.859   3
  -2  -2  -8 4429.21 440.638   1
  -2  -2  -8 4118.82 235.506   3
  -2  -2  -9 51582.5 907.901   3
   2   2   9 53859.1 1426.07   6
   2   2   9 50275.6 1099.87   7
   2   2   9 50521.6 864.726   2
   2   2   9 52596.1 1440.11   4
   2   2   9 51477.0 797.969   3
  -2  -2  -9 50673.4 1520.45   1
   2   2  10 867.566 167.995   7
   2   2  10 996.029 130.674   3
   2   2  10 1128.46 244.628   6
  -2  -2 -10 859.941 143.309   3
   2   2  10 828.576 135.304   2
  -2  -2 -10 592.828 211.034   1
   2   2  11 99.0817 93.6762   7
   2   2  11 127.531 78.3171   3
   2   2  11 247.845 161.730   6
   2   2  11 23.6458 55.9329   2
   2   2  12 696.131 132.803   3
   2   2  12 971.878 260.146   6
  -2  -2 -12 638.035 160.358   3
   2   2  12 581.041 128.365   7
   2   2  12 671.504 156.742   2
  -2  -2 -13 12926.2 623.410   3
   2   2  13 11742.8 489.143   7
   2   2  13 12535.0 832.505   6
   2   2  13 11805.0 751.832   5
   2   2  13 11792.7 577.579   2
   2   2  13 12868.3 548.857   3
   2   2  14 915.301 272.268   6
  -2  -2 -14 723.214 188.341   3
   2   2  14 800.696 246.169   5
   2   2  14 964.271 201.524   2
  -2  -2 -15 4669.74 434.876   3
   2   2  15 4196.16 540.712   6
   2   2  15 3683.99 484.726   5
   2   2  15 4224.38 389.744   2
   2   2  16 4966.33 593.915   6
   2   2  16 3591.28 507.053   5
   2   2  17-249.259 187.626   6
  -2  -3  13 1790.07 385.098   2
  -2  -3  13 1673.41 391.389   5
  -2  -3  12-218.553 154.423   2
  -2  -3  12-175.692 174.863   5
  -2  -3  11 2826.74 412.492   2
  -2  -3  11 2235.89 409.845   5
  -2  -3  10 19557.5 1057.85   5
  -2  -3  10 17817.0 960.881   2
   2   3 -10 17454.2 651.519   7
  -2  -3   9 39.9362 127.744   2
  -2  -3   9 231.576 192.403   5
   2   3  -9 176.077 77.9471   7
   2   3  -9 418.239 198.421   4
   2   3  -8 14980.0 593.888   7
  -2  -3   8 14714.4 831.447   5
  -2  -3   8 14875.3 803.615   2
   2   3  -8 15630.8 805.665   4
   2   3  -7 59034.1 1153.40   7
  -2  -3   7 54860.1 1518.16   5
  -2  -3   7 57735.5 1498.98   2
   2   3  -7 57243.3 1443.07   4
   2   3  -6 32635.4 1046.25   5
  -2  -3   6 33230.5 1120.72   5
  -2  -3   6 33289.8 1084.49   2
   2   3  -6 32773.5 1033.50   4
  -2  -3   5 5411.08 434.448   5
  -2  -3   5 5479.97 407.483   3
   2   3  -5 5585.52 423.793   5
   2   3  -4 71.4559 102.947   5
   2   3  -4 55.7661 68.8855   4
  -2  -3   3 179.712 102.835   3
   2   3  -3 18.9474 72.8703   5
   2   3  -3 123.474 71.7442   4
  -2  -3   2 12906.7 531.802   3
   2   3  -2 12964.1 500.319   4
  -2  -3   2 12684.4 533.400   2
   2   3  -2 12989.0 559.740   5
  -2  -3   1 4954.54 310.751   3
  -2  -3   1 4920.47 307.071   2
  -2  -3   0 100224. 1282.93   3
   2   3   0 101732. 1257.86   2
  -2  -3   0 97164.2 1239.52   2
   2   3   1 29295.1 617.603   2
  -2  -3  -1 28762.7 614.702   2
  -2  -3  -2 52283.7 1099.04   6
   2   3   2 53253.5 757.614   2
  -2  -3  -2 53558.1 1019.08   1
  -2  -3  -2 55821.2 752.710   2
  -2  -3  -3 88961.8 1435.28   6
  -2  -3  -3 91624.3 1333.23   1
   2   3   3 89418.8 878.618   2
  -2  -3  -3 89578.7 860.506   2
   2   3   4 4671.48 342.891   7
  -2  -3  -4 4816.50 348.374   6
  -2  -3  -4 5010.38 342.535   1
   2   3   4 4681.10 337.464   1
   2   3   4 4524.52 185.410   2
  -2  -3  -4 4725.41 203.817   3
  -2  -3  -4 5061.20 178.025   2
  -2  -3  -5 2229.29 255.156   1
   2   3   5 2763.56 284.818   1
   2   3   5 2303.50 130.750   2
  -2  -3  -5 2504.26 140.185   3
   2   3   5 2387.92 255.681   7
  -2  -3  -6 302743. 2955.35   1
   2   3   6 301059. 2863.82   7
   2   3   6 306885. 2861.27   1
   2   3   6 301634. 1532.24   2
  -2  -3  -6 304265. 2663.02   7
  -2  -3  -6 303292. 1601.90   3
  -2  -3  -7 3091.06 347.664   1
   2   3   7 2855.90 317.367   1
  -2  -3  -7 2926.54 275.874   7
   2   3   7 2922.67 300.522   7
   2   3   7 2991.70 171.858   2
  -2  -3  -7 2886.89 187.181   3
   2   3   8 2739.61 339.857   6
   2   3   8 2529.79 316.168   1
  -2  -3  -8 2409.29 250.225   7
   2   3   8 2768.89 194.618   3
   2   3   8 2414.76 273.847   7
  -2  -3  -8 2782.50 199.838   3
   2   3   8 2814.66 175.638   2
  -2  -3  -8 2458.64 330.068   1
  -2  -3  -9 1849.63 232.554   7
   2   3   9 1807.24 259.630   7
   2   3   9 1745.95 282.046   6
  -2  -3  -9 2239.65 344.843   1
   2   3   9 2071.77 301.996   4
   2   3   9 1904.06 182.194   3
  -2  -3  -9 1994.40 191.997   3
   2   3  10 695.399 129.048   3
   2   3  10 925.178 253.144   6
  -2  -3 -10 566.203 115.642   3
   2   3  10 898.338 199.083   7
  -2  -3 -10 1051.57 274.010   1
  -2  -3 -10 672.588 140.423   7
   2   3  11 1132.39 160.464   3
   2   3  11 917.670 198.661   7
   2   3  11 803.457 220.401   6
   2   3  12 7061.38 611.378   6
   2   3  12 7412.92 424.545   2
   2   3  12 7555.35 402.822   3
   2   3  12 6941.16 476.640   7
  -2  -3 -12 7246.05 435.074   3
   2   3  13 35.0969 99.1906   7
   2   3  13-138.624 95.4523   2
   2   3  13 23.0333 170.111   6
  -2  -3 -13 139.417 111.236   3
   2   3  13 75.2843 109.306   3
   2   3  14 9277.66 523.267   7
   2   3  14 8245.79 709.795   6
  -2  -3 -14 8723.89 539.798   3
   2   3  14 8887.51 525.247   2
   2   3  15 605.591 178.690   2
   2   3  15 756.530 257.367   6
   2   3  15 788.250 254.141   5
  -2  -3 -15 165.122 159.193   3
   2   3  16 2207.16 444.437   6
   2   3  16 2142.44 376.173   5
   2   3  17 6187.57 716.768   6
  -2  -4  13 306.705 240.760   2
  -2  -4  13 95.7342 195.100   5
  -2  -4  12 396.635 184.441   2
  -2  -4  12-20.5279 199.886   5
  -2  -4  11 2621.65 401.604   2
  -2  -4  11 3855.37 555.121   5
   2   4 -11 3635.27 506.139   4
  -2  -4  10 38779.1 1558.67   5
  -2  -4  10 42590.9 1524.20   2
   2   4 -10 41337.4 1524.19   4
  -2  -4   9 20335.3 1083.88   5
  -2  -4   9 21700.5 1048.00   2
   2   4  -9 21534.0 1054.99   4
   2   4  -9 20523.7 698.737   7
   2   4  -8 234.857 104.099   7
  -2  -4   8 198.960 149.058   5
   2   4  -8-40.3252 154.296   4
  -2  -4   8 72.7060 146.863   2
  -2  -4   7 25179.0 1040.35   2
   2   4  -7 25710.7 1057.29   4
  -2  -4   6 716.125 211.449   2
   2   4  -6 508.484 185.607   4
  -2  -4   5 12528.2 672.387   2
   2   4  -5 12071.7 658.093   4
  -2  -4   4 222.189 125.818   2
  -2  -4   4 427.577 132.591   3
   2   4  -4 336.839 130.917   5
  -2  -4   3 887.189 185.710   2
  -2  -4   3 1265.12 197.374   3
   2   4  -3 1088.27 209.253   5
   2   4  -3 1042.45 181.948   4
   2   4  -2 1227.91 200.415   2
   2   4  -2 1776.36 242.336   5
  -2  -4   2 1495.56 211.385   3
  -2  -4   1 17735.4 647.659   3
   2   4  -1 16963.4 623.185   2
  -2  -4   0 1106.49 161.582   2
   2   4   0 1449.40 185.143   2
   2   4   1 164479. 1703.47   2
  -2  -4  -1 168399. 1705.34   2
  -2  -4  -2 2667.07 253.664   1
   2   4   2 2663.15 212.813   2
  -2  -4  -2 2667.95 211.630   2
  -2  -4  -3 82824.7 1557.47   6
  -2  -4  -3 84554.1 1282.52   1
   2   4   3 85315.4 1085.27   2
  -2  -4  -3 86747.8 1502.24   7
  -2  -4  -4 70683.1 1230.06   1
  -2  -4  -4 70033.8 1422.60   6
  -2  -4  -4 74471.0 1404.26   7
   2   4   4 71274.1 943.035   2
  -2  -4  -4 71963.0 912.807   2
  -2  -4  -5 11576.1 542.625   1
  -2  -4  -5 11485.1 585.759   6
  -2  -4  -5 11497.2 561.404   7
   2   4   5 10792.2 588.096   7
   2   4   5 11063.3 530.401   1
   2   4   5 11056.3 361.201   2
  -2  -4  -5 11834.8 381.846   3
  -2  -4  -6 5435.69 414.483   1
  -2  -4  -6 5881.60 429.879   6
   2   4   6 5269.25 383.355   1
   2   4   6 5719.04 266.211   2
  -2  -4  -6 5357.23 255.236   3
  -2  -4  -6 5647.58 400.542   7
   2   4   6 6178.88 461.557   7
  -2  -4  -7 21567.2 871.968   1
  -2  -4  -7 19696.5 502.683   3
   2   4   7 20307.5 784.605   1
   2   4   7 20794.3 519.835   2
  -2  -4  -7 20729.1 778.985   7
   2   4   7 19968.6 829.479   7
  -2  -4  -8 1991.26 301.459   1
   2   4   8 1926.44 172.509   2
  -2  -4  -8 1877.40 237.840   7
   2   4   8 2207.97 327.278   6
  -2  -4  -8 1776.51 168.375   3
   2   4   8 1804.99 261.670   1
   2   4   8 2061.48 294.392   7
  -2  -4  -9 3946.25 444.359   1
  -2  -4  -9 4172.52 375.022   7
  -2  -4  -9 3956.25 265.294   3
   2   4   9 4186.86 443.905   6
   2   4   9 3878.93 247.653   2
   2   4   9 4232.76 407.656   7
  -2  -4 -10 386.422 119.855   7
   2   4  10 247.327 153.314   7
   2   4  10 796.730 224.815   6
  -2  -4 -10 536.305 221.221   1
   2   4  10 328.042 92.8177   2
   2   4  10 288.717 110.382   3
  -2  -4 -11 1487.42 235.056   7
   2   4  11 1532.78 210.148   3
   2   4  11 1184.12 244.907   7
   2   4  11 1393.95 311.243   6
   2   4  11 1703.10 184.404   2
  -2  -4 -12 1.91810 102.963   7
   2   4  12-90.1728 89.5014   3
   2   4  12 30.4792 158.841   6
  -2  -4 -12-74.4808 97.0995   3
   2   4  12 106.563 112.896   7
   2   4  12 70.2457 60.6519   2
   2   4  13 5191.98 571.767   6
  -2  -4 -13 5238.74 429.399   7
   2   4  13 4642.98 443.065   7
  -2  -4 -13 4720.31 377.310   3
   2   4  14 2178.77 298.460   7
   2   4  14 2018.79 394.184   6
  -2  -4 -14 1874.44 276.347   3
  -2  -4 -15 5126.26 437.834   3
   2   4  15 5774.74 641.883   6
   2   4  15 5901.45 466.415   2
   2   4  16 11.9774 170.988   6
   2   4  17 1456.03 349.141   6
  -2  -5  12-218.480 243.499   2
   2   5 -12 129.109 159.681   4
  -2  -5  11 73.9107 181.478   2
   2   5 -11 148.441 179.219   4
  -2  -5  10 1215.10 317.870   2
   2   5 -10 1130.14 305.432   4
  -2  -5   9 6007.07 601.244   2
   2   5  -9 5211.32 574.340   4
   2   5  -9 5665.11 429.795   7
  -2  -5   8 9456.80 706.753   2
   2   5  -8 10426.5 765.086   4
   2   5  -8 9207.56 548.666   7
   2   5  -7 4646.08 392.623   7
   2   5  -7 3953.03 466.984   4
  -2  -5   7 4216.08 464.501   2
   2   5  -6 32168.1 1212.04   4
  -2  -5   6 33701.5 1213.28   2
   2   5  -6 31889.0 1010.34   7
   2   5  -5 2065.15 261.677   7
  -2  -5   5 2198.46 314.097   2
   2   5  -5 2275.41 321.064   4
   2   5  -4 10902.8 593.269   7
   2   5  -4 9245.99 608.223   4
  -2  -5   4 10544.9 624.430   2
   2   5  -3-57.4704 113.073   2
   2   5  -3-18.6604 98.7101   7
   2   5  -3-31.0732 115.985   4
  -2  -5   3-74.6981 110.334   2
   2   5  -2 8947.39 537.882   7
  -2  -5   2 8326.74 514.743   3
   2   5  -2 7902.90 538.263   5
   2   5  -2 8987.26 526.034   2
  -2  -5   2 8549.72 507.242   2
   2   5  -1 4560.65 364.619   2
  -2  -5   1 4242.45 344.235   2
   2   5  -1 3702.87 352.214   7
   2   5   0 14677.5 611.607   2
   2   5   0 14410.7 688.653   7
   2   5   1 3816.65 304.117   2
  -2  -5  -2 149209. 1691.43   1
   2   5   2 149499. 1753.72   2
  -2  -5  -2 148109. 1736.60   2
  -2  -5  -2 149226. 2128.52   7
  -2  -5  -3 6390.12 362.795   1
   2   5   3 6954.81 371.695   2
  -2  -5  -3 7291.68 379.627   2
  -2  -5  -3 6826.88 464.711   7
  -2  -5  -4 10345.9 574.316   7
  -2  -5  -4 10383.6 613.603   6
  -2  -5  -4 9930.22 465.072   1
   2   5   4 10657.3 439.357   2
  -2  -5  -4 10826.5 429.761   2
  -2  -5  -5 47412.4 1238.66   7
  -2  -5  -5 49667.8 1319.72   6
  -2  -5  -5 47551.2 1085.22   1
   2   5   5 48107.0 888.981   2
  -2  -5  -5 47555.9 916.921   3
   2   5   5 48459.7 1345.38   7
  -2  -5  -5 48939.5 855.147   2
  -2  -5  -6 4814.42 390.132   1
  -2  -5  -6 4889.16 422.380   6
   2   5   6 4317.80 356.985   1
   2   5   6 3937.56 413.603   7
   2   5   6 4523.96 281.168   2
  -2  -5  -6 4249.72 266.500   3
  -2  -5  -6 5223.49 427.206   7
  -2  -5  -7 7308.79 519.566   6
   2   5   7 7808.28 492.134   1
  -2  -5  -7 6278.09 468.264   1
   2   5   7 6877.53 347.886   2
  -2  -5  -7 6718.55 328.676   3
  -2  -5  -7 7000.76 502.363   7
   2   5   7 7002.64 536.294   7
  -2  -5  -8 15730.3 749.300   7
   2   5   8 14852.6 718.051   1
  -2  -5  -8 16263.0 797.851   1
   2   5   8 15538.7 536.313   2
   2   5   8 15160.7 805.689   7
  -2  -5  -9 87.4163 97.9572   7
   2   5   9 58.7179 94.6465   7
   2   5   9 44.9407 70.0214   2
  -2  -5  -9-45.9352 140.332   1
  -2  -5 -10 3430.09 431.859   1
   2   5  10 3160.42 271.156   2
   2   5  10 3096.96 382.884   7
   2   5  11 4320.79 313.487   2
  -2  -5 -11 4109.91 318.900   3
   2   5  11 4017.73 441.974   7
   2   5  12 925.193 236.566   7
  -2  -5 -12 1005.26 174.794   3
   2   5  12 1021.48 180.922   2
   2   5  13 5032.99 505.030   7
  -2  -5 -13 6054.41 430.768   3
   2   5  14 1690.02 304.955   7
  -2  -5 -14 1637.89 253.519   3
   2   5  15 1444.09 286.127   7
  -2  -5 -15 1386.28 242.926   3
   2   6 -12 69.9430 231.122   4
  -2  -6  11 813.553 316.515   2
   2   6 -11 631.245 246.346   4
  -2  -6  10 1124.43 313.399   2
   2   6 -10 1527.75 354.050   4
  -2  -6   9-119.348 171.151   2
   2   6  -9-216.357 129.480   4
   2   6  -8 8289.51 720.114   4
  -2  -6   8 8148.51 694.816   2
   2   6  -8 8404.57 561.400   7
   2   6  -7 5254.23 570.198   4
  -2  -6   7 6786.63 620.665   2
   2   6  -7 6161.88 484.418   7
   2   6  -6 5083.79 538.211   4
  -2  -6   6 5102.04 511.701   2
   2   6  -6 5893.80 482.623   7
   2   6  -5 41359.2 1254.82   7
   2   6  -5 39284.2 1401.28   4
  -2  -6   5 41138.8 1362.61   2
   2   6  -4 2264.80 312.675   7
  -2  -6   4 2254.24 338.521   2
   2   6  -4 2081.01 325.136   4
   2   6  -3 200.529 129.993   7
  -2  -6   3 339.925 170.053   2
   2   6  -3 351.513 177.594   4
   2   6  -2 1219.09 222.714   7
  -2  -6   2 1353.20 239.459   2
   2   6  -1 15795.3 729.469   2
  -2  -6   1 15275.9 701.080   2
   2   6  -1 14546.1 762.933   7
   2   6   0 858.158 194.853   2
  -2  -6   0 803.104 187.573   2
   2   6   0 669.130 187.985   7
   2   6   1 4978.99 389.079   2
  -2  -6  -1 4592.83 314.366   1
  -2  -6  -1 4880.06 376.810   2
   2   6   1 4048.82 415.669   7
  -2  -6  -1 5000.15 422.938   7
  -2  -6  -2 3084.50 256.925   1
   2   6   2 3503.22 377.542   7
   2   6   2 3017.69 296.923   2
  -2  -6  -2 3526.07 363.550   7
  -2  -6  -3 25216.1 696.904   1
   2   6   3 25682.7 1035.59   7
   2   6   3 26013.0 799.383   2
  -2  -6  -3 26359.7 982.354   7
  -2  -6  -4 5657.13 355.596   1
   2   6   4 5963.97 511.910   7
   2   6   4 5601.45 367.891   2
  -2  -6  -4 6692.63 504.209   7
   2   6   5 1994.72 323.115   7
  -2  -6  -5 1929.43 230.049   1
   2   6   5 1755.87 208.057   2
  -2  -6  -6 9914.75 549.748   1
   2   6   6 9634.06 522.211   1
   2   6   6 9767.10 463.626   2
   2   6   6 9517.88 669.280   7
   2   6   7 4582.58 483.366   7
   2   6   7 4312.95 375.551   1
   2   6   7 4434.26 320.430   2
  -2  -6  -7 4610.53 406.666   1
   2   6   8 86.6259 136.423   7
  -2  -6  -8 209.880 96.9803   3
  -2  -6  -8 192.083 149.834   1
   2   6   8 106.768 110.473   1
   2   6   8 359.908 121.862   2
   2   6   9 5563.52 477.232   1
  -2  -6  -9 6600.52 555.832   1
   2   6   9 5873.31 387.091   2
  -2  -6  -9 5803.72 358.992   3
   2   6   9 5499.05 542.886   7
   2   6  10 9071.04 485.092   2
  -2  -6 -10 7823.98 430.059   3
   2   6  10 7994.66 655.997   7
   2   6  11 421.365 219.236   7
  -2  -6 -11 295.183 117.880   3
   2   6  11 375.187 143.649   2
   2   6  12 3246.62 444.973   7
   2   6  12 3538.74 334.945   2
  -2  -6 -12 3240.80 305.108   3
   2   6  13 1021.71 239.331   7
  -2  -6 -13 771.627 168.870   3
   2   6  14 42.8113 122.025   7
  -2  -6 -14 131.113 136.721   3
   2   6  15 1338.07 289.842   7
  -2  -6 -15 1725.76 292.483   3
   2   7 -10 2288.70 498.302   4
  -2  -7   9 2045.55 416.650   2
   2   7  -9 1790.08 389.256   4
  -2  -7   8 932.504 294.354   2
   2   7  -8 740.609 254.523   4
   2   7  -7 6508.37 673.378   4
  -2  -7   7 7611.10 699.593   2
   2   7  -7 7788.03 592.671   7
   2   7  -6-3.25919 106.117   7
  -2  -7   6-110.005 150.116   2
   2   7  -6-37.8022 108.643   4
   2   7  -5 2001.84 324.973   7
  -2  -7   5 1594.47 320.135   2
   2   7  -5 1134.74 288.205   4
   2   7  -4 41289.2 1506.51   4
  -2  -7   4 40819.7 1375.22   2
   2   7  -4 40872.1 1364.78   7
   2   7  -3 1126.24 263.189   7
  -2  -7   3 1348.12 282.052   2
  -2  -7   2 2810.50 355.049   2
   2   7  -2 3475.19 425.306   7
   2   7  -1 1933.51 326.557   7
  -2  -7   1 1054.65 243.150   2
   2   7   0 1951.79 338.673   7
  -2  -7   0 1423.68 262.818   2
   2   7   1 670.598 213.691   7
  -2  -7  -1 644.293 194.102   2
  -2  -7  -1 776.039 142.878   1
   2   7   2 1744.53 315.686   7
   2   7   2 1522.20 235.433   2
  -2  -7  -2 1788.54 194.017   1
  -2  -7  -2 1923.10 260.308   2
   2   7   3 1266.60 282.379   7
   2   7   3 1017.17 192.753   2
  -2  -7  -3 1227.56 225.417   2
  -2  -7  -3 1058.33 147.597   1
  -2  -7  -4 6743.47 438.233   2
  -2  -7  -4 6221.83 371.021   1
   2   7   4 6574.00 442.201   2
   2   7   4 6654.95 583.650   7
  -2  -7  -5 400.958 134.010   1
   2   7   5 565.428 142.692   2
   2   7   5 844.602 255.527   7
  -2  -7  -5 450.132 145.466   2
  -2  -7  -6 1893.62 263.792   1
  -2  -7  -6 2079.18 258.120   3
   2   7   6 1984.91 351.377   7
   2   7   6 1888.05 243.770   2
  -2  -7  -6 2258.40 249.858   2
   2   7   7 41097.9 1114.56   1
   2   7   7 40007.5 1052.00   2
  -2  -7  -7 42241.5 1036.68   3
   2   7   7 41632.4 1518.84   7
  -2  -7  -7 39169.0 1129.67   1
   2   7   8-84.2824 101.205   1
  -2  -7  -8 53.6262 98.1361   3
   2   7   8 67.9325 105.469   2
  -2  -7  -8-85.4978 124.061   1
   2   7   8 214.794 196.886   7
   2   7   9 214.818 207.647   7
  -2  -7  -9 250.619 118.496   3
   2   7   9 507.816 193.243   1
   2   7   9 69.7009 128.191   2
  -2  -7  -9 263.894 147.217   1
   2   7  10 2410.20 304.156   2
   2   7  10 2315.13 401.318   7
  -2  -7 -10 2132.51 245.713   3
   2   7  11-83.4865 203.845   7
  -2  -7 -11 167.667 118.913   3
   2   7  11 402.690 169.256   2
   2   7  12 716.627 260.889   7
  -2  -7 -12 649.011 158.587   3
   2   7  13 4.56708 112.334   7
  -2  -7 -13 240.144 126.388   3
   2   7  14 1010.78 278.365   7
  -2  -7 -14 1093.75 216.485   3
   2   7  15 286.944 191.505   7
  -2  -7 -15 74.0895 57.9662   3
   2   7  16 1558.03 344.166   7
   2   8  -9 4617.21 652.583   4
  -2  -8   8 669.001 281.244   2
   2   8  -8 440.376 289.310   4
  -2  -8   7 1965.57 387.200   2
   2   8  -7 2104.28 454.740   4
   2   8  -6 7014.96 692.193   4
  -2  -8   6 6588.50 645.319   2
   2   8  -6 6753.03 592.404   7
   2   8  -5 1454.25 288.913   7
  -2  -8   5 1710.98 345.844   2
   2   8  -5 1285.13 348.163   4
   2   8  -4 931.970 249.794   7
  -2  -8   4 1183.32 281.803   2
   2   8  -4 782.236 295.096   4
  -2  -8   3 15648.5 884.425   2
   2   8  -3 16443.6 954.344   7
   2   8  -2 463.856 231.738   7
  -2  -8   2 103.831 171.485   2
   2   8  -1 2423.16 383.239   7
  -2  -8   1 2933.13 393.332   2
   2   8   0 1026.99 273.043   7
  -2  -8   0 600.840 220.409   2
  -2  -8   0 462.502 124.661   1
  -2  -8  -1 112.346 60.7604   1
  -2  -8  -1-22.5876 147.920   2
   2   8   1-136.922 153.880   7
  -2  -8  -2 524.958 102.596   1
  -2  -8  -2 537.958 199.209   2
   2   8   2 348.257 200.828   7
   2   8   3 2479.32 409.032   7
  -2  -8  -3 2176.91 208.247   1
  -2  -8  -3 2524.98 321.488   2
  -2  -8  -4 16327.5 573.651   1
  -2  -8  -4 17467.4 778.369   2
   2   8   4 16222.7 968.357   7
   2   8   5 11479.0 825.226   7
  -2  -8  -5 12947.6 643.129   2
  -2  -8  -5 12094.4 537.849   1
  -2  -8  -6 1659.35 253.522   3
   2   8   6 1964.70 371.356   7
  -2  -8  -6 1466.98 241.277   2
  -2  -8  -6 1540.36 222.402   1
  -2  -8  -7 1206.27 225.964   3
   2   8   7 877.659 281.879   7
  -2  -8  -7 943.317 194.813   1
  -2  -8  -7 808.244 168.149   2
  -2  -8  -8 3932.75 359.975   3
   2   8   8 4942.35 578.798   7
  -2  -8  -9 386.691 140.643   3
   2   8   9 465.341 255.556   7
   2   8   9 360.468 146.240   1
   2   8  10 1707.29 375.508   7
  -2  -8 -10 1414.48 228.986   3
   2   8  11 2006.11 401.705   7
  -2  -8 -11 1623.28 237.197   3
   2   8  12 201.092 189.789   7
  -2  -8 -12-15.3547 116.922   3
   2   8  13 1230.82 349.653   7
  -2  -8 -13 991.767 221.190   3
   2   8  14-45.5683 61.4715   7
  -2  -8 -14 206.973 149.299   3
   2   8  15 499.486 220.471   7
  -2  -8 -15 556.093 196.281   3
   2   8  16 699.520 239.683   7
   2   9  -7 327.458 228.669   4
  -2  -9   6 211.704 177.590   2
   2   9  -6 507.373 263.359   4
   2   9  -5 3652.76 494.401   7
  -2  -9   5 3929.21 530.072   2
   2   9  -5 3625.30 543.054   4
  -2  -9   4 1624.79 405.437   2
   2   9  -4 2214.88 396.719   7
   2   9  -4 1206.05 315.368   4
   2   9  -3 6170.75 683.989   4
  -2  -9   3 5191.45 580.241   2
   2   9  -3 5699.79 613.827   7
   2   9  -2 4606.64 567.327   7
  -2  -9   2 5459.86 553.181   2
   2   9  -1 67.4583 181.481   7
  -2  -9   1 291.372 204.999   2
   2   9   0 2982.00 487.440   7
  -2  -9   0 2333.11 395.244   2
  -2  -9  -1 15383.4 860.816   2
   2   9   1 13937.9 953.298   7
  -2  -9  -2 3259.41 400.001   2
   2   9   2 4295.20 556.430   7
  -2  -9  -3 8714.46 359.746   1
  -2  -9  -3 11227.2 712.462   2
   2   9   3 9975.53 815.412   7
   2   9   4 1498.52 368.003   7
  -2  -9  -4 1004.88 233.549   2
  -2  -9  -4 984.962 149.081   1
   2   9   5-50.1039 146.094   7
  -2  -9  -5-122.709 154.632   2
  -2  -9  -5 77.3333 81.8954   1
   2   9   6 2268.85 413.754   7
  -2  -9  -6 1372.57 253.882   3
  -2  -9  -6 1867.42 279.986   2
   2   9   7 2174.82 410.735   7
  -2  -9  -7 1415.01 252.750   2
  -2  -9  -7 1622.70 269.995   3
   2   9   8-264.897 214.887   7
  -2  -9  -8-160.101 131.881   3
   2   9   9 2841.12 461.750   7
  -2  -9  -9 3321.53 356.652   3
   2   9  10 486.098 284.276   7
  -2  -9 -10 362.907 146.197   3
   2   9  11 496.566 225.574   7
  -2  -9 -11 288.282 152.007   3
   2   9  12 310.585 298.186   7
  -2  -9 -12 411.236 145.541   3
   2   9  13 481.979 283.718   7
  -2  -9 -13-160.709 151.086   3
  -2  -9 -14 867.017 244.075   3
   2   9  14 702.663 310.791   7
   2   9  15 535.449 279.274   7
   2   9  16 5974.98 724.060   7
   2  10  -5-42.1680 178.240   4
   2  10  -4 2315.66 428.993   7
  -2 -10   4 2335.94 425.141   2
   2  10  -4 2946.30 528.923   4
   2  10  -3 2171.50 402.687   7
  -2 -10   3 1969.79 396.261   2
   2  10  -3 2281.62 485.723   4
   2  10  -2 2247.30 405.738   7
  -2 -10   2 2023.47 419.114   2
  -2 -10   1 8004.22 715.522   2
   2  10  -1 7334.26 730.614   7
  -2 -10   0 10503.9 798.848   2
   2  10   0 9807.40 853.208   7
   2  10   1 1184.57 311.373   7
  -2 -10  -1 1314.76 302.121   2
   2  10   2 801.197 287.884   7
  -2 -10  -2 904.690 252.458   2
   2  10   3 17.4868 130.348   7
  -2 -10  -3 57.6880 151.433   2
   2  10   4 84.4048 226.103   7
  -2 -10  -4 73.7817 157.767   2
   2  10   5 53.8956 196.066   7
  -2 -10  -5 342.175 185.834   2
   2  10   6-8.44696 187.018   7
  -2 -10  -6 102.396 150.252   3
  -2 -10  -6 263.075 162.273   2
  -2 -10  -7 1193.51 237.906   3
   2  10   7 767.905 288.030   7
  -2 -10  -7 1145.01 263.423   2
  -2 -10  -8 719.231 192.905   3
   2  10   8 524.936 280.432   7
   2  10   9 533.008 307.179   7
  -2 -10  -9 481.356 189.358   3
   2  10  10 1027.62 330.740   7
  -2 -10 -10 150.661 149.852   3
   2  10  11 2387.19 491.281   7
  -2 -10 -11 1775.31 298.504   3
   2  10  12 2221.42 468.675   7
  -2 -10 -12 1934.82 309.934   3
  -2 -10 -13 6305.67 543.510   3
   2  10  13 5915.81 787.899   7
  -2 -10 -14 534.907 189.608   3
   2  11  -3 11717.0 981.800   7
   2  11  -3 13189.9 1140.74   4
   2  11  -2 1066.22 305.276   7
   2  11  -1 573.525 256.204   7
  -2 -11   1 6.18398 139.518   2
   2  11   0 1585.68 376.446   7
  -2 -11   0 1405.36 379.596   2
   2  11   1 56.8873 200.471   7
  -2 -11  -1 585.814 211.586   2
   2  11   2 914.995 296.668   7
  -2 -11  -2 761.751 231.778   2
   2  11   3-51.7776 213.687   7
  -2 -11  -3 351.501 186.354   2
   2  11   4-6.15742 278.499   7
  -2 -11  -4 358.528 214.202   2
   2  11   5-261.823 226.863   7
  -2 -11  -5 93.9637 167.857   2
   2  11   6 860.159 321.199   7
  -2 -11  -6 746.745 259.348   3
  -2 -11  -6 1111.13 295.508   2
  -2 -11  -7 221.098 199.442   3
   2  11   7 399.416 285.581   7
  -2 -11  -7 76.8141 132.462   2
   2  11   8 4807.58 712.640   7
  -2 -11  -8 4189.24 462.933   3
  -2 -11  -9 1638.79 332.423   3
   2  11   9 1883.39 444.459   7
   2  11  10 3081.95 606.189   7
  -2 -11 -10 3021.32 409.584   3
  -2 -11 -11 92.0664 153.406   3
  -2 -11 -12 624.667 203.834   3
  -2 -11 -13 48.4299 99.2443   3
   2  12  -1 335.616 279.272   7
   2  12   0 71.1273 112.884   7
   2  12   1 1552.29 459.458   7
   2  12   2 718.750 377.228   7
  -2 -12  -2-154.811 190.700   2
   2  12   3 1035.43 344.883   7
  -2 -12  -3 923.567 288.681   2
   2  12   4-18.9710 193.182   7
  -2 -12  -4-234.152 213.543   2
  -2 -12  -5 2586.73 414.100   2
  -2 -12  -5 1631.30 380.424   3
  -2 -12  -6 194.165 169.599   3
  -2 -12  -6 217.754 172.355   2
  -2 -12  -7 1354.22 303.010   3
  -2 -12  -7 1443.33 313.215   2
  -2 -12  -8 307.789 227.152   3
  -2 -12  -9 1697.92 343.084   3
  -2 -12 -10-61.6876 130.917   3
  -3  10   5 751.048 250.771   7
   3 -10  -4-93.9286 125.564   3
  -3  10   4 181.300 219.001   7
   3 -10  -3 138.748 203.479   3
  -3  10   3-123.748 153.898   7
   3 -10  -2 93.3716 125.306   3
  -3  10   2 249.055 219.963   7
   3 -10  -1 920.400 264.822   3
  -3  10   1 590.129 225.519   7
   3 -10   0 498.063 227.661   3
  -3  10   0 875.897 269.425   7
  -3  10  -1 461.394 205.213   7
   3 -10   1 854.034 277.520   3
   3  -9  -8 451.908 210.105   3
  -3   9   8 438.309 243.301   7
  -3   9   7 343.806 225.068   7
   3  -9  -7 62.6189 109.126   3
   3  -9  -6 945.422 238.929   3
  -3   9   6 922.389 315.965   7
   3  -9  -5-163.642 177.538   3
  -3   9   5 153.779 183.686   7
   3  -9  -4 245.853 176.330   3
  -3   9   4 456.273 239.750   7
   3  -9  -3-192.832 115.946   3
  -3   9   3-74.5689 148.496   7
   3  -9  -2 81.9445 150.458   3
  -3   9   2 131.431 126.318   7
   3  -9  -1 1120.82 253.802   3
  -3   9   1 1832.90 329.224   7
   3  -9   0 911.666 264.252   3
  -3   9   0 640.420 215.811   7
   3  -9   0 750.291 282.403   2
   3  -9   1 201.697 187.309   3
  -3   9  -1 269.924 152.615   7
   3  -9   1 451.159 209.413   2
   3  -9   2 1948.74 352.247   3
  -3   9  -2 1995.73 345.068   7
   3  -9   2 2136.59 392.927   2
   3  -9   3 248.009 207.854   3
  -3   9  -3 421.405 213.842   4
   3  -9   3 130.167 204.777   2
   3  -9   4 113.574 230.291   2
   3  -9   4-170.085 156.796   3
  -3   8  10 473.079 208.323   7
   3  -8 -10 534.920 232.508   3
  -3   8   9-117.795 164.553   7
   3  -8  -9-277.241 171.129   3
   3  -8  -8 145.929 136.593   3
  -3   8   8 33.8331 100.434   7
   3  -8  -7 789.777 223.043   3
  -3   8   7 809.789 280.583   7
   3  -8  -6 20.6056 103.683   3
  -3   8   6-300.502 212.481   7
   3  -8  -5 502.266 187.902   3
  -3   8   5 396.263 221.792   7
   3  -8  -4-121.453 119.200   3
  -3   8   4 156.433 166.717   7
   3  -8  -3 538.075 190.849   3
  -3   8   3 633.902 252.909   7
   3  -8  -2 46.9198 134.485   3
  -3   8   2 294.579 166.641   7
   3  -8  -1 607.833 198.476   3
  -3   8   1 440.540 182.625   7
   3  -8   0 1924.30 300.667   3
  -3   8   0 1161.14 275.753   7
   3  -8   0 1134.69 284.132   2
   3  -8   1 1226.64 303.269   3
  -3   8  -1 1386.23 286.616   7
   3  -8   1 1122.66 266.671   2
   3  -8   2 4536.67 462.863   3
   3  -8   2 3725.19 457.832   2
  -3   8  -2 5401.70 487.797   7
  -3   8  -3 1539.36 279.660   7
  -3   8  -3 1193.05 364.170   4
   3  -8   3 1723.28 320.730   2
   3  -8   3 1581.25 311.636   3
  -3   8  -4-386.684 204.505   4
   3  -8   4-229.830 188.744   2
   3  -8   5 1398.16 327.022   2
  -3   8  -5 1600.86 441.826   4
   3  -8   6 124.279 187.804   2
  -3   8  -6-160.076 239.242   4
   3  -8   7 989.827 325.966   2
   3  -8   8 214.136 240.434   2
  -3   7  12 392.702 223.187   7
   3  -7 -12 25.1438 183.290   3
  -3   7  11-74.2170 129.880   7
   3  -7 -11 141.539 189.243   3
  -3   7  10-41.6017 147.312   7
   3  -7 -10 254.561 179.100   3
  -3   7   9 48.9175 77.0944   7
   3  -7  -9 57.9236 143.414   3
   3  -7  -8 85.6059 151.990   3
  -3   7   8 271.704 182.265   7
   3  -7  -7 1393.95 270.660   3
  -3   7   7 761.092 283.309   7
   3  -7  -6 1618.67 289.143   3
  -3   7   6 775.164 227.571   7
   3  -7  -5 337.108 156.193   3
  -3   7   5 341.352 216.445   7
   3  -7  -4 2248.36 320.448   3
  -3   7   4 2699.88 390.261   7
   3  -7  -3 357.818 143.599   3
  -3   7   3 46.3070 136.199   7
  -3   7   3 204.431 131.999   1
   3  -7  -2 914.525 215.366   3
  -3   7   2 559.419 184.604   7
  -3   7   2 916.693 196.343   5
  -3   7   2 744.280 156.176   1
   3  -7  -1 298.924 151.129   3
  -3   7   1 423.118 184.159   7
  -3   7   1 31.0649 104.725   5
  -3   7   1 203.523 108.574   1
   3  -7   0 271.104 149.122   3
  -3   7   0 118.143 124.492   7
  -3   7   0 193.401 122.464   1
   3  -7   0 131.411 142.093   2
   3  -7   1 1839.20 280.509   3
  -3   7  -1 1609.54 269.053   7
   3  -7   1 1542.34 284.824   2
  -3   7  -1 1531.39 231.843   1
  -3   7  -2 2109.87 265.680   1
  -3   7  -2 2527.43 309.610   7
   3  -7   2 2369.96 350.241   2
   3  -7   2 3094.59 382.511   3
  -3   7  -3 5205.27 609.038   4
   3  -7   3 6049.53 520.833   3
  -3   7  -3 5403.78 429.261   1
   3  -7   3 5203.13 504.207   2
  -3   7  -3 5466.87 446.313   7
  -3   7  -4 1816.95 297.414   1
  -3   7  -4 2192.23 288.360   7
  -3   7  -4 1831.24 398.669   4
   3  -7   4 1572.31 334.385   2
  -3   7  -5 444.698 149.072   7
   3  -7   5 446.984 218.297   2
  -3   7  -5 788.364 311.137   4
  -3   7  -6 5884.50 691.582   4
   3  -7   6 6142.93 583.534   2
   3  -7   7 936.389 235.814   2
  -3   7  -7 179.000 223.664   4
   3  -7   8 4068.24 513.293   2
  -3   7  -8 4559.94 668.449   4
   3  -7   9 2173.20 356.968   2
   3  -7  10 1109.66 336.312   2
  -3   6  15 277.773 228.553   5
  -3   6  14 166.383 127.229   7
  -3   6  14 208.101 222.544   5
  -3   6  13-49.5583 117.143   7
   3  -6 -13 160.238 195.299   3
  -3   6  13-103.758 163.711   5
  -3   6  12 18.7304 126.456   7
   3  -6 -12-121.756 100.388   3
  -3   6  11 261.645 187.473   7
   3  -6 -11 46.4946 169.804   3
  -3   6  10 71.2910 116.082   7
   3  -6 -10 53.8247 125.377   3
  -3   6   9 1421.66 285.146   7
   3  -6  -9 1080.63 258.272   3
  -3   6   8-30.2878 133.512   7
   3  -6  -8-16.8674 132.870   3
   3  -6  -7 561.124 191.652   3
  -3   6   7 755.538 232.153   7
   3  -6  -6 705.313 204.862   3
  -3   6   6 797.464 231.911   7
   3  -6  -5 1485.25 260.277   3
  -3   6   5 2371.71 360.366   7
   3  -6  -4 81.6886 122.616   3
  -3   6   4 149.178 168.805   7
   3  -6  -3 2848.60 323.378   3
  -3   6   3 3269.61 400.459   7
   3  -6  -2 1988.03 278.885   3
  -3   6   2 2220.35 256.563   1
  -3   6   2 2660.52 356.909   7
   3  -6  -1 1713.35 258.838   3
  -3   6   1 2161.54 242.375   1
  -3   6   1 2336.38 236.370   5
  -3   6   1 2452.17 320.594   7
   3  -6   0 31.3898 117.917   3
  -3   6   0 257.934 110.807   1
  -3   6   0 0.67936 126.558   7
  -3   6   0 259.182 114.055   5
   3  -6   0 105.769 122.405   2
   3  -6   1 208.363 121.671   3
  -3   6  -1 475.232 150.120   7
  -3   6  -1-108.235 71.7804   5
  -3   6  -1 303.211 141.725   1
   3  -6   1 63.1255 132.246   2
  -3   6  -2 4231.16 368.917   1
  -3   6  -2 4787.70 357.462   5
  -3   6  -2 4368.25 394.784   7
   3  -6   2 4188.74 396.688   3
   3  -6   2 3659.52 388.044   2
  -3   6  -3 13420.9 607.620   5
  -3   6  -3 12843.0 872.445   4
  -3   6  -3 12282.2 637.097   7
  -3   6  -3 12313.5 647.655   1
   3  -6   3 13327.8 718.291   2
  -3   6  -4 3033.78 316.843   7
  -3   6  -4 3290.16 486.554   4
   3  -6   4 3789.58 413.886   2
  -3   6  -4 2964.10 366.617   1
   3  -6   5 578.832 216.662   2
  -3   6  -5 585.925 256.262   4
  -3   6  -5 356.680 173.570   1
   3  -6   6 5214.20 494.560   2
  -3   6  -6 4563.97 583.435   4
  -3   6  -6 4552.57 480.928   1
  -3   6  -7 12333.8 945.074   4
   3  -6   7 12843.0 784.825   2
   3  -6   8 1934.42 341.249   2
  -3   6  -8 1589.30 383.132   4
   3  -6   9 2715.48 383.542   2
  -3   6  -9 2564.45 475.688   4
   3  -6  10 359.409 215.461   2
  -3   5  15-122.787 153.547   7
  -3   5  15 646.221 294.185   5
  -3   5  14 115.118 180.990   7
  -3   5  14 583.915 238.293   5
  -3   5  13 1318.45 310.437   7
   3  -5 -13 905.698 274.049   3
  -3   5  13 1233.41 273.022   5
  -3   5  12 289.483 172.607   7
   3  -5 -12 298.143 207.657   3
  -3   5  12 290.893 132.765   5
  -3   5  11 152.626 141.683   7
   3  -5 -11 334.088 176.245   3
  -3   5  11-75.4029 124.768   5
  -3   5  10 2331.14 380.125   7
   3  -5 -10 2617.81 382.662   3
  -3   5   9 2129.53 342.606   7
   3  -5  -9 1654.15 299.756   3
  -3   5   8 1412.22 267.756   7
   3  -5  -8 1765.97 288.640   3
  -3   5   7 0.82081 148.055   7
   3  -5  -7 74.0209 119.395   3
   3  -5  -7 37.6024 49.1142   6
   3  -5  -6 472.124 169.553   3
  -3   5   6 260.206 181.537   7
   3  -5  -5 985.548 198.247   3
  -3   5   5 914.545 221.983   7
   3  -5  -4 2965.39 314.884   3
  -3   5   4 2653.35 346.463   7
   3  -5  -3 165.891 96.7294   3
  -3   5   3 215.764 146.334   7
  -3   5   2 6630.41 501.074   7
   3  -5  -2 5703.99 408.514   3
  -3   5   1 4253.10 272.931   5
  -3   5   1 4332.81 357.128   1
   3  -5  -1 4247.96 351.940   3
  -3   5   1 5145.39 436.849   7
  -3   5   0 13868.1 487.496   5
  -3   5   0 13818.0 604.031   1
   3  -5   0 13682.6 610.893   3
  -3   5   0 13896.4 685.086   7
   3  -5   1 1565.81 224.112   3
  -3   5  -1 1577.39 235.434   1
  -3   5  -1 1571.45 242.888   7
  -3   5  -1 1454.30 175.179   5
   3  -5   1 1934.71 275.480   2
  -3   5  -2 8510.15 524.053   7
  -3   5  -2 7004.87 464.460   1
  -3   5  -2 8528.74 417.328   5
   3  -5   2 8200.66 484.669   3
   3  -5   2 7820.56 580.779   7
   3  -5   2 8310.72 517.434   2
  -3   5  -3 22586.7 864.312   1
  -3   5  -3 24858.9 745.522   5
  -3   5  -3 25528.9 861.464   7
  -3   5  -3 23184.6 1075.89   4
   3  -5   3 23597.2 827.333   3
   3  -5   3 25692.3 908.751   2
   3  -5   3 24179.6 991.168   7
  -3   5  -4 29919.1 1058.14   1
  -3   5  -4 30623.8 872.063   5
  -3   5  -4 29116.1 1246.23   4
   3  -5   4 30210.9 1013.31   2
  -3   5  -4 31849.8 942.944   7
   3  -5   4 31579.8 1103.01   7
  -3   5  -5 2831.95 366.792   1
  -3   5  -5 3369.18 315.015   5
  -3   5  -5 3323.17 446.403   4
   3  -5   5 3295.47 364.682   2
   3  -5   5 3233.66 375.002   7
   3  -5   6 275.157 144.072   2
  -3   5  -6 307.102 222.576   4
  -3   5  -6 76.3722 173.076   1
   3  -5   7 836.927 210.392   2
  -3   5  -7 856.576 272.722   4
  -3   5  -7 810.465 255.853   1
  -3   5  -8 3862.05 545.290   4
   3  -5   8 4088.95 437.291   2
   3  -5   9 54.4356 160.383   2
  -3   5  -9-33.4193 200.828   4
   3  -5  10 317.072 217.782   2
  -3   5 -10 565.453 243.279   4
   3  -5  11 344.749 198.965   2
  -3   5 -11-116.926 200.947   4
  -3   4  16-181.820 218.840   5
  -3   4  15 2369.28 383.441   5
   3  -4 -14 2258.38 452.513   3
  -3   4  14 2773.02 404.205   5
  -3   4  13 2918.32 421.064   7
   3  -4 -13 2806.37 426.853   3
  -3   4  13 3872.30 458.013   5
  -3   4  12-226.223 199.004   7
   3  -4 -12 292.770 173.915   3
  -3   4  12 103.099 131.954   5
  -3   4  11 210.604 148.879   7
   3  -4 -11 156.844 139.879   3
  -3   4  11-118.660 125.044   5
  -3   4  10 179.602 140.014   7
   3  -4 -10 185.925 170.297   3
  -3   4  10 53.7776 91.4264   5
  -3   4   9 1104.10 258.072   7
   3  -4  -9 1366.21 264.106   3
  -3   4   9 1327.82 217.442   5
   3  -4  -8 1030.38 240.499   3
  -3   4   8 630.050 196.112   7
   3  -4  -7 4988.30 443.612   3
  -3   4   7 4718.69 454.728   7
  -3   4   6 153.777 117.026   7
   3  -4  -6 59.1430 34.3259   6
   3  -4  -6-21.6327 125.954   3
   3  -4  -5 662.431 174.363   3
  -3   4   5 672.403 185.153   7
   3  -4  -4 248.682 122.242   3
  -3   4   4 286.416 139.851   7
   3  -4  -3 12698.9 572.844   3
  -3   4   3 13148.1 676.322   7
   3  -4  -2 643.224 149.007   3
  -3   4   2 532.750 159.642   7
  -3   4   2 613.583 183.262   2
   3  -4  -1 2207.24 316.875   7
  -3   4   1 1561.60 236.653   7
  -3   4   1 1906.13 146.610   5
  -3   4   1 2055.60 268.439   2
   3  -4  -1 1880.24 218.621   3
   3  -4   0 29.7884 92.2913   3
   3  -4   0 175.143 113.812   7
  -3   4   0 11.5425 42.5997   5
  -3   4   0 120.455 98.3503   2
  -3   4   0-5.53840 109.517   7
  -3   4   0-190.847 136.589   1
  -3   4  -1 48972.7 1191.22   7
   3  -4   1 48582.6 1333.98   7
  -3   4  -1 47073.6 764.571   5
  -3   4  -1 45338.2 1107.65   1
  -3   4  -1 46841.4 1167.39   2
   3  -4   1 45688.4 1004.46   3
   3  -4   1 45598.4 1071.77   2
  -3   4  -2 8808.08 504.502   7
  -3   4  -2 8405.82 501.765   1
  -3   4  -2 8691.88 358.523   5
  -3   4  -2 8774.53 509.294   2
   3  -4   2 8804.65 453.053   3
   3  -4   2 9203.49 578.593   7
   3  -4   2 9161.20 494.116   2
   3  -4   3 884.674 204.386   7
  -3   4  -3 700.568 165.502   2
  -3   4  -3 823.761 138.337   5
  -3   4  -3 845.828 211.655   4
  -3   4  -3 769.878 188.729   1
   3  -4   3 744.780 176.783   2
   3  -4   3 671.926 155.088   3
   3  -4   4 11382.1 614.199   7
  -3   4  -4 10447.0 616.881   1
  -3   4  -4 11625.7 731.799   4
  -3   4  -4 10329.2 564.395   2
   3  -4   4 10999.7 557.320   2
  -3   4  -5 9836.10 637.582   1
  -3   4  -5 9012.85 669.046   4
  -3   4  -5 9263.92 542.008   2
   3  -4   5 9488.61 540.921   2
   3  -4   5 9841.21 557.129   7
   3  -4   6 19295.1 782.404   2
   3  -4   6 18718.9 729.693   7
  -3   4  -6 18889.5 788.550   2
  -3   4  -6 19279.3 1003.52   4
  -3   4  -6 17754.0 900.381   1
   3  -4   7 5352.09 421.429   3
  -3   4  -7 4835.17 524.699   4
   3  -4   7 5395.82 438.366   2
  -3   4  -7 4550.33 493.715   1
   3  -4   8 361.822 161.595   2
   3  -4   8 409.118 180.076   5
  -3   4  -8 383.283 212.580   4
  -3   4  -8 470.856 208.762   1
   3  -4   9 2574.05 351.318   2
   3  -4   9 2755.00 389.503   5
  -3   4  -9 3647.47 518.521   4
   3  -4  10 248.563 136.075   2
   3  -4  10 95.3557 196.878   5
  -3   4 -10 431.204 217.219   4
   3  -4  11 135.688 162.620   2
   3  -4  11 96.9446 187.847   5
  -3   4 -11-24.8376 175.727   4
   3  -4  12 259.982 223.141   5
  -3   4 -12-270.226 195.902   4
   3  -4  13 358.802 177.360   5
  -3   3  16 1739.28 374.632   5
  -3   3  15 128.158 158.669   5
   3  -3 -14 1650.40 357.412   3
  -3   3  14 830.118 250.731   5
   3  -3 -13 1990.51 393.399   3
  -3   3  13 3307.29 436.379   5
   3  -3 -12 1662.02 347.389   3
  -3   3  12 1468.63 273.108   5
  -3   3  11 2665.87 376.972   7
   3  -3 -11 2722.20 386.503   3
  -3   3  11 3196.30 358.521   5
  -3   3  10 451.823 183.453   7
   3  -3 -10 795.798 250.680   3
  -3   3  10 769.579 169.481   5
  -3   3   9 140.280 163.787   7
   3  -3  -9 141.428 158.150   3
  -3   3   9 333.813 144.969   5
  -3   3   8 1982.08 291.952   7
   3  -3  -8 1962.83 303.966   3
  -3   3   8 1933.20 240.487   5
  -3   3   7 6282.74 497.230   7
   3  -3  -7 6269.88 479.250   3
  -3   3   6 2049.24 287.296   7
  -3   3   6 2111.59 204.922   5
   3  -3  -6 2453.47 294.231   3
  -3   3   5 413.592 142.627   7
   3  -3  -5 348.611 136.108   3
  -3   3   5 205.622 78.1874   5
  -3   3   4 41873.8 1177.39   7
  -3   3   4 42871.3 1063.54   3
   3  -3  -4 42740.8 1044.03   3
  -3   3   4 42958.5 1098.19   2
  -3   3   3 26886.2 931.840   7
  -3   3   3 24143.4 777.813   3
   3  -3  -3 25750.3 770.893   3
   3  -3  -3 24982.4 961.516   7
  -3   3   3 24172.9 802.895   2
   3  -3  -2 65907.7 1173.94   3
  -3   3   2 66421.7 1434.99   7
  -3   3   2 65991.9 1285.64   2
   3  -3  -2 65050.6 1512.17   7
  -3   3   1 11780.9 593.262   7
   3  -3  -1 12473.8 652.476   7
  -3   3   1 11214.9 535.891   2
   3  -3  -1 11632.2 476.486   3
   3  -3   0 822.973 135.812   3
   3  -3   0 1039.72 211.678   7
  -3   3   0 1054.82 186.823   7
  -3   3   0 721.265 61.4819   5
  -3   3   0 1029.21 195.291   1
  -3   3   0 1093.17 176.316   2
  -3   3  -1 11017.1 552.994   7
  -3   3  -1 9232.83 510.334   1
  -3   3  -1 10496.7 504.876   2
   3  -3   1 9743.07 417.170   3
   3  -3   1 9030.27 534.325   7
  -3   3  -2 12310.9 595.890   1
  -3   3  -2 12760.8 643.611   4
  -3   3  -2 12486.9 546.253   2
   3  -3   2 12620.4 473.354   3
   3  -3   2 12460.1 610.630   7
   3  -3   2 12838.8 520.372   2
   3  -3   3 353.833 108.514   3
  -3   3  -3 462.629 145.833   1
   3  -3   3 509.233 128.556   7
  -3   3  -3 297.949 99.3628   2
  -3   3  -3 288.726 149.693   4
   3  -3   3 473.817 130.757   2
   3  -3   4 1618.29 223.988   7
  -3   3  -4 1730.30 209.753   2
  -3   3  -4 1630.75 256.213   1
  -3   3  -4 1444.25 254.197   4
   3  -3   4 1765.04 217.022   2
  -3   3  -5 11600.1 673.165   1
   3  -3   5 11045.8 530.393   5
  -3   3  -5 11329.1 689.242   4
  -3   3  -5 11576.9 540.396   2
   3  -3   5 11396.0 524.919   2
   3  -3   5 11214.2 545.802   7
  -3   3  -6 11485.6 715.005   1
   3  -3   6 12114.0 605.077   5
  -3   3  -6 11765.9 559.847   2
  -3   3  -6 11801.3 739.232   4
   3  -3   6 11158.3 540.081   2
   3  -3   6 10738.4 513.019   7
   3  -3   7 19813.9 720.087   3
   3  -3   7 18831.6 811.980   5
  -3   3  -7 18771.8 734.029   2
  -3   3  -7 21534.7 1037.80   4
   3  -3   7 19057.9 735.520   2
   3  -3   7 19550.1 649.929   7
  -3   3  -7 19371.0 966.195   1
   3  -3   8 5709.13 411.824   3
   3  -3   8 5051.28 464.990   5
  -3   3  -8 5343.45 415.432   2
  -3   3  -8 5848.66 587.871   4
   3  -3   8 5413.07 413.170   2
   3  -3   8 5591.25 319.912   7
  -3   3  -8 6208.40 598.447   1
   3  -3   9 935.153 203.410   2
   3  -3   9 999.336 244.540   5
  -3   3  -9 1265.25 309.988   4
  -3   3  -9 990.209 261.868   1
   3  -3  10 999.259 217.486   2
   3  -3  10 949.600 243.786   5
  -3   3 -10 894.682 275.668   4
   3  -3  11 583.603 179.823   2
   3  -3  11 505.585 223.032   5
  -3   3 -11 850.081 296.560   4
   3  -3  12 1134.89 272.992   2
   3  -3  12 1823.15 386.797   5
  -3   3 -12 1635.21 405.220   4
   3  -3  13 43.9381 154.581   5
   3  -3  14-243.401 185.721   5
  -3   2  15 986.502 271.237   5
   3  -2 -14 740.159 274.779   3
  -3   2  14 243.301 129.025   5
   3  -2 -13 4232.09 555.477   3
  -3   2  13 3561.48 454.022   5
   3  -2 -12 2482.42 408.923   3
  -3   2  12 2513.13 378.205   5
   3  -2 -11 2442.93 371.716   3
  -3   2  11 1768.14 294.295   5
   3  -2 -10 1827.24 335.858   3
  -3   2  10 2424.52 321.484   5
   3  -2  -9-322.179 185.399   3
  -3   2   9 40.9201 111.074   5
  -3   2   9-173.636 115.289   4
   3  -2  -8 1239.50 249.798   3
  -3   2   8 1071.17 209.451   5
  -3   2   8 1085.93 206.134   4
   3  -2  -7 42565.7 1196.24   3
  -3   2   6 107.243 118.067   7
   3  -2  -6 69.2233 106.192   3
  -3   2   6 36.3511 65.2863   5
  -3   2   5 6698.91 326.377   5
  -3   2   5 7299.85 435.953   3
   3  -2  -5 6785.15 436.197   3
  -3   2   5 6810.01 482.638   7
  -3   2   4 14879.5 690.939   7
  -3   2   4 14842.2 416.670   5
  -3   2   4 14439.0 579.318   3
   3  -2  -4 15236.9 610.099   3
   3  -2  -4 15131.3 712.710   7
  -3   2   3 24194.2 431.593   5
  -3   2   3 26088.3 743.297   3
   3  -2  -3 25286.8 741.226   3
   3  -2  -3 25587.7 897.013   7
   3  -2  -2 5693.12 422.416   7
  -3   2   2 6032.84 348.883   3
   3  -2  -2 5373.14 325.777   3
  -3   2   2 5982.64 361.866   2
  -3   2   1 12314.1 477.315   3
   3  -2  -1 13253.7 472.595   3
  -3   2   1 12174.7 494.968   2
   3  -2  -1 12618.8 607.205   7
   3  -2   0 16.5417 58.9074   3
   3  -2   0-18.1838 66.9360   7
  -3   2   0 61.3727 70.6081   2
  -3   2  -1 14410.2 644.517   1
   3  -2   1 14079.3 437.405   3
  -3   2  -1 13631.0 513.351   2
   3  -2   1 14427.2 615.352   7
  -3   2  -2 17873.2 710.503   1
  -3   2  -2 18205.6 668.147   4
  -3   2  -2 16851.2 563.133   2
   3  -2   2 17142.8 467.319   3
   3  -2   2 18073.0 669.749   7
  -3   2  -3 14580.2 661.754   1
   3  -2   3 15386.0 440.218   5
  -3   2  -3 14648.3 639.243   4
  -3   2  -3 14380.2 504.413   2
   3  -2   3 14763.6 436.614   3
   3  -2   3 14181.6 582.736   7
   3  -2   3 14308.1 481.280   2
   3  -2   4 1383.96 191.362   7
   3  -2   4 1351.03 159.581   5
  -3   2  -4 1383.57 163.259   2
  -3   2  -4 1195.20 213.367   4
   3  -2   4 1314.48 147.019   3
  -3   2  -4 1336.39 224.511   1
   3  -2   4 1329.57 158.266   2
   3  -2   5 2195.50 229.437   5
  -3   2  -5 2085.64 288.495   1
   3  -2   5 2188.94 209.859   2
  -3   2  -5 2541.96 310.530   4
  -3   2  -5 2095.86 206.234   2
   3  -2   5 2365.93 307.595   1
   3  -2   5 2336.27 235.121   7
   3  -2   6 12712.5 481.149   3
   3  -2   6 12603.1 502.353   2
  -3   2  -6 12358.9 718.771   1
   3  -2   6 12899.1 578.047   5
  -3   2  -6 13251.8 522.863   2
  -3   2  -6 13063.9 713.938   4
   3  -2   6 12688.2 512.374   7
   3  -2   7 9754.68 442.213   3
  -3   2  -7 9306.32 667.275   1
   3  -2   7 9934.50 547.364   5
  -3   2  -7 10176.3 482.170   2
  -3   2  -7 9799.42 661.802   4
   3  -2   7 9460.59 460.686   2
   3  -2   7 9647.56 429.116   7
   3  -2   8 21071.2 673.534   3
   3  -2   8 21389.9 863.703   5
  -3   2  -8 21521.7 726.207   2
  -3   2  -8 20161.1 981.221   4
   3  -2   8 21076.4 713.369   2
   3  -2   8 21138.9 590.295   7
  -3   2  -8 20863.9 1045.02   1
   3  -2   9 7429.83 548.755   5
  -3   2  -9 6801.90 612.564   4
   3  -2   9 7695.68 455.101   2
   3  -2   9 6662.93 274.334   7
  -3   2  -9 7772.74 685.611   1
   3  -2   9 6688.12 288.802   7
   3  -2   9 7454.00 417.909   3
   3  -2  10 343.676 131.687   2
  -3   2 -10 292.387 206.638   1
  -3   2 -10 5.18986 172.365   4
   3  -2  11 2293.37 287.498   2
   3  -2  11 2461.56 364.311   5
  -3   2 -11 1778.74 359.453   4
   3  -2  12 299.502 154.097   2
   3  -2  12 264.112 199.152   5
   3  -2  13 527.811 220.788   5
   3  -2  14 351.311 221.805   5
   3  -2  15 247.434 216.516   5
  -3   1  15 101.974 197.366   5
   3  -1 -14 2427.42 456.002   3
  -3   1  14 2266.04 408.941   5
   3  -1 -13 145.508 246.545   3
  -3   1  13 455.886 209.445   5
   3  -1 -12 3050.46 465.882   3
  -3   1  12 2637.94 397.184   5
  -3   1  11 3900.77 428.074   5
   3  -1 -11 4603.41 510.137   3
  -3   1  10 26497.4 1046.29   5
   3  -1 -10 30683.3 1208.43   3
  -3   1   9 20258.7 854.451   5
   3  -1  -9 21378.6 960.307   3
  -3   1   9 21912.3 922.229   4
  -3   1   8 12123.0 620.836   5
  -3   1   8 12818.6 658.335   4
   3  -1  -8 12713.6 710.122   3
  -3   1   7 14263.1 634.976   4
   3  -1  -7 15611.8 738.125   3
  -3   1   6 28693.1 807.096   5
  -3   1   6 26936.8 795.531   4
   3  -1  -6 27418.1 917.517   3
   3  -1  -6 27402.7 963.952   7
  -3   1   5 9301.27 412.754   5
  -3   1   5 10048.2 497.679   3
   3  -1  -5 9777.21 518.522   3
   3  -1  -5 10108.3 570.391   7
  -3   1   4 10206.3 380.381   5
  -3   1   4 8967.34 442.208   3
   3  -1  -4 9930.55 490.659   3
   3  -1  -4 10302.1 560.327   7
  -3   1   3-119.200 80.0095   3
   3  -1  -3 55.6720 60.6251   7
   3  -1  -3-6.12942 71.4517   3
   3  -1  -2 8820.92 300.017   6
  -3   1   2 8458.94 379.997   3
   3  -1  -2 8984.81 406.042   3
   3  -1  -2 8524.69 482.926   7
  -3   1   1 9742.47 381.559   3
   3  -1  -1 9955.89 398.238   3
   3  -1  -1 9419.57 490.648   7
   3  -1   0 11166.1 383.997   3
  -3   1   0 11239.1 387.680   3
  -3   1   0 10735.8 405.429   2
   3  -1   0 11659.1 529.495   7
   3  -1   1 1102.08 173.384   7
  -3   1  -1 1293.15 148.088   4
   3  -1   1 1020.88 109.457   3
   3  -1   2 17432.6 397.989   3
   3  -1   2 16644.8 302.751   5
  -3   1  -2 18465.9 728.293   1
  -3   1  -2 18118.0 562.104   4
  -3   1  -2 18516.2 509.635   2
   3  -1   2 17943.1 633.612   7
  -3   1  -3 21577.3 795.476   1
   3  -1   3 21502.7 461.491   5
  -3   1  -3 21467.4 670.954   4
  -3   1  -3 21110.1 521.914   2
   3  -1   3 21674.6 413.885   3
   3  -1   3 21938.2 686.056   7
  -3   1  -4 15093.8 689.826   1
   3  -1   4 14737.5 453.525   5
  -3   1  -4 15925.1 631.627   4
  -3   1  -4 14960.3 435.115   2
   3  -1   4 14573.5 338.204   3
   3  -1   4 14831.5 408.734   2
   3  -1   4 14622.7 545.770   7
   3  -1   5 1606.96 254.404   1
   3  -1   5 1395.93 164.860   5
  -3   1  -5 1907.52 163.471   2
  -3   1  -5 1296.23 206.426   4
   3  -1   5 1588.02 124.729   3
  -3   1  -5 1286.77 235.101   1
   3  -1   5 1424.25 144.523   2
   3  -1   5 1779.43 187.821   7
  -3   1  -6 3837.54 397.425   1
   3  -1   6 4339.58 313.968   5
  -3   1  -6 4223.93 254.596   2
   3  -1   6 3685.53 390.143   1
  -3   1  -6 4202.51 377.321   4
   3  -1   6 4142.93 220.491   3
   3  -1   6 4506.99 254.036   2
   3  -1   6 4291.28 286.269   7
  -3   1  -7 11118.3 707.234   1
   3  -1   7 12347.5 568.564   5
   3  -1   7 11375.3 443.391   7
  -3   1  -7 12225.9 444.894   2
  -3   1  -7 11357.9 654.725   4
   3  -1   7 12301.4 444.223   2
   3  -1   7 12326.6 399.755   3
  -3   1  -8 10659.0 735.040   1
   3  -1   8 11740.7 603.504   5
  -3   1  -8 12266.3 726.947   4
   3  -1   8 11550.3 458.872   2
   3  -1   8 11821.6 457.303   7
   3  -1   8 11851.8 416.909   3
   3  -1   8 11155.8 417.339   7
   3  -1   9 20686.9 853.609   5
  -3   1  -9 20321.0 981.438   4
   3  -1   9 20713.4 650.761   2
   3  -1   9 19605.9 546.118   7
   3  -1   9 20736.4 587.098   3
  -3   1  -9 19531.1 1041.43   1
   3  -1   9 20442.7 519.697   7
   3  -1  10 3490.70 194.928   7
   3  -1  10 3736.75 401.009   5
   3  -1  10 3675.20 298.760   2
  -3   1 -10 3364.73 491.782   1
   3  -1  10 3923.59 277.640   3
   3  -1  11 121.103 106.785   2
   3  -1  11 549.191 200.251   5
  -3   1 -11-34.0628 250.582   1
   3  -1  12 2509.64 276.795   2
   3  -1  12 2291.40 365.059   5
   3  -1  13 509.552 224.089   5
   3  -1  14 234.659 149.754   5
   3  -1  15 993.170 321.317   5
  -3   0  15 70.9918 162.645   5
  -3   0  14 882.610 316.052   2
   3   0 -14 629.838 273.771   3
  -3   0  14 392.878 233.791   5
  -3   0  13 14217.0 952.690   5
  -3   0  13 14774.8 973.443   2
   3   0 -13 14616.0 983.897   3
   3   0 -12 4963.50 559.447   3
  -3   0  12 5787.72 579.445   5
   3   0 -11 975.412 263.669   3
  -3   0  11 920.812 249.659   5
  -3   0  10 737.284 70.7962   6
   3   0 -10 960.605 273.357   3
  -3   0  10 1279.44 290.174   5
   3   0  -9 19354.9 942.100   3
  -3   0   9 20093.4 893.898   5
  -3   0   9 19126.9 867.075   4
  -3   0   8 10277.8 602.076   5
  -3   0   8 9755.16 584.189   4
   3   0  -8 10430.7 657.593   3
   3   0  -7 533.092 184.125   3
  -3   0   7 322.886 137.224   5
  -3   0   7 375.752 135.633   4
   3   0  -6 1674.74 233.075   7
   3   0  -6 1897.82 266.734   3
  -3   0   6 1678.32 215.524   4
  -3   0   5 17231.5 613.632   5
  -3   0   5 17375.8 571.447   4
  -3   0   5 17010.1 657.508   3
   3   0  -5 16633.4 690.150   3
   3   0  -5 16414.0 699.786   7
  -3   0   4 11169.5 449.214   5
  -3   0   4 10964.1 395.071   4
  -3   0   4 10791.4 494.233   3
   3   0  -4 10356.4 514.791   3
   3   0  -4 11356.5 561.657   7
  -3   0   3 24316.3 488.540   4
  -3   0   3 25079.1 696.399   3
   3   0  -3 25810.6 750.909   3
   3   0  -3 26218.3 835.985   7
   3   0  -2 1206.65 190.204   7
   3   0  -2 1244.68 166.878   3
  -3   0   2 945.228 77.3842   4
  -3   0   2 1341.43 155.828   3
   3   0  -1 4233.40 329.458   7
   3   0  -1 4394.11 254.552   6
   3   0  -1 3815.61 140.042   5
  -3   0   1 4222.45 241.667   3
   3   0  -1 4239.15 258.276   3
   3   0   0 13749.2 579.405   7
   3   0   0 13198.7 464.444   6
  -3   0   0 12854.9 375.064   3
   3   0   0 13103.3 412.071   3
   3   0   1 7065.18 412.783   7
   3   0   1 6857.53 360.907   6
  -3   0  -1 6298.72 218.207   4
  -3   0  -1 6560.04 241.671   3
   3   0   1 6670.87 257.317   3
  -3   0  -1 6806.77 271.308   2
  -3   0  -2 3624.36 334.230   1
  -3   0  -2 3766.75 210.704   4
  -3   0  -2 4021.24 198.295   2
   3   0   2 3295.79 156.051   3
  -3   0  -3 28804.4 914.181   1
  -3   0  -3 29274.5 675.139   4
  -3   0  -3 27640.9 478.274   2
  -3   0  -4 22106.1 825.671   1
  -3   0  -4 23156.8 412.298   2
  -3   0  -4 24294.5 692.026   4
  -3   0  -5 15393.9 718.422   1
   3   0   5 16366.8 511.886   5
  -3   0  -5 15380.2 340.139   2
   3   0   5 17804.1 702.401   4
  -3   0  -5 17196.3 643.420   4
   3   0   6 1487.76 263.512   1
   3   0   6 1641.44 195.458   5
  -3   0  -6 1931.09 283.836   1
   3   0   6 1748.41 254.957   4
   3   0   6 1633.03 75.1005   3
   3   0   6 1293.38 69.5077   3
   3   0   6 1689.61 115.023   2
  -3   0  -7 3391.55 390.047   1
   3   0   7 3648.68 190.994   2
   3   0   7 3481.45 274.789   7
   3   0   7 3631.39 303.427   5
   3   0   7 4096.53 399.976   4
   3   0   7 3312.91 144.876   3
   3   0   8 12821.9 471.754   7
  -3   0  -8 12694.8 783.169   1
   3   0   8 12765.2 510.431   7
   3   0   8 12418.9 588.185   5
   3   0   8 12926.3 754.908   4
   3   0   8 12669.5 392.083   2
   3   0   8 12334.5 323.552   3
   3   0   9 10542.1 406.152   7
   3   0   9 10551.4 586.103   5
   3   0   9 11147.2 407.785   2
   3   0   9 10125.1 448.134   7
   3   0   9 11004.4 348.216   3
  -3   0  -9 10507.8 756.182   1
   3   0  10 16036.1 768.953   5
   3   0  10 17389.1 556.258   2
   3   0  10 16129.6 462.891   3
   3   0  10 16649.4 549.866   7
  -3   0 -10 16127.4 983.318   1
   3   0  10 16135.6 463.781   7
   3   0  11 1452.86 150.246   7
   3   0  11 1678.01 283.779   5
   3   0  11 1848.46 212.797   2
  -3   0 -11 1717.24 380.223   1
  -3   0 -12 2749.70 461.450   1
   3   0  12 2863.15 384.225   5
   3   0  12 2723.73 254.607   2
   3   0  13 5488.26 557.889   5
   3   0  14 6828.71 644.583   5
   3   0  15 875.718 281.655   5
  -3  -1  14 4894.05 621.691   5
  -3  -1  13 2872.41 455.483   2
   3   1 -13 2438.78 472.939   3
  -3  -1  13 2563.58 431.749   5
   3   1 -12 11611.8 855.490   3
  -3  -1  12 12088.5 878.020   5
  -3  -1  12 9837.23 790.456   2
   3   1 -11 1344.70 346.325   3
  -3  -1  11 1395.77 303.926   5
  -3  -1  11 1903.66 364.383   2
   3   1 -10 4766.34 501.630   3
  -3  -1  10 4478.13 492.028   5
  -3  -1  10 4448.94 486.756   2
   3   1  -9 12882.6 788.262   3
  -3  -1   9 11521.6 722.623   5
  -3  -1   9 13450.4 761.710   4
   3   1  -8 13355.9 761.991   3
  -3  -1   8 12857.0 717.876   5
  -3  -1   8 12481.4 680.763   4
   3   1  -7 15965.9 784.474   3
  -3  -1   7 16152.5 750.574   5
  -3  -1   7 15844.9 698.629   4
   3   1  -7 16484.5 725.289   7
   3   1  -6 6293.87 471.823   3
  -3  -1   6 6609.34 458.820   5
  -3  -1   6 6841.34 415.267   4
   3   1  -6 6746.27 452.581   7
   3   1  -5 5036.67 393.235   7
   3   1  -5 5559.55 419.219   3
  -3  -1   5 5385.10 246.222   6
   3   1  -5 5700.98 355.392   5
  -3  -1   5 5761.62 343.223   4
  -3  -1   5 5752.40 405.372   3
   3   1  -4 7486.97 457.629   7
   3   1  -4 7270.97 447.171   3
  -3  -1   4 7652.88 286.256   6
   3   1  -4 7769.20 380.927   5
  -3  -1   4 6848.40 326.627   4
  -3  -1   4 7302.84 425.744   3
   3   1  -3 36604.9 994.976   7
  -3  -1   3 34544.0 624.084   6
   3   1  -3 34804.9 745.948   5
   3   1  -3 35922.1 920.731   3
  -3  -1   3 35466.9 863.118   3
   3   1  -2 10420.0 464.263   3
   3   1  -2 10735.9 385.669   5
  -3  -1   2 10858.0 443.762   3
  -3  -1   1 277.117 71.3903   3
   3   1  -1 311.216 82.6461   3
   3   1  -1 416.464 86.0312   5
   3   1   0 8460.45 348.940   3
   3   1   0 8321.33 302.596   5
  -3  -1   0 8872.92 322.678   3
   3   1   1 16597.9 417.731   3
   3   1   1 15474.4 573.539   6
  -3  -1  -1 16581.2 374.817   3
   3   1   2 6593.09 218.637   3
   3   1   2 6138.71 379.203   6
  -3  -1  -2 6037.40 429.672   1
  -3  -1  -2 6323.74 182.780   3
  -3  -1  -3 559.485 161.223   1
   3   1   3 840.501 116.081   4
  -3  -1  -3 815.525 63.8576   2
  -3  -1  -4 10784.2 574.705   1
   3   1   4 10994.8 456.950   4
  -3  -1  -5 17730.9 759.760   1
   3   1   5 16982.0 725.815   6
   3   1   5 18723.8 664.347   4
  -3  -1  -6 13132.3 691.785   1
   3   1   6 14230.8 635.676   4
   3   1   6 14710.4 596.476   7
   3   1   7 1241.75 178.114   7
  -3  -1  -7 1094.21 248.018   1
   3   1   7 1307.25 219.421   4
  -3  -1  -8 3565.08 423.979   1
   3   1   8 3220.09 359.935   4
   3   1   8 3561.44 116.113   3
   3   1   8 3627.02 146.136   2
   3   1   8 3471.49 298.478   7
  -3  -1  -9 17841.3 960.964   1
   3   1   9 17732.3 405.491   2
   3   1   9 17519.6 345.148   3
   3   1   9 18838.5 679.868   7
   3   1  10 18908.8 814.512   5
   3   1  10 19537.4 492.169   2
   3   1  10 19686.0 432.256   3
   3   1  10 19774.0 697.098   7
  -3  -1 -10 18605.4 1035.65   1
   3   1  11 56.9117 92.7184   7
   3   1  11 27.4259 45.9209   3
   3   1  11 95.1320 74.4668   2
   3   1  11 68.0408 122.912   5
  -3  -1 -11-178.890 194.702   1
   3   1  12 70.9735 65.6737   2
   3   1  12 91.7252 128.434   5
  -3  -1 -12-89.3064 207.808   1
   3   1  13 11088.2 745.505   5
   3   1  14 3635.21 502.527   6
   3   1  14 3756.78 457.958   5
   3   1  15 3742.21 548.586   6
   3   1  15 3594.44 480.654   5
   3   1  16 530.349 255.944   5
  -3  -2  14 406.658 251.118   5
  -3  -2  13 638.541 291.134   2
   3   2 -13 95.7708 188.821   3
  -3  -2  13 792.075 266.204   5
  -3  -2  12 298.862 258.931   2
   3   2 -12 347.604 176.527   3
  -3  -2  12 310.446 244.536   5
   3   2 -11 5651.70 609.451   3
  -3  -2  11 6533.38 644.316   5
  -3  -2  11 6029.39 603.171   2
  -3  -2  10 3163.97 442.125   2
   3   2 -10 3352.88 462.977   3
  -3  -2  10 2889.89 418.416   5
   3   2  -9 12957.1 812.739   3
  -3  -2   9 12059.9 780.316   5
  -3  -2   9 11360.6 751.420   2
   3   2  -8 13314.7 783.179   3
  -3  -2   8 13123.3 771.946   5
  -3  -2   8 14174.1 808.059   2
  -3  -2   8 13544.8 746.321   4
   3   2  -7 4551.42 440.431   3
  -3  -2   7 5589.94 481.797   5
  -3  -2   7 4765.31 457.707   2
   3   2  -7 4659.60 394.718   7
   3   2  -6 4326.94 375.942   7
   3   2  -6 4658.69 429.826   3
   3   2  -6 4308.02 365.973   5
  -3  -2   6 5712.46 454.262   5
  -3  -2   6 4119.90 399.881   2
  -3  -2   5 145.610 130.482   2
   3   2  -5-23.9037 63.2501   7
  -3  -2   5 86.2089 85.5767   3
   3   2  -5 24.6403 125.204   3
   3   2  -5 100.131 76.8441   5
  -3  -2   4 211.250 107.787   2
  -3  -2   4 20.9663 40.3441   3
   3   2  -4-72.6635 104.050   3
   3   2  -4 33.7047 76.3478   5
   3   2  -3 54031.7 1178.66   3
   3   2  -3 52499.8 1070.82   5
  -3  -2   3 53334.5 1122.20   3
   3   2  -2 31444.2 839.698   3
  -3  -2   2 29811.5 746.903   6
   3   2  -2 31174.5 790.158   5
  -3  -2   2 30790.2 797.086   3
   3   2  -1 19010.8 603.617   3
  -3  -2   1 18933.1 592.462   6
   3   2  -1 20209.3 610.217   5
  -3  -2   1 18331.4 594.893   2
  -3  -2   1 19288.4 583.629   3
  -3  -2   0 458.658 90.1605   2
  -3  -2   0 606.186 124.031   6
  -3  -2   0 372.038 81.4877   3
  -3  -2  -1 6365.91 369.075   6
  -3  -2  -1 6418.49 288.263   2
  -3  -2  -1 6608.39 275.155   3
   3   2   2 17975.7 695.661   6
  -3  -2  -2 18018.5 404.948   2
   3   2   2 18311.7 387.198   4
  -3  -2  -2 18382.9 741.398   1
  -3  -2  -2 19051.3 385.989   3
  -3  -2  -3 5854.39 424.117   1
   3   2   3 5455.83 262.552   4
  -3  -2  -3 5232.36 158.208   2
  -3  -2  -3 5266.58 150.014   3
  -3  -2  -4-186.899 136.545   1
   3   2   4 0.91872 49.4015   4
   3   2   4-0.48725 94.2292   7
   3   2   5 9464.23 508.925   7
  -3  -2  -5 9551.77 561.044   1
   3   2   5 9079.34 441.223   4
  -3  -2  -6 10738.7 621.673   1
   3   2   6 11009.0 629.248   6
   3   2   6 11552.1 655.814   1
   3   2   6 11078.6 537.965   4
   3   2   6 11648.9 564.182   7
  -3  -2  -7 28744.1 1065.19   1
   3   2   7 27302.9 873.250   7
   3   2   7 27925.3 1030.63   6
   3   2   7 29710.5 956.938   4
  -3  -2  -8 26838.7 1095.59   1
   3   2   8 28533.1 1088.96   6
   3   2   8 27290.2 996.274   4
   3   2   8 28809.1 907.164   7
   3   2   9 61.9935 105.810   7
  -3  -2  -9-68.9298 168.414   1
   3   2   9 9.74547 150.235   6
   3   2   9 27.5287 22.3543   2
   3   2   9 33.9052 21.7818   2
   3   2  10 54772.6 1631.11   6
   3   2  10 53590.3 672.962   2
   3   2  10 56832.7 721.789   3
   3   2  10 54478.9 1286.11   7
  -3  -2 -10 53361.6 1724.72   1
   3   2  11 15177.1 905.671   6
   3   2  11 16121.2 446.776   2
   3   2  11 15914.9 431.650   3
   3   2  11 14847.2 672.955   7
  -3  -2 -11 15128.8 976.452   1
   3   2  12 700.629 149.869   7
   3   2  12 638.961 121.151   2
   3   2  12 1059.17 306.305   6
  -3  -2 -12 770.080 319.100   1
   3   2  13 409.668 193.015   6
   3   2  13 430.830 174.080   5
   3   2  14 540.345 262.303   6
   3   2  14 485.335 215.256   5
   3   2  15 1682.05 368.969   6
   3   2  15 1336.41 307.811   5
   3   2  16-33.0507 221.923   6
   3   2  16 703.570 267.502   5
  -3  -3  13 1059.49 366.571   5
  -3  -3  12 858.655 297.104   2
  -3  -3  12 799.974 290.222   5
  -3  -3  11 1179.25 316.183   2
  -3  -3  11 1242.92 324.504   5
  -3  -3  10 740.101 282.765   2
  -3  -3  10 956.224 286.587   5
  -3  -3   9 449.613 195.598   2
  -3  -3   9 329.932 168.370   5
  -3  -3   8 3227.59 403.674   2
  -3  -3   8 3465.09 436.172   5
   3   3  -8 3100.56 399.775   3
   3   3  -7 34378.5 1225.36   3
  -3  -3   7 34558.0 1229.21   2
   3   3  -7 33635.3 1042.12   7
   3   3  -6 44531.7 1330.19   3
  -3  -3   6 44020.6 1328.20   2
   3   3  -5 6167.17 455.203   5
  -3  -3   5 6177.88 484.634   2
   3   3  -5 5866.05 389.078   4
   3   3  -4 3428.25 328.137   5
  -3  -3   4 3053.13 313.878   2
   3   3  -4 3045.66 262.161   4
  -3  -3   4 3290.12 329.505   3
   3   3  -3 3391.42 315.530   5
  -3  -3   3 2973.27 304.872   2
   3   3  -3 3105.30 239.298   4
  -3  -3   3 3685.63 329.057   3
   3   3  -2 12380.3 571.974   5
   3   3  -2 11980.4 415.418   4
  -3  -3   2 12457.6 553.721   3
   3   3  -1 13607.5 581.910   5
   3   3  -1 13249.6 403.573   4
  -3  -3   1 13716.9 542.523   3
  -3  -3   0 18303.9 682.148   6
  -3  -3   0 17480.1 571.015   2
  -3  -3   0 18479.3 586.999   3
  -3  -3  -1 136.566 54.8764   2
  -3  -3  -1 102.124 74.3514   3
  -3  -3  -2 4062.12 234.077   3
  -3  -3  -2 3525.24 310.686   6
  -3  -3  -2 3698.87 215.705   2
  -3  -3  -2 3379.44 331.834   1
  -3  -3  -3 10407.6 323.422   3
  -3  -3  -3 10364.3 538.908   6
  -3  -3  -3 9804.89 545.675   1
  -3  -3  -3 9504.12 280.521   2
   3   3   3 9765.52 544.715   7
  -3  -3  -4 19858.0 771.554   1
  -3  -3  -4 20378.2 384.033   3
   3   3   4 19184.0 761.555   7
  -3  -3  -4 18690.0 263.288   2
  -3  -3  -5 24401.5 886.605   1
   3   3   5 25760.6 882.038   7
  -3  -3  -5 23995.6 287.834   3
   3   3   6 641.430 195.887   6
   3   3   6 373.738 138.026   7
   3   3   6 673.029 138.592   4
  -3  -3  -6 479.517 190.474   1
   3   3   6 83.0529 137.704   1
  -3  -3  -7 7310.67 550.237   1
   3   3   7 7439.53 567.136   6
   3   3   7 7696.67 488.296   4
   3   3   7 8161.91 520.669   7
  -3  -3  -8 19245.1 334.036   3
  -3  -3  -8 20966.7 972.157   1
   3   3   8 22321.9 992.493   6
   3   3   8 22215.4 880.759   4
   3   3   8 21151.0 844.910   7
  -3  -3  -9 12487.8 801.808   1
  -3  -3  -9 12422.0 325.489   3
   3   3   9 12194.1 772.744   6
   3   3   9 12978.6 680.695   7
  -3  -3 -10 574.024 229.105   1
  -3  -3 -10 1108.96 120.648   3
   3   3  10 828.917 212.567   7
   3   3  10 1008.00 263.427   6
   3   3  10 842.546 81.7936   2
   3   3  10 1043.06 87.4720   2
   3   3  11 7075.53 257.453   2
  -3  -3 -11 6358.06 308.643   3
   3   3  11 7352.11 657.020   6
   3   3  11 6088.43 258.819   2
   3   3  11 6095.10 485.600   7
  -3  -3 -11 6461.88 643.408   1
  -3  -3 -12 7596.44 367.062   3
   3   3  12 8158.85 712.833   6
  -3  -3 -12 7559.77 736.225   1
   3   3  12 7465.17 325.791   2
   3   3  12 7539.95 522.701   7
   3   3  13 4326.06 563.572   6
  -3  -3 -13 4742.14 598.688   1
   3   3  13 4423.61 406.839   7
   3   3  14 888.853 294.617   6
   3   3  15 409.759 214.948   6
   3   3  15 309.348 187.732   5
   3   3  16 1543.64 409.929   6
   3   3  16 723.598 237.065   5
  -3  -4  11 995.578 270.157   2
   3   4 -10-45.9311 132.395   7
  -3  -4  10-34.4450 187.915   2
   3   4  -9 13409.1 725.470   7
  -3  -4   9 13793.6 884.798   2
   3   4  -9 13111.5 796.663   4
   3   4  -8-13.9870 127.446   7
   3   4  -8-169.691 92.2147   4
  -3  -4   7 5115.46 511.726   2
   3   4  -7 4922.30 443.739   4
   3   4  -7 6112.81 486.704   7
  -3  -4   6 21409.4 965.261   2
   3   4  -6 20040.4 840.471   4
   3   4  -6 21110.9 884.560   7
  -3  -4   5 9112.67 602.211   2
   3   4  -4 16244.7 781.940   5
  -3  -4   4 15501.6 744.591   2
   3   4  -4 16044.4 753.442   7
   3   4  -3 7148.41 499.415   5
  -3  -4   3 6740.46 474.761   2
   3   4  -3 7061.07 414.620   4
   3   4  -3 6738.28 495.214   7
  -3  -4   3 7137.56 477.337   3
  -3  -4   2 2982.34 303.609   3
   3   4  -2 2824.90 312.971   5
   3   4  -2 2696.93 246.564   4
  -3  -4   2 2811.43 297.147   2
   3   4  -2 2794.44 325.300   7
  -3  -4   1 13049.5 581.908   3
   3   4  -1 13655.4 646.413   5
   3   4  -1 13175.8 667.822   7
  -3  -4   0 19190.0 661.046   3
  -3  -4  -1 1659.83 191.529   3
  -3  -4  -1 1807.71 255.747   6
  -3  -4  -1 1546.14 186.538   2
  -3  -4  -2 21792.5 622.516   3
  -3  -4  -2 20820.3 821.123   6
  -3  -4  -2 20821.7 792.751   1
  -3  -4  -2 20959.2 579.879   2
  -3  -4  -3 24375.3 887.591   6
  -3  -4  -3 24675.7 621.121   3
   3   4   3 26606.6 592.475   2
  -3  -4  -3 25342.7 874.096   1
  -3  -4  -3 24379.4 562.387   2
   3   4   3 24105.1 909.171   7
  -3  -4  -4 110870. 1895.68   6
  -3  -4  -4 107142. 1789.91   1
   3   4   4 107975. 1083.86   2
  -3  -4  -4 108995. 1039.68   2
  -3  -4  -5 14869.4 717.818   6
  -3  -4  -5 13207.8 663.175   1
   3   4   5 14161.0 715.016   7
   3   4   5 12757.4 328.430   2
  -3  -4  -5 14073.3 375.970   3
  -3  -4  -5 14595.8 307.939   2
  -3  -4  -6 9817.29 587.697   1
  -3  -4  -6 10600.5 290.128   3
   3   4   6 10036.3 613.078   7
   3   4   7 849.381 203.418   7
  -3  -4  -7 439.232 67.8437   3
  -3  -4  -7 657.458 221.424   1
   3   4   8 4829.52 501.164   6
  -3  -4  -8 4088.23 443.185   1
   3   4   8 4320.27 426.307   7
  -3  -4  -8 4296.43 200.280   3
  -3  -4  -9 8394.74 660.139   1
   3   4   9 9395.27 707.484   6
   3   4   9 7240.04 204.242   2
   3   4   9 8491.27 600.528   7
  -3  -4  -9 9245.89 318.096   3
   3   4  10 373.856 63.4222   2
  -3  -4 -10 299.877 209.972   1
   3   4  10 167.434 134.738   7
   3   4  10 243.997 205.850   6
  -3  -4 -10 354.102 83.8970   3
   3   4  10 372.153 62.1373   2
   3   4  11 2712.97 359.605   7
   3   4  11 3097.04 442.477   6
   3   4  11 2920.94 186.455   2
   3   4  11 2965.19 182.821   2
  -3  -4 -11 2889.09 458.028   1
  -3  -4 -11 3179.85 231.094   3
   3   4  12 2727.49 463.395   6
  -3  -4 -12 2986.69 240.634   3
   3   4  12 3010.19 210.626   2
  -3  -4 -12 3211.45 455.566   1
   3   4  12 3199.95 399.012   7
   3   4  13 5529.43 609.731   6
  -3  -4 -13 4445.63 604.550   1
   3   4  13 4485.17 466.660   7
   3   4  14 2363.91 331.699   7
   3   4  14 2459.35 441.494   6
   3   4  15 122.182 177.275   6
   3   4  16-4.53731 201.294   6
  -3  -5  11-230.354 135.503   2
  -3  -5  10 748.151 275.042   2
   3   5 -10 477.414 216.511   4
   3   5  -9 317.949 136.232   7
  -3  -5   9 701.116 220.740   2
   3   5  -9 227.220 139.726   4
   3   5  -8 1624.34 280.894   7
  -3  -5   8 1704.91 326.825   2
   3   5  -8 1697.86 332.260   4
   3   5  -7 1586.84 273.463   7
  -3  -5   7 1518.10 287.727   2
   3   5  -7 1301.43 261.578   4
   3   5  -6 7827.78 571.370   7
  -3  -5   6 8347.35 637.418   2
   3   5  -6 8598.07 606.206   4
  -3  -5   5 17201.5 869.054   2
   3   5  -5 16096.1 783.708   4
   3   5  -5 17829.3 840.465   7
   3   5  -4 8573.35 550.394   4
  -3  -5   4 9702.49 628.453   2
   3   5  -4 9619.16 615.818   7
  -3  -5   3 10785.6 633.668   2
   3   5  -3 10838.0 653.577   7
   3   5  -2 2540.58 327.084   7
  -3  -5   2 2358.98 304.939   2
  -3  -5   1 21994.9 820.170   3
   3   5  -1 21649.8 893.083   5
  -3  -5   1 20649.6 778.107   2
   3   5  -1 21730.4 907.008   7
  -3  -5   0 39663.9 1051.15   3
   3   5   0 39550.4 1017.31   2
  -3  -5   0 39135.0 1013.15   2
   3   5   0 38938.4 1218.53   7
   3   5   1 17189.7 808.426   7
  -3  -5  -1 15870.9 639.705   3
   3   5   1 17714.2 650.839   2
   3   5   2 256.349 88.7360   2
   3   5   2 132.750 147.250   7
  -3  -5  -2 4.38221 138.372   1
  -3  -5  -2 114.268 149.298   6
  -3  -5  -2 106.736 77.5286   2
  -3  -5  -3 12036.1 695.680   6
  -3  -5  -3 11926.2 600.578   1
   3   5   3 12347.7 485.551   2
  -3  -5  -3 11709.2 465.546   2
   3   5   3 11841.2 683.230   7
  -3  -5  -4 6167.86 444.517   1
   3   5   4 6144.95 321.778   2
  -3  -5  -4 7043.79 337.244   2
   3   5   4 6369.30 518.450   7
  -3  -5  -5 7035.50 487.083   1
   3   5   5 6560.80 311.318   2
   3   5   5 6731.17 536.305   7
  -3  -5  -5 6527.09 291.538   2
  -3  -5  -6 3846.44 384.072   1
   3   5   6 3938.79 424.199   7
   3   5   6 3968.86 226.796   2
  -3  -5  -6 4123.28 239.128   3
   3   5   7 20.9252 119.365   7
  -3  -5  -7-53.2893 58.6251   3
   3   5   7-3.18146 44.7067   2
  -3  -5  -7 72.1787 186.263   1
   3   5   8 1964.53 334.948   7
  -3  -5  -8 2155.72 327.287   1
   3   5   8 2067.28 157.428   2
  -3  -5  -8 1849.62 161.156   3
   3   5   9 1669.83 300.485   7
  -3  -5  -9 2008.71 343.446   1
   3   5   9 1901.81 152.838   2
  -3  -5  -9 1883.14 166.725   3
   3   5  10 4347.17 233.195   2
   3   5  10 4361.18 484.331   7
  -3  -5 -10 4413.68 268.639   3
  -3  -5 -10 4169.52 498.724   1
   3   5  11-31.1354 145.067   7
  -3  -5 -11 55.2106 70.3766   3
  -3  -5 -11 174.932 202.566   1
   3   5  12 904.519 260.671   7
  -3  -5 -12 857.533 323.311   1
   3   5  13 1678.43 321.706   7
   3   5  13 2246.34 426.420   6
  -3  -5 -13 1403.50 335.112   1
   3   5  14 1872.75 345.127   7
   3   5  14 2645.49 457.719   6
   3   5  15 2310.94 517.607   6
   3   5  16 993.302 345.668   6
   3   6 -11 368.119 226.031   4
  -3  -6  10-171.611 205.797   2
   3   6 -10 191.161 111.946   4
  -3  -6   9 561.461 254.824   2
   3   6  -9 685.911 260.057   4
   3   6  -8 438.683 199.724   7
  -3  -6   8 930.519 284.464   2
   3   6  -8 931.490 269.593   4
   3   6  -7 2280.49 320.632   7
  -3  -6   7 2688.10 423.663   2
   3   6  -7 2444.46 369.700   4
   3   6  -6 781.917 229.982   7
  -3  -6   6 508.980 184.864   2
   3   6  -6 450.397 199.108   4
  -3  -6   5 3214.32 428.131   2
   3   6  -5 3156.69 381.478   7
   3   6  -5 3154.79 395.061   4
   3   6  -4 1576.26 280.099   7
  -3  -6   4 2379.95 347.012   2
   3   6  -4 2175.83 333.913   4
   3   6  -3 24368.7 1038.24   7
   3   6  -3 24494.3 987.677   4
  -3  -6   3 24419.5 1006.12   2
   3   6  -2 64642.6 1563.84   4
  -3  -6   2 69193.0 1591.97   2
   3   6  -2 67111.7 1711.51   7
   3   6  -1 475.225 163.401   7
  -3  -6   1 484.564 150.795   2
  -3  -6   0 18663.9 792.541   3
   3   6   0 19233.3 782.717   2
  -3  -6   0 19110.5 768.041   2
   3   6   0 19387.5 928.857   7
  -3  -6  -1 16545.9 724.605   3
   3   6   1 18287.6 732.565   2
  -3  -6  -1 16164.5 674.084   2
   3   6   1 16717.1 861.690   7
   3   6   2 3661.50 320.995   2
  -3  -6  -2 3366.40 333.868   1
   3   6   2 4495.82 454.219   7
   3   6   3 633.944 180.286   7
   3   6   3 608.006 144.997   2
  -3  -6  -3 584.735 171.288   1
   3   6   4-5.09068 137.864   7
   3   6   4-29.4909 76.9108   2
  -3  -6  -4 8.24280 130.369   1
  -3  -6  -5 281.403 147.446   1
   3   6   5 588.633 208.338   7
   3   6   5 405.730 112.627   2
  -3  -6  -5 274.092 97.9489   2
  -3  -6  -6 5676.07 462.620   1
   3   6   6 5094.58 314.550   2
   3   6   6 6032.96 561.828   7
  -3  -6  -6 5029.50 289.076   2
   3   6   7 789.842 244.820   7
   3   6   7 695.619 128.919   2
  -3  -6  -7 858.148 208.938   1
   3   6   8 270.293 212.727   7
   3   6   8 203.490 77.3469   2
  -3  -6  -8 100.214 160.585   1
   3   6   9 78.3297 158.543   7
  -3  -6  -9 180.303 147.703   1
   3   6   9 237.208 76.3169   2
   3   6  10 993.998 289.214   7
   3   6  10 1366.95 164.197   2
  -3  -6 -10 1242.28 297.954   1
   3   6  11 3130.36 448.433   7
  -3  -6 -11 3138.33 462.406   1
   3   6  12 247.466 201.665   7
  -3  -6 -12-107.178 79.7229   3
  -3  -6 -12 265.606 180.027   1
   3   6  13 2637.17 420.229   7
   3   6  14 1224.33 331.807   7
   3   6  15 1226.80 295.630   7
   3   7 -11 452.254 248.250   4
   3   7 -10-116.179 231.881   4
   3   7  -9 8.91195 70.7773   4
  -3  -7   8 596.977 199.825   2
   3   7  -8-28.9742 154.382   4
   3   7  -7 6252.38 627.957   4
  -3  -7   7 6228.39 645.424   2
   3   7  -7 5707.99 547.163   7
   3   7  -6 7696.51 676.785   4
  -3  -7   6 7292.33 666.780   2
   3   7  -6 7370.99 638.048   7
   3   7  -5 17633.8 981.256   4
  -3  -7   5 17821.0 985.639   2
   3   7  -5 17638.5 957.853   7
   3   7  -4 789.600 232.297   7
  -3  -7   4 535.716 216.638   2
   3   7  -4 622.830 218.849   4
   3   7  -3 400.007 195.030   7
  -3  -7   3 134.608 137.380   2
   3   7  -3 329.814 186.007   4
  -3  -7   2 13788.7 767.127   2
   3   7  -2 12849.3 816.399   7
  -3  -7   1 10340.2 642.117   2
   3   7  -1 8796.74 674.276   7
   3   7   0 1474.06 292.184   7
  -3  -7   0 1066.40 214.451   2
   3   7   1 702.139 223.372   7
  -3  -7  -1 802.395 179.001   1
  -3  -7  -1 933.321 220.430   2
  -3  -7  -2 4479.52 374.810   1
   3   7   2 4914.69 404.038   2
  -3  -7  -2 4594.44 398.042   2
   3   7   2 4615.21 503.271   7
   3   7   3 1035.16 283.518   7
   3   7   3 1207.88 218.125   2
  -3  -7  -3 849.308 189.833   2
  -3  -7  -3 830.372 189.931   1
  -3  -7  -4 3896.89 369.050   1
   3   7   4 3471.47 331.907   2
  -3  -7  -4 3910.26 334.782   2
   3   7   4 3612.22 459.729   7
   3   7   5 827.408 253.716   7
   3   7   5 1524.08 211.506   2
  -3  -7  -5 1081.87 210.048   1
   3   7   6 1072.80 277.513   7
   3   7   6 807.822 163.231   2
  -3  -7  -6 527.256 180.791   1
  -3  -7  -6 964.885 183.067   3
   3   7   7 2650.09 425.803   7
  -3  -7  -7 2705.02 347.564   1
   3   7   7 2359.12 250.820   2
  -3  -7  -7 2385.16 251.677   3
   3   7   8 371.143 225.086   7
  -3  -7  -8 733.037 148.045   3
  -3  -7  -8 917.559 241.006   1
   3   7   8 603.219 142.634   2
  -3  -7  -9-117.338 144.401   1
   3   7   9-224.829 187.504   7
  -3  -7  -9-23.6007 49.8283   3
   3   7   9-66.7929 82.4115   2
   3   7  10 641.315 261.395   7
  -3  -7 -10 847.789 147.165   3
  -3  -7 -10 593.132 222.072   1
   3   7  11 181.643 181.088   7
  -3  -7 -11 273.903 98.5956   3
  -3  -7 -11 297.021 177.113   1
   3   7  12 907.216 270.725   7
  -3  -7 -12 1171.90 192.424   3
  -3  -7 -12 539.192 232.620   1
   3   7  13-25.9280 98.1790   7
   3   7  14 841.130 310.830   7
   3   7  15 616.197 231.382   7
   3   8  -9 957.688 356.568   4
   3   8  -8 6656.71 735.412   4
  -3  -8   7 809.000 288.528   2
   3   8  -7 422.631 193.846   4
   3   8  -6 8221.03 737.383   4
  -3  -8   6 7506.16 713.792   2
   3   8  -6 8024.37 705.243   7
  -3  -8   5 5632.05 596.049   2
   3   8  -5 4011.53 503.711   4
   3   8  -5 4384.98 537.867   7
   3   8  -4 1046.32 291.055   7
  -3  -8   4 1429.59 339.600   2
   3   8  -4 1240.03 292.521   4
   3   8  -3 605.016 230.208   7
  -3  -8   3 652.151 236.129   2
   3   8  -3 461.499 211.617   4
  -3  -8   2 5118.79 502.723   2
   3   8  -2 4541.06 538.678   7
  -3  -8   1 4816.64 482.329   2
   3   8  -1 4792.97 554.320   7
  -3  -8   0 8487.96 611.983   2
   3   8   0 7027.28 662.665   7
  -3  -8  -1 8598.36 520.990   1
  -3  -8  -1 9348.83 623.067   2
   3   8   1 8769.96 744.570   7
   3   8   2 262.468 192.021   7
  -3  -8  -2 63.9409 128.308   1
  -3  -8  -2 176.434 171.505   2
  -3  -8  -3 5571.62 409.145   1
  -3  -8  -3 6384.00 498.027   2
   3   8   3 5756.97 601.818   7
   3   8   4 634.903 248.581   7
  -3  -8  -4 905.104 194.480   2
  -3  -8  -4 944.787 194.933   1
   3   8   5 85.6926 141.342   7
   3   8   5-66.8261 113.212   2
  -3  -8  -5 62.5945 118.691   2
  -3  -8  -5 47.4421 104.080   1
   3   8   6 82.7798 206.030   7
   3   8   6 176.957 122.997   2
  -3  -8  -6 147.386 106.065   1
  -3  -8  -6 137.006 117.302   2
   3   8   7-6.04701 190.408   7
  -3  -8  -7-10.5238 111.126   3
   3   8   7 233.405 118.323   2
  -3  -8  -7 74.9049 141.827   1
  -3  -8  -7-14.7541 112.334   2
  -3  -8  -8 1502.50 288.140   1
   3   8   8 1815.64 406.507   7
  -3  -8  -8 1954.77 236.852   3
   3   8   8 1648.39 231.751   2
   3   8   9-233.094 135.375   7
  -3  -8  -9-38.9893 78.9938   3
  -3  -8  -9-174.015 165.357   1
   3   8  10-107.044 131.118   7
  -3  -8 -10 194.364 93.3093   3
  -3  -8 -10-77.6679 150.179   1
   3   8  11 228.084 218.344   7
  -3  -8 -11 33.2144 106.459   3
  -3  -8 -11 242.077 154.891   1
   3   8  12 35.4848 150.276   7
  -3  -8 -12 145.773 99.0674   3
   3   8  13 584.077 349.815   7
   3   8  14 197.905 206.128   7
   3   8  15 416.753 248.523   7
   3   8  16 1096.01 347.943   7
   3   9  -8 800.415 261.011   4
   3   9  -7 434.356 234.437   4
   3   9  -6 464.160 254.940   4
   3   9  -5 1372.84 387.269   7
  -3  -9   5 2137.57 393.309   2
   3   9  -5 1461.93 320.178   4
   3   9  -4 1117.03 318.225   7
  -3  -9   4 971.658 289.530   2
   3   9  -4 912.606 313.253   4
   3   9  -3 597.538 258.795   7
  -3  -9   3 361.196 250.536   2
   3   9  -3 400.111 250.093   4
  -3  -9   2 5030.37 560.810   2
   3   9  -2 4898.57 583.966   7
  -3  -9   1 6334.77 588.495   2
   3   9  -1 7064.32 718.947   7
  -3  -9   0 4390.42 378.354   1
  -3  -9   0 4065.91 464.945   2
   3   9   0 4952.45 631.222   7
   3   9   1 2427.70 457.887   7
  -3  -9  -1 1802.22 247.802   1
  -3  -9  -1 1891.27 345.010   2
   3   9   2-114.627 195.827   7
  -3  -9  -2-156.209 125.476   1
  -3  -9  -2 76.0719 139.915   2
  -3  -9  -3 70.4889 119.484   1
   3   9   3-8.99353 200.875   7
  -3  -9  -3 130.047 152.198   2
  -3  -9  -4 5404.61 475.992   2
  -3  -9  -4 5249.82 403.806   1
   3   9   4 5785.29 648.853   7
   3   9   5-55.2700 228.023   7
  -3  -9  -5 111.128 129.341   1
  -3  -9  -5 124.476 115.704   2
   3   9   6 945.006 335.198   7
  -3  -9  -6 629.599 180.677   1
  -3  -9  -6 593.840 182.879   2
  -3  -9  -7 14.9117 109.525   1
  -3  -9  -7 99.7925 109.759   3
   3   9   7-199.533 193.906   7
  -3  -9  -7 129.748 105.738   2
  -3  -9  -8 187.835 99.8383   3
   3   9   8 50.3209 162.605   7
  -3  -9  -8-50.6849 126.906   1
   3   9   9 1893.31 392.042   7
  -3  -9  -9 1434.00 243.487   3
  -3  -9  -9 1940.94 337.355   1
   3   9  10-185.285 201.834   7
  -3  -9 -10 58.3129 108.581   3
  -3  -9 -10-166.047 159.502   1
   3   9  11 259.710 249.672   7
  -3  -9 -11 552.473 152.592   3
   3   9  12 386.009 225.657   7
   3   9  13 743.807 296.254   7
   3   9  14 277.214 215.257   7
   3   9  15 4020.55 650.630   7
   3  10  -6 139.736 166.352   4
   3  10  -5 460.134 328.654   4
   3  10  -4-591.156 248.522   7
   3  10  -4 1.41417 124.743   4
   3  10  -3 553.512 282.420   7
  -3 -10   3 608.957 270.075   2
   3  10  -3 1233.24 326.843   4
   3  10  -2-189.848 238.301   7
  -3 -10   2 111.955 189.899   2
   3  10  -2-283.756 202.634   4
   3  10  -1 32.6129 178.034   7
  -3 -10   1 285.980 192.062   2
   3  10   0 1765.30 422.068   7
  -3 -10   0 1949.38 369.847   2
  -3 -10  -1 6912.82 652.583   2
   3  10   1 5919.76 709.200   7
   3  10   2 1051.62 340.981   7
  -3 -10  -2 1370.55 278.807   2
   3  10   3 1912.88 407.567   7
  -3 -10  -3 2983.47 383.042   2
   3  10   4 144.208 234.925   7
  -3 -10  -4 195.129 147.171   2
   3  10   5 1430.21 354.704   7
  -3 -10  -5 739.167 216.074   2
   3  10   6 137.462 171.444   7
  -3 -10  -6 185.911 154.473   2
  -3 -10  -7 370.316 181.741   3
   3  10   7 388.016 277.274   7
  -3 -10  -7 269.186 138.350   2
   3  10   8 1187.77 375.166   7
  -3 -10  -8 1153.90 223.330   3
   3  10   9 249.671 246.101   7
  -3 -10  -9-119.553 130.316   3
   3  10  10 1181.61 368.646   7
  -3 -10 -10 1376.63 250.040   3
   3  10  11 299.192 275.367   7
  -3 -10 -11 343.012 157.759   3
   3  10  12 3841.36 620.217   7
   3  11  -3-408.873 221.343   7
   3  11  -3 1161.59 298.852   4
   3  11  -2 2986.47 541.310   7
   3  11  -2 1686.11 456.562   4
   3  11  -1 161.992 177.368   7
  -3 -11   1 37.2169 160.796   2
   3  11   0 578.876 340.594   7
  -3 -11   0 625.196 254.483   2
   3  11   1 1895.80 424.709   7
  -3 -11  -1 1127.80 324.493   2
   3  11   2 856.144 335.785   7
  -3 -11  -2 986.251 293.586   2
   3  11   3 2071.80 438.911   7
  -3 -11  -3 1605.09 342.264   2
   3  11   4 1420.96 380.480   7
  -3 -11  -4 921.519 268.904   2
   3  11   5 830.780 308.593   7
  -3 -11  -5 304.123 223.942   2
  -3 -11  -6 705.243 225.927   2
  -3 -11  -6 947.876 260.934   3
  -3 -11  -7-200.390 166.836   3
   3  11   7-34.1662 218.851   7
  -3 -11  -7-84.3673 175.624   2
  -3 -11  -8 303.207 159.723   3
   3  11   8-81.6136 156.113   7
  -3 -11  -9 2160.16 344.322   3
  -3 -11 -10 603.225 204.105   3
  -3 -12  -2 336.331 281.015   2
  -3 -12  -3 1088.63 295.776   2
  -3 -12  -4 1360.24 339.907   2
  -3 -12  -5 602.911 209.348   2
  -3 -12  -6 1992.86 377.148   3
  -3 -12  -6 2492.84 399.531   2
  -3 -12  -7 454.495 236.808   3
  -3 -12  -7 218.329 187.060   2
  -3 -12  -8 5756.54 591.457   3
  -3 -12  -9 511.179 195.991   3
   4  -9  -4 467.198 224.112   3
   4  -9  -3 669.916 233.689   3
  -4   9   3 577.902 243.762   7
   4  -9  -2 468.214 233.523   3
  -4   9   2 509.687 267.779   7
   4  -9  -1 310.476 159.225   3
  -4   9   1 157.655 166.904   7
   4  -9   0-59.3921 154.044   3
  -4   9   0-149.868 184.074   7
   4  -9   1 1190.97 271.576   3
  -4   9  -1 981.428 270.394   7
   4  -9   2 1938.62 394.859   3
   4  -9   3 166.205 97.0696   3
   4  -8  -7-162.623 190.877   3
   4  -8  -6 1418.99 309.266   3
  -4   8   6 1663.34 360.011   7
   4  -8  -5 826.113 213.591   3
  -4   8   5 796.847 274.124   7
   4  -8  -4-230.680 165.250   3
  -4   8   4 1.13562 103.565   7
   4  -8  -3 12.6535 130.722   3
  -4   8   3 25.1991 154.457   7
   4  -8  -2 570.843 179.651   3
  -4   8   2 738.366 254.155   7
  -4   8   1 3379.34 456.612   7
   4  -8  -1 3705.60 437.275   3
   4  -8   0 1252.91 246.634   3
  -4   8   0 1309.39 261.197   7
   4  -8   1-56.5657 131.919   3
  -4   8  -1 113.727 169.214   7
   4  -8   2 976.448 263.604   3
  -4   8  -2 852.382 253.566   7
  -4   8  -2 1096.69 354.609   4
   4  -8   3 655.736 211.575   3
  -4   8  -3 184.195 167.584   4
   4  -8   3 630.732 201.764   2
   4  -8   4 347.283 127.687   3
  -4   8  -4 208.251 161.801   4
   4  -8   4 133.838 182.286   2
   4  -8   5 22.4168 202.458   2
   4  -8   6 1218.64 265.247   2
  -4   7   9 1169.57 341.049   7
   4  -7  -9 1443.80 346.427   3
  -4   7   8-18.0693 226.524   7
   4  -7  -8-10.0613 145.742   3
   4  -7  -7 1211.03 305.597   3
  -4   7   7 1509.86 342.003   7
   4  -7  -6 309.406 190.949   3
  -4   7   6-82.9725 178.212   7
   4  -7  -5 2191.82 352.664   3
  -4   7   5 2895.58 433.492   7
  -4   7   4 5291.89 565.164   7
  -4   7   4 5676.06 480.720   1
   4  -7  -4 5133.37 487.127   3
   4  -7  -3 149.465 178.697   3
  -4   7   3 119.551 143.242   7
  -4   7   3-140.944 127.409   1
   4  -7  -2 211.005 138.815   3
  -4   7   2 14.5234 138.123   7
  -4   7   2 42.4742 110.296   1
   4  -7  -1 262.391 136.078   3
  -4   7   1 279.908 142.150   7
  -4   7   1 171.761 156.997   1
   4  -7   0 846.848 215.116   3
  -4   7   0 942.230 248.011   7
   4  -7   1 1324.53 248.301   3
  -4   7  -1 1685.11 299.529   7
   4  -7   2 1165.97 249.476   3
  -4   7  -2 1516.56 273.623   7
  -4   7  -2 620.634 235.315   4
   4  -7   3 2215.88 346.606   3
  -4   7  -3 2605.14 477.946   4
   4  -7   3 2237.19 342.397   2
   4  -7   4 593.410 208.438   3
  -4   7  -4 659.250 238.629   4
   4  -7   4 768.072 235.047   2
   4  -7   5 1198.80 251.637   3
  -4   7  -5 1344.64 354.293   4
   4  -7   5 1565.99 300.272   2
  -4   7  -6 135.453 166.259   4
   4  -7   6 228.710 161.681   2
  -4   7  -7 90.3448 205.449   4
   4  -7   7 155.870 182.091   2
  -4   6  11 133.541 201.250   7
  -4   6  10 353.640 170.297   7
   4  -6 -10 286.221 172.952   3
  -4   6   9 1744.04 345.721   7
   4  -6  -9 1837.36 362.245   3
  -4   6   8 2753.82 445.077   7
   4  -6  -8 2773.93 405.740   3
   4  -6  -7 1207.26 285.110   3
  -4   6   7 1448.93 323.364   7
  -4   6   6 3782.48 491.525   7
   4  -6  -6 3787.11 432.218   3
   4  -6  -5 134.163 144.070   3
  -4   6   5-85.7363 161.097   7
   4  -6  -4 2181.54 326.093   3
  -4   6   4 2090.34 372.128   7
   4  -6  -3 1904.89 293.605   3
  -4   6   3 2462.72 367.414   7
  -4   6   3 1837.73 293.533   1
   4  -6  -2-109.262 122.051   3
  -4   6   2-112.444 125.010   7
  -4   6   2 34.1067 134.365   1
   4  -6  -1 2475.42 300.843   3
  -4   6   1 1933.79 328.846   7
  -4   6   1 2237.46 293.310   1
   4  -6   0 586.306 173.679   3
  -4   6   0 560.234 180.159   7
  -4   6   0 718.609 173.512   1
   4  -6   1 504.599 135.131   3
  -4   6  -1 820.870 204.229   7
  -4   6  -1 445.904 156.773   1
   4  -6   2 1553.61 250.668   3
  -4   6  -2 1041.25 233.022   1
  -4   6  -2 988.546 254.568   4
   4  -6   3 1813.39 287.424   3
  -4   6  -3 1497.08 291.193   1
  -4   6  -3 1359.10 344.514   4
   4  -6   3 1551.84 297.975   2
  -4   6  -4 7927.14 623.728   1
  -4   6  -4 9175.38 771.808   4
   4  -6   4 9276.40 577.330   3
   4  -6   4 9022.78 621.410   2
  -4   6  -5 1854.62 334.765   1
   4  -6   5 1784.55 267.787   3
  -4   6  -5 1405.63 347.691   4
   4  -6   5 1428.60 273.490   2
  -4   6  -6 5484.58 652.629   4
   4  -6   6 5195.06 450.933   3
  -4   6  -6 4320.86 523.314   1
   4  -6   6 5198.51 497.062   2
  -4   6  -7 94.1895 165.903   4
   4  -6   7 306.800 214.329   2
  -4   6  -7-7.77229 184.816   1
  -4   6  -8 238.545 219.262   4
  -4   5  11 358.543 227.417   7
   4  -5 -11 78.3576 115.134   3
  -4   5  10 182.414 129.988   7
   4  -5 -10 164.237 197.325   3
  -4   5   9 125.018 123.259   7
   4  -5  -9 28.9194 103.303   3
  -4   5   8 2261.38 383.777   7
   4  -5  -8 2676.17 374.140   3
  -4   5   7 2266.41 372.394   7
   4  -5  -7 1837.74 340.517   3
   4  -5  -6-180.641 169.130   3
  -4   5   6 187.918 155.133   7
  -4   5   5 5906.89 561.427   7
   4  -5  -5 5979.08 505.021   3
   4  -5  -4 563.313 189.986   3
  -4   5   4 538.491 204.773   7
  -4   5   4 348.149 65.9920   5
  -4   5   3 3220.17 400.647   7
   4  -5  -3 3009.47 340.284   3
  -4   5   2 2353.49 326.407   1
  -4   5   2 2632.64 366.518   7
   4  -5  -2 2667.95 299.969   3
   4  -5  -1 175.921 109.913   3
  -4   5   1 187.307 159.146   7
  -4   5   1 249.160 159.055   1
  -4   5   0 3829.83 421.635   7
  -4   5   0 3738.26 385.917   1
   4  -5   0 4557.86 376.985   3
  -4   5  -1 4314.09 421.606   1
   4  -5   1 4243.34 359.270   3
  -4   5  -2 2000.39 314.496   1
   4  -5   2 1480.82 222.286   3
  -4   5  -2 1726.10 301.556   4
   4  -5   3 231.038 129.704   3
  -4   5  -3 117.285 141.249   1
  -4   5  -3 135.229 129.032   4
   4  -5   4 551.114 155.037   3
  -4   5  -4 554.721 219.013   1
  -4   5  -4 825.005 249.031   4
   4  -5   4 678.024 200.267   2
  -4   5  -5 16005.7 904.520   1
  -4   5  -5 17271.7 1002.49   4
   4  -5   5 16274.9 701.650   3
   4  -5   5 16382.5 768.768   2
  -4   5  -6 3291.34 461.486   1
  -4   5  -6 4476.91 546.240   4
   4  -5   6 3237.70 332.635   3
   4  -5   6 3374.79 370.639   2
   4  -5   7 2888.61 356.898   2
  -4   5  -7 3544.05 494.651   4
   4  -5   7 3587.74 359.112   3
  -4   5  -7 3874.10 526.847   1
   4  -5   8 412.643 186.346   2
  -4   5  -8 772.830 325.527   4
  -4   5  -8-155.960 182.309   1
  -4   5  -9 970.446 299.578   4
  -4   5  -9 727.364 258.323   1
  -4   5 -10 1764.76 413.417   4
   4  -4 -12-283.136 239.100   3
   4  -4 -11 1078.51 324.044   3
   4  -4 -10 81.8712 123.381   3
  -4   4  10-3.77599 87.6313   5
   4  -4  -9 698.005 228.790   3
  -4   4   9 463.725 153.544   5
  -4   4   8 158.712 150.511   7
   4  -4  -8 316.890 187.034   3
  -4   4   7 2091.36 348.388   7
   4  -4  -7 1866.20 317.133   3
  -4   4   7 1747.89 202.154   5
  -4   4   6 2643.46 381.556   7
  -4   4   6 2037.27 183.772   5
   4  -4  -6 3000.63 371.831   3
   4  -4  -5 164.206 155.153   3
  -4   4   5 458.783 166.300   7
  -4   4   5 191.280 56.8022   5
  -4   4   4 9645.23 677.317   7
   4  -4  -4 9584.53 574.858   3
   4  -4  -3 1861.74 261.273   3
  -4   4   3 2154.32 350.037   7
  -4   4   2 11575.9 717.077   7
   4  -4  -2 10814.5 559.579   3
  -4   4   1 5627.49 489.882   1
   4  -4  -1 5252.66 382.935   3
  -4   4   0 13032.7 713.000   1
   4  -4   0 12547.8 568.770   3
   4  -4   1 1555.63 214.593   3
  -4   4  -1 1380.87 246.340   4
  -4   4  -1 1353.05 268.548   1
  -4   4  -2 8278.48 578.904   1
  -4   4  -2 9027.71 615.380   4
   4  -4   2 9514.55 474.573   3
  -4   4  -3 4059.65 429.787   1
  -4   4  -3 3861.93 437.682   4
   4  -4   3 3792.42 306.364   3
   4  -4   4 197.052 79.8902   3
  -4   4  -4 432.869 199.198   1
  -4   4  -4 344.227 177.364   4
  -4   4  -5 3055.54 395.144   1
  -4   4  -5 3396.48 425.631   4
   4  -4   5 3070.62 281.870   3
   4  -4   5 3307.22 319.651   2
  -4   4  -6 7669.98 658.686   1
  -4   4  -6 8669.95 705.398   4
   4  -4   6 8485.35 464.344   3
   4  -4   6 8292.40 506.632   2
  -4   4  -7 2208.16 380.943   1
  -4   4  -7 2488.95 404.111   4
   4  -4   7 2443.63 275.245   3
   4  -4   7 2988.03 328.542   2
   4  -4   8 1229.89 234.652   2
  -4   4  -8 1315.00 317.987   4
  -4   4  -8 853.212 279.047   1
  -4   4  -9 691.772 272.674   4
  -4   4  -9 701.899 275.868   1
  -4   4 -10 1707.11 406.629   1
  -4   4 -10 2206.19 482.818   4
  -4   4 -11-157.720 207.664   4
   4  -3 -12 815.707 286.900   3
  -4   3  12 968.406 228.189   5
   4  -3 -11 931.199 243.045   3
  -4   3  11 1049.06 224.593   5
   4  -3 -10 1420.66 294.838   3
  -4   3  10 1809.71 264.941   5
   4  -3  -9-417.350 196.227   3
  -4   3   9 114.650 94.5245   5
   4  -3  -8 961.088 248.944   3
   4  -3  -7 298.161 166.663   3
  -4   3   7 11.6338 72.7868   5
   4  -3  -6 1116.80 251.979   3
  -4   3   6 704.193 129.794   5
  -4   3   5 9607.27 338.072   5
   4  -3  -5 10548.5 615.355   3
   4  -3  -4 1346.12 230.782   3
   4  -3  -4 1088.35 113.725   6
  -4   3   4 810.449 62.8753   5
   4  -3  -3 205.765 126.708   3
   4  -3  -2 145.893 108.998   3
   4  -3  -1 26235.0 793.496   3
  -4   3   1 23990.7 852.855   2
   4  -3   0 15046.4 575.882   3
  -4   3   0 13289.5 732.445   1
  -4   3   0 14245.2 653.398   2
  -4   3  -1 7620.80 552.566   1
  -4   3  -1 8938.07 535.264   4
  -4   3  -1 8495.31 496.562   2
   4  -3   1 8655.30 425.253   3
  -4   3  -2 5157.14 462.258   1
  -4   3  -2 5173.01 421.489   4
  -4   3  -2 5891.71 402.970   2
   4  -3   2 6162.30 349.496   3
   4  -3   3 901.836 144.197   3
  -4   3  -3 887.531 223.898   1
  -4   3  -3 977.871 171.638   2
  -4   3  -3 995.190 215.104   4
   4  -3   4 969.720 143.009   3
   4  -3   4 1247.53 242.983   7
  -4   3  -4 941.201 171.341   2
  -4   3  -4 1191.26 250.746   4
  -4   3  -4 1009.45 235.418   1
  -4   3  -5 3813.29 443.385   1
  -4   3  -5 4201.12 440.704   4
  -4   3  -5 3282.35 300.931   2
   4  -3   5 3997.15 278.312   3
   4  -3   5 4119.48 394.254   7
   4  -3   5 3995.15 310.157   2
  -4   3  -6 3760.19 460.439   1
  -4   3  -6 3581.41 322.192   2
  -4   3  -6 4496.33 472.541   4
   4  -3   6 3652.43 270.277   3
   4  -3   6 3404.80 363.187   7
   4  -3   6 3664.22 308.112   2
  -4   3  -7 6049.12 615.551   1
   4  -3   7 6731.46 467.871   5
  -4   3  -7 5689.30 560.084   4
   4  -3   7 5925.05 345.356   3
   4  -3   7 5952.56 396.340   2
   4  -3   8 7952.87 551.859   5
  -4   3  -8 9276.99 737.405   4
   4  -3   8 7591.61 404.011   3
   4  -3   8 8130.90 472.445   2
  -4   3  -8 8478.76 728.947   1
   4  -3   9-24.8362 123.350   5
  -4   3  -9 213.919 132.220   4
  -4   3  -9 11.2035 103.426   1
   4  -3  10 304.237 178.278   5
  -4   3 -10-274.232 190.824   4
  -4   3 -10 54.1845 231.498   1
   4  -3  11 5378.92 547.928   5
  -4   3 -11 4703.95 682.977   1
  -4   3 -11 4988.49 645.033   4
   4  -3  12-105.335 193.312   5
  -4   2  14-469.936 214.062   5
  -4   2  13 792.801 274.646   5
   4  -2 -12 1294.88 335.330   3
  -4   2  12 1340.44 292.153   5
   4  -2 -11 1063.05 282.830   3
  -4   2  11 755.669 217.830   5
   4  -2 -10 2396.90 386.940   3
  -4   2  10 2310.64 321.798   5
   4  -2  -9 366.151 164.459   3
  -4   2   9 248.754 140.340   5
   4  -2  -8 784.240 218.928   3
  -4   2   8 1079.08 204.455   5
  -4   2   8 1362.67 236.831   4
  -4   2   7 4112.66 346.466   4
   4  -2  -7 3044.44 374.948   3
  -4   2   6 20558.7 632.467   5
   4  -2  -6 20422.3 868.438   3
  -4   2   5 12597.9 422.762   5
   4  -2  -5 12473.3 650.423   3
   4  -2  -4 32455.5 989.287   3
  -4   2   3 22.2805 93.7476   3
   4  -2  -3 49.3088 84.6577   3
   4  -2  -3 15.3985 54.8919   6
   4  -2  -2 4027.33 262.478   6
  -4   2   2 4321.39 334.199   3
   4  -2  -2 3960.13 320.296   3
  -4   2   2 4412.63 358.110   2
  -4   2   1 3210.61 274.947   3
   4  -2  -1 2832.96 258.306   3
  -4   2   1 2840.34 274.665   2
  -4   2   0 7845.36 406.604   4
  -4   2   0 7382.57 425.901   2
   4  -2   0 7656.98 392.309   3
  -4   2  -1 11675.9 691.065   1
  -4   2  -1 11388.1 509.294   4
  -4   2  -1 11117.5 513.209   2
   4  -2   1 11416.9 448.326   3
  -4   2  -2 3102.40 370.663   1
  -4   2  -2 3100.14 291.870   4
  -4   2  -2 2600.46 252.362   2
   4  -2   2 2657.41 211.332   3
  -4   2  -3 6662.49 523.790   1
  -4   2  -3 7177.48 455.026   4
  -4   2  -3 6223.23 368.705   2
   4  -2   3 6769.47 311.582   3
   4  -2   3 6509.80 472.451   7
   4  -2   4 73.3494 62.9680   3
   4  -2   4 82.6961 91.6127   7
  -4   2  -4 49.4905 153.183   1
  -4   2  -4 149.245 74.9783   2
  -4   2  -4 83.5061 87.6933   4
  -4   2  -5 4984.68 489.654   1
   4  -2   5 4480.96 295.274   5
  -4   2  -5 4306.49 409.373   4
  -4   2  -5 4432.42 307.878   2
   4  -2   5 4356.79 235.773   3
   4  -2   5 4630.33 384.102   7
   4  -2   6 7073.97 343.231   3
  -4   2  -6 6979.27 600.309   1
   4  -2   6 7709.42 430.781   5
  -4   2  -6 7095.60 390.510   2
  -4   2  -6 7362.58 548.164   4
   4  -2   6 7035.10 297.248   3
   4  -2   6 7933.00 486.314   7
  -4   2  -7 594.811 119.935   2
   4  -2   7 471.282 96.6478   3
   4  -2   7 591.259 162.485   7
  -4   2  -7 577.920 226.914   1
   4  -2   7 638.537 153.393   5
  -4   2  -7 206.481 151.243   4
   4  -2   7 267.212 104.832   2
  -4   2  -8 1683.46 353.872   1
   4  -2   8 1958.46 261.166   5
  -4   2  -8 2259.31 361.882   4
   4  -2   8 1685.88 161.375   3
   4  -2   8 1869.80 210.831   2
   4  -2   9 12418.8 708.488   5
  -4   2  -9 13134.5 855.019   4
   4  -2   9 13391.7 540.242   2
  -4   2  -9 12539.5 922.645   1
   4  -2  10 201.264 139.918   5
  -4   2 -10-96.3008 124.523   4
  -4   2 -10 288.818 231.506   1
   4  -2  11-59.6824 118.150   5
  -4   2 -11 9.97247 207.351   1
   4  -2  12 1532.77 333.962   5
  -4   2 -12 1369.10 402.288   1
   4  -2  13 701.850 289.464   5
   4  -2  14 578.404 305.511   5
  -4   1  14 134.451 135.611   5
  -4   1  13 164.451 192.950   5
   4  -1 -12 525.946 249.442   3
  -4   1  12 592.973 208.359   5
  -4   1  11 6067.47 561.422   5
   4  -1 -11 5474.52 599.364   3
   4  -1 -10 2416.46 397.989   3
  -4   1  10 2515.65 365.618   5
   4  -1  -9 2826.57 391.004   3
  -4   1   9 2424.66 322.879   5
  -4   1   8 4995.52 419.963   5
  -4   1   8 5580.10 439.468   4
   4  -1  -8 5941.84 535.806   3
  -4   1   7 13852.9 619.194   4
   4  -1  -7 16411.5 822.186   3
   4  -1  -6 342.717 163.572   3
  -4   1   6 73.5857 84.7933   5
  -4   1   6 362.323 114.401   4
  -4   1   5 10724.8 437.515   5
  -4   1   5 10493.8 433.623   4
   4  -1  -5 10842.7 606.291   3
  -4   1   4 8555.42 344.262   4
  -4   1   4 9130.60 495.881   3
   4  -1  -4 8623.61 516.869   3
  -4   1   3 8547.51 448.811   3
   4  -1  -3 7630.13 455.829   3
   4  -1  -2 3074.82 229.042   6
  -4   1   2 3823.84 294.034   3
   4  -1  -2 3251.87 283.022   3
   4  -1  -1 15954.3 555.760   6
  -4   1   1 15260.8 382.444   4
  -4   1   1 15603.6 551.573   3
   4  -1  -1 16276.6 580.835   3
  -4   1   1 16048.7 595.903   2
   4  -1   0 3902.52 302.237   6
  -4   1   0 4369.72 224.617   4
  -4   1   0 4157.95 276.190   3
   4  -1   0 4265.16 279.270   3
  -4   1   0 3961.85 289.214   2
  -4   1  -1 5523.30 281.969   4
  -4   1  -1 5239.50 469.376   1
  -4   1  -1 5285.17 322.644   2
   4  -1   1 5684.86 296.345   3
  -4   1  -2 25160.4 997.386   1
  -4   1  -2 25747.9 679.009   4
  -4   1  -2 24152.5 657.343   2
   4  -1   2 25218.0 569.644   3
   4  -1   2 26217.0 918.502   7
  -4   1  -3 1998.45 220.094   4
  -4   1  -3 1991.61 191.575   2
   4  -1   3 1957.65 148.964   3
  -4   1  -3 1870.16 300.288   1
   4  -1   3 2191.44 263.428   7
   4  -1   4 1465.62 213.790   7
   4  -1   4 1478.44 138.283   5
  -4   1  -4 1435.66 259.434   1
  -4   1  -4 1586.54 162.431   2
  -4   1  -4 1477.99 205.555   4
   4  -1   4 1387.62 112.592   3
  -4   1  -5 912.396 116.712   2
   4  -1   5 1013.65 169.113   7
  -4   1  -5 1026.10 234.028   1
   4  -1   5 775.412 125.696   5
  -4   1  -5 935.847 176.740   4
   4  -1   5 833.732 79.9254   3
   4  -1   6 5994.64 210.184   3
  -4   1  -6 7666.87 611.599   1
   4  -1   6 8256.79 424.472   5
  -4   1  -6 7376.56 323.440   2
  -4   1  -6 8300.31 534.162   4
   4  -1   6 6207.59 184.786   3
   4  -1   6 7594.30 463.233   7
  -4   1  -7 10540.0 751.191   1
   4  -1   7 10829.3 529.188   5
  -4   1  -7 10641.1 388.005   2
  -4   1  -7 11791.1 679.173   4
   4  -1   7 11496.5 553.878   7
   4  -1   8 1164.48 184.270   7
  -4   1  -8 997.189 283.910   1
   4  -1   8 1263.21 208.014   5
   4  -1   8 1144.94 85.9021   3
   4  -1   8 1455.64 148.357   2
  -4   1  -9 4183.05 547.652   1
   4  -1   9 5007.25 425.961   5
   4  -1   9 4732.89 370.481   7
   4  -1   9 4517.62 258.182   2
   4  -1  10 7675.66 564.698   5
  -4   1 -10 6686.16 700.895   1
   4  -1  11 497.116 213.785   5
  -4   1 -11 873.334 312.975   1
   4  -1  12 113.256 115.511   5
  -4   1 -12 574.857 317.163   1
   4  -1  13 844.443 270.123   5
  -4   1 -13 131.317 171.897   1
   4  -1  14 694.855 217.869   5
   4  -1  15 1719.74 382.482   5
  -4   0  14 230.829 265.368   5
  -4   0  13 373.702 152.753   5
   4   0 -12 8183.18 751.984   3
  -4   0  12 7323.52 668.608   5
   4   0 -11 4931.69 576.081   3
  -4   0  11 3412.80 467.645   5
   4   0 -10 26603.6 1231.61   3
  -4   0  10 26556.2 1128.52   5
   4   0  -9 147.412 180.120   3
  -4   0   9 147.834 147.811   5
   4   0  -8 249.050 171.711   3
  -4   0   8 253.846 109.437   5
  -4   0   8-93.7944 102.696   4
   4   0  -7 2316.77 329.648   3
  -4   0   7 2157.21 279.088   5
  -4   0   7 2723.49 272.940   4
   4   0  -6 222.219 124.580   3
  -4   0   6 222.586 90.8920   4
  -4   0   5 7642.53 345.142   4
   4   0  -5 7315.12 515.797   3
  -4   0   4 3001.65 175.851   4
  -4   0   4 3068.11 300.233   3
   4   0  -4 3385.80 338.743   3
  -4   0   3 14231.4 572.501   3
   4   0  -3 15082.7 644.755   3
  -4   0   2 4848.86 319.542   3
   4   0  -2 4742.06 341.625   3
  -4   0   1 1018.69 142.763   3
   4   0  -1 893.579 154.290   3
   4   0   0 21028.5 696.642   6
  -4   0   0 21697.2 564.144   3
   4   0   0 21435.2 612.214   3
  -4   0  -1 634.569 212.411   1
  -4   0  -1 523.846 100.683   3
   4   0   1 414.855 139.359   7
   4   0   1 368.914 85.8360   3
  -4   0  -1 488.395 103.063   2
  -4   0  -2 1285.51 254.538   1
   4   0   2 1175.31 200.737   7
  -4   0  -2 968.471 129.468   2
   4   0   2 1077.67 119.863   3
   4   0   3 41971.2 1135.28   7
   4   0   3 41669.9 1135.31   6
  -4   0  -3 40224.6 1255.03   1
  -4   0  -3 39129.6 681.535   2
   4   0   3 37081.7 533.610   3
   4   0   4 1019.50 194.619   7
   4   0   4 1288.81 134.995   5
  -4   0  -4 912.226 252.091   1
  -4   0  -4 845.572 95.8761   2
   4   0   5 2632.06 284.499   7
  -4   0  -5 2726.07 357.620   1
   4   0   5 2628.88 208.212   5
  -4   0  -5 2129.32 126.699   2
   4   0   6-2.52803 74.8708   7
   4   0   6 30.8220 57.5494   5
  -4   0  -6 23.0519 151.131   1
   4   0   7 2874.71 279.828   7
   4   0   7 2452.09 253.058   5
  -4   0  -7 2410.05 366.911   1
   4   0   8 3963.84 323.854   7
  -4   0  -8 3610.36 470.082   1
   4   0   8 4184.16 343.531   5
   4   0   8 4050.31 364.632   7
  -4   0  -9 3313.05 472.753   1
   4   0   9 3861.16 365.030   5
   4   0   9 3608.64 333.800   7
   4   0   9 3697.24 309.190   7
   4   0  10 6312.36 497.813   5
   4   0  10 6077.86 425.379   7
  -4   0 -10 5997.00 646.567   1
   4   0  11 5849.82 511.224   5
  -4   0 -11 6562.59 699.230   1
   4   0  12 2083.87 336.245   5
  -4   0 -12 1576.98 379.977   1
   4   0  13-33.0184 119.815   5
  -4   0 -13-126.011 211.213   1
   4   0  14 392.242 219.671   5
   4   0  15-13.2868 290.065   5
  -4  -1  14-344.510 242.554   5
  -4  -1  13 974.570 287.136   5
   4   1 -12-358.480 216.967   3
  -4  -1  12-139.872 119.488   5
  -4  -1  11 4561.53 557.579   2
   4   1 -11 3627.03 490.020   3
  -4  -1  11 3839.00 516.885   5
   4   1 -10 2651.42 426.376   3
  -4  -1  10 2851.28 448.115   2
  -4  -1  10 3359.82 425.898   5
   4   1  -9 9331.12 717.372   3
  -4  -1   9 9603.83 679.615   5
   4   1  -8 3895.60 457.962   3
  -4  -1   8 4013.49 428.626   5
   4   1  -7 2633.02 363.186   3
  -4  -1   7 2994.96 296.406   4
   4   1  -6 3947.62 405.567   3
   4   1  -5 534.298 158.759   3
   4   1  -4 4204.62 379.252   3
  -4  -1   4 4459.88 362.756   3
  -4  -1   3 1679.60 214.166   3
   4   1  -3 1529.98 168.790   5
   4   1  -3 1495.98 220.567   3
   4   1  -2 28210.7 841.312   3
   4   1  -2 28455.0 617.072   5
  -4  -1   2 27758.2 766.431   3
   4   1  -1 2640.17 245.415   3
   4   1  -1 2522.77 175.110   5
  -4  -1   1 2658.65 221.591   3
  -4  -1   0 43.6383 45.3781   3
   4   1   0-19.6454 57.6046   3
   4   1   0-8.67664 38.8464   5
   4   1   1 29330.9 657.510   3
   4   1   1 27628.4 542.705   5
  -4  -1  -1 28992.4 572.220   3
   4   1   2 1494.95 133.959   3
  -4  -1  -2 1414.01 112.570   3
  -4  -1  -2 1273.99 270.671   1
  -4  -1  -2 1286.00 126.852   2
   4   1   3 2506.52 305.496   6
  -4  -1  -3 2242.40 319.728   1
  -4  -1  -3 3096.06 164.628   2
   4   1   4 27023.7 974.543   6
  -4  -1  -4 27216.4 1047.83   1
   4   1   5 3300.30 379.333   6
  -4  -1  -5 3373.46 399.642   1
   4   1   5 3453.46 309.321   4
  -4  -1  -6 4954.83 489.965   1
   4   1   6 4802.05 457.663   6
   4   1   6 4883.83 393.031   4
   4   1   7 116.266 120.982   7
   4   1   7 129.780 165.374   6
   4   1   7-38.8804 41.7732   4
  -4  -1  -7 118.707 151.304   1
   4   1   8 1173.68 214.385   7
   4   1   8 639.019 196.001   6
  -4  -1  -8 560.813 226.453   1
   4   1   8 1060.10 230.732   4
   4   1   9 981.832 193.715   7
   4   1   9 613.030 203.054   6
  -4  -1  -9 591.750 256.165   1
   4   1   9 1232.46 208.079   5
   4   1  10 446.806 162.915   7
  -4  -1 -10 457.519 236.760   1
   4   1  10 577.714 222.681   6
   4   1  10 660.569 187.728   5
   4   1  11 12443.0 880.316   6
   4   1  11 13837.7 744.737   5
   4   1  11 12658.5 651.100   7
  -4  -1 -11 11873.5 940.450   1
   4   1  12 15560.1 1010.50   6
   4   1  12 14782.8 821.412   5
  -4  -1 -12 14783.2 1086.85   1
   4   1  13 2834.15 469.358   6
   4   1  13 3063.76 414.877   5
  -4  -1 -13 2643.42 506.645   1
   4   1  14 527.706 255.322   6
   4   1  14 185.121 168.779   5
  -4  -1 -14 132.728 216.308   1
   4   1  15-221.651 176.860   5
  -4  -2  13 810.136 275.267   5
  -4  -2  12 210.685 239.195   5
  -4  -2  11 489.634 218.282   2
   4   2 -11 331.330 245.656   3
  -4  -2  11 899.652 259.545   5
  -4  -2  10 659.512 232.491   2
   4   2 -10 839.538 280.918   3
  -4  -2  10 447.650 262.216   5
   4   2  -9 5231.65 561.455   3
  -4  -2   9 5871.11 590.608   2
   4   2  -8 4288.18 495.185   3
  -4  -2   8 5451.95 539.055   2
  -4  -2   7 1924.57 318.160   2
   4   2  -7 2487.91 351.809   3
   4   2  -6 8994.76 626.300   3
  -4  -2   6 8562.37 382.632   6
   4   2  -6 8414.86 509.220   5
  -4  -2   6 8944.12 629.595   2
   4   2  -5 3233.68 368.020   3
  -4  -2   5 3895.07 268.885   6
   4   2  -5 3809.42 327.343   5
  -4  -2   5 3912.92 403.794   2
  -4  -2   4 282.446 96.9768   6
   4   2  -4 165.239 130.212   3
   4   2  -4 310.147 117.757   5
  -4  -2   4 429.763 145.760   2
   4   2  -3 3296.98 337.137   3
  -4  -2   3 3598.28 269.273   6
   4   2  -3 3342.48 282.141   5
  -4  -2   3 3388.03 332.009   2
  -4  -2   3 3449.13 315.140   3
   4   2  -2 2019.38 245.669   3
   4   2  -2 1810.79 197.722   5
  -4  -2   2 1894.37 245.416   2
  -4  -2   2 2241.20 244.170   3
   4   2  -1 30119.6 844.590   3
   4   2  -1 29479.5 751.261   5
  -4  -2   1 29371.5 774.635   3
   4   2   0 3480.52 270.397   3
   4   2   0 3530.56 263.258   5
  -4  -2   0 3093.64 252.322   2
  -4  -2   0 3547.18 247.533   3
  -4  -2  -1 1380.08 164.647   2
  -4  -2  -1 1487.14 147.039   3
  -4  -2  -2 14032.8 428.050   2
  -4  -2  -2 15383.1 790.236   1
  -4  -2  -2 14709.2 365.676   3
   4   2   3 3415.92 362.124   6
  -4  -2  -3 4338.59 442.687   1
   4   2   3 3791.27 205.906   4
  -4  -2  -3 3224.19 167.683   2
  -4  -2  -3 3807.40 138.674   3
  -4  -2  -3 4061.83 165.269   2
   4   2   4 2687.83 335.344   6
  -4  -2  -4 2729.86 358.964   1
   4   2   4 3153.64 236.562   4
   4   2   5 17693.5 843.185   6
  -4  -2  -5 17596.7 866.322   1
   4   2   5 18387.8 643.303   4
  -4  -2  -6 4511.28 455.789   1
   4   2   6 3930.48 436.157   6
   4   2   6 4172.24 336.489   4
   4   2   6 4431.34 415.999   7
   4   2   7 1889.46 281.832   7
   4   2   7 1017.72 259.187   6
   4   2   7 2274.63 269.716   4
  -4  -2  -7 1411.74 298.198   1
  -4  -2  -8 5804.99 575.143   1
   4   2   8 5258.38 530.523   6
   4   2   8 6029.03 483.263   4
   4   2   8 5382.64 457.629   7
  -4  -2  -9 10120.3 780.704   1
   4   2   9 11083.5 773.330   6
   4   2   9 10895.5 649.237   7
   4   2  10 68.1182 114.793   7
  -4  -2 -10-159.425 211.815   1
   4   2  10 32.1538 131.396   6
  -4  -2 -11 301.238 207.434   1
   4   2  11 473.208 139.954   7
   4   2  11 499.079 257.774   6
   4   2  12 9011.06 778.854   6
   4   2  12 8244.00 628.550   5
   4   2  12 7946.65 559.977   7
  -4  -2 -12 9564.68 865.583   1
   4   2  13 7963.07 762.002   6
   4   2  13 7952.58 631.187   5
  -4  -2 -13 7701.40 815.431   1
   4   2  14 691.849 267.071   6
   4   2  14 981.876 286.076   5
  -4  -2 -14 1067.11 382.550   1
   4   2  15 452.526 173.658   5
  -4  -3  11 3323.18 491.084   2
  -4  -3  10-85.0433 185.171   2
  -4  -3   9 208.124 191.893   2
   4   3  -8 5744.00 573.986   3
  -4  -3   8 6178.39 595.779   2
   4   3  -7 7340.30 624.218   3
  -4  -3   7 7674.81 629.829   2
  -4  -3   6 1937.64 310.558   2
   4   3  -6 2865.15 389.371   3
   4   3  -5 4628.38 449.883   3
  -4  -3   5 5164.61 388.150   6
  -4  -3   5 5054.14 467.441   2
  -4  -3   4 3451.98 314.553   6
   4   3  -4 3795.25 361.243   5
  -4  -3   4 3601.25 377.589   2
  -4  -3   3 242.572 126.482   2
  -4  -3   3 173.082 102.171   3
  -4  -3   3 354.280 129.697   6
   4   3  -3 153.333 114.345   5
  -4  -3   2 4181.10 341.131   6
   4   3  -2 4231.75 350.760   5
  -4  -3   2 4326.68 365.835   2
  -4  -3   2 4641.61 358.559   3
  -4  -3   1 2240.90 259.171   6
   4   3  -1 2567.17 267.626   5
  -4  -3   1 2352.95 242.836   3
  -4  -3   0 25260.6 839.029   6
   4   3   0 24806.3 785.430   5
  -4  -3   0 27167.9 744.354   3
  -4  -3  -1 1957.00 207.072   2
  -4  -3  -1 2564.79 215.713   3
  -4  -3  -2 5782.88 295.324   2
  -4  -3  -2 5667.22 494.094   1
  -4  -3  -2 6298.43 290.263   3
  -4  -3  -3 8151.65 584.767   1
   4   3   3 8857.78 325.634   4
  -4  -3  -3 8789.60 296.827   2
  -4  -3  -3 9017.37 285.619   3
  -4  -3  -4 3035.08 380.090   1
   4   3   4 3335.59 236.910   4
   4   3   4 2972.70 353.098   7
  -4  -3  -4 2793.38 104.571   3
   4   3   5 14128.6 797.526   6
  -4  -3  -5 14981.0 797.625   1
   4   3   5 14869.8 565.452   4
   4   3   5 14342.7 753.584   7
  -4  -3  -6 37658.8 1283.98   1
   4   3   6 40143.0 1372.23   6
   4   3   6 41241.6 1035.19   4
   4   3   6 41017.2 1266.41   7
  -4  -3  -7 10439.8 710.438   1
   4   3   7 9994.98 718.207   6
   4   3   7 10718.6 580.386   4
   4   3   7 11365.0 679.753   7
   4   3   8 721.611 206.725   7
   4   3   8 1388.92 324.926   6
  -4  -3  -8 831.947 254.826   1
   4   3   8 756.515 191.478   4
  -4  -3  -9 4799.85 540.890   1
   4   3   9 4245.89 518.080   6
   4   3   9 4431.22 447.936   7
  -4  -3 -10 3480.96 499.100   1
   4   3  10 4117.82 524.612   6
   4   3  10 3106.06 390.882   7
   4   3  11 276.120 164.671   7
  -4  -3 -11 561.481 269.450   1
   4   3  11 185.008 212.356   6
   4   3  12 1292.22 277.489   7
   4   3  12 1555.33 378.633   6
  -4  -3 -12 995.520 358.845   1
   4   3  13 3825.18 562.141   6
  -4  -3 -13 3511.93 573.980   1
   4   3  14 3012.41 500.872   6
   4   3  14 2909.63 449.316   5
  -4  -3 -14 2086.06 460.747   1
   4   3  15 658.823 235.575   5
  -4  -4  10 1884.58 387.793   2
   4   4 -10 1695.99 326.711   7
  -4  -4   9 60.7934 155.794   2
  -4  -4   8 703.076 252.173   2
  -4  -4   7 7585.29 650.442   2
  -4  -4   6 6860.62 603.662   2
  -4  -4   5 1993.65 322.046   2
  -4  -4   4 6783.08 526.439   2
   4   4  -4 6337.97 369.768   4
  -4  -4   3 3058.82 349.241   6
   4   4  -3 3582.61 387.376   5
  -4  -4   3 3251.38 359.898   2
   4   4  -3 3246.32 242.268   4
  -4  -4   2 733.408 180.548   2
  -4  -4   2 813.681 187.942   6
  -4  -4   2 655.528 175.889   3
   4   4  -2 470.339 150.748   5
   4   4  -2 692.628 117.651   4
  -4  -4   1 8287.95 546.522   6
   4   4  -1 7607.15 508.331   5
  -4  -4   1 8528.17 496.444   2
   4   4  -1 7405.37 303.367   4
  -4  -4   1 9279.11 512.263   3
  -4  -4   0 2616.31 314.805   6
   4   4   0 1947.13 265.781   5
   4   4   0 2148.76 165.214   4
   4   4   0 2098.32 319.097   7
  -4  -4   0 2336.83 248.410   3
  -4  -4  -1 16996.0 772.986   6
   4   4   1 15708.0 821.231   7
  -4  -4  -1 16526.3 603.274   3
   4   4   2 17462.9 859.821   7
  -4  -4  -2 16869.1 770.508   6
  -4  -4  -2 15891.9 813.202   1
  -4  -4  -2 17142.3 555.865   2
  -4  -4  -2 16888.3 564.057   3
   4   4   3 619.488 180.297   7
  -4  -4  -3 403.121 99.7514   2
  -4  -4  -3 686.889 116.051   3
  -4  -4  -3 752.674 234.555   1
   4   4   4 190.924 151.320   7
  -4  -4  -4 56.8160 168.422   1
  -4  -4  -4 87.7475 65.7330   3
  -4  -4  -4 145.282 56.9481   2
   4   4   5 1723.55 281.905   7
  -4  -4  -5 1070.01 264.837   1
   4   4   5 1540.06 194.944   4
  -4  -4  -5 1430.47 98.6693   3
  -4  -4  -5 1366.85 106.693   3
  -4  -4  -6 9607.90 655.611   1
   4   4   6 9667.75 507.262   4
   4   4   6 11242.7 698.598   7
  -4  -4  -7 21053.3 996.386   1
   4   4   7 20933.9 800.169   4
   4   4   7 22582.4 999.669   7
   4   4   8 2290.75 334.643   7
   4   4   8 2176.85 403.822   6
  -4  -4  -8 3056.25 423.764   1
   4   4   8 2973.69 343.919   4
   4   4   9 1551.21 283.472   7
   4   4   9 969.851 297.857   6
  -4  -4  -9 1541.28 336.794   1
   4   4  10 1166.19 268.240   7
  -4  -4 -10 713.243 272.146   1
   4   4  10 973.822 275.972   6
   4   4  11-51.6386 143.414   7
  -4  -4 -11 110.657 213.536   1
   4   4  11 374.802 225.413   6
   4   4  12 687.063 217.358   7
   4   4  12 767.340 277.190   6
  -4  -4 -12 1023.92 335.385   1
   4   4  13 969.265 268.038   7
   4   4  13 755.831 303.585   6
  -4  -4 -13 919.718 369.674   1
   4   4  14 1136.33 340.383   6
  -4  -4 -14 1628.35 448.467   1
   4   5  -9 2399.50 386.731   7
  -4  -5   9 2025.03 402.003   2
   4   5  -8 39.4042 122.205   7
  -4  -5   8 208.369 152.283   2
   4   5  -7-43.4079 74.8292   7
  -4  -5   7-24.8865 153.270   2
   4   5  -7 121.279 72.3472   4
  -4  -5   6 8002.87 663.930   2
   4   5  -6 7732.70 531.433   4
   4   5  -6 7750.96 637.895   7
  -4  -5   5 4241.21 467.586   2
   4   5  -5 4025.97 358.906   4
   4   5  -5 3964.81 475.190   7
  -4  -5   4 3577.95 407.733   2
   4   5  -4 3769.18 451.300   7
  -4  -5   3 4356.14 434.446   2
   4   5  -3 4017.27 327.467   4
   4   5  -3 4916.37 513.576   7
   4   5  -2 730.097 221.607   7
  -4  -5   2 585.976 185.768   2
   4   5  -2 606.365 153.161   4
   4   5  -1 3666.34 284.751   4
  -4  -5   1 3915.26 376.745   2
   4   5  -1 3932.37 443.798   7
   4   5   0 561.764 193.671   7
  -4  -5   0 381.570 139.151   2
  -4  -5   0 145.498 89.0689   3
   4   5   0 354.557 130.714   5
  -4  -5  -1 17939.0 693.570   3
   4   5   1 17856.7 919.231   7
  -4  -5  -2 60127.6 1194.54   3
  -4  -5  -2 57378.5 1524.47   1
   4   5   2 60287.6 1661.37   7
  -4  -5  -3 11490.8 496.625   3
  -4  -5  -3 12062.8 708.126   1
  -4  -5  -3 12274.4 476.270   2
   4   5   3 12812.9 774.226   7
   4   5   4 169.479 166.305   7
  -4  -5  -4 118.959 75.2455   3
  -4  -5  -4 166.530 86.7145   2
  -4  -5  -5 1653.13 166.548   3
   4   5   5 1352.09 282.374   7
  -4  -5  -5 1201.05 261.170   1
  -4  -5  -5 1464.70 115.540   2
  -4  -5  -6 1617.68 151.231   3
   4   5   6 1392.13 288.569   7
  -4  -5  -6 1782.37 315.160   1
  -4  -5  -6 1738.16 137.346   3
  -4  -5  -7 2582.86 158.667   3
  -4  -5  -7 3059.12 400.023   1
  -4  -5  -7 2729.12 142.093   3
  -4  -5  -8 4092.16 172.576   3
  -4  -5  -8 4866.43 162.177   3
   4   5   9 438.985 200.000   7
  -4  -5  -9 127.126 192.613   1
   4   5  10 1421.54 316.516   7
  -4  -5 -10 1432.54 331.788   1
   4   5  11 284.974 148.313   7
  -4  -5 -11 536.911 249.444   1
   4   5  12 152.387 181.747   7
  -4  -5 -12 214.426 209.812   1
   4   5  13 2797.63 421.995   7
   4   5  13 2667.13 529.846   6
  -4  -5 -13 1814.30 409.109   1
   4   5  14 573.670 320.597   6
  -4  -5 -14-14.2294 279.693   1
   4   6  -8 2769.87 430.009   7
  -4  -6   8 2868.11 466.890   2
   4   6  -7 472.119 218.936   7
  -4  -6   7 517.475 229.027   2
   4   6  -7 502.472 201.706   4
   4   6  -6-38.8563 108.522   7
  -4  -6   6-284.207 181.759   2
   4   6  -6-124.828 127.024   4
   4   6  -5 4758.81 444.146   4
  -4  -6   5 4127.54 492.553   2
   4   6  -5 3910.76 477.416   7
   4   6  -4 14249.6 723.653   4
  -4  -6   4 14370.1 836.505   2
   4   6  -4 14705.4 897.039   7
   4   6  -3 402.704 201.521   7
  -4  -6   3 399.318 176.273   2
   4   6  -3 331.133 146.596   4
   4   6  -2 915.315 265.489   7
  -4  -6   2 835.445 230.384   2
  -4  -6   1 23479.3 934.754   2
   4   6  -1 22083.7 1072.35   7
  -4  -6   0 5391.63 431.757   2
   4   6   0 4068.77 467.816   7
   4   6   1 196.560 188.350   7
  -4  -6  -1-60.2814 117.007   2
  -4  -6  -1 156.134 102.954   3
  -4  -6  -2 3755.84 349.078   3
  -4  -6  -2 4086.35 435.937   1
  -4  -6  -2 4507.90 350.989   2
   4   6   2 4420.29 491.430   7
  -4  -6  -3 10491.5 530.955   3
  -4  -6  -3 9759.39 650.269   1
   4   6   3 9804.53 726.233   7
  -4  -6  -4 3516.79 297.240   3
  -4  -6  -4 3428.87 404.794   1
  -4  -6  -4 3576.06 279.741   2
   4   6   4 3360.06 443.511   7
   4   6   5 1780.21 345.447   7
  -4  -6  -5 2006.74 313.964   1
  -4  -6  -5 1551.39 199.502   3
  -4  -6  -5 1943.17 185.313   2
  -4  -6  -6 3207.64 257.204   3
  -4  -6  -6 3499.55 411.499   1
  -4  -6  -6 3416.36 241.194   3
  -4  -6  -6 3522.69 205.362   2
   4   6   7 767.623 240.605   7
  -4  -6  -7 1071.37 128.747   3
  -4  -6  -7 1174.69 259.964   1
   4   6   8 1510.65 331.330   7
  -4  -6  -8 1011.86 117.971   3
  -4  -6  -8 1457.19 307.099   1
  -4  -6  -9 4517.85 534.250   1
   4   6   9 4344.57 544.811   7
   4   6  10 278.839 182.845   7
  -4  -6 -10 422.505 230.420   1
  -4  -6 -11 391.695 230.447   1
   4   6  11 279.062 224.607   7
   4   6  12 406.407 215.776   7
  -4  -6 -12-144.982 227.502   1
   4   6  13 399.951 260.585   7
  -4  -6 -13 200.646 265.947   1
   4   6  14 2680.92 462.662   7
  -4  -6 -14 2053.97 450.786   1
   4   7  -7 212.097 199.513   7
  -4  -7   7-3.66547 198.617   2
   4   7  -6 635.947 198.876   7
  -4  -7   6 396.622 197.221   2
   4   7  -6 108.644 188.231   4
  -4  -7   5 4762.83 546.239   2
   4   7  -5 3778.32 442.307   4
   4   7  -5 4595.30 542.356   7
   4   7  -4 25680.0 1074.35   4
  -4  -7   4 26833.1 1205.11   2
   4   7  -4 25919.7 1247.32   7
   4   7  -3 15091.9 804.800   4
  -4  -7   3 15401.7 877.378   2
   4   7  -3 14326.7 920.808   7
   4   7  -2 545.431 206.910   7
  -4  -7   2 275.601 180.752   2
   4   7  -2 616.812 193.552   4
   4   7  -1 221.758 152.143   7
  -4  -7   1 107.356 134.373   2
   4   7  -1-184.226 133.310   4
   4   7   0 769.658 256.838   7
  -4  -7   0 771.087 212.529   2
   4   7   1 685.228 235.287   7
  -4  -7  -1 934.490 203.156   2
  -4  -7  -1 872.419 238.442   1
  -4  -7  -2 1377.04 262.139   1
   4   7   2 1820.72 357.706   7
  -4  -7  -2 1503.57 234.932   2
   4   7   3-278.106 170.418   7
  -4  -7  -3-222.562 168.893   1
  -4  -7  -3 8.36934 104.376   3
  -4  -7  -3 99.5265 101.087   2
   4   7   3-204.600 123.883   2
  -4  -7  -4 6372.58 440.949   3
  -4  -7  -4 5900.91 512.361   1
   4   7   4 5743.71 417.656   2
  -4  -7  -4 5973.33 401.327   2
   4   7   4 6153.81 623.262   7
   4   7   5 1242.23 201.682   2
   4   7   5 1081.88 296.183   7
  -4  -7  -5 1493.03 272.060   1
   4   7   6 1391.62 344.999   7
  -4  -7  -6 1064.67 157.221   2
  -4  -7  -6 1024.97 238.462   1
   4   7   7 2925.89 452.311   7
  -4  -7  -7 3128.51 401.672   1
   4   7   8 249.319 165.951   7
  -4  -7  -8 119.407 134.850   1
   4   7   9 242.854 205.695   7
  -4  -7  -9-131.628 175.291   1
   4   7  10 3445.15 512.329   7
  -4  -7 -10 3181.80 471.392   1
  -4  -7 -11 1782.39 376.288   1
   4   7  11 1536.12 374.640   7
   4   7  12 29.4111 194.889   7
  -4  -7 -12-121.104 194.853   1
   4   7  13 208.445 176.993   7
  -4  -7 -13 306.420 235.845   1
   4   7  14 240.404 157.891   7
  -4  -7 -14-402.603 281.184   1
   4   8  -6 396.330 233.165   7
  -4  -8   6 290.434 236.765   2
   4   8  -5 746.978 219.136   7
  -4  -8   5 537.303 254.243   2
   4   8  -5 547.772 182.491   4
   4   8  -4 1392.38 344.537   7
  -4  -8   4 1477.91 353.635   2
   4   8  -4 1089.09 276.140   4
   4   8  -3 4896.21 588.338   7
   4   8  -3 5026.68 515.009   4
  -4  -8   3 5253.88 559.232   2
   4   8  -2 5832.45 549.146   4
  -4  -8   2 5152.97 524.900   2
   4   8  -2 6075.28 656.722   7
   4   8  -1 883.416 271.916   7
  -4  -8   1 523.957 217.186   2
   4   8  -1 594.679 211.724   4
   4   8   0 1822.18 363.585   7
  -4  -8   0 1654.56 292.862   2
   4   8   1 294.295 180.817   7
  -4  -8  -1 427.089 188.034   2
  -4  -8  -1 311.637 180.377   1
   4   8   2-159.762 152.951   7
  -4  -8  -2 37.8359 157.803   1
  -4  -8  -2 80.3498 127.679   2
   4   8   3 1500.08 336.181   7
  -4  -8  -3 1433.27 237.338   2
  -4  -8  -3 1296.88 256.228   1
   4   8   4 6.24801 205.750   7
  -4  -8  -4-172.894 163.020   1
  -4  -8  -4 222.817 134.455   2
  -4  -8  -5 4411.99 443.880   1
  -4  -8  -5 4162.64 357.354   2
   4   8   5 5302.11 619.898   7
   4   8   6-101.733 148.413   7
  -4  -8  -6-9.64735 92.6726   2
   4   8   7 148.324 110.991   7
  -4  -8  -7 192.469 101.910   3
  -4  -8  -7 253.759 175.837   1
   4   8   8 4573.17 597.402   7
  -4  -8  -8 4700.84 522.053   1
  -4  -8  -8 4059.45 322.701   3
   4   8   9-38.5973 159.509   7
  -4  -8  -9-135.073 182.919   1
  -4  -8 -10-37.9104 208.532   1
   4   8  10 568.581 240.976   7
   4   8  11 2379.30 476.107   7
  -4  -8 -11 2057.37 397.821   1
   4   8  12-100.896 240.167   7
  -4  -8 -12-77.3346 166.623   1
   4   8  13 315.836 253.970   7
  -4  -8 -13-39.4076 116.882   1
   4   8  14 455.510 280.915   7
   4   8  15-190.226 240.054   7
   4   9  -5-166.808 118.143   7
   4   9  -4 387.105 238.934   7
  -4  -9   4-18.7823 103.110   2
   4   9  -3 84.1533 230.204   7
  -4  -9   3 85.7048 163.256   2
   4   9  -3 195.386 138.819   4
   4   9  -2 3593.75 545.152   7
  -4  -9   2 2637.37 414.877   2
   4   9  -2 3040.31 439.444   4
  -4  -9   1 514.787 266.042   2
   4   9  -1 137.612 189.071   4
   4   9   0 1180.81 375.350   7
  -4  -9   0 994.418 274.027   2
  -4  -9   0 1030.97 260.020   1
   4   9   1 586.704 285.536   7
  -4  -9  -1 885.398 269.385   2
  -4  -9  -1 1263.95 253.520   1
  -4  -9  -2 53.7621 143.163   1
   4   9   2-190.354 249.037   7
  -4  -9  -2 214.027 149.787   2
   4   9   3-8.39065 205.637   7
  -4  -9  -3 48.0107 115.213   2
  -4  -9  -3-206.598 163.233   1
   4   9   4 23.9721 187.999   7
  -4  -9  -4-197.684 136.512   1
   4   9   5 901.851 316.598   7
  -4  -9  -5 656.067 179.479   2
  -4  -9  -5 700.037 218.690   1
   4   9   6 3009.01 562.798   7
  -4  -9  -6 2764.15 382.681   1
  -4  -9  -6 3480.46 341.166   2
   4   9   7-98.8783 240.062   7
  -4  -9  -7 115.845 103.924   3
  -4  -9  -7-163.120 147.734   1
   4   9   8 100.702 110.183   7
  -4  -9  -8-121.113 105.964   3
  -4  -9  -8-7.78642 162.421   1
   4   9   9 1503.18 433.106   7
  -4  -9  -9 1012.90 280.493   1
  -4  -9 -10 263.838 215.462   1
   4   9  10 482.372 286.409   7
   4   9  11 737.715 358.608   7
  -4  -9 -11 231.839 207.836   1
   4   9  12 396.633 300.966   7
  -4  -9 -12 390.116 196.325   1
   4   9  13 108.540 313.098   7
  -4  -9 -13 125.395 153.131   1
   4  10  -4 1475.14 425.965   7
   4  10  -3 775.675 357.725   7
   4  10  -2 446.013 200.741   7
  -4 -10   2-238.788 211.730   2
   4  10  -1 938.278 285.324   7
  -4 -10   1 924.400 256.451   2
   4  10  -1 1668.23 369.739   4
   4  10   0 1122.29 329.217   7
  -4 -10   0 841.741 270.080   2
   4  10   1 406.152 286.925   7
  -4 -10  -1 516.147 203.183   2
   4  10   2 1061.93 369.473   7
  -4 -10  -2 1309.73 290.195   2
   4  10   3 558.659 308.911   7
  -4 -10  -3 201.695 179.177   2
   4  10   4 175.100 258.771   7
  -4 -10  -4 97.8666 135.865   2
   4  10   5 178.319 208.682   7
  -4 -10  -5-146.355 147.089   2
   4  10   6-233.773 267.615   7
  -4 -10  -7 1190.46 259.018   3
   4  10   7 1294.72 373.730   7
   4  10   8 779.084 283.517   7
   4  10   9 20.4945 166.999   7
  -4 -11   0 1318.08 308.053   2
  -4 -11  -1-192.177 254.538   2
  -4 -11  -2 109.762 202.347   2
  -4 -11  -3 799.906 207.003   2
  -4 -11  -4-386.844 192.189   2
  -4 -11  -7 253.515 154.016   3
   5  -8  -4-101.650 88.4848   3
   5  -8  -3 954.156 288.053   3
   5  -8  -2 1983.33 398.011   3
   5  -8  -1 776.180 248.779   3
   5  -8   0 1051.15 289.780   3
   5  -7  -6 1567.09 335.417   3
   5  -7  -5 4968.85 520.362   3
   5  -7  -4-74.6402 160.388   3
  -5   7   4-462.180 226.901   7
   5  -7  -3 502.411 207.613   3
   5  -7  -2 367.511 202.922   3
   5  -7  -1 2003.96 293.349   3
   5  -7   0 274.892 145.669   3
  -5   7   0-1.24377 223.151   4
   5  -7   1 93.2570 118.569   3
  -5   7  -1-257.765 204.258   4
  -5   7  -2 621.833 284.242   4
  -5   7  -3 650.382 294.386   4
  -5   7  -4 963.811 346.906   4
   5  -6  -8 6349.51 628.778   3
   5  -6  -7 1498.92 334.568   3
   5  -6  -6-109.449 189.837   3
   5  -6  -5 859.440 261.743   3
  -5   6   4 6816.06 625.905   1
   5  -6  -4 6453.91 577.410   3
   5  -6  -3 554.127 228.411   3
  -5   6   3 802.789 270.752   1
   5  -6  -2 40.0568 154.957   3
  -5   6   2 31.7234 159.470   1
   5  -6  -1 482.733 194.375   3
  -5   6   1 152.679 175.173   1
   5  -6   0 348.062 167.584   3
  -5   6   0-132.168 176.336   1
  -5   6   0 287.560 182.407   4
  -5   6  -1 441.772 219.612   1
   5  -6   1 421.202 159.778   3
  -5   6  -1 424.290 191.248   4
   5  -6   2-52.9987 113.002   3
  -5   6  -2 55.8376 133.804   1
  -5   6  -3 1302.70 322.829   1
  -5   6  -3 1020.18 316.673   4
  -5   6  -4 777.509 247.481   4
  -5   6  -5 1088.12 376.615   4
  -5   6  -6 2427.80 490.819   4
  -5   6  -7 2960.27 555.842   4
   5  -5  -9 213.827 227.041   3
   5  -5  -8-116.958 84.4269   3
   5  -5  -7 8471.20 686.202   3
   5  -5  -6 670.171 232.307   3
   5  -5  -5 3674.72 438.395   3
   5  -5  -4 1316.53 270.834   3
  -5   5   3 4625.24 519.693   1
   5  -5  -3 3836.29 415.928   3
   5  -5  -2 1292.33 253.325   3
  -5   5   2 1148.68 282.873   1
   5  -5  -1 1144.42 241.866   3
  -5   5   1 1121.95 274.541   1
   5  -5   0 221.761 120.022   3
  -5   5   0 208.346 162.409   4
  -5   5   0 318.346 155.340   1
  -5   5  -1-16.6885 79.2449   1
  -5   5  -1-47.2282 82.0836   4
  -5   5  -2 2527.95 368.226   1
   5  -5   2 2348.02 286.685   3
  -5   5  -2 2793.54 414.910   4
   5  -5   3-74.8909 103.801   3
  -5   5  -3 152.819 134.428   4
  -5   5  -3 260.063 192.812   1
  -5   5  -4 2692.24 423.735   1
  -5   5  -4 2371.59 403.832   4
  -5   5  -5 1140.87 274.737   1
  -5   5  -5 570.773 218.751   4
  -5   5  -6 938.587 262.864   1
  -5   5  -6 1898.24 372.307   4
  -5   5  -7 1845.28 387.231   1
  -5   5  -7 1839.34 361.953   4
  -5   5  -8 3636.03 549.064   4
  -5   5  -8 4329.99 618.782   1
  -5   5  -9 2931.92 537.104   4
   5  -4 -10 2621.02 430.642   3
   5  -4  -9 394.761 195.361   3
   5  -4  -8 587.134 230.862   3
   5  -4  -7 848.522 242.421   3
   5  -4  -6 5863.99 549.490   3
   5  -4  -5 469.370 167.047   3
   5  -4  -4 9823.05 635.778   3
   5  -4  -3 1354.49 260.614   3
  -5   4   2 3863.29 474.886   1
   5  -4  -2 4488.01 420.666   3
   5  -4  -1 495.071 149.003   3
  -5   4   1 658.079 233.951   1
  -5   4   0 2172.46 337.413   1
  -5   4   0 2328.14 320.504   4
   5  -4   0 2348.84 298.375   3
   5  -4   1 2272.04 270.329   3
  -5   4  -1 1975.61 290.745   4
  -5   4  -1 2197.74 353.827   1
   5  -4   2 263.857 113.273   3
  -5   4  -2 459.775 153.778   4
  -5   4  -3 4342.53 494.665   1
  -5   4  -3 4805.29 483.682   4
   5  -4   3 4757.68 353.880   3
  -5   4  -4 5.32127 61.8912   4
  -5   4  -4 345.627 209.139   1
  -5   4  -5 2801.16 428.802   1
  -5   4  -5 2594.56 385.227   4
  -5   4  -6 1551.89 362.873   1
  -5   4  -6 1654.19 324.438   4
  -5   4  -7 2823.10 483.580   1
  -5   4  -7 2766.90 425.521   4
  -5   4  -8 2528.55 474.545   1
  -5   4  -8 3617.10 503.640   4
  -5   4  -9 4268.70 563.636   4
  -5   4  -9 3127.71 554.025   1
  -5   4 -10 1588.48 427.521   1
  -5   4 -10 2111.19 371.931   4
   5  -3 -10 245.513 195.060   3
   5  -3  -9 813.634 246.050   3
   5  -3  -8 103.965 173.180   3
   5  -3  -7 1497.27 296.189   3
   5  -3  -6 1949.14 336.186   3
   5  -3  -5 4472.33 455.121   3
   5  -3  -4 3640.28 396.056   3
   5  -3  -3 14968.8 732.936   3
   5  -3  -2 10014.8 584.546   3
  -5   3   1 8302.07 468.575   4
  -5   3   1 7772.99 658.505   1
   5  -3  -1 8251.17 509.914   3
  -5   3   0 552.860 231.967   1
   5  -3   0 165.627 108.345   3
  -5   3   0 263.129 119.671   4
  -5   3  -1 2301.54 363.660   1
  -5   3  -1 2310.32 270.697   4
   5  -3   1 2988.57 275.565   3
   5  -3   2 964.342 175.859   3
  -5   3  -2 1250.25 212.700   4
  -5   3  -2 1189.00 299.976   1
   5  -3   3 88.9021 81.1603   3
  -5   3  -3 162.080 205.503   1
  -5   3  -3 97.8330 77.2656   4
  -5   3  -4 2305.24 375.266   1
  -5   3  -4 2935.24 367.778   4
   5  -3   4 2529.04 231.006   3
  -5   3  -5 44.0787 120.413   4
  -5   3  -5 85.9612 171.567   1
  -5   3  -6 1285.81 314.065   1
  -5   3  -6 1713.69 293.918   4
  -5   3  -7 901.475 307.974   1
  -5   3  -7 984.150 250.809   4
  -5   3  -8 4153.39 609.355   1
  -5   3  -8 5085.62 574.066   4
  -5   3  -9 9803.59 802.937   4
  -5   3  -9 8901.89 867.474   1
  -5   3 -10 2253.79 392.301   4
  -5   3 -10 2317.18 490.927   1
   5  -2 -10-130.185 163.388   3
   5  -2  -9 272.217 214.654   3
   5  -2  -8 130.303 151.126   3
   5  -2  -7 1062.80 246.982   3
   5  -2  -6 5038.68 478.138   3
   5  -2  -5 90.7573 142.692   3
   5  -2  -4 10943.6 645.201   3
   5  -2  -3 9267.87 561.361   3
   5  -2  -2 15083.1 572.508   6
   5  -2  -2 15426.3 687.485   3
  -5   2   1 7390.39 339.480   4
   5  -2  -1 8479.69 489.133   3
   5  -2   0 10531.4 560.192   6
  -5   2   0 9179.79 401.639   4
  -5   2   0 9120.91 700.456   1
  -5   2   0 9768.30 546.485   2
   5  -2   0 9299.96 484.193   3
  -5   2  -1 3473.24 271.306   4
  -5   2  -1 3110.69 316.015   2
  -5   2  -1 2948.44 404.307   1
   5  -2   1 3530.68 286.016   3
  -5   2  -2 3946.22 467.575   1
  -5   2  -2 4559.82 342.290   4
  -5   2  -2 4132.87 346.732   2
   5  -2   2 4043.51 285.283   3
   5  -2   3 158.632 88.4509   3
  -5   2  -3 20.1840 178.856   1
  -5   2  -3 142.296 94.4216   4
   5  -2   4 940.368 130.437   3
  -5   2  -4 880.931 256.539   1
  -5   2  -4 1298.52 206.889   4
  -5   2  -5 2549.62 319.932   4
  -5   2  -5 2275.86 380.978   1
  -5   2  -6 2507.78 419.440   1
  -5   2  -6 3190.18 377.139   4
  -5   2  -7 623.731 281.870   1
  -5   2  -7 821.700 216.767   4
  -5   2  -8 353.177 290.060   1
  -5   2  -8 538.107 193.206   4
  -5   2  -9 9982.14 881.005   1
  -5   2 -10 11131.1 982.526   1
  -5   2 -11 2062.65 510.867   1
   5  -1 -10 2007.57 406.870   3
   5  -1  -9 739.335 300.764   3
   5  -1  -8 6523.31 578.167   3
   5  -1  -7 749.182 218.913   3
   5  -1  -6 6775.21 559.094   3
   5  -1  -5 2482.83 331.650   3
   5  -1  -4 822.448 230.243   3
   5  -1  -3 11135.6 612.076   3
  -5   1   2 3826.31 335.418   3
   5  -1  -2 3580.32 344.474   3
  -5   1   1 20546.8 709.212   3
  -5   1   1 19426.9 732.933   2
   5  -1  -1 21895.3 758.693   3
  -5   1   0 4187.63 499.209   1
  -5   1   0 5016.07 373.811   2
   5  -1   0 4994.59 346.157   3
   5  -1   1 14102.2 683.884   6
  -5   1  -1 13883.1 857.205   1
  -5   1  -1 14201.8 597.053   2
   5  -1   1 13801.7 523.269   3
   5  -1   2 5857.31 472.940   6
  -5   1  -2 5691.29 561.380   1
  -5   1  -2 5191.22 341.096   2
   5  -1   2 5179.62 296.004   3
   5  -1   3 840.939 215.239   6
   5  -1   3 542.140 91.3432   3
  -5   1  -3 770.153 139.300   2
   5  -1   4 72.4603 40.3569   3
  -5   1  -4 216.899 185.531   1
  -5   1  -5 8095.66 673.951   1
  -5   1  -6 613.924 223.618   1
  -5   1  -7 4930.71 590.163   1
  -5   1  -8 394.123 256.645   1
  -5   1  -9-157.106 249.947   1
  -5   1 -10 6622.35 791.884   1
  -5   1 -11 6799.93 831.755   1
   5   0 -10-103.216 185.987   3
   5   0  -9 7256.51 687.592   3
   5   0  -8 8.97081 116.449   3
   5   0  -7 5176.12 517.340   3
   5   0  -6 276.199 175.359   3
   5   0  -5 814.015 204.726   3
   5   0  -4 6202.16 491.745   3
   5   0  -3 6140.95 463.336   3
  -5   0   2 14739.2 599.852   3
   5   0  -2 15042.1 671.200   3
  -5   0   1 4721.38 322.902   3
   5   0  -1 4334.39 342.449   3
  -5   0   0 11376.3 468.279   3
  -5   0   0 11043.9 497.790   2
   5   0   0 10936.4 499.421   3
   5   0   1 4960.84 417.885   6
  -5   0  -1 5453.96 548.531   1
  -5   0  -1 4925.52 297.000   3
  -5   0  -1 4693.45 309.373   2
   5   0   1 4767.95 306.175   3
   5   0   2 35562.9 719.622   3
   5   0   2 34193.4 1118.26   6
  -5   0  -2 35330.5 1340.59   1
  -5   0  -2 34487.1 790.816   2
   5   0   3 10792.6 328.921   3
   5   0   3 12954.9 725.652   6
  -5   0  -3 13316.1 833.827   1
  -5   0  -3 10963.0 411.857   2
   5   0   4 179.326 167.888   6
  -5   0  -4-79.5393 50.4763   2
   5   0   4-31.2802 24.8266   5
  -5   0  -4-141.844 192.613   1
   5   0   5-170.000 159.304   6
  -5   0  -5-73.5763 178.598   1
   5   0   5 37.0098 35.9970   5
  -5   0  -6 7156.81 657.931   1
   5   0   6 6668.08 596.342   6
   5   0   6 6629.02 342.822   5
   5   0   7 1268.47 287.255   6
   5   0   7 934.373 167.308   5
  -5   0  -7 965.011 253.881   1
   5   0   8 1732.03 341.836   6
   5   0   8 1439.34 202.225   5
  -5   0  -8 956.918 277.318   1
   5   0   8 1788.72 299.237   7
   5   0   9 1916.03 294.216   7
   5   0   9 2817.03 446.366   6
  -5   0  -9 2196.49 444.655   1
   5   0   9 1958.89 260.207   5
  -5   0 -10 1562.36 399.305   1
   5   0  10 1598.58 353.378   6
  -5   0 -11 3841.24 580.679   1
   5   0  11 3511.95 537.945   6
  -5  -1  10 966.168 316.841   2
   5   1 -10 1134.02 308.655   3
   5   1  -9 938.045 295.187   3
  -5  -1   9 1013.53 267.406   2
   5   1  -8 1597.61 348.254   3
   5   1  -7 204.236 150.773   3
   5   1  -6 1854.32 313.304   3
   5   1  -5 775.780 210.470   3
   5   1  -4 268.303 160.246   3
   5   1  -3 1709.95 262.536   3
   5   1  -2 7953.54 495.814   3
  -5  -1   2 8147.86 448.210   3
   5   1  -1 38664.1 1012.52   3
  -5  -1   1 38238.7 889.888   3
   5   1   0 1724.20 221.179   3
  -5  -1   0 1790.20 188.181   3
   5   1   1 4614.63 302.515   3
  -5  -1  -1 4201.66 494.652   1
  -5  -1  -1 4827.14 269.971   3
  -5  -1  -1 4604.44 292.591   2
   5   1   2 2540.26 201.343   3
  -5  -1  -2 2218.36 380.817   1
   5   1   2 2468.47 332.941   6
   5   1   2 1771.88 112.726   5
  -5  -1  -2 2643.14 184.633   3
  -5  -1  -2 2370.81 193.735   2
   5   1   3 29937.1 1110.41   6
  -5  -1  -3 28882.8 1217.31   1
  -5  -1  -3 27652.5 576.119   2
   5   1   4 8868.50 625.427   6
  -5  -1  -4 8681.72 690.205   1
  -5  -1  -4 7164.91 202.686   2
   5   1   5 2503.69 360.470   6
  -5  -1  -5 2091.32 381.327   1
  -5  -1  -6 293.897 206.198   1
   5   1   6 165.122 114.808   6
   5   1   6 420.270 109.172   5
   5   1   7 1714.11 337.255   6
   5   1   7 1452.86 178.237   5
   5   1   7 2102.18 309.138   7
  -5  -1  -7 1547.34 349.536   1
   5   1   8 1956.68 317.332   7
   5   1   8 2798.86 445.867   6
   5   1   8 1903.89 232.286   5
  -5  -1  -8 2165.42 380.235   1
   5   1   9 278.239 168.417   7
   5   1   9 174.900 185.615   6
  -5  -1  -9 86.8490 140.430   1
   5   1   9 199.980 84.4784   5
   5   1  10 3874.98 439.423   7
  -5  -1 -10 3885.68 565.578   1
   5   1  10 3385.02 500.144   6
   5   1  10 4178.01 393.221   5
  -5  -1 -11 860.353 315.525   1
   5   1  11 1260.43 356.633   6
   5   1  11 1345.44 228.451   5
  -5  -1 -12 1942.88 471.863   1
   5   1  12 2469.68 458.336   6
   5   1  12 2092.45 312.058   5
  -5  -2  10 2309.92 463.424   2
   5   2 -10 3576.65 544.179   3
  -5  -2   9 4461.29 541.835   2
   5   2  -9 5564.55 595.971   3
  -5  -2   8 427.877 203.529   2
   5   2  -8 1008.76 292.217   3
  -5  -2   7 510.435 229.067   2
   5   2  -7 846.980 260.100   3
  -5  -2   6 762.056 245.901   2
   5   2  -6 434.763 199.147   3
  -5  -2   5 1347.28 279.610   2
   5   2  -5 1465.19 292.443   3
   5   2  -4 9132.00 616.735   3
  -5  -2   4 10132.3 649.009   2
  -5  -2   3 154.376 107.835   2
   5   2  -3-10.5764 116.451   3
   5   2  -3-77.1017 83.0173   5
  -5  -2   2 63.3516 120.966   2
  -5  -2   2 39.5027 83.5203   3
   5   2  -2 131.074 114.308   3
   5   2  -2 38.2337 60.7026   5
   5   2  -1 15095.9 653.352   3
   5   2  -1 14308.6 500.771   5
  -5  -2   1 14630.4 647.895   2
  -5  -2   1 14552.2 575.612   3
   5   2   0 31833.7 726.667   5
  -5  -2   0 32705.7 777.361   3
   5   2   1 3109.82 239.127   5
  -5  -2  -1 3081.49 263.882   2
  -5  -2  -1 3359.95 230.771   3
  -5  -2  -1 3183.71 440.258   1
   5   2   2 9769.73 412.823   5
  -5  -2  -2 10307.4 415.008   2
  -5  -2  -2 11036.2 761.346   1
  -5  -2  -2 11007.1 347.485   3
  -5  -2  -3 5612.02 560.744   1
  -5  -2  -3 4987.26 240.255   2
  -5  -2  -3 5521.32 189.339   3
  -5  -2  -3 5744.32 234.677   2
   5   2   4 16707.7 892.752   6
  -5  -2  -4 15994.5 911.791   1
   5   2   5 6638.29 577.407   6
  -5  -2  -5 6221.22 589.647   1
   5   2   6 5933.94 570.018   6
  -5  -2  -6 5434.81 559.269   1
   5   2   6 6266.41 557.615   7
   5   2   7 1688.01 305.894   7
   5   2   7 1845.80 349.410   6
  -5  -2  -7 1811.56 347.753   1
   5   2   8 2088.01 334.114   7
   5   2   8 2035.78 372.205   6
  -5  -2  -8 2981.74 460.546   1
  -5  -2  -9 4626.43 580.868   1
   5   2   9 5177.37 579.295   6
   5   2   9 4554.98 482.104   7
   5   2  10 1420.78 256.113   7
   5   2  10 1542.72 356.253   6
  -5  -2 -10 1349.12 346.136   1
   5   2  10 1374.55 228.940   5
  -5  -2 -11 5090.74 625.610   1
   5   2  11 5424.05 650.748   6
   5   2  11 5090.11 469.489   5
   5   2  11 4910.49 499.622   7
  -5  -2 -12 119.996 205.126   1
   5   2  12 814.893 304.064   6
   5   2  12 688.997 215.465   5
   5   2  13 2147.52 355.379   5
   5   2  14 2372.90 380.625   5
  -5  -3   9 6710.51 707.540   2
  -5  -3   8 7190.91 683.413   2
  -5  -3   7-220.688 169.599   2
  -5  -3   6 465.655 202.717   2
  -5  -3   5 3750.08 453.751   2
  -5  -3   4 96.5545 132.915   2
   5   3  -3 7539.90 468.194   5
  -5  -3   3 7272.25 539.299   2
  -5  -3   2 348.312 140.463   2
   5   3  -2 297.343 117.872   5
  -5  -3   1 2133.51 275.499   2
  -5  -3   1 2181.79 251.934   3
   5   3  -1 2073.76 251.264   5
   5   3   0 8282.36 464.913   5
  -5  -3   0 8686.12 485.603   2
  -5  -3   0 9467.28 466.767   3
   5   3   1 17723.2 668.387   5
  -5  -3  -1 18925.2 584.255   3
  -5  -3  -2 3018.92 240.956   2
  -5  -3  -2 3210.10 210.637   3
  -5  -3  -3 16718.7 937.808   1
  -5  -3  -3 15766.9 430.700   2
  -5  -3  -3 16047.3 365.684   3
  -5  -3  -4 9375.60 706.719   1
   5   3   4 7846.39 646.118   7
  -5  -3  -5 13041.3 841.770   1
   5   3   5 13209.6 489.947   4
   5   3   5 13559.8 827.192   7
   5   3   6 1329.44 288.559   7
  -5  -3  -6 1069.23 273.473   1
   5   3   6 1571.48 331.473   6
   5   3   7 1788.12 313.694   7
   5   3   7 2123.51 367.563   6
  -5  -3  -7 1412.61 318.099   1
  -5  -3  -8 4381.04 522.402   1
   5   3   8 4291.69 547.570   6
   5   3   8 3732.31 441.607   7
   5   3   9 4641.35 564.775   6
  -5  -3  -9 3423.05 506.628   1
   5   3   9 3934.07 471.031   7
   5   3  10 2586.60 402.052   7
   5   3  10 2678.82 467.093   6
  -5  -3 -10 1921.97 425.450   1
   5   3  11 828.401 208.214   7
  -5  -3 -11 435.789 312.305   1
   5   3  11 791.190 302.834   6
  -5  -3 -12 2628.23 509.630   1
   5   3  12 2798.96 511.325   6
   5   3  13 1483.93 334.283   5
   5   3  14 2129.31 388.930   5
  -5  -4   9 2497.29 470.657   2
  -5  -4   8 10127.0 842.658   2
  -5  -4   7 8373.14 728.889   2
  -5  -4   6 15.0117 168.895   2
  -5  -4   5 594.001 207.331   2
  -5  -4   4 1094.73 275.343   2
  -5  -4   3 766.782 187.542   2
  -5  -4   2 3811.10 390.534   6
   5   4  -2 3256.67 375.952   5
  -5  -4   2 3331.64 361.779   2
  -5  -4   1 133.432 113.901   2
  -5  -4   1 313.648 138.449   6
   5   4  -1 235.051 115.302   5
   5   4   0 8089.22 528.704   5
  -5  -4   0 8134.14 485.746   2
  -5  -4   0 8680.71 483.937   3
   5   4   1 4972.39 412.544   5
  -5  -4  -1 5633.68 362.130   3
  -5  -4  -2 11959.7 802.499   1
  -5  -4  -2 12082.1 498.230   2
   5   4   2 12338.4 816.828   7
  -5  -4  -2 12857.4 485.922   3
  -5  -4  -3 10948.1 770.909   1
  -5  -4  -3 10818.0 395.091   2
   5   4   3 10752.2 764.729   7
  -5  -4  -3 11480.4 392.726   3
  -5  -4  -4 4820.56 523.247   1
  -5  -4  -4 4559.29 176.815   2
   5   4   4 4433.95 505.513   7
  -5  -4  -5 11296.5 794.054   1
   5   4   5 12275.2 807.381   7
  -5  -4  -6 17458.8 992.766   1
   5   4   6 17244.7 963.114   7
  -5  -4  -7 1684.20 342.276   1
   5   4   7 1710.25 348.274   7
   5   4   8 2476.57 380.780   7
  -5  -4  -8 3042.58 463.464   1
   5   4   9 1315.34 300.366   7
   5   4   9 1659.85 375.610   6
  -5  -4  -9 1648.16 372.818   1
   5   4  10 1153.25 266.663   7
   5   4  10 1414.26 367.008   6
  -5  -4 -10 1071.94 330.661   1
   5   4  11 559.663 237.443   7
  -5  -4 -11 196.018 228.695   1
   5   4  11 457.264 259.175   6
   5   4  12-35.9750 132.384   7
  -5  -4 -12 544.737 295.361   1
   5   4  12 75.9650 211.657   6
   5   4  15 3620.14 482.075   5
   5   5  -9 1416.21 400.881   7
   5   5  -8 3483.44 519.465   7
  -5  -5   8 3006.13 516.339   2
  -5  -5   7 8145.30 741.837   2
   5   5  -7 8718.41 759.588   7
  -5  -5   6 7274.72 664.483   2
   5   5  -6 7240.96 682.736   7
   5   5  -5 615.945 238.669   7
  -5  -5   5 678.502 218.830   2
   5   5  -4 480.429 188.518   7
  -5  -5   4 666.862 226.907   2
   5   5  -3-272.955 189.106   7
  -5  -5   3-45.7014 115.263   2
   5   5  -2 1085.72 265.202   7
  -5  -5   2 1655.68 256.494   2
   5   5  -1 1348.56 334.948   7
  -5  -5   1 1457.79 252.127   2
  -5  -5   0 6593.29 465.636   2
   5   5   0 6229.31 613.162   7
   5   5   1 1492.56 339.136   7
  -5  -5  -1 1287.61 212.423   2
  -5  -5  -1 1150.97 194.104   3
  -5  -5  -1 1927.74 379.168   1
   5   5   2 572.784 209.034   7
  -5  -5  -2 488.114 126.496   3
  -5  -5  -2 378.585 227.300   1
  -5  -5  -3 18718.3 994.175   1
  -5  -5  -3 20256.7 607.110   2
   5   5   3 19703.0 1066.65   7
  -5  -5  -4 6152.62 584.403   1
  -5  -5  -4 5525.79 264.386   2
   5   5   4 6819.83 641.906   7
  -5  -5  -5 4940.10 542.615   1
   5   5   5 4514.18 531.806   7
  -5  -5  -6 5899.71 590.815   1
   5   5   6 6109.30 603.410   7
  -5  -5  -7 6754.19 646.261   1
   5   5   7 6677.65 649.115   7
   5   5   8 2371.07 389.187   7
  -5  -5  -8 2240.54 397.466   1
   5   5   9 3873.50 496.550   7
  -5  -5  -9 3171.85 497.301   1
   5   5  10 951.334 291.862   7
  -5  -5 -10 923.516 345.610   1
   5   5  11 1803.61 390.545   7
  -5  -5 -11 1348.99 359.071   1
   5   5  12 249.522 147.237   7
  -5  -5 -12 190.343 289.268   1
   5   5  13 1096.55 339.432   7
   5   6  -8 1761.35 373.038   7
   5   6  -7 2863.18 452.356   7
  -5  -6   7 2676.13 461.543   2
   5   6  -6 3291.94 524.961   7
  -5  -6   6 3737.17 499.547   2
  -5  -6   5 6353.64 617.413   2
   5   6  -5 6207.32 656.528   7
   5   6  -4 2143.08 409.499   7
  -5  -6   4 1725.77 331.562   2
  -5  -6   3 7198.09 606.652   2
   5   6  -3 6338.74 652.499   7
   5   6  -2 2429.81 416.855   7
  -5  -6   2 1893.65 319.181   2
  -5  -6   1 8475.50 579.003   2
   5   6  -1 7687.94 710.440   7
  -5  -6   0 8195.07 556.277   2
   5   6   0 8420.02 730.689   7
  -5  -6  -1 3588.06 484.232   1
  -5  -6  -1 5008.17 411.240   2
   5   6   1 4478.46 538.100   7
   5   6   2 1902.79 368.525   7
  -5  -6  -2 1976.50 379.144   1
  -5  -6  -2 1711.20 226.729   2
   5   6   3 1788.36 375.502   7
  -5  -6  -3 1507.51 313.640   1
  -5  -6  -4 7442.91 645.018   1
  -5  -6  -4 6695.94 359.018   2
   5   6   4 7704.06 706.129   7
   5   6   5 2173.07 396.931   7
  -5  -6  -5 1471.05 333.655   1
  -5  -6  -6 4554.34 523.540   1
   5   6   6 5277.64 615.039   7
   5   6   7 2105.03 419.124   7
  -5  -6  -7 1702.36 354.620   1
  -5  -6  -8 4562.52 550.524   1
   5   6   8 5123.51 596.310   7
   5   6   9 2623.91 445.835   7
  -5  -6  -9 2275.75 419.972   1
   5   6  10 914.360 305.397   7
  -5  -6 -10 121.084 190.206   1
   5   6  11-223.857 150.701   7
  -5  -6 -11 55.4365 146.131   1
   5   6  12 2642.31 520.807   7
  -5  -6 -12 2801.02 533.478   1
   5   6  13 964.289 361.000   7
   5   7  -7 3688.48 538.423   7
  -5  -7   6 9651.54 839.537   2
   5   7  -6 9715.67 867.972   7
  -5  -7   5 6643.70 669.735   2
   5   7  -5 7564.25 754.133   7
   5   7  -4 281.840 163.384   7
  -5  -7   4 854.068 236.102   2
   5   7  -3 231.785 126.093   7
  -5  -7   3 173.913 113.817   2
  -5  -7   2 6843.22 597.223   2
   5   7  -2 7079.39 698.698   7
   5   7  -1 1399.64 328.081   7
  -5  -7   1 1323.23 287.166   2
   5   7   0 2149.07 407.641   7
  -5  -7   0 2013.48 312.354   2
   5   7   1 899.546 261.621   7
  -5  -7  -1 1224.97 311.945   1
  -5  -7  -1 1313.56 244.161   2
   5   7   2 1390.49 338.359   7
  -5  -7  -2 1202.45 215.676   2
  -5  -7  -2 872.368 287.199   1
  -5  -7  -3 3984.06 500.489   1
  -5  -7  -3 3807.89 344.997   2
   5   7   3 4823.76 604.279   7
   5   7   4 2561.98 444.815   7
  -5  -7  -4 2773.52 435.308   1
  -5  -7  -5 5030.00 539.276   1
   5   7   5 5528.88 637.539   7
   5   7   6 914.736 257.819   7
  -5  -7  -6 231.801 171.448   1
   5   7   7 1173.07 323.709   7
  -5  -7  -7 1025.21 294.923   1
   5   7   8 27.0989 190.263   7
  -5  -7  -8-240.912 200.053   1
  -5  -7  -9 7143.43 721.327   1
   5   7   9 7439.41 775.571   7
  -5  -7 -10 5684.36 673.821   1
   5   7  10 7374.86 767.803   7
   5   7  11 46.7496 181.474   7
  -5  -7 -11-254.066 281.163   1
  -5  -7 -12-447.995 257.721   1
   5   7  12-563.473 249.712   7
   5   7  13 1854.73 436.446   7
   5   8  -6 550.234 210.134   7
  -5  -8   5 8341.17 768.097   2
   5   8  -5 7328.91 773.128   7
   5   8  -4 5324.91 652.039   7
  -5  -8   4 5359.58 582.914   2
   5   8  -3 1899.46 413.056   7
  -5  -8   3 1720.15 379.645   2
   5   8  -2 788.087 302.484   7
  -5  -8   2 701.962 227.147   2
   5   8  -1 2329.83 467.261   7
  -5  -8   1 1923.94 323.760   2
   5   8   0 1.38092 88.1295   7
  -5  -8   0-26.4981 136.404   2
  -5  -8   0 161.051 213.955   1
   5   8   1-28.9002 214.056   7
  -5  -8  -1-75.3744 194.533   1
  -5  -8  -1 156.149 178.666   2
   5   8   2 1214.55 352.145   7
  -5  -8  -2 825.878 213.527   2
  -5  -8  -2 790.412 271.552   1
   5   8   3-12.5225 207.018   7
  -5  -8  -3 175.095 244.948   1
  -5  -8  -3 115.208 101.826   2
   5   8   4 1485.81 387.799   7
  -5  -8  -4 1313.06 324.688   1
   5   8   5 3571.50 573.753   7
  -5  -8  -5 3056.10 452.098   1
  -5  -8  -6 6885.69 646.260   1
   5   8   6 6483.63 729.808   7
   5   8   7 962.782 310.843   7
  -5  -8  -7 275.724 188.242   1
   5   8   8 399.744 207.510   7
  -5  -8  -8 43.4283 174.761   1
   5   8   9-218.957 207.000   7
  -5  -8  -9 553.475 282.402   1
   5   8  10 5125.36 698.183   7
  -5  -8 -10 4502.54 591.437   1
   5   8  11 1906.69 431.209   7
  -5  -8 -11 1655.71 380.659   1
  -5  -8 -12 141.158 110.532   1
   5   8  12 858.978 354.525   7
  -5  -9   3 1354.24 351.865   2
   5   9  -2 5094.63 706.043   7
  -5  -9   2 4010.89 485.970   2
   5   9  -1 1009.74 308.152   7
  -5  -9   1 751.160 261.284   1
  -5  -9   1 621.564 210.786   2
  -5  -9   0 435.788 193.077   2
  -5  -9   0 54.5814 190.688   1
   5   9   1 618.888 273.627   7
  -5  -9  -1 573.900 235.985   2
  -5  -9  -1 494.082 236.505   1
  -5  -9  -2 73.5379 166.265   1
  -5  -9  -2 164.807 93.5510   2
   5   9   3 2602.16 504.471   7
  -5  -9  -3 2078.91 375.299   1
   5   9   4 1066.77 359.149   7
  -5  -9  -4-101.553 190.924   1
   5   9   5 25.3966 95.8931   7
  -5  -9  -5 392.223 224.542   1
   5   9   6 3421.05 584.700   7
  -5  -9  -6 3318.13 451.334   1
   5   9   7 4561.70 670.014   7
  -5  -9  -7 4566.26 551.011   1
   5   9   8 34.7586 128.797   7
  -5  -9  -8-288.778 169.501   1
  -5  -9  -9-267.907 213.805   1
  -5  -9 -10 258.008 258.798   1
  -5  -9 -11 891.815 340.336   1
  -5  -9 -12 448.664 236.145   1
  -5 -10   1 4593.01 571.966   2
  -5 -10   0-68.4829 144.781   2
   6  -6  -5 1608.01 308.914   3
   6  -6  -4 1239.70 269.791   3
   6  -5  -6 1704.36 343.256   3
   6  -5  -5 542.751 191.500   3
   6  -5  -4 434.006 189.569   3
  -6   5   4 910.582 297.231   1
   6  -5  -3 1200.92 289.377   3
  -6   5   3 1330.34 300.337   1
  -6   5   2 417.119 219.350   1
  -6   5   1-153.650 171.939   1
  -6   5   0 394.908 234.988   1
  -6   5  -1-307.841 241.399   1
  -6   5  -2 1152.84 320.199   1
  -6   5  -3 152.238 263.360   1
  -6   5  -4 438.413 181.800   1
   6  -4  -7-243.402 176.564   3
   6  -4  -6 707.676 267.674   3
   6  -4  -5 480.714 159.826   3
   6  -4  -4 919.561 274.924   3
  -6   4   3 483.561 284.372   1
   6  -4  -3 106.453 157.011   3
   6  -4  -2 384.163 177.888   3
  -6   4   2 454.381 257.918   1
  -6   4   1 417.410 227.652   1
  -6   4   0 136.496 207.914   1
  -6   4  -1 873.193 297.610   1
  -6   4  -2-549.273 255.162   1
  -6   4  -3 948.647 252.315   1
  -6   4  -4 82.5562 170.883   1
  -6   4  -5 172.710 206.203   1
  -6   4  -6 240.620 209.824   1
   6  -3  -8 234.755 195.422   3
   6  -3  -7-17.2442 123.032   3
   6  -3  -6 538.816 226.472   3
   6  -3  -5 274.306 184.893   3
   6  -3  -4 110.237 81.3285   3
   6  -3  -3 1641.08 279.057   3
   6  -3  -2 163.673 124.208   3
  -6   3   2 128.444 194.825   1
   6  -3  -1 1385.07 249.502   3
  -6   3   1 1330.53 335.073   1
  -6   3   0 52.1959 204.322   1
  -6   3  -1 311.048 244.898   1
  -6   3  -2 1296.38 338.785   1
  -6   3  -3 219.921 199.959   1
  -6   3  -4 1726.45 388.130   1
  -6   3  -5-41.4039 173.200   1
  -6   3  -6-276.507 183.802   1
  -6   3  -7 872.166 330.956   1
   6  -2  -8-13.7211 171.407   3
   6  -2  -7 209.464 125.968   3
   6  -2  -6 159.606 143.349   3
   6  -2  -5 1156.24 257.282   3
   6  -2  -4 1804.61 315.274   3
   6  -2  -3 243.504 140.409   3
   6  -2  -2 1225.92 245.861   3
   6  -2  -1 10.3520 83.9928   3
  -6   2   1-4.90595 213.562   1
  -6   2   0 1761.81 373.791   1
   6  -2   1 166.803 134.982   6
  -6   2  -1 144.081 196.279   1
  -6   2  -2 410.117 244.859   1
   6  -2   2 987.894 221.540   6
   6  -2   3 1260.47 290.098   6
  -6   2  -3 1216.11 325.792   1
  -6   2  -4-8.28987 82.3289   1
   6  -2   4-35.9981 146.744   6
  -6   2  -5 3845.48 561.657   1
  -6   2  -6 19.5633 140.705   1
  -6   2  -7 1604.24 385.957   1
  -6   2  -8 1146.47 381.341   1
   6  -1  -8 776.381 281.247   3
   6  -1  -7 6.34544 145.556   3
   6  -1  -6-63.1743 154.269   3
   6  -1  -5 1173.48 279.093   3
   6  -1  -4 1004.82 250.737   3
   6  -1  -3 1883.02 288.996   3
   6  -1  -2-31.4073 87.1491   3
  -6   1   1 3525.08 511.692   1
   6  -1  -1 3536.50 340.508   3
  -6   1   0-61.4044 219.446   1
   6  -1   0-84.1477 100.049   6
   6  -1   1 2199.29 318.963   6
  -6   1  -1 2549.63 438.941   1
  -6   1  -2-279.155 219.791   1
   6  -1   2 75.1330 135.422   6
   6  -1   3 1589.38 306.845   6
  -6   1  -3 1657.59 366.672   1
   6  -1   4 135.563 166.597   6
  -6   1  -4-228.681 257.460   1
  -6   1  -5-104.926 175.185   1
   6  -1   5-15.7019 161.307   6
  -6   1  -6 10955.2 904.455   1
   6  -1   6 12476.6 886.677   6
   6  -1   7 206.672 212.016   6
  -6   1  -7 123.633 246.078   1
   6  -1   8 2938.50 482.683   6
  -6   1  -8 2933.10 544.202   1
   6  -1   9 1170.85 382.506   6
   6   0  -8-581.953 227.480   3
   6   0  -7 1807.54 348.458   3
   6   0  -6 88.1125 164.661   3
   6   0  -5 530.647 226.962   3
   6   0  -4 220.058 187.205   3
   6   0  -3 805.261 216.676   3
   6   0  -2 1845.60 285.038   3
   6   0  -1 782.083 189.303   3
   6   0   0 3196.77 309.315   3
  -6   0   0 3362.24 501.273   1
  -6   0  -1 3078.96 486.058   1
   6   0   2 2302.03 347.442   6
  -6   0  -2 1997.62 404.594   1
  -6   0  -3 3180.10 494.373   1
   6   0   3 2936.27 427.698   6
   6   0   4 864.147 257.114   6
  -6   0  -4 817.778 325.580   1
   6   0   5 266.716 186.624   6
  -6   0  -5 482.905 281.014   1
  -6   0  -6 27.7486 172.300   1
   6   0   6-47.6819 156.392   6
  -6   0  -7 8509.61 819.640   1
   6   0   7 8642.74 759.675   6
   6   0   8 542.911 264.691   6
  -6   0  -8 215.105 213.640   1
   6   0   8 373.078 160.089   7
   6   0   9 1236.22 390.080   6
   6   1  -8-99.3169 170.625   3
  -6  -1   8 521.686 261.310   2
   6   1  -7-113.006 190.010   3
  -6  -1   7 27.0713 149.278   2
   6   1  -6 2117.43 335.888   3
   6   1  -5-380.396 209.712   3
   6   1  -4 208.555 196.943   3
   6   1  -3 1117.31 245.337   3
   6   1  -2-86.0388 145.426   3
   6   1  -1 2901.87 328.298   3
   6   1   0 7863.02 469.197   3
  -6  -1   0 7460.41 726.821   1
  -6  -1  -1 6154.66 653.043   1
  -6  -1  -2 6456.42 680.747   1
  -6  -1  -3 838.236 307.817   1
   6   1   3 1051.85 250.854   6
   6   1   4 1522.48 315.682   6
  -6  -1  -4 1229.24 350.519   1
   6   1   5 1562.60 320.054   6
  -6  -1  -5 1192.19 335.617   1
  -6  -1  -6-114.533 190.022   1
   6   1   6-128.631 195.581   6
   6   1   7 39.3472 133.489   6
   6   1   7-16.0745 118.462   7
  -6  -1  -7 131.852 248.644   1
   6   1   8 2993.22 434.936   7
   6   1   8 2890.81 480.568   6
  -6  -1  -8 2513.70 474.442   1
   6   1   9 435.202 191.538   7
   6   1   9 533.044 208.259   6
   6   1  10-602.385 343.203   6
  -6  -2   8-12.5291 150.198   2
   6   2  -8 543.960 240.233   3
  -6  -2   7-529.387 191.934   2
   6   2  -7 13.3263 127.492   3
  -6  -2   6-288.234 170.113   2
   6   2  -6 119.046 161.470   3
   6   2  -5 7477.87 633.819   3
  -6  -2   5 8160.92 683.446   2
  -6  -2   4-167.599 120.510   2
   6   2  -4 282.009 173.558   3
  -6  -2   3 1169.16 248.790   2
   6   2  -3 1237.07 265.555   3
  -6  -2   2 409.127 185.687   2
   6   2  -2 881.655 188.794   3
  -6  -2   1 3080.01 354.448   2
  -6  -2   0 1516.59 233.622   2
  -6  -2  -1 4631.27 586.449   1
  -6  -2  -2 5367.11 619.217   1
  -6  -2  -3 2287.04 433.798   1
  -6  -2  -4 1639.89 364.625   1
   6   2   5 18.7251 142.921   6
  -6  -2  -5-29.6664 185.029   1
  -6  -2  -6 1641.96 389.054   1
   6   2   6 1670.24 361.325   6
   6   2   6 1702.69 354.980   7
   6   2   7 1064.45 285.888   7
   6   2   7 875.702 323.440   6
  -6  -2  -7 613.733 258.578   1
   6   2   8-98.5772 199.710   7
   6   2   8-24.7621 128.969   6
  -6  -2  -8 119.308 195.230   1
   6   2   9 1689.44 329.636   7
   6   2   9 1799.26 383.020   6
  -6  -2  -9 1413.39 398.521   1
   6   2  10-32.7765 149.844   7
   6   2  10 96.4363 181.695   6
  -6  -3   7 616.146 207.742   2
  -6  -3   6 3035.71 460.035   2
  -6  -3   5-20.9780 166.861   2
  -6  -3   4 16387.3 907.388   2
  -6  -3   3 485.552 195.470   2
  -6  -3   2 464.843 200.281   2
  -6  -3   1 1130.47 233.433   2
  -6  -3   0 324.110 138.624   2
  -6  -3  -1 2156.10 421.741   1
  -6  -3  -2 800.004 300.307   1
  -6  -3  -3 4617.92 582.969   1
  -6  -3  -4 94.7652 223.049   1
   6   3   4-4.64885 168.708   7
   6   3   5 2130.43 377.081   7
  -6  -3  -5 2350.40 427.658   1
   6   3   6 203.284 194.028   7
  -6  -3  -6 532.817 254.266   1
   6   3   7 2308.84 413.367   7
  -6  -3  -7 2016.55 413.397   1
   6   3   8 507.305 248.127   7
   6   3   8-47.5508 134.963   6
  -6  -3  -8 491.188 252.136   1
   6   3   9 390.287 221.906   7
   6   3   9 192.317 215.268   6
  -6  -3  -9 55.3120 162.914   1
   6   3  10 687.537 229.340   7
   6   3  10 733.054 308.260   6
  -6  -4   7 492.277 178.377   2
  -6  -4   6 856.476 260.723   2
  -6  -4   5 1325.68 302.170   2
  -6  -4   4 130.930 166.161   2
  -6  -4   3 7313.14 594.716   2
  -6  -4   2 91.2227 152.458   2
  -6  -4   1 265.866 150.262   2
  -6  -4   0 981.818 196.005   2
  -6  -4  -1 278.352 227.036   1
  -6  -4  -2 2501.36 430.527   1
   6   4   2 3236.99 481.196   7
   6   4   3-26.7066 91.3332   7
  -6  -4  -3 216.728 186.285   1
   6   4   4 2475.34 437.449   7
  -6  -4  -4 1892.04 411.994   1
   6   4   5 279.790 191.681   7
  -6  -4  -5 673.139 301.643   1
   6   4   6 2116.43 424.356   7
  -6  -4  -6 2430.15 474.210   1
   6   4   7-2.43484 118.293   7
  -6  -4  -7 91.4070 173.379   1
   6   4   8 757.678 291.129   7
  -6  -4  -8 1027.92 295.084   1
   6   4   9 612.849 239.497   7
  -6  -4  -9 27.5706 246.551   1
   6   4  10-24.1748 157.548   7
   6   4  11 766.363 332.352   7
  -6  -5   6-344.489 256.622   2
   6   5  -5 1338.76 345.030   7
  -6  -5   5 1309.50 325.193   2
   6   5  -4 8.29012 209.375   7
  -6  -5   4 542.335 231.900   2
   6   5  -3 588.190 278.665   7
  -6  -5   3 547.629 224.682   2
   6   5  -2 2331.75 446.463   7
  -6  -5   2 2282.75 350.509   2
   6   5  -1-167.439 158.963   7
  -6  -5   1-26.5987 101.615   2
   6   5   0 853.246 282.868   7
   6   5   1 3285.32 508.419   7
  -6  -5  -1 3009.11 468.610   1
   6   5   2 158.140 186.248   7
  -6  -5  -2-530.247 243.539   1
   6   5   3 3503.09 519.304   7
  -6  -5  -3 2543.06 438.916   1
   6   5   4 623.562 299.076   7
  -6  -5  -4 242.507 247.605   1
   6   5   5 2556.32 454.294   7
  -6  -5  -5 2071.21 430.780   1
   6   5   6 264.452 142.086   7
  -6  -5  -6-121.171 204.866   1
   6   5   7 621.144 235.548   7
  -6  -5  -7 712.166 280.981   1
   6   5   8-161.832 205.565   7
  -6  -5  -8 239.628 217.518   1
   6   5   9 132.333 146.236   7
  -6  -5  -9 338.357 244.256   1
   6   5  10 35.7996 102.640   7
   6   5  11-496.469 253.339   7
  -6  -6   5 2370.42 430.197   2
  -6  -6   4 1503.81 302.064   2
   6   6  -3 5.72452 198.663   7
  -6  -6   3 721.546 253.285   2
   6   6  -2 19.7691 146.325   7
  -6  -6   2 327.496 201.701   2
   6   6  -1 1795.50 393.653   7
  -6  -6   1 2216.63 350.346   2
   6   6   0 464.530 205.725   7
  -6  -6   0 325.214 234.222   1
   6   6   1 218.377 242.323   7
  -6  -6  -1 81.8699 168.520   1
   6   6   2 1786.14 381.385   7
  -6  -6  -2 1615.73 376.925   1
   6   6   3 98.2684 179.027   7
  -6  -6  -3 221.176 220.023   1
   6   6   4 1430.89 363.478   7
  -6  -6  -4 588.962 230.078   1
   6   6   5-28.9376 131.077   7
  -6  -6  -5-294.488 246.749   1
   6   6   6 2769.56 459.807   7
  -6  -6  -6 2292.70 437.268   1
  -6  -6  -7 79.4587 134.549   1
   6   6   7 166.659 188.540   7
   6   6   8 686.500 282.908   7
  -6  -6  -8 952.072 323.515   1
   6   6   9 889.728 288.141   7
  -6  -6  -9 198.351 215.108   1
   6   6  10-387.329 245.370   7
   6   6  11 451.040 256.289   7
   6   6  12 635.426 245.110   7
  -6  -7   4 1115.90 275.033   2
  -6  -7   3 2983.33 425.218   2
   6   7   0 1603.10 396.659   7
  -6  -7   0 1284.35 350.608   1
   6   7   1 250.762 140.345   7
  -6  -7  -1-56.5814 188.031   1
   6   7   2 584.457 252.228   7
  -6  -7  -2 416.513 254.529   1
   6   7   3 551.619 286.292   7
  -6  -7  -3 667.132 262.877   1
   6   7   4-128.270 170.497   7
  -6  -7  -4-204.003 188.440   1
   6   7   5 1015.14 332.269   7
  -6  -7  -5 514.818 247.140   1
   6   7   6 621.124 282.815   7
  -6  -7  -6-221.730 188.892   1
   6   7   7 2445.87 498.458   7
  -6  -7  -7 1528.94 378.770   1
   6   7   8 2109.68 471.879   7
  -6  -7  -8 1354.15 375.892   1
   6   7   9-455.926 287.912   7
  -6  -7  -9-234.814 271.189   1
  -6  -8   1-417.605 234.910   1
  -6  -8   0 259.186 201.686   1
  -6  -8  -1-139.578 240.861   1
  -6  -8  -2 395.886 240.061   1
  -6  -8  -3-242.068 231.188   1
  -6  -8  -4 199.017 214.954   1
  -6  -8  -5 615.398 313.357   1
  -6  -8  -6-100.634 177.389   1
  -6  -8  -7 897.053 300.230   1
  -6  -8  -8 3172.74 547.391   1
  -6  -9  -1-73.3044 200.934   1
  -6  -9  -2 1472.15 369.582   1
  -6  -9  -3 652.188 307.463   1
  -6  -9  -4 890.717 313.229   1
  -6  -9  -5-145.454 184.516   1
  -6  -9  -6 1144.68 303.118   1
  -6  -9  -7 388.359 275.322   1
  -6  -9  -8 537.561 219.713   1
   7  -1   6 7176.30 744.843   6
   7   0   5 1275.71 350.987   6
   7   0   6 2179.37 428.787   6
   7   0   7 5943.06 711.516   6
   7   1   5 283.140 144.060   6
   7   1   6 909.319 348.343   6
   7   1   7 59.1802 107.375   7
   7   1   7 625.553 323.438   6
   7   2   6-392.671 260.294   7
   7   2   7 2343.45 458.349   7
   7   2   8 283.883 166.237   7
   7   3   4 85.5333 239.504   7
   7   3   5 7335.40 758.639   7
   7   3   6-78.2488 179.923   7
   7   3   7-85.0203 201.563   7
   7   3   8 3082.62 528.968   7
   0   0   0    0.00    0.00   0
TITL K-19-175K in P-1
REM P-1 (#2 in standard setting)
CELL 0.71073   5.514377   9.452004  13.403980  74.2389  84.7469  81.2054
ZERR   13.00   0.000273   0.000541   0.000486   0.0040   0.0035   0.0044
LATT  1
SFAC C H N O
UNIT 13.00 13.00 13.00 13.00
TREF
HKLF 4
END
;
_shelx_hkl_checksum              11631
loop_
_space_group_symop_operation_xyz
'x, y, z'
'-x, -y, -z'
loop_
_atom_site_label
_atom_site_type_symbol
_atom_site_fract_x
_atom_site_fract_y
_atom_site_fract_z
_atom_site_U_iso_or_equiv
_atom_site_adp_type
_atom_site_occupancy
_atom_site_site_symmetry_order
_atom_site_calc_flag
_atom_site_refinement_flags_posn
_atom_site_refinement_flags_adp
_atom_site_refinement_flags_occupancy
O2 O 0.30304(16) 0.95800(11) 0.03632(7) 0.0306(3) Uani 1 1 d . . .
O1 O 0.14429(18) 1.11487(13) -0.10559(8) 0.0397(3) Uani 1 1 d . . .
N1 N -0.2252(2) 1.25918(12) -0.24689(8) 0.0250(3) Uani 1 1 d . . .
H2 H -0.1234 1.3065 -0.2983 0.030 Uiso 1 1 calc R U .
H1 H -0.1312 1.2051 -0.1936 0.030 Uiso 1 1 calc R U .
O4 O -0.29891(17) 1.46478(13) -0.46284(7) 0.0387(3) Uani 1 1 d . . .
O3 O -0.14843(17) 1.60287(12) -0.61142(7) 0.0355(3) Uani 1 1 d . . .
C4 C -0.3455(3) 1.15675(16) -0.28656(11) 0.0316(3) Uani 1 1 d . . .
H7A H -0.4403 1.2141 -0.3472 0.038 Uiso 1 1 calc R U .
H7B H -0.4617 1.1078 -0.2320 0.038 Uiso 1 1 calc R U .
C10 C -0.1266(2) 1.52140(15) -0.52382(10) 0.0244(3) Uani 1 1 d . . .
C5 C -0.4018(3) 1.37221(16) -0.20994(11) 0.0320(3) Uani 1 1 d . . .
H9A H -0.5188 1.3219 -0.1565 0.038 Uiso 1 1 calc R U .
H9B H -0.4968 1.4364 -0.2686 0.038 Uiso 1 1 calc R U .
C9 C 0.1268(2) 1.02324(15) -0.02205(10) 0.0233(3) Uani 1 1 d . . .
C3 C -0.1590(4) 1.04068(19) -0.31780(13) 0.0461(4) Uani 1 1 d . . .
H6A H -0.0723 0.9791 -0.2559 0.055 Uiso 1 1 calc R U .
H6B H -0.0358 1.0900 -0.3684 0.055 Uiso 1 1 calc R U .
C6 C -0.2678(3) 1.46633(19) -0.16476(13) 0.0452(4) Uani 1 1 d . . .
H10A H -0.1944 1.4040 -0.0999 0.054 Uiso 1 1 calc R U .
H10B H -0.1320 1.5021 -0.2143 0.054 Uiso 1 1 calc R U .
C2 C -0.2763(6) 0.9422(2) -0.36537(16) 0.0797(8) Uani 1 1 d . . .
H5A H -0.3526 1.0035 -0.4299 0.096 Uiso 1 1 calc R U .
H5B H -0.4089 0.9000 -0.3167 0.096 Uiso 1 1 calc R U .
C7 C -0.4310(5) 1.5980(2) -0.14145(16) 0.0637(6) Uani 1 1 d . . .
H11A H -0.5699 1.5623 -0.0938 0.076 Uiso 1 1 calc R U .
H11B H -0.5002 1.6619 -0.2068 0.076 Uiso 1 1 calc R U .
C8 C -0.2991(6) 1.6905(3) -0.09278(19) 0.0935(10) Uani 1 1 d . . .
H12A H -0.1606 1.7258 -0.1392 0.140 Uiso 1 1 calc R U .
H12B H -0.2380 1.6296 -0.0261 0.140 Uiso 1 1 calc R U .
H12C H -0.4135 1.7756 -0.0817 0.140 Uiso 1 1 calc R U .
C1 C -0.0990(8) 0.8163(3) -0.3907(2) 0.1276(16) Uani 1 1 d . . .
H4A H -0.1862 0.7592 -0.4234 0.191 Uiso 1 1 calc R U .
H4B H -0.0298 0.7514 -0.3267 0.191 Uiso 1 1 calc R U .
H4C H 0.0339 0.8568 -0.4385 0.191 Uiso 1 1 calc R U .
H3 H 0.5000 1.0000 0.0000 0.070(9) Uiso 1 2 d S . P
H4 H -0.5000 1.5000 -0.5000 0.088(10) Uiso 1 2 d S . P
loop_
_atom_site_aniso_label
_atom_site_aniso_U_11
_atom_site_aniso_U_22
_atom_site_aniso_U_33
_atom_site_aniso_U_23
_atom_site_aniso_U_13
_atom_site_aniso_U_12
O2 0.0155(5) 0.0413(6) 0.0267(5) 0.0075(4) -0.0035(4) -0.0067(4)
O1 0.0215(5) 0.0554(7) 0.0284(6) 0.0169(5) -0.0040(4) -0.0119(5)
N1 0.0242(6) 0.0283(6) 0.0188(5) 0.0017(5) -0.0019(4) -0.0061(5)
O4 0.0166(5) 0.0590(7) 0.0281(6) 0.0140(5) -0.0036(4) -0.0117(5)
O3 0.0210(5) 0.0501(7) 0.0246(5) 0.0114(5) -0.0049(4) -0.0081(4)
C4 0.0363(8) 0.0324(8) 0.0243(7) 0.0010(6) -0.0052(6) -0.0121(6)
C10 0.0179(7) 0.0298(7) 0.0217(7) 0.0004(6) -0.0011(5) -0.0044(5)
C5 0.0326(8) 0.0324(8) 0.0254(7) -0.0015(6) 0.0025(6) -0.0010(6)
C9 0.0179(7) 0.0283(7) 0.0213(6) -0.0014(6) -0.0011(5) -0.0049(5)
C3 0.0672(12) 0.0361(9) 0.0328(8) -0.0067(7) 0.0079(8) -0.0106(8)
C6 0.0578(11) 0.0411(10) 0.0376(9) -0.0102(7) 0.0061(8) -0.0148(8)
C2 0.153(3) 0.0483(13) 0.0453(12) -0.0153(10) -0.0034(13) -0.0335(14)
C7 0.0936(17) 0.0424(11) 0.0523(12) -0.0135(9) 0.0214(11) -0.0137(10)
C8 0.164(3) 0.0619(15) 0.0691(15) -0.0362(13) 0.0334(17) -0.0469(17)
C1 0.265(5) 0.0508(15) 0.0683(17) -0.0303(13) 0.046(2) -0.033(2)
loop_
_atom_type_symbol
_atom_type_description
_atom_type_scat_dispersion_real
_atom_type_scat_dispersion_imag
_atom_type_scat_source
C C 0.0033 0.0016 'International Tables Vol C Tables 4.2.6.8 and 6.1.1.4'
H H 0.0000 0.0000 'International Tables Vol C Tables 4.2.6.8 and 6.1.1.4'
N N 0.0061 0.0033 'International Tables Vol C Tables 4.2.6.8 and 6.1.1.4'
O O 0.0106 0.0060 'International Tables Vol C Tables 4.2.6.8 and 6.1.1.4'
loop_
_geom_angle_atom_site_label_1
_geom_angle_atom_site_label_2
_geom_angle_atom_site_label_3
_geom_angle
_geom_angle_site_symmetry_3
C4 N1 C5 113.57(11) .
N1 C4 C3 111.17(13) .
O3 C10 O4 126.30(12) .
O3 C10 C10 120.42(14) 2_584
O4 C10 C10 113.27(13) 2_584
N1 C5 C6 110.68(13) .
O1 C9 O2 126.07(12) .
O1 C9 C9 120.07(14) 2_575
O2 C9 C9 113.86(13) 2_575
C4 C3 C2 111.92(18) .
C7 C6 C5 113.31(16) .
C3 C2 C1 113.9(3) .
C6 C7 C8 113.6(2) .
loop_
_geom_bond_atom_site_label_1
_geom_bond_atom_site_label_2
_geom_bond_distance
_geom_bond_site_symmetry_2
O2 C9 1.2768(15) .
O1 C9 1.2216(16) .
N1 C4 1.4835(18) .
N1 C5 1.4887(18) .
O4 C10 1.2781(16) .
O3 C10 1.2217(16) .
C4 C3 1.504(2) .
C10 C10 1.539(2) 2_584
C5 C6 1.510(2) .
C9 C9 1.548(3) 2_575
C3 C2 1.508(3) .
C6 C7 1.508(3) .
C2 C1 1.513(4) .
C7 C8 1.520(3) .
loop_
_geom_hbond_atom_site_label_D
_geom_hbond_atom_site_label_H
_geom_hbond_atom_site_label_A
_geom_hbond_distance_DH
_geom_hbond_distance_HA
_geom_hbond_distance_DA
_geom_hbond_angle_DHA
_geom_hbond_site_symmetry_A
N1 H2 O3 0.91 1.99 2.8829(14) 168.4 2_584
N1 H1 O2 0.91 2.46 3.0438(14) 122.5 2_575
N1 H1 O1 0.91 1.95 2.8375(14) 163.7 .
N1 H2 O4 0.91 2.49 3.0395(14) 119.3 .
