#------------------------------------------------------------------------------
#$Date: 2019-11-24 22:27:32 +0200 (Sun, 24 Nov 2019) $
#$Revision: 239604 $
#$URL: file:///home/coder/svn-repositories/cod/cif/4/51/68/4516872.cif $
#------------------------------------------------------------------------------
#
# This file is available in the Crystallography Open Database (COD),
# http://www.crystallography.net/
#
# All data on this site have been placed in the public domain by the
# contributors.
#
data_4516872
loop_
_publ_author_name
'Gl\"ocklhofer, Florian'
'Morawietz, Andreas J.'
'St\"oger, Berthold'
'Unterlass, Miriam M.'
'Fr\"ohlich, Johannes'
_publ_section_title
;
 Extending the Scope of a New Cyanation: Design and Synthesis of an
 Anthracene Derivative with an Exceptionally Low LUMO Level and Improved
 Solubility.
;
_journal_issue                   4
_journal_name_full               'ACS omega'
_journal_page_first              1594
_journal_page_last               1600
_journal_paper_doi               10.1021/acsomega.7b00245
_journal_volume                  2
_journal_year                    2017
_chemical_formula_sum            'C16 H6 N4 O4'
_chemical_formula_weight         318.2
_space_group_IT_number           4
_space_group_name_Hall           'P 2yb'
_space_group_name_H-M_alt        'P 1 21 1'
_symmetry_cell_setting           monoclinic
_symmetry_Int_Tables_number      4
_symmetry_space_group_name_Hall  'P 2yb'
_symmetry_space_group_name_H-M   'P 1 21 1'
_audit_creation_method           'Jana2006 Version : 19/08/2016'
_cell_angle_alpha                90
_cell_angle_beta                 90.597(3)
_cell_angle_gamma                90
_cell_formula_units_Z            2
_cell_length_a                   3.7419(4)
_cell_length_b                   8.4966(9)
_cell_length_c                   20.448(2)
_cell_measurement_reflns_used    5311
_cell_measurement_temperature    100
_cell_measurement_theta_max      30.05
_cell_measurement_theta_min      2.40
_cell_volume                     650.08(12)
_computing_cell_refinement       'SAINT-Plus (Bruker, 2016)'
_computing_data_collection       'Apex 3 (Bruker, 2016)'
_computing_data_reduction        'SAINT-Plus (Bruker, 2016)'
_computing_molecular_graphics    'Mercury (C. F. Macrae et al., 2008)'
_computing_structure_refinement  'Jana 2006 (V. Pet\<r\'i\<cek et al., 2014)'
_computing_structure_solution    'SHELXT (G. Sheldrick, 2015)'
_diffrn_ambient_temperature      100
_diffrn_measured_fraction_theta_full 1
_diffrn_measured_fraction_theta_max 1
_diffrn_measurement_device       'four-circle diffractometer'
_diffrn_measurement_device_type  'Bruker KAPPA APEX II CCD'
_diffrn_measurement_method       '\w- and \f-scans'
_diffrn_radiation_monochromator  graphite
_diffrn_radiation_probe          x-ray
_diffrn_radiation_source         'X-ray tube'
_diffrn_radiation_type           'Mo K\a'
_diffrn_radiation_wavelength     0.71073
_diffrn_reflns_av_R_equivalents  0.0314
_diffrn_reflns_av_unetI/netI     0.0381
_diffrn_reflns_limit_h_max       5
_diffrn_reflns_limit_h_min       -5
_diffrn_reflns_limit_k_max       11
_diffrn_reflns_limit_k_min       -11
_diffrn_reflns_limit_l_max       28
_diffrn_reflns_limit_l_min       -28
_diffrn_reflns_number            9571
_diffrn_reflns_theta_full        30.12
_diffrn_reflns_theta_max         30.12
_diffrn_reflns_theta_min         1
_exptl_absorpt_coefficient_mu    0.122
_exptl_absorpt_correction_T_max  1.00
_exptl_absorpt_correction_T_min  0.94
_exptl_absorpt_correction_type   multi-scan
_exptl_absorpt_process_details   SADABS
_exptl_crystal_colour            yellow
_exptl_crystal_density_diffrn    1.6259
_exptl_crystal_description       tabular
_exptl_crystal_F_000             324
_exptl_crystal_size_max          0.54
_exptl_crystal_size_mid          0.21
_exptl_crystal_size_min          0.04
_refine_diff_density_max         0.34
_refine_diff_density_min         -0.22
_refine_ls_abs_structure_details
'  1766 of Friedel pairs used in the refinement'
_refine_ls_extinction_method     none
_refine_ls_goodness_of_fit_gt    1.61
_refine_ls_goodness_of_fit_ref   1.54
_refine_ls_hydrogen_treatment    constr
_refine_ls_number_constraints    25
_refine_ls_number_parameters     217
_refine_ls_number_reflns         3787
_refine_ls_number_restraints     0
_refine_ls_R_factor_all          0.0563
_refine_ls_R_factor_gt           0.0464
_refine_ls_shift/su_max          0.0411
_refine_ls_shift/su_mean         0.0081
_refine_ls_structure_factor_coef F
_refine_ls_weighting_details     w=1/(\s^2^(F)+0.0009F^2^)
_refine_ls_weighting_scheme      sigma
_refine_ls_wR_factor_gt          0.0697
_refine_ls_wR_factor_ref         0.0725
_reflns_number_gt                3218
_reflns_number_total             3787
_reflns_threshold_expression     I>3\s(I)
_cod_data_source_file            ao7b00245_si_002.cif
_cod_data_source_block           dinitrodicyanoanthracene
_cod_depositor_comments
;
The following automatic conversions were performed:

data item '_diffrn_radiation_probe' value 'X-ray' was changed to
'x-ray' in accordance with the
/home/saulius/struct/COD-crude-data/automatic-downloads/DataCite-retrospective/ACS/depositions/lib/dictionaries/cif_core.dic
dictionary named 'cif_core.dic' version 2.4.2 last updated on
2011-04-26.

Automatic conversion script
Id: cif_fix_values 6909 2019-04-08 15:41:33Z antanas 
;
_cod_original_cell_volume        650.06(12)
_cod_database_code               4516872
loop_
_space_group_symop_id
_space_group_symop_operation_xyz
1 x,y,z
2 -x,y+1/2,-z
loop_
_atom_site_label
_atom_site_type_symbol
_atom_site_fract_x
_atom_site_fract_y
_atom_site_fract_z
_atom_site_adp_type
_atom_site_U_iso_or_equiv
_atom_site_site_symmetry_multiplicity
_atom_site_occupancy
_atom_site_calc_flag
O1 O 0.4535(5) 0.6591(2) 0.07634(8) Uani 0.0329(5) 2 1 d
O2 O 0.7897(5) 0.5317(2) 0.00955(9) Uani 0.0337(6) 2 1 d
O3 O 0.0223(5) 0.1712(2) 0.50685(8) Uani 0.0271(5) 2 1 d
O4 O 0.3397(5) -0.0352(2) 0.52991(9) Uani 0.0314(5) 2 1 d
N1 N 0.1264(5) 0.5608(2) 0.31907(9) Uani 0.0217(5) 2 1 d
N2 N 0.9590(5) -0.2436(2) 0.18986(10) Uani 0.0248(5) 2 1 d
N3 N 0.6223(5) 0.5441(2) 0.06050(9) Uani 0.0197(5) 2 1 d
N4 N 0.2225(5) 0.0634(2) 0.49171(9) Uani 0.0197(5) 2 1 d
C1 C 0.4044(5) 0.3029(2) 0.27539(10) Uani 0.0125(5) 2 1 d
C2 C 0.5230(5) 0.2939(2) 0.21046(10) Uani 0.0132(5) 2 1 d
C3 C 0.5044(5) 0.4257(2) 0.16671(10) Uani 0.0146(5) 2 1 d
C4 C 0.6316(5) 0.4068(2) 0.10525(10) Uani 0.0159(5) 2 1 d
C5 C 0.7730(5) 0.2641(2) 0.08086(10) Uani 0.0168(5) 2 1 d
C6 C 0.7854(5) 0.1367(2) 0.12118(10) Uani 0.0159(5) 2 1 d
C7 C 0.6656(5) 0.1473(2) 0.18694(10) Uani 0.0135(5) 2 1 d
C8 C 0.6816(5) 0.0182(2) 0.22990(10) Uani 0.0132(5) 2 1 d
C9 C 0.5647(5) 0.0269(2) 0.29511(10) Uani 0.0129(5) 2 1 d
C10 C 0.5864(5) -0.1052(2) 0.33809(11) Uani 0.0163(5) 2 1 d
C11 C 0.4725(6) -0.0930(2) 0.40073(11) Uani 0.0181(6) 2 1 d
C12 C 0.3355(5) 0.0520(2) 0.42277(10) Uani 0.0155(5) 2 1 d
C13 C 0.3050(5) 0.1826(2) 0.38456(9) Uani 0.0131(5) 2 1 d
C14 C 0.4236(5) 0.1729(2) 0.31862(9) Uani 0.0123(5) 2 1 d
C15 C 0.2549(5) 0.4488(2) 0.29941(10) Uani 0.0144(5) 2 1 d
C16 C 0.8319(5) -0.1276(2) 0.20729(10) Uani 0.0158(5) 2 1 d
H1c3 H 0.405171 0.524366 0.180481 Uiso 0.0175 2 1 d
H1c5 H 0.85835 0.25729 0.036833 Uiso 0.0202 2 1 d
H1c6 H 0.875984 0.038464 0.105107 Uiso 0.0191 2 1 d
H1c10 H 0.681998 -0.203113 0.322655 Uiso 0.0195 2 1 d
H1c11 H 0.485108 -0.181975 0.429618 Uiso 0.0218 2 1 d
H1c13 H 0.206491 0.278491 0.401493 Uiso 0.0157 2 1 d
loop_
_atom_site_aniso_label
_atom_site_aniso_type_symbol
_atom_site_aniso_U_11
_atom_site_aniso_U_22
_atom_site_aniso_U_33
_atom_site_aniso_U_12
_atom_site_aniso_U_13
_atom_site_aniso_U_23
O1 O 0.0457(11) 0.0314(9) 0.0218(8) 0.0169(8) 0.0049(7) 0.0067(7)
O2 O 0.0396(11) 0.0335(9) 0.0284(9) 0.0001(8) 0.0184(8) 0.0073(7)
O3 O 0.0270(8) 0.0320(9) 0.0224(8) 0.0049(7) 0.0063(6) -0.0032(7)
O4 O 0.0405(10) 0.0309(9) 0.0228(8) 0.0051(8) 0.0000(7) 0.0077(7)
N1 N 0.0234(9) 0.0179(8) 0.0240(9) 0.0023(7) 0.0027(7) -0.0020(7)
N2 N 0.0229(9) 0.0213(9) 0.0304(10) 0.0017(8) 0.0076(8) -0.0057(8)
N3 N 0.0172(9) 0.0253(9) 0.0164(8) -0.0012(7) -0.0007(7) 0.0003(7)
N4 N 0.0207(9) 0.0217(9) 0.0166(8) -0.0029(8) 0.0017(7) 0.0005(7)
C1 C 0.0093(8) 0.0120(8) 0.0162(9) 0.0005(6) -0.0012(7) -0.0031(7)
C2 C 0.0081(8) 0.0170(9) 0.0146(9) -0.0019(7) -0.0002(7) -0.0040(7)
C3 C 0.0114(8) 0.0163(9) 0.0160(9) 0.0003(7) -0.0004(7) -0.0006(7)
C4 C 0.0098(8) 0.0224(10) 0.0153(10) -0.0017(7) -0.0024(7) -0.0002(7)
C5 C 0.0128(9) 0.0222(10) 0.0155(9) 0.0011(8) 0.0029(7) -0.0039(8)
C6 C 0.0117(9) 0.0195(10) 0.0165(9) 0.0004(8) 0.0024(7) -0.0045(8)
C7 C 0.0101(8) 0.0148(9) 0.0155(9) -0.0010(7) -0.0002(7) -0.0041(7)
C8 C 0.0097(9) 0.0136(8) 0.0162(9) -0.0008(7) 0.0008(7) -0.0057(7)
C9 C 0.0074(8) 0.0149(9) 0.0163(9) -0.0001(7) 0.0017(7) -0.0036(7)
C10 C 0.0104(8) 0.0145(9) 0.0239(11) -0.0004(7) -0.0005(7) -0.0019(8)
C11 C 0.0165(9) 0.0138(9) 0.0240(11) 0.0009(8) -0.0008(8) 0.0020(8)
C12 C 0.0105(9) 0.0216(10) 0.0144(9) -0.0033(8) -0.0005(7) -0.0005(8)
C13 C 0.0089(8) 0.0155(9) 0.0149(9) 0.0004(7) 0.0006(7) -0.0030(7)
C14 C 0.0081(8) 0.0132(8) 0.0156(9) -0.0011(7) 0.0009(7) -0.0041(7)
C15 C 0.0111(8) 0.0155(9) 0.0166(9) 0.0000(7) -0.0005(7) 0.0000(7)
C16 C 0.0107(8) 0.0180(9) 0.0188(10) 0.0001(7) 0.0011(7) -0.0020(8)
loop_
_atom_type_symbol
_atom_type_scat_dispersion_real
_atom_type_scat_dispersion_imag
_atom_type_scat_source
C 0.0033 0.0016 'International Tables Vol C tables 4.2.6.8 and 6.1.1.1'
H 0.0000 0.0000 'International Tables Vol C tables 4.2.6.8 and 6.1.1.1'
N 0.0061 0.0033 'International Tables Vol C tables 4.2.6.8 and 6.1.1.1'
O 0.0106 0.0060 'International Tables Vol C tables 4.2.6.8 and 6.1.1.1'
loop_
_geom_angle_atom_site_label_1
_geom_angle_atom_site_label_2
_geom_angle_atom_site_label_3
_geom_angle
O1 N3 O2 124.78(19)
O1 N3 C4 118.62(18)
O2 N3 C4 116.59(18)
O3 N4 O4 124.52(19)
O3 N4 C12 118.12(17)
O4 N4 C12 117.35(18)
C2 C1 C14 122.15(17)
C2 C1 C15 119.59(17)
C14 C1 C15 118.26(17)
C1 C2 C3 122.15(17)
C1 C2 C7 118.98(17)
C3 C2 C7 118.88(18)
C2 C3 C4 118.00(18)
C2 C3 H1c3 121
C4 C3 H1c3 121
N3 C4 C3 118.16(18)
N3 C4 C5 117.58(17)
C3 C4 C5 124.26(19)
C4 C5 C6 118.58(19)
C4 C5 H1c5 120.71
C6 C5 H1c5 120.71
C5 C6 C7 120.81(18)
C5 C6 H1c6 119.59
C7 C6 H1c6 119.59
C2 C7 C6 119.44(17)
C2 C7 C8 118.67(18)
C6 C7 C8 121.89(17)
C7 C8 C9 122.57(17)
C7 C8 C16 119.03(18)
C9 C8 C16 118.38(17)
C8 C9 C10 121.67(17)
C8 C9 C14 118.80(17)
C10 C9 C14 119.52(18)
C9 C10 C11 120.30(18)
C9 C10 H1c10 119.85
C11 C10 H1c10 119.85
C10 C11 C12 119.13(19)
C10 C11 H1c11 120.44
C12 C11 H1c11 120.44
N4 C12 C11 118.06(18)
N4 C12 C13 118.05(18)
C11 C12 C13 123.88(19)
C12 C13 C14 118.02(18)
C12 C13 H1c13 120.99
C14 C13 H1c13 120.99
C1 C14 C9 118.84(17)
C1 C14 C13 122.02(17)
C9 C14 C13 119.14(17)
N1 C15 C1 177.5(2)
N2 C16 C8 178.5(2)
loop_
_geom_bond_atom_site_label_1
_geom_bond_atom_site_label_2
_geom_bond_distance
O1 N3 1.209(3)
O2 N3 1.226(3)
O3 N4 1.225(3)
O4 N4 1.223(3)
N1 C15 1.141(3)
N2 C16 1.152(3)
N3 C4 1.483(3)
N4 C12 1.479(3)
C1 C2 1.406(3)
C1 C14 1.416(3)
C1 C15 1.448(3)
C2 C3 1.435(3)
C2 C7 1.439(3)
C3 C4 1.358(3)
C3 H1c3 0.96
C4 C5 1.416(3)
C5 C6 1.361(3)
C5 H1c5 0.96
C6 C7 1.425(3)
C6 H1c6 0.96
C7 C8 1.406(3)
C8 C9 1.409(3)
C8 C16 1.439(3)
C9 C10 1.427(3)
C9 C14 1.433(3)
C10 C11 1.358(3)
C10 H1c10 0.96
C11 C12 1.410(3)
C11 H1c11 0.96
C12 C13 1.362(3)
C13 C14 1.426(3)
C13 H1c13 0.96
loop_
_refln_index_h
_refln_index_k
_refln_index_l
_refln_F_squared_calc
_refln_F_squared_meas
_refln_F_squared_sigma
_refln_observed_status
0 0 2 33.96 30.37 1.25 o
0 0 3 275.70 247.04 7.73 o
0 0 4 361.87 355.75 7.81 o
0 0 5 870.00 788.14 23.74 o
0 0 6 567.14 562.88 10.54 o
0 0 7 1176.55 1080.99 29.50 o
0 0 8 797.04 855.36 51.26 o
0 0 9 75.34 63.20 2.53 o
0 0 10 3469.07 3841.78 28.14 o
0 0 11 78.38 83.54 2.07 o
0 0 12 190.65 177.75 5.68 o
0 0 13 22.89 20.24 1.49 o
0 0 14 48.22 52.35 1.77 o
0 0 15 86.09 85.80 2.81 o
0 0 16 100.73 99.71 3.23 o
0 0 17 6.45 7.47 1.14 o
0 0 18 43.93 32.52 3.24 o
0 0 19 2.30 0.62 1.65 <
0 0 20 36.95 25.45 2.89 o
0 0 21 8.40 9.80 2.16 o
0 0 22 14.23 10.33 2.31 o
0 0 23 3.83 5.11 2.17 <
0 0 24 7.35 8.12 2.34 o
0 0 25 0.02 -0.51 2.20 <
0 0 26 43.05 43.41 4.12 o
0 0 27 8.22 6.41 2.52 <
0 0 28 6.45 7.81 2.60 <
0 1 1 1062.31 1023.91 21.35 o
0 -1 1 1062.83 1018.25 22.02 o
0 1 2 1279.80 1212.77 26.78 o
0 -1 2 1280.90 1216.15 27.51 o
0 1 3 329.46 309.80 7.79 o
0 -1 3 329.88 315.49 6.93 o
0 1 4 1494.53 1444.72 31.52 o
0 -1 4 1495.44 1465.49 27.36 o
0 1 5 301.72 282.47 7.73 o
0 -1 5 301.89 283.75 6.86 o
0 1 6 752.94 802.88 7.78 o
0 -1 6 752.87 796.57 5.91 o
0 1 7 1304.16 1294.79 26.61 o
0 -1 7 1303.65 1303.67 20.80 o
0 1 8 101.21 93.45 3.00 o
0 -1 8 100.98 95.77 2.44 o
0 1 9 72.10 65.28 2.37 o
0 -1 9 71.96 66.60 1.98 o
0 1 10 636.12 645.59 18.01 o
0 -1 10 636.75 669.09 8.50 o
0 1 11 224.88 254.36 5.33 o
0 -1 11 225.13 263.17 15.29 o
0 1 12 32.03 30.57 2.04 o
0 -1 12 31.97 29.74 1.40 o
0 1 13 53.14 46.26 2.78 o
0 -1 13 53.14 45.94 2.05 o
0 1 14 156.04 152.99 5.56 o
0 -1 14 156.04 157.04 3.52 o
0 1 15 21.69 18.39 1.92 o
0 -1 15 21.59 18.40 1.25 o
0 1 16 45.75 45.73 2.85 o
0 -1 16 45.71 46.64 2.15 o
0 1 17 42.64 39.19 2.93 o
0 -1 17 42.53 39.30 2.30 o
0 1 18 26.71 22.75 2.46 o
0 -1 18 26.59 23.69 1.81 o
0 1 19 26.97 22.53 2.44 o
0 -1 19 27.11 21.93 1.91 o
0 1 20 273.75 239.67 10.39 o
0 -1 20 273.61 234.64 9.36 o
0 1 21 50.89 48.37 3.63 o
0 -1 21 50.91 47.92 3.78 o
0 1 22 10.29 12.49 2.25 o
0 -1 22 10.22 12.64 2.36 o
0 1 23 14.39 12.90 2.37 o
0 -1 23 14.40 12.70 2.55 o
0 1 24 15.62 20.36 2.61 o
0 -1 24 15.61 17.93 2.74 o
0 1 25 6.32 7.79 2.41 o
0 -1 25 6.34 5.39 2.50 <
0 1 26 30.91 39.60 3.69 o
0 -1 26 30.97 30.16 3.48 o
0 1 27 38.00 46.47 3.90 o
0 -1 27 37.87 37.13 3.92 o
0 1 28 5.49 12.55 2.68 o
0 -1 28 5.44 6.12 2.74 <
0 2 0 1652.75 1549.34 44.71 o
0 -2 0 1653.92 1551.44 41.11 o
0 2 1 191.57 183.45 3.92 o
0 -2 1 191.40 188.02 3.35 o
0 2 2 1898.92 1746.48 44.55 o
0 -2 2 1898.18 1771.87 43.38 o
0 2 3 346.97 382.93 22.41 o
0 -2 3 347.01 381.35 22.26 o
0 2 4 552.70 514.07 12.52 o
0 -2 4 552.85 513.38 12.99 o
0 2 5 776.10 725.56 17.83 o
0 -2 5 776.79 734.06 16.50 o
0 2 6 351.32 338.83 8.19 o
0 -2 6 351.15 338.61 6.90 o
0 2 7 897.11 937.42 12.77 o
0 -2 7 896.49 943.03 4.76 o
0 2 8 28.26 26.92 1.15 o
0 -2 8 28.22 28.83 0.91 o
0 2 9 275.02 253.59 8.13 o
0 -2 9 275.09 259.94 6.56 o
0 2 10 105.02 93.90 4.16 o
0 -2 10 104.96 95.25 3.23 o
0 2 11 383.67 399.86 10.45 o
0 -2 11 383.99 404.35 5.54 o
0 2 12 193.65 190.97 6.40 o
0 -2 12 193.93 193.63 4.38 o
0 2 13 204.76 212.07 6.17 o
0 -2 13 204.72 207.81 4.36 o
0 2 14 46.10 42.53 2.68 o
0 -2 14 46.14 42.91 1.87 o
0 2 15 98.95 89.22 4.36 o
0 -2 15 99.13 90.26 3.24 o
0 2 16 934.81 933.40 26.60 o
0 -2 16 935.02 920.07 20.29 o
0 2 17 606.01 611.30 17.17 o
0 -2 17 605.42 589.82 13.99 o
0 2 18 14.81 14.37 1.92 o
0 -2 18 14.88 14.06 1.54 o
0 2 19 139.36 136.30 5.56 o
0 -2 19 139.52 131.91 4.81 o
0 2 20 109.78 93.48 5.25 o
0 -2 20 109.71 90.09 4.62 o
0 2 21 9.81 8.29 2.07 o
0 -2 21 9.70 7.19 1.59 o
0 2 22 80.72 70.39 4.56 o
0 -2 22 80.72 64.65 4.81 o
0 2 23 25.03 28.78 2.94 o
0 -2 23 25.08 23.13 2.94 o
0 2 24 6.30 8.10 2.26 o
0 -2 24 6.26 4.36 2.37 <
0 2 25 61.11 68.17 4.10 o
0 -2 25 61.08 65.03 4.55 o
0 2 26 79.31 106.85 3.97 o
0 -2 26 79.39 94.27 4.99 o
0 2 27 1.18 5.06 2.29 <
0 -2 27 1.17 1.34 2.55 <
0 2 28 10.88 12.36 2.64 o
0 -2 28 10.85 3.82 2.84 <
0 3 1 148.93 138.11 3.40 o
0 -3 1 148.95 138.21 3.50 o
0 3 2 446.45 461.32 4.00 o
0 -3 2 446.07 468.25 2.84 o
0 3 3 142.56 142.15 2.22 o
0 -3 3 142.64 147.13 1.59 o
0 3 4 1222.34 1224.75 19.45 o
0 -3 4 1222.68 1254.34 12.21 o
0 3 5 748.28 819.20 48.17 o
0 -3 5 748.38 828.05 48.36 o
0 3 6 1009.79 1028.58 13.51 o
0 -3 6 1010.05 1033.67 12.60 o
0 3 7 760.93 803.28 6.66 o
0 -3 7 760.85 814.22 1.41 o
0 3 8 12.85 15.88 0.62 o
0 -3 8 12.93 14.98 0.76 o
0 3 9 48.48 45.31 1.69 o
0 -3 9 48.58 47.92 1.62 o
0 3 10 147.22 137.54 4.48 o
0 -3 10 147.26 142.29 3.48 o
0 3 11 280.23 290.03 8.02 o
0 -3 11 280.32 291.33 3.18 o
0 3 12 106.59 97.19 4.32 o
0 -3 12 106.73 102.97 3.23 o
0 3 13 82.04 78.89 3.45 o
0 -3 13 82.00 76.55 3.10 o
0 3 14 17.00 14.32 1.67 o
0 -3 14 16.91 14.07 1.49 o
0 3 15 596.28 572.57 18.72 o
0 -3 15 596.50 576.34 15.72 o
0 3 16 900.49 864.01 27.84 o
0 -3 16 900.49 872.30 23.18 o
0 3 17 38.61 43.30 2.72 o
0 -3 17 38.48 39.06 2.40 o
0 3 18 12.05 12.03 1.95 o
0 -3 18 12.10 11.11 1.57 o
0 3 19 7.29 7.49 1.86 o
0 -3 19 7.31 8.06 1.50 o
0 3 20 86.65 86.20 4.28 o
0 -3 20 86.66 82.97 3.66 o
0 3 21 5.75 6.78 1.91 o
0 -3 21 5.77 5.33 1.59 o
0 3 22 59.67 58.44 3.82 o
0 -3 22 59.91 53.60 3.32 o
0 3 23 4.62 6.19 2.04 o
0 -3 23 4.61 1.53 2.22 <
0 3 24 53.78 65.15 3.73 o
0 -3 24 53.90 55.01 4.36 o
0 3 25 15.07 19.02 2.61 o
0 -3 25 15.09 13.12 2.80 o
0 3 26 80.63 89.94 4.41 o
0 -3 26 80.42 71.36 5.39 o
0 3 27 25.54 22.66 3.00 o
0 -3 27 25.45 20.31 3.38 o
0 4 0 26.29 24.13 1.07 o
0 -4 0 26.23 26.33 1.07 o
0 4 1 158.66 146.24 3.75 o
0 -4 1 158.79 151.89 3.38 o
0 4 2 36.57 41.11 2.45 o
0 -4 2 36.57 41.73 0.89 o
0 4 3 263.77 257.42 4.90 o
0 -4 3 264.13 265.18 5.31 o
0 4 4 1317.25 1461.28 84.76 o
0 -4 4 1316.63 1498.27 87.54 o
0 4 5 168.38 176.20 1.23 o
0 -4 5 168.31 180.64 2.16 o
0 4 6 74.12 100.21 5.39 o
0 -4 6 74.32 102.87 5.60 o
0 4 7 118.69 115.68 2.92 o
0 -4 7 118.79 116.15 2.99 o
0 4 8 65.81 71.39 1.20 o
0 -4 8 65.85 72.17 1.47 o
0 4 9 87.53 85.92 2.57 o
0 -4 9 87.26 87.91 2.33 o
0 4 10 11.04 13.21 0.85 o
0 -4 10 11.05 12.42 0.94 o
0 4 11 80.86 72.42 3.07 o
0 -4 11 80.96 76.63 2.58 o
0 4 12 17.95 17.58 1.38 o
0 -4 12 17.95 19.21 1.05 o
0 4 13 273.70 260.41 7.84 o
0 -4 13 273.76 260.57 6.55 o
0 4 14 425.75 425.69 10.32 o
0 -4 14 426.12 420.11 9.60 o
0 4 15 25.39 30.31 1.85 o
0 -4 15 25.30 27.68 2.05 o
0 4 16 7.43 6.59 1.30 o
0 -4 16 7.38 7.76 1.40 o
0 4 17 53.52 48.76 2.78 o
0 -4 17 53.60 51.30 2.81 o
0 4 18 45.00 45.88 2.53 o
0 -4 18 44.84 45.78 2.66 o
0 4 19 40.50 45.78 3.02 o
0 -4 19 40.34 39.03 2.73 o
0 4 20 8.70 9.28 2.00 o
0 -4 20 8.69 8.23 1.68 o
0 4 21 47.40 55.62 3.34 o
0 -4 21 47.39 47.77 2.98 o
0 4 22 35.79 34.33 3.35 o
0 -4 22 35.81 28.56 2.68 o
0 4 23 20.21 22.82 2.65 o
0 -4 23 20.21 18.18 2.94 o
0 4 24 1.54 1.44 1.92 <
0 -4 24 1.55 -2.61 2.23 <
0 4 25 8.35 6.11 1.94 o
0 -4 25 8.37 3.36 2.56 <
0 4 26 10.73 14.00 2.90 o
0 -4 26 10.68 7.15 2.97 <
0 4 27 14.34 6.85 3.66 <
0 -4 27 14.30 10.27 3.32 o
0 5 1 10.56 9.54 0.55 o
0 -5 1 10.58 9.99 0.71 o
0 5 2 4.91 5.25 0.48 o
0 -5 2 4.91 4.46 0.62 o
0 5 3 58.89 52.84 1.97 o
0 -5 3 58.89 53.98 2.00 o
0 5 4 43.50 42.43 1.44 o
0 -5 4 43.44 44.91 1.37 o
0 5 5 558.53 573.00 9.99 o
0 -5 5 558.66 606.86 2.67 o
0 5 6 246.71 272.92 0.85 o
0 -5 6 247.05 285.23 17.06 o
0 5 7 27.33 26.18 1.11 o
0 -5 7 27.28 28.83 1.50 o
0 5 8 156.26 145.18 4.76 o
0 -5 8 156.19 157.34 4.05 o
0 5 9 7.40 7.28 0.78 o
0 -5 9 7.35 9.16 0.93 o
0 5 10 168.84 167.95 5.32 o
0 -5 10 168.76 167.42 4.18 o
0 5 11 7.14 6.69 1.08 o
0 -5 11 7.13 5.67 0.86 o
0 5 12 111.16 99.14 4.37 o
0 -5 12 111.36 103.93 3.22 o
0 5 13 14.51 13.80 1.44 o
0 -5 13 14.52 15.16 1.06 o
0 5 14 404.99 393.70 10.90 o
0 -5 14 404.67 403.30 8.77 o
0 5 15 979.06 981.83 22.80 o
0 -5 15 979.09 998.46 21.30 o
0 5 16 317.45 322.90 7.85 o
0 -5 16 317.64 328.82 7.57 o
0 5 17 2.31 2.07 1.29 <
0 -5 17 2.29 2.76 1.41 <
0 5 18 18.73 15.28 1.79 o
0 -5 18 18.74 15.35 1.93 o
0 5 19 13.15 12.45 1.70 o
0 -5 19 13.11 9.98 1.79 o
0 5 20 17.47 17.39 1.94 o
0 -5 20 17.48 19.39 2.09 o
0 5 21 7.94 8.45 1.71 o
0 -5 21 7.99 5.49 1.74 o
0 5 22 122.02 139.06 5.15 o
0 -5 22 121.81 122.43 4.72 o
0 5 23 177.72 207.82 5.85 o
0 -5 23 177.63 187.85 5.65 o
0 5 24 8.54 13.03 3.44 o
0 -5 24 8.50 11.10 2.88 o
0 5 25 56.41 62.57 5.91 o
0 -5 25 56.51 58.56 4.89 o
0 5 26 30.07 26.20 4.30 o
0 -5 26 30.10 28.55 3.80 o
0 6 0 99.39 98.08 2.71 o
0 -6 0 99.12 97.92 5.55 o
0 6 1 11.22 8.73 0.78 o
0 -6 1 11.22 8.92 1.42 o
0 6 2 61.14 61.60 1.68 o
0 -6 2 60.80 62.39 2.21 o
0 6 3 260.58 242.93 6.89 o
0 -6 3 260.74 241.18 7.87 o
0 6 4 146.93 137.08 4.10 o
0 -6 4 147.06 140.41 4.51 o
0 6 5 54.01 47.73 2.00 o
0 -6 5 54.12 53.04 2.22 o
0 6 6 11.78 12.48 0.86 o
0 -6 6 11.77 11.93 1.14 o
0 6 7 21.85 22.32 1.17 o
0 -6 7 21.74 22.07 1.53 o
0 6 8 52.54 48.57 2.26 o
0 -6 8 52.59 48.48 2.40 o
0 6 9 24.98 23.12 1.99 o
0 -6 9 25.04 23.04 1.80 o
0 6 10 15.70 15.29 1.59 o
0 -6 10 15.67 14.66 1.32 o
0 6 11 170.54 137.20 8.87 o
0 -6 11 170.64 146.01 5.74 o
0 6 12 139.85 113.07 7.73 o
0 -6 12 139.40 121.88 4.75 o
0 6 13 52.44 48.64 4.40 o
0 -6 13 52.36 50.15 2.36 o
0 6 14 43.45 41.81 4.24 o
0 -6 14 43.44 41.45 2.23 o
0 6 15 21.42 15.51 2.93 o
0 -6 15 21.42 17.85 1.96 o
0 6 16 71.85 65.87 5.41 o
0 -6 16 72.11 70.32 3.44 o
0 6 17 9.37 8.95 2.84 o
0 -6 17 9.38 8.79 1.77 o
0 6 18 58.43 64.06 5.08 o
0 -6 18 58.44 60.95 3.19 o
0 6 19 13.70 9.38 2.89 o
0 -6 19 13.75 12.72 1.94 o
0 6 20 58.22 64.72 5.31 o
0 -6 20 58.11 59.65 3.37 o
0 6 21 14.21 15.43 3.35 o
0 -6 21 14.25 16.17 2.20 o
0 6 22 5.86 8.29 3.10 <
0 -6 22 5.91 6.13 2.04 o
0 6 23 17.33 17.41 3.68 o
0 -6 23 17.35 16.91 2.40 o
0 6 24 1.77 2.07 3.17 <
0 -6 24 1.79 0.53 2.61 <
0 7 1 777.91 698.56 23.54 o
0 -7 1 777.90 748.40 23.46 o
0 7 2 530.72 491.88 14.06 o
0 -7 2 530.26 519.18 16.01 o
0 7 3 331.13 305.09 9.04 o
0 -7 3 331.10 316.49 9.24 o
0 7 4 161.38 145.56 4.85 o
0 -7 4 161.30 155.96 4.89 o
0 7 5 28.20 26.87 1.43 o
0 -7 5 28.18 29.76 1.95 o
0 7 6 3.80 3.60 0.77 o
0 -7 6 3.83 2.63 1.08 <
0 7 7 55.74 44.84 2.33 o
0 -7 7 55.78 48.99 2.71 o
0 7 8 14.29 7.94 1.30 o
0 -7 8 14.29 10.20 1.42 o
0 7 9 66.02 57.14 3.28 o
0 -7 9 65.94 56.02 3.12 o
0 7 10 24.19 24.50 2.06 o
0 -7 10 24.10 24.03 1.90 o
0 7 11 167.62 142.15 6.69 o
0 -7 11 167.73 139.21 5.99 o
0 7 12 16.94 9.95 1.76 o
0 -7 12 16.96 9.29 1.49 o
0 7 13 27.47 26.21 2.35 o
0 -7 13 27.48 24.67 1.90 o
0 7 14 25.82 24.89 2.24 o
0 -7 14 25.78 22.07 2.17 o
0 7 15 22.04 23.38 3.46 o
0 -7 15 22.11 21.02 2.18 o
0 7 16 1.44 3.48 2.56 <
0 -7 16 1.44 -1.20 1.47 <
0 7 17 44.55 47.22 4.78 o
0 -7 17 44.59 40.26 3.15 o
0 7 18 0.08 0.72 2.63 <
0 -7 18 0.07 -0.09 1.63 <
0 7 19 16.20 22.63 3.54 o
0 -7 19 16.11 21.08 2.26 o
0 7 20 51.61 54.91 5.43 o
0 -7 20 51.65 59.91 3.31 o
0 7 21 4.03 7.35 3.04 <
0 -7 21 4.06 3.14 2.00 <
0 7 22 6.25 9.38 3.43 <
0 -7 22 6.21 7.40 2.19 o
0 7 23 20.07 22.22 3.99 o
0 -7 23 20.14 20.66 2.66 o
0 8 0 1230.46 1274.17 47.23 o
0 -8 0 1231.05 1205.90 51.62 o
0 8 1 261.45 272.30 8.07 o
0 -8 1 261.83 275.86 8.15 o
0 8 2 33.11 40.43 2.41 o
0 -8 2 32.91 35.84 3.08 o
0 8 3 47.62 43.60 2.97 o
0 -8 3 47.46 47.20 3.33 o
0 8 4 28.81 31.06 1.74 o
0 -8 4 28.70 28.21 2.61 o
0 8 5 107.06 103.87 3.58 o
0 -8 5 107.02 105.22 3.88 o
0 8 6 27.79 27.67 1.75 o
0 -8 6 27.74 30.34 2.18 o
0 8 7 46.62 37.09 2.52 o
0 -8 7 46.80 38.97 2.75 o
0 8 8 20.03 18.49 1.61 o
0 -8 8 19.97 16.13 1.79 o
0 8 9 140.05 124.72 5.73 o
0 -8 9 139.92 127.60 5.11 o
0 8 10 128.99 106.11 5.69 o
0 -8 10 129.03 111.44 5.10 o
0 8 11 54.79 52.04 3.18 o
0 -8 11 54.84 53.54 2.65 o
0 8 12 92.33 87.40 4.26 o
0 -8 12 92.28 88.90 3.45 o
0 8 13 12.21 15.51 1.94 o
0 -8 13 12.19 14.65 1.95 o
0 8 14 8.21 7.78 1.77 o
0 -8 14 8.20 9.95 1.81 o
0 8 15 38.25 40.35 3.09 o
0 -8 15 38.23 44.47 2.98 o
0 8 16 10.36 11.79 2.02 o
0 -8 16 10.29 12.05 2.03 o
0 8 17 32.94 31.73 2.87 o
0 -8 17 32.85 40.30 2.87 o
0 8 18 87.77 84.13 4.46 o
0 -8 18 87.74 87.08 4.27 o
0 8 19 78.34 84.19 4.01 o
0 -8 19 78.52 79.80 4.11 o
0 8 20 11.11 12.39 2.17 o
0 -8 20 11.14 8.76 2.28 o
0 8 21 10.54 9.99 2.24 o
0 -8 21 10.50 8.19 2.38 o
0 9 1 28.61 30.29 2.72 o
0 -9 1 28.61 30.10 2.85 o
0 9 2 33.03 30.56 2.74 o
0 -9 2 33.08 34.80 3.33 o
0 9 3 10.40 11.93 1.84 o
0 -9 3 10.36 7.75 2.12 o
0 9 4 32.65 35.53 2.91 o
0 -9 4 32.54 34.97 3.36 o
0 9 5 0.21 0.73 1.50 <
0 -9 5 0.21 2.07 1.86 <
0 9 6 59.64 59.84 3.54 o
0 -9 6 59.63 62.83 3.95 o
0 9 7 42.61 44.03 2.37 o
0 -9 7 42.65 38.48 2.87 o
0 9 8 5.59 4.83 1.31 o
0 -9 8 5.58 3.39 1.50 <
0 9 9 1.23 2.11 1.26 <
0 -9 9 1.25 1.67 1.41 <
0 9 10 25.63 21.71 2.30 o
0 -9 10 25.72 19.65 2.18 o
0 9 11 3.50 4.18 1.60 <
0 -9 11 3.48 3.67 1.42 <
0 9 12 57.26 58.82 3.46 o
0 -9 12 57.24 57.33 3.42 o
0 9 13 4.46 4.73 1.77 <
0 -9 13 4.43 3.32 1.74 <
0 9 14 0.64 0.10 1.63 <
0 -9 14 0.65 0.63 1.69 <
0 9 15 0.82 0.32 1.67 <
0 -9 15 0.83 1.64 1.79 <
0 9 16 31.08 31.03 2.80 o
0 -9 16 31.14 29.15 2.91 o
0 9 17 3.15 6.82 1.97 o
0 -9 17 3.12 5.43 2.06 <
0 9 18 124.13 128.95 5.49 o
0 -9 18 124.01 146.84 4.40 o
0 9 19 33.84 39.67 3.17 o
0 10 0 73.79 83.92 5.87 o
0 -10 0 73.81 76.75 6.92 o
0 10 1 80.36 98.54 3.76 o
0 -10 1 80.28 88.55 4.84 o
0 10 2 38.81 45.50 3.38 o
0 -10 2 38.80 40.10 3.96 o
0 10 3 17.47 18.26 2.47 o
0 -10 3 17.62 13.59 2.52 o
0 10 4 6.02 6.88 2.09 o
0 -10 4 6.03 4.40 2.17 <
0 10 5 37.29 33.71 3.12 o
0 -10 5 37.42 30.41 3.35 o
0 10 6 38.20 47.19 3.27 o
0 -10 6 38.21 43.18 3.93 o
0 10 7 123.56 152.33 4.17 o
0 -10 7 123.33 130.64 6.04 o
0 10 8 106.24 135.76 3.69 o
0 -10 8 106.24 113.08 5.66 o
0 10 9 7.77 10.71 3.28 o
0 -10 9 7.82 10.83 2.45 o
0 10 10 23.74 26.27 4.09 o
0 -10 10 23.73 20.11 2.28 o
0 10 11 7.81 9.17 3.40 <
0 -10 11 7.81 7.75 1.94 o
0 10 12 10.13 11.15 3.53 o
0 -10 12 10.12 12.28 2.19 o
0 10 13 0.23 2.39 3.08 <
0 -10 13 0.23 -0.57 1.79 <
0 10 14 3.93 6.15 3.29 <
0 -10 14 3.92 2.79 1.97 <
0 10 15 21.32 29.90 4.38 o
0 -10 15 21.25 22.90 2.64 o
0 11 1 11.01 16.98 2.50 o
0 -11 1 11.02 9.20 2.56 o
0 11 2 86.82 89.06 4.71 o
0 -11 2 86.78 79.05 5.55 o
0 11 3 34.66 45.38 3.47 o
0 -11 3 34.73 41.33 5.87 o
0 11 4 70.42 86.58 4.09 o
0 -11 4 70.43 65.97 5.22 o
0 11 5 36.86 40.73 3.60 o
0 -11 5 36.80 34.84 3.67 o
0 11 6 11.07 15.84 2.47 o
0 -11 6 11.06 9.35 2.73 o
0 11 7 12.04 16.16 2.65 o
0 -11 7 12.10 8.64 2.79 o
0 11 8 3.53 6.28 2.21 <
0 -11 8 3.52 -1.57 2.41 <
0 11 9 0.43 5.93 3.45 <
0 -11 9 0.44 -4.17 2.39 <
0 11 10 0.46 -1.07 3.05 <
0 -11 10 0.47 2.94 2.48 <
0 11 11 22.66 29.76 4.87 o
0 -11 11 22.65 24.92 3.75 o
1 0 -28 119.32 131.78 5.79 o
1 0 -27 0.11 1.56 2.27 <
1 0 -26 0.30 -0.12 2.19 <
1 0 -25 1.16 -0.41 2.19 <
1 0 -24 3.05 2.54 2.20 <
1 0 -23 1.41 0.87 1.97 <
1 0 -22 2.30 3.67 2.01 <
1 0 -21 2.29 1.79 1.88 <
1 0 -20 4.10 5.65 1.88 <
1 0 -19 11.40 14.94 2.04 o
1 0 -18 391.71 301.01 15.47 o
1 0 -17 61.85 72.52 3.24 o
1 0 -16 147.67 121.70 6.29 o
1 0 -15 98.29 104.37 3.89 o
1 0 -14 24.60 26.84 2.20 o
1 0 -13 216.03 216.94 4.07 o
1 0 -12 128.93 145.68 8.59 o
1 0 -11 200.05 197.15 4.15 o
1 0 -10 26.82 16.54 1.33 o
1 0 -9 32.92 32.82 1.11 o
1 0 -8 3121.82 3339.56 197.86 o
1 0 -7 163.42 161.87 3.09 o
1 0 -6 265.52 289.76 17.12 o
1 0 -5 130.19 130.39 2.32 o
1 0 -4 1039.37 1068.12 14.38 o
1 0 -3 829.75 778.16 20.79 o
1 0 -2 1984.61 2152.82 128.05 o
1 0 -1 544.76 538.89 9.54 o
1 0 0 4172.73 4312.63 52.47 o
1 0 1 157.84 160.07 3.14 o
1 0 2 6681.86 6847.65 111.27 o
1 0 3 150.27 187.61 10.27 o
1 0 4 151.76 158.33 1.62 o
1 0 5 257.26 225.76 7.10 o
1 0 6 2045.64 2024.99 35.24 o
1 0 7 5.13 5.14 0.54 o
1 0 8 44.53 118.13 5.23 o
1 0 9 258.99 258.59 4.95 o
1 0 10 86.69 74.40 2.82 o
1 0 11 2.31 5.11 0.69 o
1 0 12 120.61 120.97 2.91 o
1 0 13 227.71 216.57 5.89 o
1 0 14 15.63 12.92 1.15 o
1 0 15 22.10 24.88 1.34 o
1 0 16 256.08 251.91 6.89 o
1 0 17 164.44 177.53 5.45 o
1 0 18 79.70 80.72 3.96 o
1 0 19 17.32 14.98 2.20 o
1 0 20 113.28 113.53 3.83 o
1 0 21 3.23 5.62 2.01 <
1 0 22 139.96 126.88 6.31 o
1 0 23 9.41 7.72 2.28 o
1 0 24 7.35 8.60 2.37 o
1 0 25 0.63 -1.75 2.10 <
1 0 26 12.59 12.34 2.69 o
1 0 27 0.96 0.70 2.29 <
1 0 28 46.71 50.80 4.29 o
1 1 -28 111.26 137.62 5.10 o
1 -1 -28 111.03 135.34 5.49 o
1 1 -27 42.25 47.08 4.07 o
1 -1 -27 42.27 44.15 4.37 o
1 1 -26 9.24 9.14 2.50 o
1 -1 -26 9.28 10.54 2.72 o
1 1 -25 22.30 23.35 3.00 o
1 -1 -25 22.33 21.78 3.11 o
1 1 -24 3.63 4.40 2.20 <
1 -1 -24 3.62 2.72 2.26 <
1 1 -23 19.50 22.87 2.65 o
1 -1 -23 19.44 20.43 2.80 o
1 1 -22 0.87 0.32 1.79 <
1 -1 -22 0.89 -1.64 1.95 <
1 1 -21 15.55 16.80 2.28 o
1 -1 -21 15.51 16.41 2.50 o
1 1 -20 87.83 71.80 4.69 o
1 -1 -20 87.84 76.98 4.72 o
1 1 -19 109.96 85.96 5.36 o
1 -1 -19 109.75 89.10 4.50 o
1 1 -18 48.68 44.44 3.22 o
1 -1 -18 48.56 45.23 2.51 o
1 1 -17 40.01 35.40 2.92 o
1 -1 -17 40.19 33.54 1.99 o
1 1 -16 5.38 4.62 1.46 o
1 -1 -16 5.35 4.70 0.93 o
1 1 -15 32.75 33.61 2.47 o
1 -1 -15 32.73 31.26 1.94 o
1 1 -14 21.59 22.22 1.47 o
1 -1 -14 21.53 21.33 1.65 o
1 1 -13 39.37 42.56 1.62 o
1 -1 -13 39.40 40.95 1.83 o
1 1 -12 106.31 116.97 2.30 o
1 -1 -12 106.29 121.14 1.90 o
1 1 -11 302.18 306.66 5.86 o
1 -1 -11 302.08 311.38 6.59 o
1 1 -10 530.74 522.67 11.49 o
1 -1 -10 531.01 529.35 10.79 o
1 1 -9 483.80 521.70 4.00 o
1 -1 -9 483.73 516.27 2.76 o
1 1 -8 856.07 857.05 17.04 o
1 -1 -8 856.36 868.07 12.09 o
1 1 -7 506.94 517.34 8.07 o
1 -1 -7 506.87 538.39 32.06 o
1 1 -6 134.67 142.23 1.74 o
1 -1 -6 134.25 144.42 8.66 o
1 1 -5 78.09 80.30 1.57 o
1 -1 -5 78.24 85.43 0.67 o
1 1 -4 549.26 529.47 11.96 o
1 -1 -4 549.40 550.12 10.70 o
1 1 -3 793.16 780.70 17.12 o
1 -1 -3 793.04 808.53 13.67 o
1 1 -2 480.13 734.84 38.07 o
1 -1 -2 480.08 776.33 37.23 o
1 1 0 111.45 88.53 3.73 o
1 -1 0 111.08 90.26 3.53 o
1 1 1 4265.91 4406.22 44.45 o
1 -1 1 4266.03 4438.29 35.88 o
1 1 2 14269.30 14032.00 257.57 o
1 -1 2 14273.10 14214.80 204.26 o
1 1 3 2433.64 2550.99 23.08 o
1 -1 3 2432.93 2527.40 16.16 o
1 1 4 1475.36 1442.96 27.56 o
1 -1 4 1473.52 1454.34 24.34 o
1 1 5 692.75 723.48 7.58 o
1 -1 5 692.45 718.69 5.13 o
1 1 6 165.57 151.38 4.42 o
1 -1 6 165.26 152.73 4.11 o
1 1 7 240.14 227.53 5.72 o
1 -1 7 240.27 231.98 5.02 o
1 1 8 108.08 118.50 7.07 o
1 -1 8 108.06 121.00 7.20 o
1 1 9 18.63 20.24 0.92 o
1 -1 9 18.69 20.30 0.93 o
1 1 10 472.11 489.75 6.01 o
1 -1 10 472.24 473.53 8.61 o
1 1 11 712.49 732.52 11.98 o
1 -1 11 712.56 725.56 12.99 o
1 1 12 325.69 369.28 21.79 o
1 -1 12 325.52 363.31 21.67 o
1 1 13 67.59 60.34 2.39 o
1 -1 13 67.84 60.10 2.44 o
1 1 14 81.03 78.96 2.41 o
1 -1 14 81.05 77.16 2.56 o
1 1 15 37.70 39.08 1.90 o
1 -1 15 37.60 39.86 1.52 o
1 1 16 10.21 8.60 1.20 o
1 -1 16 10.21 9.83 1.07 o
1 1 17 57.37 53.69 2.60 o
1 -1 17 57.60 53.79 2.65 o
1 1 18 340.21 339.25 10.79 o
1 -1 18 339.81 335.10 9.00 o
1 1 19 154.90 163.57 5.51 o
1 -1 19 154.81 155.72 4.71 o
1 1 20 89.17 88.08 4.44 o
1 -1 20 89.40 89.03 3.46 o
1 1 21 23.61 24.39 2.58 o
1 -1 21 23.54 21.69 2.02 o
1 1 22 25.61 21.19 2.72 o
1 -1 22 25.62 21.00 2.79 o
1 1 23 72.57 71.70 4.31 o
1 -1 23 72.66 64.06 4.61 o
1 1 24 2.80 2.86 2.13 <
1 -1 24 2.79 0.94 2.22 <
1 1 25 36.71 39.08 3.79 o
1 -1 25 36.64 33.55 3.52 o
1 1 26 7.37 13.63 2.61 o
1 -1 26 7.38 6.72 2.68 <
1 1 27 78.61 95.47 4.56 o
1 -1 27 78.60 84.80 5.15 o
1 1 28 29.31 43.16 3.85 o
1 -1 28 29.26 32.91 3.68 o
1 2 -27 23.92 44.75 6.51 o
1 -2 -27 23.99 24.89 3.52 o
1 2 -26 22.22 32.19 3.40 o
1 -2 -26 22.18 22.07 3.29 o
1 2 -25 79.68 87.93 4.47 o
1 -2 -25 79.46 84.60 4.95 o
1 2 -24 21.30 27.15 2.90 o
1 -2 -24 21.36 26.87 3.12 o
1 2 -23 20.20 21.63 2.63 o
1 -2 -23 20.31 22.34 2.85 o
1 2 -22 36.24 41.08 3.34 o
1 -2 -22 36.23 38.91 3.60 o
1 2 -21 44.47 39.16 3.47 o
1 -2 -21 44.49 37.72 3.49 o
1 2 -20 133.20 122.57 5.74 o
1 -2 -20 133.28 122.62 4.88 o
1 2 -19 7.14 7.88 1.77 o
1 -2 -19 7.15 7.53 1.43 o
1 2 -18 42.87 51.09 2.89 o
1 -2 -18 42.71 49.01 2.31 o
1 2 -17 31.87 39.06 2.57 o
1 -2 -17 31.85 39.04 2.03 o
1 2 -16 29.69 27.75 2.55 o
1 -2 -16 29.59 27.96 1.98 o
1 2 -15 54.04 43.19 3.13 o
1 -2 -15 53.90 41.51 2.76 o
1 2 -14 29.97 31.64 1.72 o
1 -2 -14 29.98 30.48 1.87 o
1 2 -13 39.66 44.28 1.61 o
1 -2 -13 39.59 46.44 1.68 o
1 2 -12 8.10 8.62 0.94 o
1 -2 -12 8.08 8.98 1.02 o
1 2 -11 104.13 91.73 3.67 o
1 -2 -11 104.22 93.67 3.31 o
1 2 -10 39.25 38.85 1.67 o
1 -2 -10 39.24 38.98 1.12 o
1 2 -9 67.40 99.29 5.51 o
1 -2 -9 67.42 101.93 5.13 o
1 2 -8 31.77 57.18 3.33 o
1 -2 -8 31.86 65.93 2.00 o
1 2 -7 144.21 128.70 4.77 o
1 -2 -7 144.33 135.45 3.50 o
1 2 -6 607.97 579.16 14.89 o
1 -2 -6 607.94 591.77 11.24 o
1 2 -5 280.75 277.86 6.18 o
1 -2 -5 280.66 283.76 4.31 o
1 2 -4 5.44 5.69 0.70 o
1 -2 -4 5.39 4.61 0.69 o
1 2 -3 495.17 533.27 31.92 o
1 -2 -3 494.82 532.78 31.91 o
1 2 -2 227.04 229.18 3.99 o
1 -2 -2 226.75 232.22 4.17 o
1 2 -1 293.92 283.26 6.53 o
1 -2 -1 294.24 292.54 5.08 o
1 2 0 779.98 769.72 14.99 o
1 -2 0 780.20 779.79 13.73 o
1 2 1 919.65 872.83 21.16 o
1 -2 1 920.21 914.19 15.26 o
1 2 2 599.14 577.09 13.07 o
1 -2 2 599.13 596.13 9.95 o
1 2 3 1025.35 995.50 20.17 o
1 -2 3 1025.95 1025.72 15.05 o
1 2 4 21.02 13.21 1.00 o
1 -2 4 21.03 13.18 0.96 o
1 2 5 143.23 133.02 3.72 o
1 -2 5 143.35 136.08 3.29 o
1 2 6 227.40 203.14 6.07 o
1 -2 6 227.78 200.57 6.16 o
1 2 7 5.77 16.69 0.56 o
1 -2 7 5.71 15.97 0.75 o
1 2 8 1599.17 1608.15 24.35 o
1 -2 8 1599.73 1608.47 24.43 o
1 2 9 1161.97 1130.67 23.97 o
1 -2 9 1161.75 1143.70 20.90 o
1 2 10 26.17 24.79 1.29 o
1 -2 10 26.13 24.06 1.18 o
1 2 11 62.92 56.67 2.23 o
1 -2 11 62.82 56.65 2.28 o
1 2 12 201.15 216.73 2.68 o
1 -2 12 200.92 216.57 3.92 o
1 2 13 358.33 367.82 8.05 o
1 -2 13 358.75 377.90 6.96 o
1 2 14 55.26 53.78 2.27 o
1 -2 14 55.31 56.05 2.22 o
1 2 15 78.82 74.07 2.96 o
1 -2 15 78.81 78.39 2.77 o
1 2 16 202.55 199.34 5.62 o
1 -2 16 202.70 197.20 5.16 o
1 2 17 547.59 518.21 17.84 o
1 -2 17 547.92 524.90 14.86 o
1 2 18 699.67 690.18 20.93 o
1 -2 18 699.20 682.38 18.04 o
1 2 19 118.59 116.02 5.05 o
1 -2 19 118.74 113.20 4.32 o
1 2 20 16.78 18.02 2.30 o
1 -2 20 16.70 18.51 1.88 o
1 2 21 24.32 21.00 2.52 o
1 -2 21 24.24 20.03 2.10 o
1 2 22 158.23 153.55 6.34 o
1 -2 22 158.57 142.35 5.88 o
1 2 23 41.81 39.60 3.63 o
1 -2 23 41.83 35.03 3.58 o
1 2 24 16.64 21.59 2.67 o
1 -2 24 16.60 18.01 2.83 o
1 2 25 1.75 5.18 2.19 <
1 -2 25 1.75 1.47 2.35 <
1 2 26 13.41 18.35 2.69 o
1 -2 26 13.45 10.58 2.83 o
1 2 27 26.69 32.55 3.37 o
1 -2 27 26.75 22.25 3.49 o
1 3 -27 3.23 11.62 4.29 <
1 -3 -27 3.24 -0.28 2.72 <
1 3 -26 4.45 16.00 4.36 o
1 -3 -26 4.42 3.70 2.66 <
1 3 -25 12.38 20.56 4.53 o
1 -3 -25 12.32 9.45 2.79 o
1 3 -24 86.33 107.39 7.99 o
1 -3 -24 86.38 101.15 4.91 o
1 3 -23 62.76 78.83 6.99 o
1 -3 -23 62.82 62.99 4.59 o
1 3 -22 9.95 10.63 2.09 o
1 -3 -22 9.91 8.34 2.46 o
1 3 -21 33.12 38.51 3.02 o
1 -3 -21 33.10 32.79 2.65 o
1 3 -20 81.52 84.29 3.96 o
1 -3 -20 81.53 77.57 3.65 o
1 3 -19 10.75 14.50 1.95 o
1 -3 -19 10.75 11.68 1.66 o
1 3 -18 54.55 49.87 3.31 o
1 -3 -18 54.73 51.15 2.85 o
1 3 -17 29.85 32.85 2.49 o
1 -3 -17 29.89 26.87 2.31 o
1 3 -16 91.69 87.72 4.02 o
1 -3 -16 92.10 88.34 3.54 o
1 3 -15 615.04 587.07 27.05 o
1 -3 -15 615.05 598.34 15.94 o
1 3 -14 1246.47 1149.44 53.30 o
1 -3 -14 1245.61 1188.61 32.80 o
1 3 -13 644.70 598.15 28.01 o
1 -3 -13 644.41 603.82 16.51 o
1 3 -12 202.71 183.18 10.19 o
1 -3 -12 202.58 185.18 5.85 o
1 3 -11 152.32 141.51 8.18 o
1 -3 -11 152.41 147.75 3.57 o
1 3 -10 49.93 52.66 4.04 o
1 -3 -10 49.93 50.14 1.29 o
1 3 -9 73.65 66.22 4.92 o
1 -3 -9 73.49 76.66 1.45 o
1 3 -8 15.47 14.35 2.32 o
1 -3 -8 15.55 16.03 0.87 o
1 3 -7 112.98 108.17 3.51 o
1 -3 -7 112.86 106.73 2.94 o
1 3 -6 353.29 369.46 7.02 o
1 -3 -6 353.67 364.48 5.16 o
1 3 -5 261.30 300.95 18.02 o
1 -3 -5 261.50 307.61 17.60 o
1 3 -4 524.15 475.06 13.75 o
1 -3 -4 523.51 468.61 14.86 o
1 3 -3 680.95 750.06 43.97 o
1 -3 -3 680.54 761.87 45.06 o
1 3 -2 1489.89 1487.11 26.70 o
1 -3 -2 1488.63 1517.98 22.00 o
1 3 -1 522.85 555.99 3.75 o
1 -3 -1 523.20 564.66 33.75 o
1 3 0 348.86 331.29 8.11 o
1 -3 0 348.66 335.09 7.72 o
1 3 1 56.96 60.89 1.08 o
1 -3 1 56.98 62.24 0.54 o
1 3 2 236.76 241.76 3.93 o
1 -3 2 236.77 247.26 2.31 o
1 3 3 63.34 78.01 4.47 o
1 -3 3 63.35 80.90 4.47 o
1 3 4 143.50 138.15 3.16 o
1 -3 4 143.52 141.46 3.03 o
1 3 5 52.33 64.37 3.67 o
1 -3 5 52.21 67.95 3.79 o
1 3 6 377.04 380.52 6.55 o
1 -3 6 377.28 390.43 6.12 o
1 3 7 344.45 355.84 4.92 o
1 -3 7 344.70 362.06 3.81 o
1 3 8 36.43 47.66 2.76 o
1 -3 8 36.40 49.81 2.84 o
1 3 9 247.23 235.84 5.80 o
1 -3 9 247.33 238.88 6.74 o
1 3 10 18.33 15.85 1.15 o
1 -3 10 18.32 18.73 1.77 o
1 3 11 105.02 98.38 3.13 o
1 -3 11 105.10 101.94 3.37 o
1 3 12 96.26 93.98 2.72 o
1 -3 12 96.26 98.44 2.91 o
1 3 13 39.14 47.05 1.15 o
1 -3 13 39.36 49.20 1.14 o
1 3 14 25.28 42.14 1.01 o
1 -3 14 25.38 46.11 0.38 o
1 3 15 18.74 25.63 1.53 o
1 -3 15 18.74 28.71 1.24 o
1 3 16 122.14 124.44 3.71 o
1 -3 16 122.49 125.28 3.10 o
1 3 17 67.70 66.16 3.62 o
1 -3 17 67.80 65.44 3.05 o
1 3 18 25.61 23.79 2.41 o
1 -3 18 25.53 22.59 1.98 o
1 3 19 32.96 36.79 2.93 o
1 -3 19 32.96 30.89 2.33 o
1 3 20 19.09 20.96 2.37 o
1 -3 20 19.05 16.85 1.94 o
1 3 21 1.48 4.05 1.87 <
1 -3 21 1.47 0.44 1.48 <
1 3 22 24.88 21.99 2.62 o
1 -3 22 24.88 16.92 2.20 o
1 3 23 60.20 63.45 3.93 o
1 -3 23 60.05 58.52 4.35 o
1 3 24 36.76 37.46 3.53 o
1 -3 24 36.72 24.85 3.42 o
1 3 25 15.63 17.93 2.61 o
1 -3 25 15.66 10.36 2.83 o
1 3 26 5.95 7.00 2.33 o
1 -3 26 5.97 2.23 2.61 <
1 3 27 2.79 5.71 2.38 <
1 -3 27 2.78 -1.19 2.61 <
1 4 -26 0.05 7.66 4.01 <
1 -4 -26 0.05 -1.94 2.64 <
1 4 -25 29.13 44.19 6.34 o
1 -4 -25 29.12 24.97 3.60 o
1 4 -24 82.77 104.91 7.94 o
1 -4 -24 82.72 86.39 5.29 o
1 -4 -23 34.31 37.10 3.66 o
1 4 -22 6.72 18.76 4.29 o
1 -4 -22 6.74 14.96 2.66 o
1 4 -21 72.31 82.51 7.16 o
1 -4 -21 72.22 72.94 3.49 o
1 4 -20 26.25 25.30 4.47 o
1 -4 -20 26.08 25.36 2.29 o
1 4 -19 36.67 36.05 5.56 o
1 -4 -19 36.72 34.56 2.70 o
1 4 -18 152.67 148.35 9.56 o
1 -4 -18 152.66 158.08 4.60 o
1 4 -17 16.37 17.38 3.64 o
1 -4 -17 16.34 14.54 1.80 o
1 4 -16 51.59 50.50 5.40 o
1 -4 -16 51.61 53.79 2.67 o
1 4 -15 31.54 38.88 4.63 o
1 -4 -15 31.52 36.33 2.20 o
1 4 -14 1628.04 1540.98 50.53 o
1 -4 -14 1628.96 1540.95 40.04 o
1 4 -13 537.63 510.81 17.40 o
1 -4 -13 537.35 510.59 13.45 o
1 4 -12 819.27 755.88 26.53 o
1 -4 -12 818.46 738.30 21.80 o
1 4 -11 186.80 171.16 6.97 o
1 -4 -11 187.36 168.40 5.34 o
1 4 -10 87.17 90.32 3.57 o
1 -4 -10 86.97 86.40 1.98 o
1 4 -9 133.16 128.76 5.05 o
1 -4 -9 133.10 131.78 2.73 o
1 4 -8 281.45 257.55 12.63 o
1 -4 -8 281.54 265.86 6.47 o
1 4 -7 56.25 47.99 2.66 o
1 -4 -7 56.23 48.27 1.91 o
1 4 -6 57.99 65.97 2.24 o
1 -4 -6 57.99 72.05 4.30 o
1 4 -5 76.37 100.64 5.83 o
1 -4 -5 76.35 104.46 1.03 o
1 4 -4 1965.55 2091.46 32.63 o
1 -4 -4 1965.88 2182.41 35.91 o
1 4 -3 90.70 106.83 2.34 o
1 -4 -3 90.74 110.43 2.33 o
1 4 -2 10.23 7.82 0.72 o
1 -4 -2 10.13 7.66 1.72 o
1 4 -1 172.08 151.13 5.21 o
1 -4 -1 172.32 155.19 8.15 o
1 4 0 159.72 158.82 3.63 o
1 -4 0 159.76 165.86 3.46 o
1 4 1 81.28 73.87 2.79 o
1 -4 1 81.10 80.21 2.36 o
1 4 2 7.95 5.34 0.74 o
1 -4 2 7.95 6.78 0.76 o
1 4 3 130.25 113.75 4.37 o
1 -4 3 130.32 121.16 3.95 o
1 4 4 131.81 175.42 9.86 o
1 -4 4 131.70 185.06 10.15 o
1 4 5 545.03 540.06 11.61 o
1 -4 5 545.13 581.04 12.32 o
1 4 6 643.40 659.44 11.42 o
1 -4 6 643.80 713.34 11.80 o
1 4 7 13.84 16.47 0.93 o
1 -4 7 13.89 18.43 1.59 o
1 4 8 82.24 79.94 2.59 o
1 -4 8 82.27 86.92 2.32 o
1 4 9 14.32 15.29 1.02 o
1 -4 9 14.35 16.13 1.13 o
1 4 10 34.03 33.90 1.58 o
1 -4 10 34.00 36.08 1.50 o
1 4 11 30.72 28.44 1.68 o
1 -4 11 30.60 29.93 1.60 o
1 4 12 9.99 20.31 1.28 o
1 -4 12 9.99 22.60 1.45 o
1 4 13 9.37 14.78 0.97 o
1 -4 13 9.34 14.37 1.12 o
1 4 14 22.10 48.74 1.97 o
1 -4 14 22.15 50.11 1.60 o
1 4 15 128.98 129.71 3.99 o
1 -4 15 129.28 131.28 3.37 o
1 4 16 62.16 63.46 2.69 o
1 -4 16 62.03 62.02 2.38 o
1 4 17 0.55 -0.88 1.22 <
1 -4 17 0.55 0.94 1.31 <
1 4 18 31.20 31.64 2.25 o
1 -4 18 31.15 28.94 2.37 o
1 4 19 21.49 20.94 1.92 o
1 -4 19 21.43 23.53 2.12 o
1 4 20 8.26 10.71 1.64 o
1 -4 20 8.30 8.62 1.71 o
1 4 21 19.06 17.44 1.96 o
1 -4 21 19.02 15.85 2.06 o
1 4 22 7.82 8.06 1.71 o
1 -4 22 7.83 5.42 1.80 o
1 4 23 1.68 -0.43 1.66 <
1 -4 23 1.69 0.04 1.76 <
1 4 24 13.67 16.57 1.96 o
1 -4 24 13.62 10.70 2.92 o
1 4 25 42.05 42.61 3.17 o
1 -4 25 42.04 34.33 4.05 o
1 4 26 18.61 15.69 2.20 o
1 -4 26 18.63 15.06 3.30 o
1 5 -25 50.88 43.96 5.83 o
1 -5 -25 50.93 46.20 4.58 o
1 5 -24 29.12 30.15 4.25 o
1 -5 -24 29.16 30.32 3.63 o
1 5 -23 100.39 121.68 5.02 o
1 -5 -23 100.43 112.00 5.67 o
1 5 -22 15.20 15.45 2.79 o
1 -5 -22 15.15 14.88 2.16 o
1 5 -21 22.97 21.38 2.95 o
1 -5 -21 22.97 18.29 2.31 o
1 5 -20 23.83 26.71 3.04 o
1 -5 -20 23.83 24.23 2.31 o
1 5 -19 36.17 38.03 3.59 o
1 -5 -19 36.17 34.08 2.74 o
1 5 -18 52.37 51.08 3.89 o
1 -5 -18 52.20 50.06 3.09 o
1 5 -17 112.72 111.51 5.30 o
1 -5 -17 112.55 109.64 4.32 o
1 5 -16 148.07 158.91 5.67 o
1 -5 -16 147.83 159.21 4.16 o
1 5 -15 29.86 32.99 3.02 o
1 -5 -15 29.83 31.10 2.41 o
1 5 -14 286.00 276.36 9.85 o
1 -5 -14 286.61 273.18 7.55 o
1 5 -13 163.33 152.21 6.51 o
1 -5 -13 163.61 151.08 4.97 o
1 5 -12 61.03 51.77 4.47 o
1 -5 -12 60.89 54.22 2.50 o
1 5 -11 15.89 13.91 2.33 o
1 -5 -11 15.94 12.86 1.24 o
1 5 -10 26.08 25.32 1.95 o
1 -5 -10 26.04 24.10 1.61 o
1 5 -9 172.19 151.43 6.45 o
1 -5 -9 172.31 148.75 5.31 o
1 5 -8 2.84 1.88 1.03 <
1 -5 -8 2.84 2.70 0.66 o
1 5 -7 180.82 163.19 6.53 o
1 -5 -7 180.70 163.98 5.33 o
1 5 -6 5.44 6.91 0.85 o
1 -5 -6 5.46 8.79 1.24 o
1 5 -5 14.71 14.25 1.09 o
1 -5 -5 14.76 13.31 1.47 o
1 5 -4 7.41 8.41 0.89 o
1 -5 -4 7.35 8.95 1.30 o
1 5 -3 37.95 40.86 1.53 o
1 -5 -3 38.15 43.72 2.16 o
1 5 -2 303.67 312.19 6.67 o
1 -5 -2 303.86 315.40 8.65 o
1 5 -1 366.02 332.72 11.02 o
1 -5 -1 365.93 347.08 9.02 o
1 5 0 99.69 103.21 2.10 o
1 -5 0 99.65 93.93 3.33 o
1 5 1 19.74 25.88 0.74 o
1 -5 1 19.84 23.54 1.29 o
1 5 2 39.07 44.98 0.92 o
1 -5 2 38.96 43.88 1.54 o
1 5 3 46.18 47.66 1.68 o
1 -5 3 46.27 47.51 1.85 o
1 5 4 39.68 31.03 1.93 o
1 -5 4 39.61 35.53 1.92 o
1 5 5 99.81 98.64 2.96 o
1 -5 5 99.88 99.00 3.14 o
1 5 6 283.08 293.62 3.89 o
1 -5 6 282.96 300.05 5.53 o
1 5 7 49.31 56.95 0.98 o
1 -5 7 49.30 63.11 1.22 o
1 5 8 22.48 25.57 1.19 o
1 -5 8 22.37 28.15 1.52 o
1 5 9 3.69 4.40 0.77 o
1 -5 9 3.71 4.83 0.99 o
1 5 10 31.48 27.01 1.66 o
1 -5 10 31.45 28.05 1.80 o
1 5 11 3.58 4.24 1.20 o
1 -5 11 3.57 4.67 0.99 o
1 5 12 0.15 0.94 1.11 <
1 -5 12 0.15 1.61 0.92 <
1 5 13 170.61 151.35 6.52 o
1 -5 13 170.74 156.72 5.19 o
1 5 14 116.27 105.01 4.71 o
1 -5 14 116.04 103.99 4.49 o
1 5 15 239.87 243.03 7.58 o
1 -5 15 239.87 246.66 5.13 o
1 5 16 392.72 397.35 11.47 o
1 -5 16 392.48 388.33 9.10 o
1 5 17 145.36 146.03 5.34 o
1 -5 17 145.43 151.49 4.44 o
1 5 18 19.53 22.62 2.01 o
1 -5 18 19.57 19.92 1.99 o
1 5 19 7.65 7.03 1.59 o
1 -5 19 7.65 5.05 1.70 o
1 5 20 9.54 12.31 1.76 o
1 -5 20 9.51 9.57 1.88 o
1 5 21 15.88 16.61 1.89 o
1 -5 21 15.86 14.63 2.13 o
1 5 22 24.28 28.97 2.28 o
1 -5 22 24.31 22.73 2.44 o
1 5 23 35.10 40.27 2.98 o
1 -5 23 35.21 40.23 2.94 o
1 5 24 34.73 33.92 2.96 o
1 -5 24 34.76 29.32 3.69 o
1 5 25 13.99 11.35 2.15 o
1 -5 25 13.95 10.29 3.19 o
1 6 -24 15.21 7.73 3.49 <
1 -6 -24 15.20 12.99 3.30 o
1 6 -23 13.31 17.00 3.73 o
1 -6 -23 13.30 15.97 3.11 o
1 6 -22 10.30 8.56 3.17 <
1 -6 -22 10.33 8.12 2.14 o
1 6 -21 155.39 155.41 8.94 o
1 -6 -21 155.42 157.67 5.50 o
1 6 -20 60.64 63.17 5.45 o
1 -6 -20 60.64 58.49 3.62 o
1 6 -19 40.09 43.63 4.62 o
1 -6 -19 40.08 34.83 3.03 o
1 6 -18 52.99 51.65 5.07 o
1 -6 -18 53.00 57.00 3.12 o
1 6 -17 2.97 5.75 2.54 <
1 -6 -17 2.96 4.04 1.61 <
1 6 -16 14.52 14.18 2.90 o
1 -6 -16 14.53 16.06 1.89 o
1 6 -15 35.88 31.73 3.86 o
1 -6 -15 35.82 38.38 2.64 o
1 6 -14 25.08 21.53 3.16 o
1 -6 -14 25.07 21.19 2.08 o
1 6 -13 88.44 89.57 3.80 o
1 -6 -13 88.60 86.09 3.07 o
1 6 -12 89.74 77.10 4.21 o
1 -6 -12 89.65 81.43 3.31 o
1 6 -11 86.46 80.99 3.85 o
1 -6 -11 86.50 79.83 3.17 o
1 6 -10 58.10 47.83 3.12 o
1 -6 -10 58.16 47.51 2.66 o
1 6 -9 45.97 42.11 2.65 o
1 -6 -9 45.99 40.93 2.23 o
1 6 -8 158.45 149.26 5.69 o
1 -6 -8 158.37 145.67 4.78 o
1 6 -7 18.01 16.35 1.67 o
1 -6 -7 17.97 15.38 1.38 o
1 6 -6 33.14 41.58 1.48 o
1 -6 -6 33.07 43.24 1.32 o
1 6 -5 12.06 14.49 1.14 o
1 -6 -5 12.05 16.04 1.21 o
1 6 -4 23.04 29.50 1.34 o
1 -6 -4 23.04 28.49 1.47 o
1 6 -3 8.49 15.32 0.99 o
1 -6 -3 8.51 12.20 1.46 o
1 6 -2 212.01 199.96 6.12 o
1 -6 -2 212.12 190.43 6.27 o
1 6 -1 58.73 55.21 2.27 o
1 -6 -1 58.71 53.97 2.46 o
1 6 0 32.97 29.34 1.73 o
1 -6 0 32.90 29.07 1.87 o
1 6 1 29.00 29.05 1.57 o
1 -6 1 29.15 31.70 1.63 o
1 6 2 68.47 66.49 2.42 o
1 -6 2 68.73 66.54 2.61 o
1 6 3 576.03 522.42 17.06 o
1 -6 3 575.80 524.45 17.03 o
1 6 4 569.32 510.74 16.07 o
1 -6 4 568.47 509.26 17.33 o
1 6 5 73.28 82.35 1.34 o
1 -6 5 73.24 72.97 2.79 o
1 6 6 131.99 121.58 4.31 o
1 -6 6 131.76 121.39 4.51 o
1 6 7 80.39 82.62 1.70 o
1 -6 7 80.35 82.92 2.80 o
1 6 8 250.68 234.58 6.33 o
1 -6 8 250.96 255.95 5.97 o
1 6 9 1.52 2.48 0.67 o
1 -6 9 1.52 3.20 1.09 <
1 6 10 47.27 46.45 2.59 o
1 -6 10 47.30 48.90 2.33 o
1 6 11 14.73 15.91 1.60 o
1 -6 11 14.80 15.76 1.34 o
1 6 12 6.60 4.34 1.31 o
1 -6 12 6.67 4.61 1.14 o
1 6 13 113.09 91.52 4.91 o
1 -6 13 112.96 91.19 4.42 o
1 6 14 55.25 44.32 3.13 o
1 -6 14 55.17 46.85 2.70 o
1 6 15 105.68 98.57 4.47 o
1 -6 15 105.88 99.98 3.69 o
1 6 16 213.85 227.95 6.33 o
1 -6 16 213.70 223.22 5.83 o
1 6 17 229.52 228.78 7.60 o
1 -6 17 229.55 227.27 6.96 o
1 6 18 158.84 161.09 5.57 o
1 -6 18 158.88 153.23 5.70 o
1 6 19 19.06 18.38 2.07 o
1 -6 19 19.05 20.37 2.17 o
1 6 20 39.35 39.48 2.89 o
1 -6 20 39.33 37.65 3.16 o
1 6 21 25.60 23.70 2.42 o
1 -6 21 25.53 29.85 2.50 o
1 6 22 24.05 26.04 2.51 o
1 -6 22 24.00 29.16 2.62 o
1 6 23 25.47 33.08 4.09 o
1 -6 23 25.50 27.68 2.71 o
1 6 24 14.85 14.05 3.47 o
1 -6 24 14.86 13.05 3.23 o
1 7 -22 10.97 9.44 3.65 <
1 -7 -22 11.01 7.02 2.28 o
1 7 -21 14.23 19.12 3.58 o
1 -7 -21 14.29 13.00 2.35 o
1 7 -20 4.15 3.98 2.98 <
1 -7 -20 4.19 2.96 2.03 <
1 7 -19 54.19 71.12 5.29 o
1 -7 -19 54.17 54.92 3.55 o
1 7 -18 3.74 5.24 1.87 <
1 -7 -18 3.74 4.90 1.89 <
1 7 -17 47.19 50.77 3.25 o
1 -7 -17 47.21 48.54 3.24 o
1 7 -16 119.86 127.73 4.62 o
1 -7 -16 119.93 119.76 4.72 o
1 7 -15 7.39 11.04 1.80 o
1 -7 -15 7.39 6.11 1.74 o
1 7 -14 15.59 15.18 1.97 o
1 -7 -14 15.58 13.74 1.94 o
1 7 -13 62.48 57.21 3.52 o
1 -7 -13 62.49 57.64 3.38 o
1 7 -12 19.66 18.87 2.00 o
1 -7 -12 19.71 17.45 1.66 o
1 7 -11 52.29 39.48 3.13 o
1 -7 -11 52.30 36.66 2.80 o
1 7 -10 219.05 189.83 8.35 o
1 -7 -10 218.84 189.43 7.78 o
1 7 -9 9.63 6.16 1.49 o
1 -7 -9 9.77 8.47 1.49 o
1 7 -8 45.68 31.98 2.89 o
1 -7 -8 45.64 35.75 3.12 o
1 7 -7 293.97 227.05 10.77 o
1 -7 -7 294.15 222.03 11.99 o
1 7 -6 164.40 130.07 6.20 o
1 -7 -6 164.41 130.21 7.05 o
1 7 -5 28.87 22.02 1.81 o
1 -7 -5 28.82 19.98 2.37 o
1 7 -4 16.80 14.65 1.39 o
1 -7 -4 16.80 18.40 1.95 o
1 7 -3 59.26 66.52 2.07 o
1 -7 -3 59.33 70.23 3.11 o
1 7 -2 87.16 94.24 2.51 o
1 -7 -2 86.98 91.85 3.97 o
1 7 -1 173.16 164.73 5.27 o
1 -7 -1 173.26 166.57 5.27 o
1 7 0 252.45 243.55 7.10 o
1 -7 0 252.44 246.54 6.99 o
1 7 1 118.76 125.57 3.14 o
1 -7 1 118.41 127.01 3.18 o
1 7 2 836.61 785.66 23.24 o
1 -7 2 836.45 807.34 21.59 o
1 7 3 642.07 602.76 17.62 o
1 -7 3 642.44 575.51 19.79 o
1 7 4 89.37 81.87 3.89 o
1 -7 4 89.63 79.40 3.63 o
1 7 5 6.27 5.24 1.03 o
1 -7 5 6.26 7.16 1.25 o
1 7 6 25.95 25.23 1.66 o
1 -7 6 26.08 27.49 2.02 o
1 7 7 38.52 39.73 1.98 o
1 -7 7 38.46 39.94 2.29 o
1 7 8 15.90 18.33 1.37 o
1 -7 8 15.82 16.95 1.57 o
1 7 9 73.91 71.58 2.65 o
1 -7 9 74.01 74.07 3.02 o
1 7 10 3.30 4.89 0.98 o
1 -7 10 3.31 4.76 1.28 o
1 7 11 19.44 17.89 1.46 o
1 -7 11 19.43 18.02 1.65 o
1 7 12 112.55 101.06 4.03 o
1 -7 12 112.54 100.74 4.11 o
1 7 13 46.35 45.12 2.20 o
1 -7 13 46.21 42.01 2.54 o
1 7 14 29.51 31.17 2.46 o
1 -7 14 29.39 27.65 2.07 o
1 7 15 31.42 35.46 2.53 o
1 -7 15 31.44 34.97 2.64 o
1 7 16 38.82 47.89 2.58 o
1 -7 16 38.81 44.06 2.89 o
1 7 17 4.23 7.29 1.57 o
1 -7 17 4.23 4.11 1.72 <
1 7 18 13.89 17.20 2.11 o
1 -7 18 13.92 15.06 2.15 o
1 7 19 1.92 2.23 2.69 <
1 -7 19 1.94 2.69 1.82 <
1 7 20 11.21 10.36 3.22 o
1 -7 20 11.21 10.42 2.11 o
1 7 21 1.79 4.65 2.87 <
1 -7 21 1.81 -0.10 1.88 <
1 7 22 2.52 1.51 2.92 <
1 -7 22 2.52 2.42 2.00 <
1 8 -20 1.50 0.51 1.88 <
1 -8 -20 1.50 -0.63 2.00 <
1 8 -19 7.80 9.03 2.15 o
1 -8 -19 7.78 6.55 2.17 o
1 8 -18 92.54 94.75 4.45 o
1 -8 -18 92.51 86.06 4.70 o
1 8 -17 31.82 39.19 2.97 o
1 -8 -17 31.90 34.49 2.86 o
1 8 -16 51.65 49.02 3.45 o
1 -8 -16 51.70 46.76 3.57 o
1 8 -15 18.07 18.61 2.21 o
1 -8 -15 18.04 16.23 2.26 o
1 8 -14 15.31 15.97 2.12 o
1 -8 -14 15.28 10.63 2.62 o
1 8 -13 3.05 2.55 1.60 <
1 -8 -13 3.06 0.44 2.06 <
1 8 -12 17.32 16.17 2.05 o
1 -8 -12 17.31 13.25 2.15 o
1 8 -11 1.33 1.35 1.50 <
1 -8 -11 1.34 0.23 1.42 <
1 8 -10 42.12 38.60 3.02 o
1 -8 -10 42.04 38.22 2.92 o
1 8 -9 21.25 19.02 2.09 o
1 -8 -9 21.23 21.06 2.09 o
1 8 -8 121.75 99.88 5.34 o
1 -8 -8 121.88 95.59 5.89 o
1 8 -7 4.04 4.12 1.23 o
1 -8 -7 4.06 1.41 1.57 <
1 8 -6 14.72 15.54 1.54 o
1 -8 -6 14.72 14.10 2.02 o
1 8 -5 61.84 60.85 2.73 o
1 -8 -5 61.89 60.47 3.73 o
1 8 -4 5.42 7.34 1.19 o
1 -8 -4 5.39 5.15 1.69 o
1 8 -3 23.76 26.57 1.71 o
1 -8 -3 23.83 28.77 2.64 o
1 8 -2 1.77 8.19 1.17 o
1 -8 -2 1.77 8.59 2.89 <
1 8 -1 210.99 195.52 6.78 o
1 -8 -1 211.49 216.54 7.14 o
1 8 0 323.02 344.95 6.20 o
1 -8 0 323.01 338.45 7.25 o
1 8 1 451.00 459.49 10.35 o
1 -8 1 450.15 460.07 10.44 o
1 8 2 347.20 346.58 8.69 o
1 -8 2 347.35 336.42 9.79 o
1 8 3 66.57 65.74 2.69 o
1 -8 3 66.64 66.79 2.94 o
1 8 4 114.32 111.19 3.80 o
1 -8 4 114.40 112.85 4.00 o
1 8 5 31.10 37.18 1.80 o
1 -8 5 31.09 32.11 2.26 o
1 8 6 88.05 82.37 3.40 o
1 -8 6 87.90 84.16 3.60 o
1 8 7 3.89 5.46 1.19 o
1 -8 7 3.89 3.99 1.41 <
1 8 8 87.75 93.14 2.84 o
1 -8 8 87.51 92.07 3.34 o
1 8 9 88.94 81.15 3.48 o
1 -8 9 88.93 76.06 4.04 o
1 8 10 20.44 26.42 2.19 o
1 -8 10 20.58 21.08 1.97 o
1 8 11 128.73 123.08 5.07 o
1 -8 11 128.55 121.48 4.37 o
1 8 12 27.49 28.38 2.25 o
1 -8 12 27.46 29.76 2.13 o
1 8 13 8.61 9.47 1.71 o
1 -8 13 8.65 6.33 1.47 o
1 8 14 3.07 3.01 1.61 <
1 -8 14 3.07 3.08 1.60 <
1 8 15 15.17 13.12 2.02 o
1 -8 15 15.17 15.84 2.15 o
1 8 16 0.51 3.20 1.63 <
1 -8 16 0.51 0.29 1.57 <
1 8 17 6.26 7.93 1.83 o
1 -8 17 6.29 7.15 1.90 o
1 8 18 6.31 9.17 1.95 o
1 -8 18 6.33 9.42 1.99 o
1 8 19 54.60 68.97 5.59 o
1 -8 19 54.77 63.26 3.61 o
1 8 20 41.29 46.11 5.27 o
1 -8 20 41.20 45.40 3.39 o
1 9 -18 45.58 55.36 3.59 o
1 -9 -18 45.56 59.91 5.16 o
1 9 -17 9.17 12.05 2.17 o
1 -9 -17 9.19 7.84 3.13 <
1 9 -16 1.55 4.18 1.99 <
1 -9 -16 1.55 -0.78 2.42 <
1 9 -15 2.47 2.05 1.85 <
1 -9 -15 2.46 1.01 2.47 <
1 9 -14 2.63 3.36 1.82 <
1 -9 -14 2.62 -0.22 2.29 <
1 9 -13 10.48 10.80 2.05 o
1 -9 -13 10.52 12.42 2.92 o
1 9 -12 10.67 10.36 2.03 o
1 -9 -12 10.61 8.15 2.63 o
1 9 -11 13.99 14.34 2.12 o
1 -9 -11 14.02 14.28 2.73 o
1 9 -10 14.91 15.75 2.13 o
1 -9 -10 14.93 10.79 2.01 o
1 9 -9 16.21 15.25 2.10 o
1 -9 -9 16.28 14.63 2.04 o
1 9 -8 21.39 19.14 2.25 o
1 -9 -8 21.33 14.09 2.43 o
1 9 -7 24.78 28.19 1.97 o
1 -9 -7 24.80 18.60 2.56 o
1 9 -6 15.85 15.63 1.63 o
1 -9 -6 15.87 18.23 2.48 o
1 9 -5 40.90 39.47 2.52 o
1 -9 -5 40.73 36.97 3.62 o
1 9 -4 17.09 18.65 1.62 o
1 -9 -4 17.07 17.38 2.40 o
1 9 -3 63.50 65.24 2.72 o
1 -9 -3 63.60 55.51 4.28 o
1 9 -2 11.40 12.14 1.50 o
1 -9 -2 11.40 12.68 2.29 o
1 9 -1 23.59 29.85 1.87 o
1 -9 -1 23.66 30.38 2.92 o
1 9 0 76.94 82.56 2.77 o
1 -9 0 76.84 78.98 4.54 o
1 9 1 81.32 90.78 2.71 o
1 -9 1 81.49 88.06 4.56 o
1 9 2 85.35 83.17 3.35 o
1 -9 2 85.62 84.96 4.72 o
1 9 3 27.96 31.20 1.87 o
1 -9 3 27.91 29.59 2.90 o
1 9 4 64.78 64.77 2.75 o
1 -9 4 64.83 65.49 4.28 o
1 9 5 51.98 55.02 2.41 o
1 -9 5 51.89 52.59 3.08 o
1 9 6 9.93 13.53 2.03 o
1 -9 6 9.89 10.83 1.76 o
1 9 7 38.12 41.30 3.09 o
1 -9 7 38.16 35.39 2.60 o
1 9 8 33.59 42.09 2.91 o
1 -9 8 33.53 37.65 2.55 o
1 9 9 35.96 48.68 2.96 o
1 -9 9 35.83 40.82 2.79 o
1 9 10 52.07 62.52 5.38 o
1 -9 10 52.18 54.57 3.13 o
1 9 11 142.64 158.61 8.38 o
1 -9 11 142.56 148.59 4.24 o
1 9 12 4.98 6.85 2.96 <
1 -9 12 4.97 4.81 1.67 <
1 9 13 17.92 22.31 3.70 o
1 -9 13 17.93 19.80 2.33 o
1 9 14 17.75 16.80 3.72 o
1 -9 14 17.76 17.85 2.21 o
1 9 15 18.77 20.18 3.92 o
1 -9 15 18.77 20.74 2.38 o
1 9 16 0.50 2.91 3.03 <
1 -9 16 0.50 -0.50 1.73 <
1 9 17 24.74 28.30 4.34 o
1 -9 17 24.71 33.87 2.85 o
1 9 18 137.63 147.35 8.78 o
1 -9 18 137.42 150.04 4.99 o
1 10 -14 16.24 16.03 2.35 o
1 -10 -14 16.28 10.73 3.24 o
1 10 -13 3.45 5.96 2.00 <
1 -10 -13 3.47 1.38 2.60 <
1 10 -12 24.50 20.05 2.56 o
1 -10 -12 24.43 15.85 3.35 o
1 10 -11 17.95 19.26 2.50 o
1 -10 -11 18.06 21.74 3.41 o
1 10 -10 185.30 197.76 6.52 o
1 -10 -10 185.47 199.15 7.68 o
1 10 -9 18.91 23.47 2.52 o
1 -10 -9 18.88 18.18 2.45 o
1 10 -8 2.98 3.74 1.79 <
1 -10 -8 2.99 1.22 2.18 <
1 10 -7 1.34 2.41 1.43 <
1 -10 -7 1.34 -0.25 2.01 <
1 10 -6 5.11 7.94 1.54 o
1 -10 -6 5.04 2.14 2.08 <
1 10 -5 2.80 6.13 1.47 o
1 -10 -5 2.79 3.51 2.18 <
1 10 -4 27.54 28.55 2.14 o
1 -10 -4 27.54 27.03 3.11 o
1 10 -3 17.97 22.85 2.48 o
1 -10 -3 17.95 24.44 3.03 o
1 10 -2 145.60 158.01 5.54 o
1 -10 -2 145.52 146.18 6.69 o
1 10 -1 20.18 29.94 2.59 o
1 -10 -1 20.25 28.94 3.12 o
1 10 0 85.20 85.20 4.55 o
1 -10 0 85.25 84.51 5.11 o
1 10 1 24.27 24.50 2.64 o
1 -10 1 24.28 23.56 3.08 o
1 10 2 0.69 4.98 1.87 <
1 -10 2 0.69 0.97 2.19 <
1 10 3 32.98 35.11 2.98 o
1 -10 3 32.95 25.92 3.26 o
1 10 4 10.20 9.80 2.13 o
1 -10 4 10.22 7.60 2.40 o
1 10 5 10.73 8.89 2.13 o
1 -10 5 10.67 9.77 2.61 o
1 10 6 34.77 30.94 2.95 o
1 -10 6 34.77 37.40 3.64 o
1 10 7 10.17 14.28 2.34 o
1 -10 7 10.14 11.18 2.73 o
1 10 8 29.01 32.70 2.93 o
1 -10 8 29.02 26.01 3.46 o
1 10 9 71.45 95.37 3.64 o
1 -10 9 71.55 78.64 5.08 o
1 10 10 4.78 5.80 3.08 <
1 -10 10 4.80 3.55 2.43 <
1 10 11 12.13 12.94 3.47 o
1 -10 11 12.12 11.21 2.39 o
1 10 12 17.05 17.30 3.84 o
1 -10 12 17.05 12.23 2.83 o
1 10 13 31.67 34.31 4.70 o
1 -10 13 31.74 30.82 3.97 o
1 10 14 27.29 23.26 4.33 o
1 -10 14 27.29 23.81 3.70 o
1 -11 -10 59.22 47.11 7.31 o
1 11 -9 1.24 6.58 3.34 <
1 -11 -9 1.25 4.51 2.75 <
1 11 -8 10.27 13.17 3.63 o
1 -11 -8 10.25 5.71 2.77 <
1 11 -7 29.32 40.07 5.07 o
1 -11 -7 29.36 37.34 3.78 o
1 11 -6 32.78 40.76 3.42 o
1 -11 -6 32.77 34.23 3.73 o
1 11 -5 77.23 84.42 4.51 o
1 -11 -5 77.17 79.52 5.27 o
1 11 -4 25.20 33.33 3.02 o
1 -11 -4 25.16 26.05 3.43 o
1 11 -3 4.80 11.05 2.35 o
1 -11 -3 4.86 3.08 2.46 <
1 11 -2 76.83 99.76 3.96 o
1 -11 -2 76.80 78.93 5.37 o
1 11 -1 21.25 31.75 2.83 o
1 -11 -1 21.27 24.10 3.34 o
1 11 0 13.61 14.19 2.44 o
1 -11 0 13.62 9.86 2.74 o
1 11 1 20.68 26.92 2.73 o
1 -11 1 20.65 15.73 3.00 o
1 11 2 11.24 18.71 2.61 o
1 -11 2 11.23 11.39 2.88 o
1 11 3 34.84 42.31 3.45 o
1 -11 3 34.84 32.33 3.74 o
1 11 4 39.54 44.66 3.60 o
1 -11 4 39.57 37.44 3.94 o
1 11 5 38.77 35.53 3.44 o
1 -11 5 38.71 32.74 3.96 o
1 11 6 4.98 8.98 2.44 o
1 -11 6 4.99 6.78 2.88 <
1 11 7 32.88 30.85 3.29 o
1 -11 7 32.94 27.77 3.71 o
1 11 8 4.21 6.66 2.63 <
1 -11 8 4.21 2.48 2.76 <
1 11 9 0.45 3.05 3.08 <
1 -11 9 0.46 -3.16 2.52 <
2 0 -26 222.32 276.76 13.21 o
2 0 -25 0.34 -0.47 3.65 <
2 0 -24 5.41 10.19 4.32 <
2 0 -23 0.11 -2.17 3.43 <
2 0 -22 47.87 51.47 6.43 o
2 0 -21 2.45 4.76 3.49 <
2 0 -20 6.06 4.52 3.43 <
2 0 -19 9.93 9.72 3.61 <
2 0 -18 69.17 53.63 4.02 o
2 0 -17 157.96 145.52 6.39 o
2 0 -16 313.84 249.84 12.36 o
2 0 -15 23.24 24.50 2.33 o
2 0 -14 3.07 1.91 1.08 <
2 0 -13 13.56 14.65 1.40 o
2 0 -12 7.73 9.07 1.24 o
2 0 -11 13.41 16.63 1.38 o
2 0 -10 8.15 10.61 1.56 o
2 0 -9 61.07 78.67 2.29 o
2 0 -8 1143.62 1198.65 28.77 o
2 0 -7 48.15 61.72 1.18 o
2 0 -6 4.55 3.16 0.87 o
2 0 -5 2.80 5.22 0.87 o
2 0 -4 20.17 25.43 0.88 o
2 0 -3 99.45 108.43 1.48 o
2 0 -2 178.27 165.03 4.89 o
2 0 -1 1.07 3.13 1.09 <
2 0 0 1.52 -0.65 0.87 <
2 0 1 64.02 68.94 1.79 o
2 0 2 247.13 275.69 2.91 o
2 0 3 7.00 6.78 0.83 o
2 0 4 166.50 148.29 6.13 o
2 0 5 2.39 3.45 0.83 o
2 0 6 125.48 132.78 4.05 o
2 0 7 454.67 449.07 11.18 o
2 0 8 3.31 31.76 2.02 o
2 0 9 326.14 324.09 8.12 o
2 0 10 8.04 5.36 0.90 o
2 0 11 0.05 0.19 0.75 <
2 0 12 234.22 212.77 6.83 o
2 0 13 74.87 81.81 2.39 o
2 0 14 0.20 0.44 1.09 <
2 0 15 82.23 80.46 3.11 o
2 0 16 20.76 28.08 1.82 o
2 0 17 1.65 3.89 1.28 o
2 0 18 1.53 1.54 1.32 <
2 0 19 7.53 6.52 1.52 o
2 0 20 11.59 14.13 2.22 o
2 0 21 133.67 137.11 5.59 o
2 0 22 25.72 26.33 3.03 o
2 0 23 40.36 40.19 3.69 o
2 0 24 9.07 12.09 2.43 o
2 0 25 24.19 21.19 2.95 o
2 0 26 0.29 4.64 2.36 <
2 1 -26 44.68 68.34 7.31 o
2 -1 -26 44.53 52.21 7.48 o
2 1 -25 35.27 47.74 6.63 o
2 -1 -25 35.29 32.89 6.06 o
2 1 -24 23.92 22.54 4.93 o
2 -1 -24 23.95 17.57 5.01 o
2 1 -23 2.42 8.28 3.94 <
2 -1 -23 2.42 2.27 3.80 <
2 1 -22 30.39 27.80 5.03 o
2 -1 -22 30.28 31.85 5.28 o
2 1 -21 7.21 6.74 3.50 <
2 -1 -21 7.19 4.37 3.68 <
2 1 -20 28.21 24.80 4.48 o
2 -1 -20 28.12 20.64 4.45 o
2 1 -19 48.02 55.18 6.00 o
2 -1 -19 48.01 53.01 6.14 o
2 1 -18 55.59 50.11 5.87 o
2 -1 -18 55.73 54.33 3.62 o
2 1 -17 187.49 146.36 7.97 o
2 -1 -17 187.73 152.48 7.88 o
2 1 -16 44.67 39.25 3.10 o
2 -1 -16 44.66 39.82 3.25 o
2 1 -15 42.56 39.70 2.97 o
2 -1 -15 42.41 40.04 2.43 o
2 1 -14 17.53 19.11 2.04 o
2 -1 -14 17.54 18.20 1.69 o
2 1 -13 15.85 17.66 2.00 o
2 -1 -13 15.91 17.66 1.33 o
2 1 -12 36.73 35.80 2.60 o
2 -1 -12 36.72 32.42 1.87 o
2 1 -11 59.83 59.98 3.05 o
2 -1 -11 59.89 60.75 2.02 o
2 1 -10 27.15 36.34 2.13 o
2 -1 -10 27.26 37.12 1.07 o
2 1 -9 32.50 35.00 2.23 o
2 -1 -9 32.44 33.52 1.53 o
2 1 -8 30.46 35.99 2.08 o
2 -1 -8 30.53 36.44 1.26 o
2 1 -7 307.29 339.75 4.52 o
2 -1 -7 307.24 351.20 20.44 o
2 1 -6 295.08 306.76 6.37 o
2 -1 -6 295.16 309.92 4.71 o
2 1 -5 217.99 224.36 4.15 o
2 -1 -5 217.78 226.46 3.95 o
2 1 -4 80.43 106.58 5.97 o
2 -1 -4 80.33 108.68 6.05 o
2 -1 -3 34.07 87.94 4.19 o
2 1 -2 125.37 142.01 3.46 o
2 -1 -2 125.55 144.60 8.35 o
2 1 -1 350.08 380.30 7.73 o
2 -1 -1 349.78 373.04 2.32 o
2 1 0 148.04 143.02 5.15 o
2 -1 0 147.77 143.85 3.64 o
2 1 1 2.24 14.31 2.31 o
2 -1 1 2.26 10.39 2.39 o
2 1 2 932.01 933.62 21.94 o
2 -1 2 932.00 1001.16 12.93 o
2 1 3 2331.04 2359.44 50.90 o
2 -1 3 2331.24 2439.53 55.98 o
2 1 4 910.17 950.56 17.13 o
2 -1 4 910.42 950.60 17.08 o
2 1 5 109.35 117.09 2.43 o
2 -1 5 109.10 102.93 4.23 o
2 1 6 0.76 9.16 1.28 o
2 -1 6 0.76 5.30 0.83 o
2 1 7 54.15 55.18 1.62 o
2 -1 7 54.09 58.21 1.33 o
2 1 8 283.83 272.89 6.94 o
2 -1 8 284.14 275.75 6.16 o
2 1 9 89.02 101.59 0.70 o
2 -1 9 88.91 96.09 1.82 o
2 1 10 483.81 474.00 10.74 o
2 -1 10 483.17 467.78 10.45 o
2 1 11 200.13 196.24 5.59 o
2 -1 11 200.13 199.18 4.62 o
2 1 12 22.96 20.28 1.71 o
2 -1 12 23.04 20.47 1.58 o
2 1 13 97.45 91.28 3.54 o
2 -1 13 97.39 93.83 3.38 o
2 1 14 205.76 199.27 5.97 o
2 -1 14 205.82 196.04 6.21 o
2 1 15 42.39 41.99 2.26 o
2 -1 15 42.44 40.29 2.31 o
2 1 16 2.95 6.43 1.30 o
2 -1 16 2.95 3.95 1.27 o
2 1 17 38.43 40.20 2.28 o
2 -1 17 38.28 42.78 2.20 o
2 1 18 221.02 219.45 6.18 o
2 -1 18 221.31 211.76 6.80 o
2 1 19 713.76 689.41 18.74 o
2 -1 19 714.24 673.64 20.16 o
2 1 20 347.35 316.27 11.20 o
2 -1 20 346.71 333.88 11.59 o
2 1 21 33.63 37.57 3.24 o
2 -1 21 33.59 36.40 3.41 o
2 1 22 46.66 50.41 3.62 o
2 -1 22 46.75 38.89 3.88 o
2 1 23 8.09 8.25 2.16 o
2 -1 23 8.09 5.91 2.32 <
2 1 24 47.46 50.58 3.79 o
2 -1 24 47.58 48.30 4.02 o
2 1 25 3.58 7.82 2.28 o
2 -1 25 3.58 4.67 2.40 <
2 1 26 7.71 14.24 2.51 o
2 -1 26 7.71 11.36 2.71 o
2 2 -26 3.57 13.46 4.47 <
2 -2 -26 3.56 0.19 4.52 <
2 2 -25 4.03 10.23 4.11 <
2 -2 -25 4.03 1.39 4.38 <
2 2 -24 5.84 15.47 4.28 o
2 -2 -24 5.80 5.59 4.45 <
2 2 -23 46.76 63.08 6.67 o
2 -2 -23 46.82 43.56 7.01 o
2 2 -22 4.41 7.91 3.67 <
2 -2 -22 4.40 -0.10 3.63 <
2 2 -21 9.49 13.02 3.85 o
2 -2 -21 9.51 9.35 4.08 <
2 2 -20 16.16 16.83 3.96 o
2 -2 -20 16.19 12.26 4.10 o
2 2 -19 7.31 8.29 3.38 <
2 -2 -19 7.32 6.05 1.50 o
2 2 -18 51.54 49.52 5.74 o
2 -2 -18 51.47 51.47 2.73 o
2 2 -17 15.51 15.12 2.06 o
2 -2 -17 15.58 16.82 1.73 o
2 2 -16 42.60 41.83 2.99 o
2 -2 -16 42.70 41.65 2.55 o
2 2 -15 40.68 41.39 2.85 o
2 -2 -15 40.71 41.12 2.46 o
2 2 -14 104.80 109.02 4.24 o
2 -2 -14 104.85 109.68 3.42 o
2 2 -13 22.53 22.22 2.14 o
2 -2 -13 22.50 20.53 1.65 o
2 2 -12 169.36 152.55 6.54 o
2 -2 -12 169.07 150.28 5.36 o
2 2 -11 68.15 65.90 3.37 o
2 -2 -11 68.05 67.89 2.32 o
2 2 -10 435.24 416.88 13.82 o
2 -2 -10 434.47 409.66 12.26 o
2 2 -9 113.49 116.56 4.17 o
2 -2 -9 113.75 115.33 3.34 o
2 2 -8 152.99 152.52 5.27 o
2 -2 -8 152.88 147.47 4.62 o
2 2 -7 190.04 178.71 5.75 o
2 -2 -7 189.68 182.33 6.51 o
2 2 -6 400.40 394.51 10.17 o
2 -2 -6 400.84 403.05 11.63 o
2 2 -5 275.16 284.44 6.24 o
2 -2 -5 275.13 294.56 3.36 o
2 2 -4 135.68 166.63 9.78 o
2 -2 -4 135.79 166.76 9.54 o
2 2 -3 242.81 233.57 6.86 o
2 -2 -3 242.91 250.24 3.11 o
2 2 -2 58.48 52.13 2.31 o
2 -2 -2 58.67 55.18 1.68 o
2 2 -1 633.47 663.49 12.01 o
2 -2 -1 633.21 668.97 2.48 o
2 2 0 525.70 543.22 13.64 o
2 -2 0 524.63 538.36 6.61 o
2 2 1 261.21 292.60 2.86 o
2 -2 1 261.38 295.66 17.28 o
2 2 2 7.09 6.06 0.71 o
2 -2 2 7.01 5.09 0.67 o
2 2 3 623.99 667.06 2.66 o
2 -2 3 623.99 679.11 8.11 o
2 2 4 1854.79 1922.72 29.06 o
2 -2 4 1855.34 2002.24 24.10 o
2 2 5 698.84 752.83 5.69 o
2 -2 5 698.73 746.51 3.11 o
2 2 6 128.09 136.42 2.15 o
2 -2 6 127.96 136.98 1.44 o
2 2 7 214.59 213.25 4.77 o
2 -2 7 214.51 212.04 4.42 o
2 2 8 330.78 346.62 5.16 o
2 -2 8 330.87 348.90 3.50 o
2 2 9 90.76 91.07 2.79 o
2 -2 9 90.80 89.23 2.28 o
2 2 10 39.06 44.65 1.30 o
2 -2 10 39.08 47.96 0.61 o
2 2 11 4.42 6.69 0.90 o
2 -2 11 4.40 7.37 0.78 o
2 2 12 116.56 120.13 2.78 o
2 -2 12 116.70 124.24 2.40 o
2 2 13 235.21 234.48 5.38 o
2 -2 13 235.41 234.83 6.28 o
2 2 14 125.74 137.89 2.14 o
2 -2 14 125.55 138.59 3.02 o
2 2 15 20.83 18.27 1.45 o
2 -2 15 20.91 20.30 1.73 o
2 2 16 15.96 15.31 1.34 o
2 -2 16 15.91 17.17 1.64 o
2 2 17 29.12 27.78 1.77 o
2 -2 17 29.10 28.69 2.21 o
2 2 18 89.30 88.03 2.93 o
2 -2 18 89.32 86.46 3.54 o
2 2 19 79.33 73.09 4.17 o
2 -2 19 79.41 68.38 4.42 o
2 2 20 7.94 8.81 1.94 o
2 -2 20 7.97 6.30 2.10 o
2 2 21 1.13 1.95 1.83 <
2 -2 21 1.11 -1.64 1.92 <
2 2 22 35.70 40.26 3.32 o
2 -2 22 35.78 30.59 3.34 o
2 2 23 60.50 66.52 3.85 o
2 -2 23 60.57 57.69 4.42 o
2 2 24 25.23 16.26 2.53 o
2 -2 24 25.28 16.56 3.06 o
2 2 25 36.72 27.02 3.03 o
2 -2 25 36.74 26.26 3.58 o
2 2 26 7.49 11.73 2.57 o
2 -2 26 7.44 4.61 2.73 <
2 3 -25 5.10 12.83 4.18 o
2 -3 -25 5.12 1.42 4.39 <
2 3 -24 3.28 16.70 4.33 o
2 -3 -24 3.29 4.98 4.46 <
2 3 -23 72.82 86.18 7.28 o
2 -3 -23 72.82 68.57 7.90 o
2 3 -22 6.98 9.03 3.64 <
2 -3 -22 7.01 0.81 3.78 <
2 3 -21 80.47 99.33 7.31 o
2 -3 -21 80.50 85.65 7.79 o
2 3 -20 19.32 30.12 4.58 o
2 -3 -20 19.24 20.22 2.77 o
2 3 -19 4.15 6.56 3.23 <
2 -3 -19 4.12 0.75 1.55 <
2 3 -18 0.76 2.32 2.87 <
2 -3 -18 0.75 -0.59 1.73 <
2 3 -17 63.72 69.64 6.01 o
2 -3 -17 63.61 59.00 3.99 o
2 3 -16 154.81 145.05 9.30 o
2 -3 -16 154.79 154.28 6.08 o
2 3 -15 114.14 106.77 4.98 o
2 -3 -15 113.97 109.14 5.05 o
2 3 -14 96.91 89.43 4.48 o
2 -3 -14 96.88 96.79 4.38 o
2 3 -13 165.46 159.73 6.21 o
2 -3 -13 165.62 162.46 6.25 o
2 3 -12 258.21 260.04 8.29 o
2 -3 -12 258.58 258.94 6.76 o
2 3 -11 755.26 709.62 24.33 o
2 -3 -11 755.02 722.20 20.05 o
2 3 -10 590.11 549.16 19.52 o
2 -3 -10 589.44 563.21 15.85 o
2 3 -9 136.36 137.33 3.97 o
2 -3 -9 136.52 141.40 4.84 o
2 3 -8 171.72 165.96 4.48 o
2 -3 -8 171.55 164.07 5.10 o
2 3 -7 31.01 26.62 1.63 o
2 -3 -7 31.10 26.98 2.30 o
2 3 -6 165.98 170.26 4.10 o
2 -3 -6 166.04 165.70 5.75 o
2 3 -5 36.97 38.20 1.70 o
2 -3 -5 36.99 40.92 2.18 o
2 3 -4 87.28 77.27 3.20 o
2 -3 -4 87.34 77.43 3.80 o
2 3 -3 64.65 70.38 1.94 o
2 -3 -3 64.58 73.06 1.19 o
2 3 -2 380.86 412.26 6.13 o
2 -3 -2 380.33 417.32 24.76 o
2 3 -1 100.76 121.79 7.29 o
2 -3 -1 100.86 118.99 7.02 o
2 3 0 36.04 37.54 1.28 o
2 -3 0 36.17 35.96 1.33 o
2 3 1 178.38 167.24 4.79 o
2 -3 1 178.33 163.25 5.49 o
2 3 2 321.91 315.01 7.41 o
2 -3 2 321.89 323.27 6.41 o
2 3 3 160.38 148.90 4.48 o
2 -3 3 160.68 151.05 4.01 o
2 3 4 40.01 38.51 1.51 o
2 -3 4 40.01 37.88 1.32 o
2 3 5 195.69 168.90 6.15 o
2 -3 5 195.90 177.38 5.38 o
2 3 6 9.48 13.25 0.85 o
2 -3 6 9.48 11.73 0.83 o
2 3 7 40.77 35.39 1.70 o
2 -3 7 40.62 34.62 1.60 o
2 3 8 269.68 263.36 6.30 o
2 -3 8 269.91 257.71 6.39 o
2 3 9 91.47 97.25 2.03 o
2 -3 9 91.54 101.70 0.93 o
2 3 10 0.77 10.79 1.50 o
2 -3 10 0.78 8.91 2.89 o
2 3 11 60.18 70.18 1.86 o
2 -3 11 60.27 70.82 2.01 o
2 3 12 40.04 42.75 1.98 o
2 -3 12 39.93 45.97 1.96 o
2 3 13 25.00 26.83 1.80 o
2 -3 13 25.00 30.82 1.85 o
2 3 14 62.72 61.95 2.30 o
2 -3 14 62.65 64.17 2.63 o
2 3 15 47.62 50.49 1.96 o
2 -3 15 47.69 54.39 2.25 o
2 3 16 23.76 23.01 1.71 o
2 -3 16 23.77 22.53 1.93 o
2 3 17 1.72 1.07 1.21 <
2 -3 17 1.72 2.76 1.38 <
2 3 18 25.04 21.16 1.92 o
2 -3 18 25.02 22.19 2.34 o
2 3 19 2.23 3.51 1.37 <
2 -3 19 2.24 2.00 1.88 <
2 3 20 21.04 19.67 1.99 o
2 -3 20 20.99 13.88 2.51 o
2 3 21 18.00 19.18 1.88 o
2 -3 21 18.04 17.10 2.07 o
2 3 22 26.13 24.41 2.23 o
2 -3 22 26.14 20.64 2.36 o
2 3 23 17.34 19.62 2.12 o
2 -3 23 17.28 13.15 2.12 o
2 3 24 31.63 21.27 2.72 o
2 -3 24 31.68 20.78 3.30 o
2 3 25 22.32 13.28 2.47 o
2 -3 25 22.32 13.52 3.12 o
2 -4 -24 27.02 24.95 5.78 o
2 4 -23 54.66 72.44 6.96 o
2 -4 -23 54.68 46.33 7.57 o
2 4 -22 192.86 240.21 11.25 o
2 -4 -22 193.02 222.84 12.26 o
2 4 -21 66.93 98.67 6.96 o
2 -4 -21 66.98 73.65 7.74 o
2 4 -20 52.52 69.80 6.25 o
2 -4 -20 52.38 57.42 4.06 o
2 4 -19 29.76 36.68 5.52 o
2 -4 -19 29.89 29.53 3.18 o
2 4 -18 38.62 47.10 5.55 o
2 -4 -18 38.62 39.28 3.58 o
2 4 -17 41.49 47.83 5.56 o
2 -4 -17 41.52 42.34 3.53 o
2 4 -16 23.03 25.58 4.15 o
2 -4 -16 22.89 20.39 2.55 o
2 4 -15 34.48 32.30 3.18 o
2 -4 -15 34.46 33.05 3.21 o
2 4 -14 0.47 2.27 1.62 <
2 -4 -14 0.51 1.59 1.16 <
2 4 -13 402.52 407.34 12.14 o
2 -4 -13 402.57 396.13 13.10 o
2 4 -12 2783.41 2727.42 68.32 o
2 -4 -12 2783.37 2812.94 74.44 o
2 4 -11 71.17 74.25 2.27 o
2 -4 -11 71.18 76.07 3.63 o
2 4 -10 18.50 17.41 1.48 o
2 -4 -10 18.43 16.45 2.01 o
2 4 -9 11.65 11.33 1.27 o
2 -4 -9 11.63 10.74 1.27 o
2 4 -8 103.45 97.26 3.54 o
2 -4 -8 103.38 97.23 3.56 o
2 4 -7 111.92 105.28 3.75 o
2 -4 -7 111.83 106.63 4.63 o
2 4 -6 8.62 11.14 1.14 o
2 -4 -6 8.57 11.84 1.56 o
2 4 -5 196.06 197.15 5.05 o
2 -4 -5 196.28 191.81 6.87 o
2 4 -4 96.22 102.64 2.60 o
2 -4 -4 96.35 103.99 3.65 o
2 4 -3 152.79 155.85 3.98 o
2 -4 -3 152.60 154.87 5.29 o
2 4 -2 742.19 777.00 13.90 o
2 -4 -2 742.00 750.76 31.02 o
2 4 -1 63.60 67.73 1.65 o
2 -4 -1 63.64 69.61 2.48 o
2 4 0 152.19 155.07 3.33 o
2 -4 0 152.19 159.90 4.53 o
2 4 1 8.42 10.30 0.88 o
2 -4 1 8.38 8.42 0.88 o
2 4 2 335.15 345.67 5.94 o
2 -4 2 335.23 345.27 7.23 o
2 4 3 116.77 113.45 3.14 o
2 -4 3 116.91 115.84 3.33 o
2 4 4 250.73 249.55 5.52 o
2 -4 4 250.47 245.38 5.87 o
2 4 5 62.30 65.19 1.73 o
2 -4 5 62.24 61.79 1.93 o
2 4 6 186.23 173.45 5.80 o
2 -4 6 186.16 178.07 4.88 o
2 4 7 21.45 26.48 1.11 o
2 -4 7 21.56 24.19 1.83 o
2 4 8 9.55 8.64 0.96 o
2 -4 8 9.56 10.70 1.19 o
2 4 9 81.92 77.93 2.61 o
2 -4 9 81.97 82.07 2.62 o
2 4 10 16.76 15.15 1.22 o
2 -4 10 16.73 17.85 1.69 o
2 4 11 49.84 43.96 2.18 o
2 -4 11 49.79 46.94 2.51 o
2 4 13 33.68 36.16 2.06 o
2 -4 13 33.70 37.32 2.18 o
2 4 14 84.19 80.30 3.31 o
2 -4 14 84.25 84.52 3.21 o
2 4 15 102.19 86.52 4.68 o
2 -4 15 102.28 97.53 3.86 o
2 4 16 40.75 36.35 2.80 o
2 -4 16 40.63 42.20 2.51 o
2 4 17 0.61 2.92 1.43 <
2 -4 17 0.61 2.83 1.46 <
2 4 18 7.36 7.32 1.64 o
2 -4 18 7.35 5.05 1.59 o
2 4 19 3.37 2.63 1.60 <
2 -4 19 3.39 2.99 1.56 <
2 4 20 9.30 9.85 1.90 o
2 -4 20 9.32 8.70 1.84 o
2 4 21 6.89 9.55 1.62 o
2 -4 21 6.86 7.53 1.84 o
2 4 22 2.11 6.78 1.61 o
2 -4 22 2.11 2.91 1.74 <
2 4 23 4.61 4.49 1.69 <
2 -4 23 4.59 0.62 1.82 <
2 4 24 6.21 4.98 2.00 <
2 -4 24 6.24 0.23 2.49 <
2 5 -23 16.92 14.85 3.76 o
2 -5 -23 16.94 8.78 4.89 <
2 5 -22 5.97 3.85 3.22 <
2 -5 -22 5.99 -0.84 4.04 <
2 5 -21 2.47 7.25 2.44 <
2 -5 -21 2.46 -0.94 2.36 <
2 5 -20 6.48 10.70 2.49 o
2 -5 -20 6.48 4.05 2.36 <
2 5 -19 89.00 93.64 4.87 o
2 -5 -19 88.95 84.01 5.15 o
2 5 -18 3.29 4.96 2.15 <
2 -5 -18 3.28 3.16 2.11 <
2 5 -17 37.62 43.00 3.48 o
2 -5 -17 37.67 35.22 3.68 o
2 5 -16 35.64 38.45 3.34 o
2 -5 -16 35.63 34.49 3.59 o
2 5 -15 6.91 8.54 1.70 o
2 -5 -15 6.97 6.94 2.07 o
2 5 -14 49.66 46.89 3.07 o
2 -5 -14 49.68 48.58 3.75 o
2 5 -13 17.16 20.64 1.87 o
2 -5 -13 17.22 16.45 1.74 o
2 5 -12 112.96 112.28 4.49 o
2 -5 -12 113.07 112.91 3.90 o
2 5 -11 24.36 22.56 2.05 o
2 -5 -11 24.51 24.48 2.60 o
2 5 -10 76.04 71.24 3.59 o
2 -5 -10 76.07 76.08 3.95 o
2 5 -9 15.18 19.75 1.66 o
2 -5 -9 15.18 14.09 1.96 o
2 5 -8 76.71 80.34 2.61 o
2 -5 -8 76.71 79.81 3.83 o
2 5 -7 87.94 92.38 2.78 o
2 -5 -7 87.88 95.03 3.86 o
2 5 -6 37.43 36.40 2.01 o
2 -5 -6 37.42 35.31 2.87 o
2 5 -5 8.99 8.97 1.31 o
2 -5 -5 8.97 12.46 1.77 o
2 5 -4 15.03 17.04 1.38 o
2 -5 -4 14.99 16.47 1.94 o
2 5 -3 37.08 35.17 1.71 o
2 -5 -3 37.25 34.51 4.19 o
2 5 -2 193.49 211.62 2.24 o
2 -5 -2 193.49 204.10 9.78 o
2 5 -1 115.99 116.71 2.94 o
2 -5 -1 115.86 111.35 7.04 o
2 5 0 45.28 43.33 1.83 o
2 -5 0 45.28 43.08 2.54 o
2 5 1 85.85 81.81 2.67 o
2 -5 1 85.85 78.96 3.75 o
2 5 2 30.41 32.48 1.43 o
2 -5 2 30.46 32.11 2.22 o
2 5 3 13.47 17.67 1.09 o
2 -5 3 13.47 14.87 1.46 o
2 5 4 67.51 60.23 2.50 o
2 -5 4 67.83 59.63 3.35 o
2 5 5 90.61 93.76 2.33 o
2 -5 5 90.46 89.18 3.84 o
2 5 6 299.82 278.93 8.16 o
2 -5 6 299.31 286.65 9.78 o
2 5 7 206.86 204.27 5.83 o
2 -5 7 206.95 213.88 6.40 o
2 5 8 358.33 351.86 9.59 o
2 -5 8 358.29 370.19 10.01 o
2 5 9 88.49 90.75 3.00 o
2 -5 9 88.38 85.70 3.34 o
2 5 10 32.54 30.40 2.12 o
2 -5 10 32.57 30.34 2.19 o
2 5 11 0.54 -0.12 1.20 <
2 -5 11 0.54 0.10 1.20 <
2 5 12 5.78 5.46 1.40 o
2 -5 12 5.78 7.13 1.59 o
2 5 13 13.09 12.03 1.69 o
2 -5 13 13.11 10.76 1.83 o
2 5 14 49.45 43.65 2.95 o
2 -5 14 49.49 43.28 2.93 o
2 5 15 70.36 63.43 3.62 o
2 -5 15 70.14 63.32 3.06 o
2 5 16 68.40 67.40 3.47 o
2 -5 16 68.50 62.21 3.06 o
2 5 17 63.00 63.83 3.43 o
2 -5 17 63.23 60.16 3.38 o
2 5 18 50.70 46.16 3.26 o
2 -5 18 50.60 40.67 3.22 o
2 5 19 16.76 18.29 2.13 o
2 -5 19 16.77 18.62 2.12 o
2 5 20 17.23 17.13 2.22 o
2 -5 20 17.21 15.34 2.21 o
2 5 21 12.79 11.86 2.14 o
2 -5 21 12.74 10.11 2.09 o
2 5 22 9.96 10.58 2.05 o
2 -5 22 9.95 7.68 2.08 o
2 5 23 14.96 13.49 2.34 o
2 -5 23 14.91 12.08 2.33 o
2 6 -22 9.90 7.18 3.33 <
2 -6 -22 9.90 6.47 4.65 <
2 6 -21 28.24 23.22 4.07 o
2 -6 -21 28.21 22.24 3.41 o
2 6 -20 14.71 13.43 2.19 o
2 -6 -20 14.75 10.88 2.93 o
2 6 -19 49.74 52.84 3.40 o
2 -6 -19 49.60 49.50 4.45 o
2 6 -18 7.03 8.45 1.88 o
2 -6 -18 7.01 7.24 2.51 <
2 6 -17 28.46 28.63 2.65 o
2 -6 -17 28.56 26.36 3.20 o
2 6 -16 4.97 4.49 1.71 <
2 -6 -16 5.01 3.43 2.24 <
2 6 -15 10.80 10.92 1.85 o
2 -6 -15 10.78 8.16 2.31 o
2 6 -14 156.26 154.88 6.02 o
2 -6 -14 156.18 164.25 6.24 o
2 6 -13 19.58 22.31 2.06 o
2 -6 -13 19.65 18.46 2.55 o
2 6 -12 78.15 66.87 3.95 o
2 -6 -12 78.22 71.96 3.53 o
2 6 -11 71.33 74.75 3.30 o
2 -6 -11 71.36 70.74 3.22 o
2 6 -10 5.58 4.52 1.43 o
2 -6 -10 5.60 6.59 1.41 o
2 6 -9 15.92 17.19 1.76 o
2 -6 -9 15.98 16.03 1.69 o
2 6 -8 16.92 16.82 1.81 o
2 -6 -8 16.96 17.71 1.74 o
2 6 -7 36.56 29.50 2.54 o
2 -6 -7 36.78 32.04 2.44 o
2 6 -6 52.54 35.83 3.04 o
2 -6 -6 52.55 42.55 3.49 o
2 6 -5 471.62 419.33 16.29 o
2 -6 -5 471.30 416.91 15.01 o
2 6 -4 151.39 144.92 5.50 o
2 -6 -4 151.42 145.73 8.62 o
2 6 -3 15.92 17.99 1.30 o
2 -6 -3 16.05 20.89 3.37 o
2 6 -2 142.20 140.96 4.12 o
2 -6 -2 142.19 135.26 8.32 o
2 6 -1 59.72 56.37 2.47 o
2 -6 -1 59.85 56.23 5.31 o
2 6 0 3.96 2.96 0.96 o
2 -6 0 4.01 5.14 1.41 o
2 6 1 47.99 44.88 2.19 o
2 -6 1 47.90 42.90 2.93 o
2 6 2 39.06 40.82 1.80 o
2 -6 2 39.05 35.19 2.74 o
2 6 3 85.94 78.65 3.75 o
2 -6 3 85.89 84.52 3.77 o
2 6 4 1054.68 999.81 28.62 o
2 -6 4 1054.80 1047.64 29.63 o
2 6 5 834.11 832.60 19.21 o
2 -6 5 833.75 797.48 26.38 o
2 6 6 70.95 70.62 3.07 o
2 -6 6 71.12 69.07 3.65 o
2 6 7 90.40 88.59 3.11 o
2 -6 7 90.67 90.73 4.03 o
2 6 8 60.51 63.36 2.97 o
2 -6 8 60.64 65.90 3.22 o
2 6 9 3.22 4.73 1.40 o
2 -6 9 3.14 3.38 1.28 <
2 6 10 38.38 34.11 2.68 o
2 -6 10 38.26 33.51 2.24 o
2 6 11 47.53 44.19 2.93 o
2 -6 11 47.63 44.24 2.46 o
2 6 12 5.23 7.09 1.60 o
2 -6 12 5.22 6.82 1.29 o
2 6 13 36.75 37.40 2.72 o
2 -6 13 36.79 39.41 2.29 o
2 6 14 110.88 113.03 4.44 o
2 -6 14 110.93 107.29 3.86 o
2 6 15 34.34 33.68 2.79 o
2 -6 15 34.26 34.59 2.38 o
2 6 16 51.32 51.79 3.24 o
2 -6 16 51.16 50.50 2.80 o
2 6 17 200.36 202.13 6.85 o
2 -6 17 200.47 189.57 6.96 o
2 6 18 259.82 246.00 9.58 o
2 -6 18 259.88 254.27 7.93 o
2 6 19 166.52 172.01 6.12 o
2 -6 19 166.41 166.64 5.83 o
2 6 20 21.89 14.91 3.29 o
2 -6 20 21.90 21.00 2.37 o
2 6 21 0.41 3.93 1.94 <
2 -6 21 0.41 0.10 1.85 <
2 6 22 0.98 2.29 1.89 <
2 -6 22 0.97 0.01 1.94 <
2 7 -20 13.86 13.43 2.31 o
2 -7 -20 13.92 11.39 3.19 o
2 7 -19 34.35 42.17 3.27 o
2 -7 -19 34.37 39.63 4.04 o
2 7 -18 70.03 75.17 3.93 o
2 -7 -18 69.89 75.15 5.06 o
2 7 -17 91.05 94.64 4.38 o
2 -7 -17 91.06 93.36 5.51 o
2 7 -16 157.40 158.17 6.22 o
2 -7 -16 157.44 166.99 6.71 o
2 7 -15 34.07 36.06 2.88 o
2 -7 -15 33.99 36.63 3.70 o
2 7 -14 53.63 58.49 3.19 o
2 -7 -14 53.66 52.72 4.40 o
2 7 -13 9.77 11.33 1.87 o
2 -7 -13 9.80 9.66 2.44 o
2 7 -12 27.35 26.05 2.33 o
2 -7 -12 27.30 24.52 3.01 o
2 7 -11 5.69 3.74 1.54 <
2 -7 -11 5.72 4.45 1.54 <
2 7 -10 60.06 55.04 3.42 o
2 -7 -10 59.95 53.60 3.24 o
2 7 -9 52.54 48.04 3.18 o
2 -7 -9 52.58 47.49 3.02 o
2 7 -8 85.86 78.81 4.09 o
2 -7 -8 85.92 80.40 3.74 o
2 7 -7 44.95 34.51 2.95 o
2 -7 -7 44.93 30.75 2.74 o
2 7 -6 32.77 22.75 2.33 o
2 -7 -6 32.78 22.41 2.35 o
2 7 -5 18.96 14.28 1.85 o
2 -7 -5 18.99 12.05 2.18 o
2 7 -4 9.51 12.49 1.33 o
2 -7 -4 9.52 10.36 1.97 o
2 7 -3 22.55 21.03 1.63 o
2 -7 -3 22.60 15.97 2.30 o
2 7 -2 7.35 7.29 1.22 o
2 -7 -2 7.40 6.50 1.84 o
2 7 -1 41.12 34.48 2.30 o
2 -7 -1 41.14 36.05 3.14 o
2 7 0 71.05 63.68 3.03 o
2 -7 0 71.23 65.34 4.15 o
2 7 1 1.74 1.97 1.03 <
2 -7 1 1.74 1.38 1.62 <
2 7 2 26.46 25.19 1.82 o
2 -7 2 26.40 23.03 2.73 o
2 7 3 23.46 25.74 1.67 o
2 -7 3 23.58 25.35 1.99 o
2 7 4 139.08 131.62 4.55 o
2 -7 4 139.10 127.70 5.06 o
2 7 5 30.87 31.56 1.97 o
2 -7 5 30.76 30.07 2.18 o
2 7 6 54.25 48.43 2.62 o
2 -7 6 54.25 50.88 2.87 o
2 7 7 5.08 8.76 1.21 o
2 -7 7 5.09 5.97 1.46 o
2 7 8 55.15 58.93 3.02 o
2 -7 8 55.07 58.33 2.79 o
2 7 9 17.93 21.00 2.04 o
2 -7 9 17.95 17.11 1.81 o
2 7 10 1.37 1.73 1.44 <
2 -7 10 1.41 0.26 1.32 <
2 7 11 14.82 13.97 1.89 o
2 -7 11 14.76 14.38 1.65 o
2 7 12 58.77 55.39 3.54 o
2 -7 12 58.81 55.98 2.83 o
2 7 13 31.73 34.95 2.72 o
2 -7 13 31.69 31.20 2.23 o
2 7 14 3.73 6.82 1.74 o
2 -7 14 3.72 3.45 1.43 <
2 7 15 5.18 5.02 1.72 <
2 -7 15 5.19 2.91 1.61 <
2 7 16 4.21 6.05 1.75 o
2 -7 16 4.19 4.01 1.70 <
2 7 17 11.55 14.62 2.04 o
2 -7 17 11.58 10.07 2.03 o
2 7 18 93.99 96.57 4.58 o
2 -7 18 94.01 92.83 4.42 o
2 7 19 114.03 114.08 5.19 o
2 -7 19 114.03 114.92 4.82 o
2 7 20 10.64 13.43 2.19 o
2 -7 20 10.67 7.50 2.12 o
2 8 -18 4.59 8.15 2.10 o
2 -8 -18 4.62 5.50 3.02 <
2 8 -17 24.27 25.70 2.62 o
2 -8 -17 24.27 24.35 3.74 o
2 8 -16 67.85 82.66 3.58 o
2 -8 -16 67.80 76.30 5.16 o
2 8 -15 5.81 7.12 1.88 o
2 -8 -15 5.85 3.07 2.52 <
2 8 -14 0.81 1.59 1.70 <
2 -8 -14 0.82 -0.53 2.27 <
2 8 -13 6.71 3.89 1.78 <
2 -8 -13 6.68 5.17 2.39 <
2 8 -12 1.20 2.07 1.64 <
2 -8 -12 1.20 0.12 2.06 <
2 8 -11 18.12 19.87 2.27 o
2 -8 -11 18.20 18.48 2.84 o
2 8 -10 35.15 33.79 2.93 o
2 -8 -10 35.16 30.37 2.65 o
2 8 -9 72.12 65.25 3.88 o
2 -8 -9 72.29 66.00 3.68 o
2 8 -8 100.29 84.20 4.81 o
2 -8 -8 100.31 83.20 4.63 o
2 8 -7 4.06 7.60 1.70 o
2 -8 -7 4.13 5.40 1.53 o
2 8 -6 42.27 39.26 3.00 o
2 -8 -6 42.23 35.34 2.81 o
2 8 -5 47.00 44.91 3.10 o
2 -8 -5 47.03 42.21 3.73 o
2 8 -4 5.86 4.42 1.30 o
2 -8 -4 5.88 4.77 2.00 <
2 8 -3 31.85 28.00 2.17 o
2 -8 -3 31.67 25.33 3.00 o
2 8 -2 21.62 27.42 1.76 o
2 -8 -2 21.58 18.23 2.54 o
2 8 -1 46.53 48.39 2.42 o
2 -8 -1 46.64 45.45 3.76 o
2 8 0 72.40 71.61 2.98 o
2 -8 0 72.32 65.37 4.57 o
2 8 1 202.17 199.79 5.88 o
2 -8 1 202.41 191.28 8.22 o
2 8 2 163.32 176.87 3.84 o
2 -8 2 163.37 167.54 6.76 o
2 8 3 54.10 48.48 2.73 o
2 -8 3 54.02 49.78 4.09 o
2 8 4 1.90 2.16 1.16 <
2 -8 4 1.91 1.32 2.00 <
2 8 5 2.45 2.52 1.14 <
2 -8 5 2.47 3.02 2.08 <
2 8 6 21.24 21.93 1.74 o
2 -8 6 21.16 22.00 2.88 o
2 8 7 39.23 38.60 2.27 o
2 -8 7 39.14 32.70 3.48 o
2 8 8 21.08 27.24 1.70 o
2 -8 8 21.16 18.60 2.67 o
2 8 9 39.65 41.11 3.05 o
2 -8 9 39.69 39.63 3.83 o
2 8 10 5.54 10.26 1.83 o
2 -8 10 5.52 6.44 2.12 o
2 8 11 9.61 12.15 1.92 o
2 -8 11 9.61 11.84 1.68 o
2 8 12 26.28 31.44 2.53 o
2 -8 12 26.23 29.25 2.14 o
2 8 13 22.86 25.68 2.46 o
2 -8 13 22.84 20.68 2.02 o
2 8 14 9.36 8.98 2.09 o
2 -8 14 9.35 11.93 1.84 o
2 8 15 17.13 19.43 2.48 o
2 -8 15 17.09 19.34 2.32 o
2 8 16 17.42 21.46 2.49 o
2 -8 16 17.45 19.36 2.37 o
2 8 17 18.59 18.17 2.49 o
2 -8 17 18.56 18.43 2.42 o
2 8 18 10.43 12.37 3.23 o
2 -8 18 10.42 8.97 2.22 o
2 9 -15 1.62 1.69 1.94 <
2 -9 -15 1.62 -2.00 2.55 <
2 9 -14 1.56 3.23 1.92 <
2 -9 -14 1.54 -0.90 2.51 <
2 9 -13 10.41 10.95 2.14 o
2 -9 -13 10.38 10.76 2.87 o
2 9 -12 10.28 10.63 2.14 o
2 -9 -12 10.26 6.96 2.71 <
2 9 -11 3.17 6.43 1.89 o
2 -9 -11 3.15 1.10 2.31 <
2 9 -10 11.68 13.71 2.16 o
2 -9 -10 11.63 9.69 2.69 o
2 9 -9 20.05 22.53 2.38 o
2 -9 -9 20.10 20.05 2.32 o
2 9 -8 88.07 86.89 4.44 o
2 -9 -8 88.16 83.80 4.24 o
2 9 -7 19.33 21.50 2.39 o
2 -9 -7 19.34 17.26 2.18 o
2 9 -6 10.90 13.11 2.05 o
2 -9 -6 10.88 8.70 2.44 o
2 9 -5 11.77 12.27 2.03 o
2 -9 -5 11.79 8.84 2.41 o
2 9 -4 9.07 9.20 1.58 o
2 -9 -4 9.10 10.74 2.45 o
2 9 -3 0.91 6.08 1.37 o
2 -9 -3 0.91 3.79 2.16 <
2 9 -2 6.64 12.06 1.53 o
2 -9 -2 6.63 8.70 2.32 o
2 9 -1 28.37 34.56 2.12 o
2 -9 -1 28.38 34.33 3.33 o
2 9 0 109.35 120.32 3.24 o
2 -9 0 109.44 113.26 5.63 o
2 9 1 88.00 112.13 1.94 o
2 -9 1 88.06 107.55 4.78 o
2 9 2 310.84 315.27 8.05 o
2 -9 2 310.92 315.48 10.87 o
2 9 3 318.32 310.94 8.88 o
2 -9 3 318.20 297.03 12.25 o
2 9 4 96.45 111.75 2.72 o
2 -9 4 96.35 106.95 5.44 o
2 9 5 21.75 26.29 1.82 o
2 -9 5 21.74 20.39 3.18 o
2 9 6 29.39 28.31 2.08 o
2 -9 6 29.40 23.57 3.31 o
2 9 7 10.69 10.20 1.52 o
2 -9 7 10.70 8.95 2.70 o
2 9 8 14.41 17.35 1.66 o
2 -9 8 14.40 13.17 2.67 o
2 9 9 4.02 7.25 1.81 o
2 -9 9 4.06 4.14 2.30 <
2 9 10 125.71 124.33 5.69 o
2 -9 10 125.64 135.04 6.03 o
2 9 11 122.83 145.17 4.30 o
2 -9 11 122.73 132.35 4.85 o
2 9 12 45.90 48.57 3.42 o
2 -9 12 45.82 53.56 3.59 o
2 9 13 84.71 85.33 6.72 o
2 -9 13 84.85 85.20 5.73 o
2 9 14 18.08 23.54 3.85 o
2 -9 14 18.10 19.33 3.18 o
2 9 15 24.95 26.12 4.02 o
2 -9 15 24.94 27.45 3.63 o
2 10 -11 33.42 34.14 3.20 o
2 -10 -11 33.51 41.36 4.20 o
2 10 -10 129.82 138.23 5.74 o
2 -10 -10 129.59 142.17 6.67 o
2 10 -9 129.61 135.63 5.67 o
2 -10 -9 129.59 137.89 6.70 o
2 10 -8 36.07 40.43 3.30 o
2 -10 -8 36.12 34.49 3.18 o
2 10 -7 0.81 1.89 1.77 <
2 -10 -7 0.81 0.60 1.73 <
2 10 -6 2.45 2.25 1.84 <
2 -10 -6 2.42 2.44 1.81 <
2 10 -5 9.83 10.70 2.07 o
2 -10 -5 9.84 7.76 2.63 <
2 10 -4 5.45 7.94 1.63 o
2 -10 -4 5.47 5.68 2.45 <
2 10 -3 17.00 18.99 1.97 o
2 -10 -3 16.99 12.53 2.89 o
2 10 -2 3.33 4.39 1.59 <
2 -10 -2 3.30 2.55 2.37 <
2 10 -1 9.12 13.46 1.73 o
2 -10 -1 9.17 9.53 2.59 o
2 10 0 62.47 71.73 2.85 o
2 -10 0 62.30 64.90 4.88 o
2 10 1 60.04 66.06 3.06 o
2 -10 1 60.01 62.93 4.84 o
2 10 2 6.54 6.15 1.56 o
2 -10 2 6.59 4.86 2.62 <
2 10 3 9.16 9.13 1.76 o
2 -10 3 9.16 8.63 2.76 o
2 10 4 10.50 11.45 1.66 o
2 -10 4 10.52 10.79 2.93 o
2 10 5 0.28 0.90 1.36 <
2 -10 5 0.28 -1.50 2.49 <
2 10 6 16.42 22.07 2.52 o
2 -10 6 16.42 14.75 3.09 o
2 10 7 26.40 31.03 2.78 o
2 -10 7 26.43 32.80 3.77 o
2 10 8 19.97 20.47 2.57 o
2 -10 8 19.93 18.45 3.24 o
2 10 9 7.57 9.32 3.03 o
2 -10 9 7.62 9.75 2.68 o
2 10 10 3.61 4.81 2.64 <
2 -10 10 3.64 3.49 2.44 <
2 10 11 0.17 2.30 2.82 <
2 -10 11 0.17 1.00 2.05 <
2 11 -3 10.57 12.50 2.56 o
2 -11 -3 10.58 11.58 2.96 o
2 11 -2 7.35 11.70 2.36 o
2 -11 -2 7.37 7.19 2.80 <
2 11 -1 15.06 24.94 2.72 o
2 -11 -1 15.05 16.79 3.28 o
2 11 0 6.10 9.01 2.38 o
2 -11 0 6.08 5.50 2.97 <
2 11 1 6.12 5.72 2.12 <
2 -11 1 6.15 3.76 2.75 <
2 11 2 0.71 -0.41 2.17 <
2 -11 2 0.70 -0.50 2.66 <
2 -11 3 0.70 -0.41 2.92 <
3 0 -23 2.60 6.13 3.75 <
3 0 -22 0.92 4.59 3.50 <
3 0 -21 1.13 7.69 3.53 <
3 0 -20 20.18 23.82 4.46 o
3 0 -19 3.60 3.36 3.14 <
3 0 -18 0.27 1.82 2.85 <
3 0 -17 87.34 81.96 4.61 o
3 0 -16 338.38 311.06 12.22 o
3 0 -15 26.19 26.57 2.77 o
3 0 -14 4.84 3.87 1.83 <
3 0 -13 3.29 5.14 1.84 <
3 0 -12 0.17 0.72 1.58 <
3 0 -11 26.12 24.79 2.66 o
3 0 -10 2.32 4.73 1.70 <
3 0 -9 37.36 31.22 2.25 o
3 0 -8 13.49 15.07 1.49 o
3 0 -7 155.56 151.88 4.69 o
3 0 -6 46.61 48.57 1.69 o
3 0 -5 1.36 2.72 0.78 o
3 0 -4 68.94 72.62 1.81 o
3 0 -3 24.22 21.59 2.22 o
3 0 -2 81.50 74.59 3.77 o
3 0 -1 156.43 134.31 6.31 o
3 0 0 5.22 5.84 1.52 o
3 0 1 75.94 64.50 3.73 o
3 0 2 8.03 9.60 1.64 o
3 0 3 90.97 79.92 4.18 o
3 0 4 0.69 3.90 1.53 <
3 0 5 10.63 9.03 1.80 o
3 0 6 2.22 2.19 1.45 <
3 0 7 9.66 11.92 1.91 o
3 0 8 1.58 0.82 1.57 <
3 0 9 14.75 12.71 2.13 o
3 0 10 72.23 73.12 3.73 o
3 0 11 110.80 115.64 4.64 o
3 0 12 0.80 3.58 1.82 <
3 0 13 119.31 111.82 5.30 o
3 0 14 53.17 52.90 3.49 o
3 0 15 16.46 16.09 2.37 o
3 0 16 38.47 39.77 3.24 o
3 0 17 25.12 21.56 2.74 o
3 0 18 0.00 2.04 1.92 <
3 0 19 28.26 29.93 2.90 o
3 0 20 58.06 68.44 5.97 o
3 0 21 908.84 866.02 38.64 o
3 0 22 32.88 52.72 5.66 o
3 0 23 92.85 80.81 7.36 o
3 1 -23 5.87 12.80 4.07 o
3 -1 -23 5.82 10.77 4.23 <
3 1 -22 10.54 17.19 4.13 o
3 -1 -22 10.53 12.68 4.20 o
3 1 -21 19.77 24.44 4.45 o
3 -1 -21 19.88 15.50 4.37 o
3 1 -20 23.46 37.50 5.36 o
3 -1 -20 23.41 22.32 4.64 o
3 1 -19 1.42 4.99 3.09 <
3 -1 -19 1.41 1.72 3.20 <
3 1 -18 4.82 7.84 3.17 <
3 -1 -18 4.83 6.24 2.75 <
3 1 -17 1.19 4.30 1.91 <
3 -1 -17 1.20 4.92 1.99 <
3 1 -16 3.03 5.99 1.93 o
3 -1 -16 2.96 5.40 2.01 <
3 1 -15 56.12 55.16 3.63 o
3 -1 -15 56.20 56.31 3.72 o
3 1 -14 233.48 211.51 8.92 o
3 -1 -14 233.76 209.38 9.14 o
3 1 -13 73.00 75.94 3.77 o
3 -1 -13 72.94 70.82 4.05 o
3 1 -12 111.99 112.60 4.82 o
3 -1 -12 112.16 117.41 4.67 o
3 1 -11 29.47 31.97 2.08 o
3 -1 -11 29.49 32.73 2.81 o
3 1 -10 73.11 65.00 3.19 o
3 -1 -10 73.00 64.42 3.95 o
3 1 -9 32.78 35.62 2.03 o
3 -1 -9 32.75 32.20 2.80 o
3 1 -8 100.90 93.49 3.77 o
3 -1 -8 100.67 97.95 3.48 o
3 1 -7 32.54 39.92 1.75 o
3 -1 -7 32.52 34.33 1.97 o
3 1 -6 287.03 286.86 7.25 o
3 -1 -6 286.83 277.85 7.14 o
3 1 -5 87.13 95.22 3.51 o
3 -1 -5 87.25 89.09 2.02 o
3 1 -4 1.02 2.45 1.42 <
3 -1 -4 1.05 2.60 0.68 o
3 1 -3 14.07 15.37 1.30 o
3 -1 -3 14.03 14.22 1.05 o
3 1 -2 4.52 7.60 1.63 o
3 -1 -2 4.55 5.30 1.09 o
3 1 -1 0.67 1.29 1.39 <
3 -1 -1 0.66 1.01 1.34 <
3 1 0 41.88 43.18 2.71 o
3 -1 0 41.99 43.43 2.65 o
3 1 1 82.21 89.78 3.46 o
3 -1 1 82.15 91.22 3.33 o
3 1 2 125.05 124.83 4.80 o
3 -1 2 125.02 123.26 4.84 o
3 1 3 161.44 157.13 5.98 o
3 -1 3 161.59 162.02 5.67 o
3 1 4 104.21 112.95 2.74 o
3 -1 4 103.99 111.24 3.98 o
3 1 5 46.29 46.69 2.93 o
3 -1 5 46.13 45.16 2.90 o
3 1 6 27.58 30.97 2.58 o
3 -1 6 27.56 31.75 2.48 o
3 1 7 32.82 27.67 2.68 o
3 -1 7 32.71 29.03 2.71 o
3 1 8 12.73 12.36 2.05 o
3 -1 8 12.74 12.68 2.01 o
3 1 9 12.21 9.39 1.94 o
3 -1 9 12.18 6.96 1.89 o
3 1 10 43.53 33.40 3.24 o
3 -1 10 43.60 39.98 3.06 o
3 1 11 232.29 211.05 8.77 o
3 -1 11 232.56 211.55 8.72 o
3 1 12 30.89 32.93 2.91 o
3 -1 12 30.90 30.85 2.13 o
3 1 13 30.14 28.34 2.85 o
3 -1 13 30.03 27.50 2.24 o
3 1 14 26.06 27.14 2.75 o
3 -1 14 26.09 26.59 2.76 o
3 1 15 5.36 5.61 2.05 <
3 -1 15 5.37 7.94 2.08 o
3 1 16 15.19 15.94 2.35 o
3 -1 16 15.16 15.40 2.37 o
3 1 17 60.31 55.08 3.93 o
3 -1 17 60.32 55.51 3.86 o
3 1 18 1.99 4.73 2.12 <
3 -1 18 1.97 6.11 2.02 <
3 1 19 79.41 74.66 4.57 o
3 -1 19 79.39 75.51 5.12 o
3 1 20 52.47 53.75 5.50 o
3 -1 20 52.48 50.12 5.28 o
3 1 21 114.08 96.29 7.84 o
3 -1 21 114.18 103.63 7.56 o
3 1 22 87.32 94.45 7.11 o
3 -1 22 87.43 64.53 7.02 o
3 1 23 2.28 2.13 3.14 <
3 -1 23 2.31 2.41 3.18 <
3 2 -23 19.89 24.10 4.65 o
3 -2 -23 19.86 20.17 5.10 o
3 2 -22 2.07 5.99 3.30 <
3 -2 -22 2.08 -3.04 3.59 <
3 2 -21 5.68 8.17 3.42 <
3 -2 -21 5.71 3.65 3.79 <
3 2 -20 57.36 63.23 6.25 o
3 -2 -20 57.36 51.77 6.78 o
3 2 -19 32.59 40.99 5.32 o
3 -2 -19 32.55 31.70 5.13 o
3 2 -18 36.75 39.23 5.17 o
3 -2 -18 36.61 36.60 3.55 o
3 2 -17 17.99 19.42 3.65 o
3 -2 -17 18.05 19.17 2.68 o
3 2 -16 10.23 12.37 2.06 o
3 -2 -16 10.15 10.54 2.33 o
3 2 -15 22.94 24.32 2.58 o
3 -2 -15 23.06 23.64 2.78 o
3 2 -14 48.88 51.03 3.31 o
3 -2 -14 49.03 50.68 3.57 o
3 2 -13 57.36 59.60 2.70 o
3 -2 -13 57.14 58.82 3.69 o
3 2 -12 4.01 5.14 1.36 o
3 -2 -12 4.02 6.65 2.01 o
3 2 -11 26.06 25.76 2.08 o
3 -2 -11 26.24 26.74 2.91 o
3 2 -10 251.61 262.96 5.89 o
3 -2 -10 251.88 255.36 8.52 o
3 2 -9 411.00 399.25 11.17 o
3 -2 -9 410.49 410.63 12.60 o
3 2 -8 210.24 212.23 5.61 o
3 -2 -8 209.98 204.45 6.17 o
3 2 -7 47.88 50.21 2.93 o
3 -2 -7 47.95 47.86 2.37 o
3 2 -6 31.43 41.59 1.63 o
3 -2 -6 31.26 42.24 1.68 o
3 2 -5 179.14 195.95 3.43 o
3 -2 -5 179.48 188.67 4.39 o
3 2 -4 343.36 349.07 7.86 o
3 -2 -4 343.23 333.37 7.57 o
3 2 -3 89.43 91.23 2.84 o
3 -2 -3 89.31 87.97 2.30 o
3 2 -2 10.07 11.05 1.26 o
3 -2 -2 10.09 10.57 1.05 o
3 2 -1 21.75 24.75 2.34 o
3 -2 -1 21.77 25.95 1.20 o
3 2 0 87.06 96.94 3.55 o
3 -2 0 87.13 93.29 2.57 o
3 2 1 256.67 252.38 8.50 o
3 -2 1 256.39 246.63 8.77 o
3 2 2 50.87 47.63 3.09 o
3 -2 2 50.92 50.62 3.01 o
3 2 3 97.65 97.28 4.13 o
3 -2 3 97.72 95.05 4.26 o
3 2 4 378.77 391.47 11.11 o
3 -2 4 378.58 398.04 10.49 o
3 2 5 805.86 779.81 20.86 o
3 -2 5 805.98 787.85 24.15 o
3 2 6 760.74 735.01 19.86 o
3 -2 6 760.75 745.23 22.75 o
3 2 7 136.40 145.64 3.56 o
3 -2 7 136.27 135.23 5.41 o
3 2 8 18.34 19.49 2.18 o
3 -2 8 18.37 19.92 2.35 o
3 2 9 47.43 54.96 3.08 o
3 -2 9 47.42 53.97 2.08 o
3 2 10 222.72 225.30 7.51 o
3 -2 10 222.38 217.42 6.38 o
3 2 11 21.18 22.88 2.52 o
3 -2 11 21.21 21.66 1.88 o
3 2 12 31.18 29.43 3.02 o
3 -2 12 31.16 29.94 2.23 o
3 2 13 21.84 26.21 2.63 o
3 -2 13 21.92 23.53 1.94 o
3 2 14 40.84 37.31 3.30 o
3 -2 14 40.84 35.75 2.59 o
3 2 15 52.63 48.45 3.70 o
3 -2 15 52.42 58.80 3.38 o
3 2 16 82.81 78.15 4.57 o
3 -2 16 82.86 78.04 4.41 o
3 2 17 31.82 27.08 3.10 o
3 -2 17 31.82 32.89 3.16 o
3 2 18 1.81 3.26 2.05 <
3 -2 18 1.81 2.64 1.99 <
3 2 19 26.88 28.12 2.98 o
3 -2 19 26.87 26.77 3.91 o
3 2 20 23.94 24.72 2.93 o
3 -2 20 23.86 25.02 3.97 o
3 2 21 4.33 5.47 3.12 <
3 -2 21 4.34 5.21 3.14 <
3 2 22 12.93 12.39 3.73 o
3 -2 22 12.88 11.58 3.68 o
3 2 23 31.90 26.67 4.48 o
3 -2 23 31.89 25.20 4.65 o
3 3 -22 52.75 80.77 6.62 o
3 -3 -22 52.70 52.65 7.41 o
3 3 -21 16.14 20.58 4.12 o
3 -3 -21 16.24 16.53 4.77 o
3 3 -20 53.08 68.79 6.25 o
3 -3 -20 53.08 54.85 6.88 o
3 3 -19 117.36 139.71 8.19 o
3 -3 -19 117.51 125.88 8.90 o
3 3 -18 44.60 59.46 5.59 o
3 -3 -18 44.62 47.05 2.98 o
3 3 -17 1.80 8.16 2.99 <
3 -3 -17 1.79 4.04 1.66 <
3 3 -16 39.01 42.25 2.61 o
3 -3 -16 39.00 38.75 2.81 o
3 3 -15 6.88 9.06 1.51 o
3 -3 -15 6.87 8.94 1.75 o
3 3 -14 7.66 11.79 1.55 o
3 -3 -14 7.66 8.60 1.75 o
3 3 -13 38.14 34.74 2.50 o
3 -3 -13 38.12 34.34 2.75 o
3 3 -12 30.32 30.41 2.26 o
3 -3 -12 30.22 30.72 2.52 o
3 3 -11 200.55 173.58 7.09 o
3 -3 -11 200.30 189.79 6.43 o
3 3 -10 947.86 923.45 23.91 o
3 -3 -10 947.37 914.10 24.99 o
3 3 -9 377.42 364.10 10.35 o
3 -3 -9 377.82 365.89 10.57 o
3 3 -8 103.35 98.77 3.70 o
3 -3 -8 103.81 101.18 3.92 o
3 3 -7 13.56 14.37 1.52 o
3 -3 -7 13.51 15.32 1.42 o
3 3 -6 82.63 84.64 2.86 o
3 -3 -6 82.53 82.70 2.70 o
3 3 -5 14.83 18.89 1.52 o
3 -3 -5 14.81 21.43 1.35 o
3 3 -4 3.86 5.58 1.19 o
3 -3 -4 3.90 4.81 1.11 o
3 3 -3 32.12 29.91 1.98 o
3 -3 -3 32.15 28.50 1.89 o
3 3 -2 7.61 8.41 1.26 o
3 -3 -2 7.60 8.04 1.08 o
3 3 -1 84.99 84.19 2.99 o
3 -3 -1 85.14 84.85 2.05 o
3 3 0 181.38 191.63 4.16 o
3 -3 0 181.39 188.55 3.14 o
3 3 1 113.48 103.50 5.00 o
3 -3 1 113.42 107.68 3.84 o
3 3 2 5.51 5.94 1.67 o
3 -3 2 5.50 9.22 1.33 o
3 3 3 8.37 8.57 1.73 o
3 -3 3 8.40 11.89 2.01 o
3 3 4 137.54 139.62 5.24 o
3 -3 4 137.36 137.05 4.16 o
3 3 5 181.36 183.94 6.37 o
3 -3 5 181.66 181.14 5.14 o
3 3 6 220.29 227.29 7.20 o
3 -3 6 220.78 221.91 5.92 o
3 3 7 94.23 98.80 4.14 o
3 -3 7 93.98 94.62 3.29 o
3 3 8 27.40 27.06 2.65 o
3 -3 8 27.37 24.86 1.99 o
3 3 9 28.31 33.46 1.89 o
3 -3 9 28.29 33.02 2.00 o
3 3 10 61.68 74.54 3.32 o
3 -3 10 61.61 73.18 2.26 o
3 3 11 41.02 47.33 2.12 o
3 -3 11 41.02 41.99 2.43 o
3 3 12 1.18 0.65 1.85 <
3 -3 12 1.17 1.95 1.44 <
3 3 13 11.88 13.36 2.33 o
3 -3 13 11.94 13.53 1.73 o
3 3 14 25.89 26.58 2.88 o
3 -3 14 25.89 29.43 2.20 o
3 3 15 114.47 107.26 5.38 o
3 -3 15 114.35 106.69 5.36 o
3 3 16 86.86 86.77 4.63 o
3 -3 16 86.92 89.94 4.33 o
3 3 17 7.44 7.97 2.30 o
3 -3 17 7.40 9.10 2.24 o
3 3 18 3.69 3.17 2.17 <
3 -3 18 3.71 3.93 2.61 <
3 3 19 12.97 16.38 2.73 o
3 -3 19 13.00 11.93 3.28 o
3 3 20 0.46 1.25 2.13 <
3 -3 20 0.44 2.88 2.84 <
3 3 21 2.83 6.09 3.29 <
3 -3 21 2.82 3.14 3.05 <
3 3 22 6.64 9.70 3.62 <
3 -3 22 6.64 9.79 3.58 <
3 4 -21 15.98 14.50 2.33 o
3 -4 -21 16.01 9.99 4.54 <
3 4 -20 59.99 69.26 3.13 o
3 -4 -20 59.94 61.48 7.20 o
3 4 -19 13.19 14.02 1.91 o
3 -4 -19 13.16 8.73 2.54 o
3 4 -18 6.29 6.72 1.64 o
3 -4 -18 6.31 3.21 1.84 <
3 4 -17 20.18 25.10 2.13 o
3 -4 -17 20.15 20.14 2.33 o
3 4 -16 3.41 5.31 1.44 o
3 -4 -16 3.39 2.99 1.76 <
3 4 -15 73.09 66.31 3.05 o
3 -4 -15 73.15 66.31 3.79 o
3 4 -14 32.01 31.01 2.16 o
3 -4 -14 32.08 30.32 2.68 o
3 4 -13 50.64 52.13 2.47 o
3 -4 -13 50.77 48.86 3.16 o
3 4 -12 131.01 127.00 4.36 o
3 -4 -12 131.12 126.88 4.87 o
3 4 -11 130.75 123.30 4.53 o
3 -4 -11 130.36 121.88 5.01 o
3 4 -10 133.16 123.08 4.70 o
3 -4 -10 133.24 122.33 5.15 o
3 4 -9 35.08 29.68 2.33 o
3 -4 -9 35.13 34.18 2.73 o
3 4 -8 62.35 57.94 2.83 o
3 -4 -8 62.45 52.43 3.43 o
3 4 -7 45.04 44.44 2.33 o
3 -4 -7 45.08 44.22 2.85 o
3 4 -6 192.79 190.73 5.43 o
3 -4 -6 192.65 180.67 5.75 o
3 4 -5 29.85 27.30 2.04 o
3 -4 -5 29.91 29.88 1.85 o
3 4 -4 24.56 23.86 1.81 o
3 -4 -4 24.44 23.06 1.73 o
3 4 -3 12.85 13.84 1.45 o
3 -4 -3 12.80 12.89 1.38 o
3 4 -2 68.53 55.74 3.14 o
3 -4 -2 68.63 54.16 3.03 o
3 4 -1 120.63 113.79 4.10 o
3 -4 -1 120.52 111.87 3.91 o
3 4 0 65.94 64.55 2.67 o
3 -4 0 65.83 60.76 2.66 o
3 4 1 8.95 11.39 1.36 o
3 -4 1 8.99 10.66 1.26 o
3 4 2 6.16 6.38 1.26 o
3 -4 2 6.16 6.74 1.20 o
3 4 3 54.90 50.18 2.57 o
3 -4 3 54.77 47.54 2.99 o
3 4 4 80.89 76.95 3.12 o
3 -4 4 80.89 73.03 3.61 o
3 4 5 75.12 74.28 2.89 o
3 -4 5 75.23 68.79 4.05 o
3 4 6 69.79 78.98 2.33 o
3 -4 6 69.97 75.86 3.69 o
3 4 7 94.13 94.21 3.37 o
3 -4 7 94.19 94.56 3.41 o
3 4 8 95.58 98.45 3.19 o
3 -4 8 95.20 89.90 3.76 o
3 4 9 28.60 29.22 2.08 o
3 -4 9 28.55 26.79 2.25 o
3 4 10 85.82 79.62 3.49 o
3 -4 10 85.71 77.90 3.65 o
3 4 11 7.36 8.62 1.54 o
3 -4 11 7.37 7.44 1.61 o
3 4 12 42.10 36.37 3.44 o
3 -4 12 42.19 34.33 2.69 o
3 4 13 8.37 8.31 2.22 o
3 -4 13 8.38 11.12 1.80 o
3 4 14 1.10 4.11 2.09 <
3 -4 14 1.09 2.92 1.58 <
3 4 15 3.83 7.46 2.22 o
3 -4 15 3.85 4.93 1.75 <
3 4 16 25.93 28.12 3.04 o
3 -4 16 25.93 29.32 2.99 o
3 4 17 151.16 151.51 6.44 o
3 -4 17 151.03 151.26 6.21 o
3 4 18 8.52 6.94 2.37 <
3 -4 18 8.53 7.68 2.84 <
3 4 19 0.55 1.32 2.76 <
3 -4 19 0.55 1.31 2.58 <
3 4 20 2.98 0.29 3.07 <
3 -4 20 2.96 2.58 2.88 <
3 4 21 1.76 1.19 3.11 <
3 -4 21 1.76 1.06 2.83 <
3 5 -20 42.28 37.18 3.30 o
3 -5 -20 42.27 33.20 5.99 o
3 5 -19 25.71 25.98 2.61 o
3 -5 -19 25.65 18.51 2.89 o
3 5 -18 1.58 1.92 1.70 <
3 -5 -18 1.57 -1.35 1.88 <
3 5 -17 6.11 4.40 1.74 <
3 -5 -17 6.08 0.00 1.92 <
3 5 -16 13.48 7.95 1.95 o
3 -5 -16 13.50 6.91 2.17 o
3 5 -15 6.85 5.28 1.74 o
3 -5 -15 6.89 3.73 1.97 <
3 5 -14 2.88 1.63 1.31 <
3 -5 -14 2.90 2.58 1.95 <
3 5 -13 7.97 7.85 1.48 o
3 -5 -13 7.94 8.78 2.15 o
3 5 -12 67.80 60.57 3.12 o
3 -5 -12 67.86 56.58 4.32 o
3 5 -11 291.88 278.11 8.67 o
3 -5 -11 292.19 289.73 9.93 o
3 5 -10 500.92 478.96 13.90 o
3 -5 -10 501.11 484.48 16.28 o
3 5 -9 234.09 219.01 7.40 o
3 -5 -9 233.63 234.18 8.11 o
3 5 -8 14.30 15.43 1.65 o
3 -5 -8 14.23 15.13 2.22 o
3 5 -7 38.48 43.81 2.16 o
3 -5 -7 38.40 41.95 3.20 o
3 5 -6 2.11 11.89 3.17 o
3 -5 -6 2.11 12.14 1.84 o
3 5 -5 52.02 44.91 2.73 o
3 -5 -5 52.13 43.69 3.51 o
3 5 -4 78.31 63.95 3.53 o
3 -5 -4 78.21 63.37 4.28 o
3 5 -3 70.12 65.21 3.00 o
3 -5 -3 70.02 56.05 4.06 o
3 5 -2 210.86 187.48 7.07 o
3 -5 -2 210.93 180.30 8.50 o
3 5 -1 318.09 308.71 8.85 o
3 -5 -1 317.99 310.88 10.53 o
3 5 0 67.12 68.97 2.77 o
3 -5 0 67.17 71.84 3.48 o
3 5 1 17.29 21.69 1.75 o
3 -5 1 17.39 25.52 2.07 o
3 5 2 38.49 38.32 2.24 o
3 -5 2 38.49 37.65 2.63 o
3 5 3 6.12 7.27 1.14 o
3 -5 3 6.09 4.81 1.64 <
3 5 4 7.16 10.73 1.15 o
3 -5 4 7.23 9.26 1.84 o
3 5 5 149.08 157.41 4.09 o
3 -5 5 149.30 152.27 4.82 o
3 5 6 786.80 740.50 22.08 o
3 -5 6 786.16 754.67 21.05 o
3 5 7 494.56 474.03 13.80 o
3 -5 7 494.22 490.22 12.65 o
3 5 8 111.30 108.64 4.00 o
3 -5 8 111.69 107.30 4.27 o
3 5 9 18.56 24.33 1.88 o
3 -5 9 18.68 22.09 2.17 o
3 5 10 14.82 22.82 1.81 o
3 -5 10 14.80 20.52 2.00 o
3 5 11 60.28 64.53 2.74 o
3 -5 11 60.41 58.35 3.15 o
3 5 12 8.06 9.00 2.34 o
3 -5 12 8.02 10.27 1.82 o
3 5 13 30.59 30.23 3.13 o
3 -5 13 30.57 29.27 2.55 o
3 5 14 3.86 6.71 2.27 <
3 -5 14 3.84 4.61 1.71 <
3 5 15 63.22 56.80 4.28 o
3 -5 15 63.25 60.06 3.68 o
3 5 16 61.17 67.47 5.55 o
3 -5 16 61.19 61.60 4.02 o
3 5 17 24.83 26.70 4.24 o
3 -5 17 24.79 21.18 3.49 o
3 5 18 10.90 9.77 3.18 o
3 -5 18 10.95 12.49 3.24 o
3 5 19 3.95 2.27 2.85 <
3 -5 19 3.94 4.27 2.85 <
3 5 20 0.26 0.34 2.95 <
3 -5 20 0.26 0.95 2.01 <
3 6 -19 11.58 10.58 3.11 o
3 -6 -19 11.60 10.04 3.46 <
3 6 -18 17.05 14.03 2.24 o
3 -6 -18 17.05 13.33 2.91 o
3 6 -17 10.85 10.35 2.00 o
3 -6 -17 10.86 7.78 2.52 o
3 6 -16 1.99 2.95 1.67 <
3 -6 -16 1.96 0.23 2.09 <
3 6 -15 57.65 50.33 3.67 o
3 -6 -15 57.63 54.94 4.37 o
3 6 -14 133.70 132.71 5.44 o
3 -6 -14 133.53 136.13 6.10 o
3 6 -13 42.05 45.42 2.95 o
3 -6 -13 42.09 39.19 3.89 o
3 6 -12 53.73 58.40 3.13 o
3 -6 -12 53.83 52.21 4.07 o
3 6 -11 34.60 35.71 2.78 o
3 -6 -11 34.52 28.34 3.20 o
3 6 -10 20.20 21.27 1.86 o
3 -6 -10 20.25 16.50 2.52 o
3 6 -9 75.91 74.66 3.21 o
3 -6 -9 75.96 76.79 4.34 o
3 6 -8 7.01 6.84 1.51 o
3 -6 -8 6.97 8.19 2.09 o
3 6 -7 7.08 7.12 1.48 o
3 -6 -7 7.11 5.90 1.99 <
3 6 -6 43.51 41.39 2.57 o
3 -6 -6 43.66 36.53 3.57 o
3 6 -5 1.87 3.13 1.37 <
3 -6 -5 1.85 3.80 1.86 <
3 6 -4 157.11 114.24 6.51 o
3 -6 -4 157.26 117.31 7.26 o
3 6 -3 67.79 60.35 3.14 o
3 -6 -3 67.78 56.42 4.13 o
3 6 -2 5.90 9.33 1.54 o
3 -6 -2 5.90 8.42 1.96 o
3 6 -1 2.66 7.00 1.44 o
3 -6 -1 2.62 8.03 1.87 o
3 6 0 52.47 52.79 2.67 o
3 -6 0 52.29 56.52 3.39 o
3 6 1 186.72 167.55 6.46 o
3 -6 1 186.82 176.05 10.41 o
3 6 2 23.71 23.57 1.71 o
3 -6 2 23.73 25.52 4.23 o
3 6 3 19.75 22.60 1.50 o
3 -6 3 19.83 16.92 3.70 o
3 6 4 0.40 2.25 1.06 <
3 -6 4 0.40 5.21 2.98 <
3 6 5 43.72 35.94 2.66 o
3 -6 5 43.88 35.09 4.24 o
3 6 6 165.44 150.29 5.80 o
3 -6 6 165.48 141.81 7.92 o
3 6 7 64.44 61.11 3.14 o
3 -6 7 64.49 63.51 4.85 o
3 6 8 46.56 47.41 2.74 o
3 -6 8 46.45 51.02 3.26 o
3 6 9 75.80 66.59 3.64 o
3 -6 9 75.92 70.21 3.70 o
3 6 10 106.95 104.76 4.06 o
3 -6 10 107.20 99.71 4.48 o
3 6 11 56.12 54.45 3.00 o
3 -6 11 56.05 50.84 3.34 o
3 6 12 11.17 9.54 2.85 o
3 -6 12 11.17 10.46 2.01 o
3 6 13 11.33 12.45 3.23 o
3 -6 13 11.25 12.39 2.07 o
3 6 14 5.31 10.90 3.01 o
3 -6 14 5.31 7.50 1.96 o
3 6 15 4.46 2.89 2.73 <
3 -6 15 4.42 9.35 2.56 o
3 6 16 1.68 1.10 2.89 <
3 -6 16 1.68 3.10 2.46 <
3 6 17 0.70 4.17 3.34 <
3 -6 17 0.69 1.10 1.88 <
3 6 18 72.39 76.26 6.17 o
3 -6 18 72.45 65.58 4.65 o
3 7 -16 16.46 13.22 2.25 o
3 -7 -16 16.36 11.93 2.94 o
3 7 -15 9.54 9.95 2.01 o
3 -7 -15 9.49 9.50 2.64 o
3 7 -14 49.88 57.31 3.18 o
3 -7 -14 49.80 47.98 4.48 o
3 7 -13 69.49 67.65 3.87 o
3 -7 -13 69.61 57.42 4.93 o
3 7 -12 2.60 2.55 1.66 <
3 -7 -12 2.58 1.38 2.09 <
3 7 -11 4.49 3.77 1.68 <
3 -7 -11 4.50 1.53 2.02 <
3 7 -10 13.48 11.76 1.96 o
3 -7 -10 13.50 11.90 1.83 o
3 7 -9 11.02 11.92 1.84 o
3 -7 -9 11.05 9.06 1.74 o
3 7 -8 14.33 15.28 1.99 o
3 -7 -8 14.35 17.13 1.93 o
3 7 -7 9.88 8.60 1.79 o
3 -7 -7 9.82 9.89 1.76 o
3 7 -6 33.51 31.33 2.78 o
3 -7 -6 33.58 23.86 2.98 o
3 7 -5 42.41 38.03 2.99 o
3 -7 -5 42.54 36.19 3.67 o
3 7 -4 15.83 18.58 1.97 o
3 -7 -4 15.82 12.87 2.35 o
3 7 -3 21.77 22.00 2.24 o
3 -7 -3 21.74 24.14 2.81 o
3 7 -2 12.58 9.57 1.69 o
3 -7 -2 12.62 12.08 2.24 o
3 7 -1 11.15 12.86 1.78 o
3 -7 -1 11.06 10.88 2.17 o
3 7 0 35.88 36.19 2.43 o
3 -7 0 35.85 25.32 4.57 o
3 7 1 47.76 46.45 2.28 o
3 -7 1 47.82 41.67 6.15 o
3 7 2 0.31 -0.21 1.09 <
3 -7 2 0.31 -2.19 3.01 <
3 7 3 3.79 1.89 1.15 <
3 -7 3 3.79 3.07 3.35 <
3 7 4 14.86 13.72 1.57 o
3 -7 4 14.85 17.22 4.18 o
3 7 5 2.50 3.10 1.24 <
3 -7 5 2.50 3.14 3.29 <
3 7 6 26.58 24.61 2.38 o
3 -7 6 26.64 23.51 4.68 o
3 7 7 14.33 16.82 1.99 o
3 -7 7 14.32 9.77 3.38 <
3 7 8 20.78 21.66 2.25 o
3 -7 8 20.72 15.95 3.51 o
3 7 9 6.93 8.22 1.81 o
3 -7 9 6.90 6.43 2.37 <
3 7 10 45.73 43.94 3.19 o
3 -7 10 45.82 52.72 3.48 o
3 7 11 31.78 36.09 4.28 o
3 -7 11 31.70 30.62 3.01 o
3 7 12 8.21 10.38 3.05 o
3 -7 12 8.21 6.55 2.32 <
3 7 13 0.84 -0.37 2.41 <
3 -7 13 0.84 0.79 2.04 <
3 7 14 5.22 5.91 2.92 <
3 -7 14 5.21 4.55 2.67 <
3 7 15 1.04 4.04 3.25 <
3 -7 15 1.04 2.08 2.86 <
3 7 16 0.94 2.58 3.08 <
3 -7 16 0.93 2.11 2.95 <
3 8 -14 5.07 2.72 2.65 <
3 -8 -14 5.06 -0.41 3.43 <
3 8 -13 11.86 11.76 2.11 o
3 -8 -13 11.89 10.26 2.76 o
3 8 -12 0.77 4.34 1.78 <
3 -8 -12 0.76 -1.31 2.07 <
3 8 -11 13.54 13.90 2.12 o
3 -8 -11 13.47 13.78 2.76 o
3 8 -10 14.72 13.19 2.17 o
3 -8 -10 14.70 12.81 2.72 o
3 8 -9 6.75 6.05 1.88 o
3 -8 -9 6.72 7.31 1.78 o
3 8 -8 26.33 26.40 2.61 o
3 -8 -8 26.36 21.15 2.38 o
3 8 -7 62.84 61.33 3.95 o
3 -8 -7 62.90 59.98 3.50 o
3 8 -6 47.84 40.46 3.55 o
3 -8 -6 47.86 46.16 3.03 o
3 8 -5 13.81 14.65 2.16 o
3 -8 -5 13.79 11.52 1.94 o
3 8 -4 4.77 4.18 1.71 <
3 -8 -4 4.78 2.69 1.61 <
3 8 -3 12.96 16.23 2.15 o
3 -8 -3 12.98 15.69 2.01 o
3 8 -2 2.83 3.05 1.64 <
3 -8 -2 2.82 4.20 1.58 <
3 8 -1 1.55 2.48 1.67 <
3 -8 -1 1.54 2.11 2.17 <
3 8 0 0.01 0.78 1.56 <
3 -8 0 0.01 1.26 2.14 <
3 8 1 18.36 23.26 1.77 o
3 -8 1 18.32 20.18 2.92 o
3 8 2 93.22 97.16 3.38 o
3 -8 2 93.33 93.09 5.38 o
3 8 3 78.73 73.33 3.52 o
3 -8 3 78.86 72.28 5.11 o
3 8 4 13.55 18.76 2.10 o
3 -8 4 13.52 11.54 2.52 o
3 8 5 6.71 8.29 1.94 o
3 -8 5 6.72 3.58 2.28 <
3 8 6 14.90 17.99 2.26 o
3 -8 6 14.91 14.68 2.86 o
3 8 7 10.26 10.23 2.14 o
3 -8 7 10.25 10.67 2.59 o
3 8 8 7.90 9.01 1.97 o
3 -8 8 7.86 5.94 2.35 <
3 8 9 2.67 2.27 1.72 <
3 -8 9 2.67 1.78 2.03 <
3 8 10 1.51 3.86 2.72 <
3 -8 10 1.52 -0.38 1.94 <
3 8 11 3.00 3.39 2.73 <
3 -8 11 3.03 2.19 2.03 <
3 8 12 63.34 57.84 6.91 o
3 -8 12 63.32 58.31 4.48 o
3 8 13 67.25 79.15 5.87 o
3 -8 13 67.20 64.80 5.35 o
3 9 -9 22.32 20.89 2.70 o
3 -9 -9 22.45 19.96 3.19 o
3 9 -8 122.49 123.90 5.50 o
3 -9 -8 122.42 119.15 6.49 o
3 9 -7 144.19 152.74 5.69 o
3 -9 -7 144.11 140.19 5.67 o
3 9 -6 49.39 50.68 3.60 o
3 -9 -6 49.41 46.26 3.42 o
3 9 -5 6.44 6.97 2.05 o
3 -9 -5 6.46 6.71 1.92 o
3 9 -4 5.11 7.27 1.93 o
3 -9 -4 5.08 5.15 1.94 <
3 9 -3 2.47 5.09 1.92 <
3 -9 -3 2.49 4.17 2.36 <
3 9 -2 1.93 3.08 1.80 <
3 -9 -2 1.92 2.33 2.26 <
3 9 -1 7.09 7.21 2.04 o
3 -9 -1 7.08 6.12 2.62 <
3 9 0 6.65 4.87 1.91 <
3 -9 0 6.67 4.33 2.48 <
3 9 1 26.62 29.02 2.35 o
3 -9 1 26.67 31.95 3.65 o
3 9 2 62.95 64.67 3.88 o
3 -9 2 62.87 65.52 4.94 o
3 9 3 241.45 244.38 8.68 o
3 -9 3 241.49 264.15 8.55 o
3 9 4 182.90 173.45 7.84 o
3 -9 4 182.67 178.29 8.20 o
3 9 5 84.09 81.12 4.53 o
3 -9 5 84.19 81.50 5.59 o
3 9 6 8.30 7.79 1.99 o
3 -9 6 8.33 7.38 2.74 <
3 9 7 2.42 4.78 1.88 <
3 -9 7 2.41 4.51 2.44 <
3 9 8 6.66 9.22 3.70 <
3 -9 8 6.63 6.91 2.61 <
3 9 9 21.78 22.10 3.81 o
3 -9 9 21.77 24.45 2.72 o
4 0 -19 55.28 53.70 5.02 o
4 0 -18 0.81 -0.51 2.14 <
4 0 -17 4.97 0.98 2.15 <
4 0 -16 13.24 12.49 2.36 o
4 0 -15 0.11 4.17 1.95 <
4 0 -14 87.23 84.79 4.57 o
4 0 -13 16.30 19.98 2.53 o
4 0 -12 30.36 35.59 3.22 o
4 0 -11 5.56 12.36 3.70 o
4 0 -10 208.63 204.73 7.81 o
4 0 -9 63.15 66.32 3.90 o
4 0 -8 87.13 88.09 4.52 o
4 0 -7 30.62 36.31 3.25 o
4 0 -6 27.46 27.27 2.97 o
4 0 -5 0.09 2.96 1.97 <
4 0 -4 22.28 27.42 2.78 o
4 0 -3 8.69 15.38 2.39 o
4 0 -2 0.83 2.86 1.90 <
4 0 -1 0.02 1.19 1.77 <
4 0 0 5.27 8.60 2.16 o
4 0 1 1.38 3.04 1.92 <
4 0 2 35.96 36.28 3.23 o
4 0 3 161.27 157.38 6.54 o
4 0 4 1.33 5.24 1.98 <
4 0 5 39.99 38.61 3.43 o
4 0 6 7.51 10.19 2.26 o
4 0 7 9.34 6.62 2.19 o
4 0 8 10.39 11.17 2.46 o
4 0 9 33.41 36.40 3.64 o
4 0 10 2.04 7.51 2.35 o
4 0 11 13.79 17.82 2.85 o
4 0 12 1.50 3.38 2.25 <
4 0 13 190.73 145.43 8.68 o
4 0 14 9.99 15.09 2.61 o
4 0 15 69.90 64.25 4.60 o
4 0 16 1.43 4.17 2.38 <
4 0 17 0.03 3.58 2.43 <
4 0 18 0.37 1.12 2.30 <
4 1 -18 1.64 -0.35 2.16 <
4 1 -17 4.42 3.58 2.40 <
4 1 -16 14.49 13.69 2.86 o
4 -1 -16 14.45 24.32 4.41 o
4 1 -15 52.58 51.66 3.76 o
4 -1 -15 52.71 52.47 5.85 o
4 1 -14 71.94 70.98 4.18 o
4 -1 -14 71.98 64.36 4.34 o
4 1 -13 72.51 70.01 4.28 o
4 -1 -13 72.45 68.58 4.21 o
4 1 -12 13.04 17.07 2.48 o
4 -1 -12 12.99 15.43 2.40 o
4 1 -11 2.38 4.77 2.00 <
4 -1 -11 2.38 5.64 2.07 <
4 1 -10 1.43 3.46 1.97 <
4 -1 -10 1.43 2.74 1.86 <
4 1 -9 27.46 28.65 2.94 o
4 -1 -9 27.48 28.53 2.88 o
4 1 -8 50.58 58.87 3.54 o
4 -1 -8 50.60 49.81 3.62 o
4 1 -7 76.39 83.11 4.11 o
4 -1 -7 76.15 76.69 4.19 o
4 1 -6 80.24 76.55 4.44 o
4 -1 -6 80.18 75.54 4.31 o
4 1 -5 92.75 95.37 4.52 o
4 -1 -5 92.88 92.82 4.57 o
4 1 -4 141.08 137.87 5.86 o
4 -1 -4 141.06 123.55 6.37 o
4 1 -3 47.31 52.40 3.53 o
4 -1 -3 47.27 49.14 3.40 o
4 1 -2 8.94 8.84 2.13 o
4 -1 -2 8.92 12.06 2.30 o
4 1 -1 2.16 2.64 1.92 <
4 -1 -1 2.14 3.04 1.82 <
4 1 0 20.34 16.85 2.44 o
4 -1 0 20.39 17.08 2.64 o
4 1 1 45.87 41.89 3.58 o
4 -1 1 45.88 37.76 3.46 o
4 1 2 67.44 64.31 4.07 o
4 -1 2 67.46 62.05 4.03 o
4 1 3 86.62 88.10 4.50 o
4 -1 3 86.48 83.83 4.52 o
4 1 4 16.67 21.27 2.68 o
4 -1 4 16.68 20.69 2.72 o
4 1 5 7.26 10.02 2.23 o
4 -1 5 7.29 9.06 2.27 o
4 1 6 27.01 25.63 2.91 o
4 -1 6 26.97 30.03 3.10 o
4 1 7 3.76 4.74 2.09 <
4 -1 7 3.80 5.43 2.16 <
4 1 8 30.11 30.73 3.13 o
4 -1 8 30.09 33.60 3.32 o
4 1 9 28.56 31.26 3.20 o
4 -1 9 28.51 25.89 3.06 o
4 1 10 29.07 33.27 3.37 o
4 -1 10 29.13 28.25 3.28 o
4 1 11 27.29 28.21 3.21 o
4 -1 11 27.27 32.89 3.28 o
4 1 12 83.85 83.92 4.84 o
4 -1 12 83.64 87.50 4.74 o
4 1 13 4.28 6.41 2.41 <
4 -1 13 4.30 8.10 2.44 o
4 1 14 23.09 28.33 3.31 o
4 -1 14 23.14 30.95 3.23 o
4 1 15 9.14 8.89 2.61 o
4 -1 15 9.17 11.02 2.68 o
4 1 16 14.10 13.05 2.79 o
4 -1 16 14.14 14.32 2.83 o
4 1 17 1.66 3.21 2.42 <
4 -1 17 1.67 4.26 2.50 <
4 1 18 7.47 12.31 2.76 o
4 -1 18 7.46 9.16 2.67 o
4 2 -18 74.32 67.87 5.81 o
4 2 -17 73.68 73.02 5.73 o
4 2 -16 19.83 18.30 3.25 o
4 -2 -16 19.85 29.47 4.69 o
4 2 -15 13.99 17.22 2.53 o
4 -2 -15 14.05 18.95 4.22 o
4 2 -14 28.63 29.85 2.99 o
4 -2 -14 28.49 37.10 5.00 o
4 2 -13 73.20 77.27 4.09 o
4 -2 -13 73.25 73.81 6.47 o
4 2 -12 47.58 53.95 3.46 o
4 -2 -12 47.76 56.81 5.64 o
4 2 -11 33.05 34.75 3.13 o
4 -2 -11 33.00 34.26 5.15 o
4 2 -10 0.73 2.70 1.87 <
4 -2 -10 0.73 5.69 3.26 <
4 2 -9 192.38 196.27 6.99 o
4 -2 -9 192.35 173.49 11.37 o
4 2 -8 649.44 636.68 19.82 o
4 -2 -8 649.20 600.10 22.47 o
4 2 -7 500.80 488.36 15.92 o
4 -2 -7 501.01 464.87 17.35 o
4 2 -6 28.72 40.19 3.15 o
4 -2 -6 28.82 39.20 3.00 o
4 2 -5 37.13 38.97 3.44 o
4 -2 -5 37.26 39.82 3.23 o
4 2 -4 54.02 53.13 3.90 o
4 -2 -4 54.09 55.45 3.56 o
4 2 -3 11.10 17.05 2.45 o
4 -2 -3 11.07 14.87 2.43 o
4 2 -2 40.77 40.01 3.46 o
4 -2 -2 40.65 35.80 3.33 o
4 2 -1 16.37 20.99 2.63 o
4 -2 -1 16.42 21.34 2.60 o
4 2 0 35.05 36.65 3.36 o
4 -2 0 34.95 33.15 3.16 o
4 2 1 44.16 48.80 3.48 o
4 -2 1 44.22 41.51 3.41 o
4 2 2 79.94 77.76 4.45 o
4 -2 2 80.07 79.36 4.26 o
4 2 3 128.74 109.74 6.13 o
4 -2 3 128.77 106.48 6.05 o
4 2 4 9.29 16.72 2.48 o
4 -2 4 9.25 12.40 2.28 o
4 2 5 94.81 85.89 5.09 o
4 -2 5 94.98 85.61 4.92 o
4 2 6 152.18 139.11 6.76 o
4 -2 6 152.41 136.45 6.69 o
4 2 7 52.42 56.87 3.87 o
4 -2 7 52.25 55.45 3.78 o
4 2 8 15.31 25.19 2.75 o
4 -2 8 15.24 25.85 2.91 o
4 2 9 1.63 5.81 2.31 <
4 -2 9 1.61 5.52 2.35 <
4 2 10 5.75 6.56 2.49 <
4 -2 10 5.75 7.12 2.40 <
4 2 11 10.43 12.65 2.69 o
4 -2 11 10.41 8.28 2.59 o
4 2 12 46.59 44.18 3.96 o
4 -2 12 46.54 42.50 3.94 o
4 2 13 28.90 23.76 3.30 o
4 -2 13 28.87 23.50 3.20 o
4 2 14 2.03 3.08 2.36 <
4 -2 14 2.04 4.40 2.40 <
4 2 15 14.83 12.17 2.85 o
4 -2 15 14.86 16.98 2.98 o
4 2 16 2.50 1.75 2.39 <
4 -2 16 2.52 5.33 2.51 <
4 2 17 4.60 5.47 2.59 <
4 -2 17 4.59 6.37 2.53 <
4 2 18 1.42 1.83 3.20 <
4 -2 18 1.42 3.10 3.21 <
4 -3 -17 8.44 17.70 4.34 o
4 3 -16 9.73 7.18 2.63 <
4 -3 -16 9.76 11.81 3.79 o
4 3 -15 3.60 2.19 2.28 <
4 -3 -15 3.59 3.95 3.36 <
4 3 -14 2.76 5.97 1.96 o
4 -3 -14 2.78 3.71 3.39 <
4 3 -13 8.68 9.28 2.15 o
4 -3 -13 8.68 9.31 3.92 <
4 3 -12 27.05 26.95 2.95 o
4 -3 -12 27.09 33.87 5.23 o
4 3 -11 3.11 4.48 2.02 <
4 -3 -11 3.11 7.12 3.70 <
4 3 -10 6.37 7.34 2.22 o
4 -3 -10 6.34 3.46 3.62 <
4 3 -9 23.48 26.58 2.97 o
4 -3 -9 23.52 23.89 5.02 o
4 3 -8 28.58 30.23 3.10 o
4 -3 -8 28.62 33.29 5.32 o
4 3 -7 6.20 15.23 2.42 o
4 -3 -7 6.22 26.08 4.63 o
4 3 -6 18.29 21.59 2.73 o
4 -3 -6 18.34 19.23 4.59 o
4 3 -5 11.82 12.59 2.41 o
4 -3 -5 11.84 15.50 4.27 o
4 3 -4 64.11 62.45 4.14 o
4 -3 -4 63.99 58.55 6.52 o
4 3 -3 122.19 110.12 5.89 o
4 -3 -3 122.42 106.44 8.59 o
4 3 -2 25.12 28.25 2.97 o
4 -3 -2 25.23 26.08 4.99 o
4 3 -1 63.86 62.46 4.13 o
4 -3 -1 63.73 57.42 4.27 o
4 3 0 47.22 42.91 3.81 o
4 -3 0 47.18 44.59 3.50 o
4 3 1 8.54 11.86 2.43 o
4 -3 1 8.53 12.24 2.43 o
4 3 2 0.19 1.50 1.94 <
4 -3 2 0.18 0.26 1.91 <
4 3 3 4.86 8.89 2.39 o
4 -3 3 4.89 6.38 2.15 <
4 3 4 2.54 6.63 2.22 <
4 -3 4 2.55 5.43 2.17 <
4 3 5 45.08 40.46 3.86 o
4 -3 5 45.22 41.54 3.59 o
4 3 6 167.62 156.73 7.13 o
4 -3 6 167.41 152.17 7.16 o
4 3 7 636.48 574.60 22.31 o
4 -3 7 636.12 582.45 21.76 o
4 3 8 378.47 347.88 13.80 o
4 -3 8 378.72 351.36 13.53 o
4 3 9 8.18 11.92 2.58 o
4 -3 9 8.22 10.11 2.49 o
4 3 10 12.69 14.52 2.75 o
4 -3 10 12.59 19.59 2.96 o
4 3 11 26.06 23.28 3.24 o
4 -3 11 26.08 24.23 3.28 o
4 3 12 24.90 27.48 3.36 o
4 -3 12 24.80 33.58 3.44 o
4 3 13 3.10 3.85 2.48 <
4 -3 13 3.11 4.80 2.39 <
4 3 14 37.57 36.93 3.95 o
4 -3 14 37.57 43.56 3.63 o
4 3 15 26.78 28.69 3.62 o
4 -3 15 26.84 33.36 3.46 o
4 3 16 24.44 24.20 3.47 o
4 -3 16 24.40 19.93 3.69 o
4 3 17 48.59 45.51 4.31 o
4 -3 17 48.50 56.68 4.37 o
4 4 -16 3.20 2.95 2.48 <
4 -4 -16 3.23 6.11 3.66 <
4 4 -15 30.43 21.33 3.66 o
4 -4 -15 30.39 26.89 5.14 o
4 4 -14 28.04 28.46 3.87 o
4 -4 -14 28.04 33.51 5.35 o
4 4 -13 4.74 3.43 1.99 <
4 -4 -13 4.77 5.77 3.86 <
4 4 -12 4.78 6.15 2.10 <
4 -4 -12 4.78 7.82 3.94 <
4 4 -11 30.29 31.28 3.15 o
4 -4 -11 30.40 30.48 5.43 o
4 4 -10 24.48 27.59 2.94 o
4 -4 -10 24.43 28.81 5.27 o
4 4 -9 3.00 7.81 2.14 o
4 -4 -9 2.97 15.23 4.46 o
4 4 -8 15.02 17.96 2.55 o
4 -4 -8 15.02 21.66 5.09 o
4 4 -7 9.30 13.31 2.40 o
4 -4 -7 9.22 18.86 4.90 o
4 4 -6 1.13 1.51 1.94 <
4 -4 -6 1.13 3.79 3.86 <
4 4 -5 37.34 36.52 3.54 o
4 -4 -5 37.30 41.43 6.16 o
4 4 -4 26.41 26.30 3.03 o
4 -4 -4 26.43 27.59 5.36 o
4 4 -3 22.14 24.33 2.88 o
4 -4 -3 22.22 25.41 5.12 o
4 4 -2 38.24 37.07 3.54 o
4 -4 -2 38.25 42.37 6.16 o
4 4 -1 18.97 21.52 2.85 o
4 -4 -1 18.93 22.16 5.00 o
4 4 0 47.76 43.41 3.88 o
4 -4 0 47.68 43.58 6.35 o
4 4 1 34.10 36.15 3.47 o
4 -4 1 34.07 27.40 5.42 o
4 4 2 8.51 9.64 2.38 o
4 -4 2 8.55 11.51 4.56 <
4 4 3 51.93 52.32 3.99 o
4 -4 3 51.99 54.16 6.40 o
4 4 4 25.78 30.75 3.18 o
4 -4 4 25.81 38.59 5.95 o
4 4 5 0.53 2.48 2.09 <
4 -4 5 0.54 4.27 4.13 <
4 4 6 26.13 35.34 3.42 o
4 -4 6 26.16 35.15 5.96 o
4 4 7 165.25 156.91 7.17 o
4 -4 7 165.41 149.67 7.52 o
4 4 8 104.44 112.73 5.14 o
4 -4 8 104.26 99.66 5.52 o
4 4 9 380.10 337.65 14.58 o
4 -4 9 379.98 362.00 13.16 o
4 4 10 74.14 69.39 4.81 o
4 -4 10 74.22 60.19 5.41 o
4 4 11 23.84 25.67 3.31 o
4 -4 11 23.85 30.07 3.31 o
4 4 12 1.04 2.00 2.42 <
4 -4 12 1.04 3.93 2.35 <
4 4 13 23.50 18.32 3.26 o
4 -4 13 23.51 22.47 3.28 o
4 4 14 8.43 7.00 2.72 <
4 -4 14 8.45 10.90 2.78 o
4 4 15 0.75 3.30 2.50 <
4 -4 15 0.75 5.71 2.58 <
4 4 16 0.90 2.48 3.02 <
4 -4 16 0.92 2.51 2.74 <
4 -5 -14 10.26 7.35 2.72 <
4 5 -13 32.86 31.53 3.42 o
4 -5 -13 32.83 36.40 3.98 o
4 5 -12 63.45 57.47 4.16 o
4 -5 -12 63.44 60.60 4.79 o
4 5 -11 86.64 81.98 4.92 o
4 -5 -11 86.75 91.26 5.23 o
4 5 -10 139.09 130.74 6.28 o
4 -5 -10 139.06 135.04 6.76 o
4 5 -9 282.37 258.78 10.83 o
4 -5 -9 282.29 263.86 11.06 o
4 5 -8 170.29 156.31 7.42 o
4 -5 -8 170.31 152.60 7.97 o
4 5 -7 19.99 24.30 3.02 o
4 -5 -7 19.93 26.26 3.34 o
4 5 -6 9.68 7.90 2.45 o
4 -5 -6 9.68 7.15 2.76 <
4 5 -5 11.20 13.09 2.66 o
4 -5 -5 11.24 15.43 3.05 o
4 5 -4 67.41 55.98 4.56 o
4 -5 -4 67.50 57.61 4.91 o
4 5 -3 28.01 26.15 3.27 o
4 -5 -3 28.01 26.05 3.49 o
4 5 -2 136.16 119.59 6.57 o
4 -5 -2 136.04 110.37 9.67 o
4 5 -1 41.57 39.04 3.86 o
4 -5 -1 41.53 46.11 6.44 o
4 5 0 18.42 15.18 2.72 o
4 -5 0 18.45 24.60 5.52 o
4 5 1 55.69 53.19 4.25 o
4 -5 1 55.71 49.21 6.90 o
4 5 2 57.91 54.30 4.28 o
4 -5 2 57.89 50.58 6.87 o
4 5 3 11.34 15.59 2.78 o
4 -5 3 11.30 16.29 5.18 o
4 5 4 37.23 36.16 3.77 o
4 -5 4 37.24 43.37 6.53 o
4 5 5 22.58 25.45 3.21 o
4 -5 5 22.57 32.49 5.95 o
4 5 6 6.30 8.26 2.64 o
4 -5 6 6.31 6.81 4.58 <
4 5 7 177.70 160.37 7.94 o
4 -5 7 177.93 150.82 11.52 o
4 5 8 185.63 183.94 7.73 o
4 -5 8 185.57 182.80 11.85 o
4 5 9 86.41 82.62 5.24 o
4 -5 9 86.41 101.93 8.25 o
4 5 10 7.14 8.70 2.67 o
4 -5 10 7.16 16.82 4.94 o
4 5 11 1.78 4.24 2.46 <
4 -5 11 1.79 9.44 4.74 <
4 5 12 25.54 28.06 3.65 o
4 -5 12 25.55 31.58 5.68 o
4 5 13 7.32 9.13 2.98 o
4 -5 13 7.32 18.62 4.80 o
4 5 14 12.90 5.58 2.82 <
4 -5 14 12.92 17.83 4.89 o
4 6 -12 45.88 47.57 3.72 o
4 -6 -12 45.67 44.44 4.59 o
4 6 -11 63.51 55.38 4.38 o
4 -6 -11 63.61 58.27 5.06 o
4 6 -10 32.11 29.63 3.28 o
4 -6 -10 32.19 26.29 3.81 o
4 6 -9 113.66 103.75 5.87 o
4 -6 -9 113.69 111.69 6.24 o
4 6 -8 196.52 177.03 8.41 o
4 -6 -8 196.52 172.51 9.09 o
4 6 -7 61.68 57.31 4.26 o
4 -6 -7 61.63 53.92 5.08 o
4 6 -6 2.50 3.58 2.20 <
4 -6 -6 2.49 2.41 2.77 <
4 6 -5 39.84 38.72 3.61 o
4 -6 -5 39.82 36.21 4.32 o
4 6 -4 30.99 37.19 3.48 o
4 -6 -4 30.95 25.45 5.95 o
4 6 -3 23.92 19.51 3.11 o
4 -6 -3 23.90 20.61 3.57 o
4 6 -2 4.86 4.87 2.32 <
4 -6 -2 4.90 6.27 2.96 <
4 6 -1 7.23 7.38 2.41 o
4 -6 -1 7.24 8.56 2.97 <
4 6 0 71.65 53.31 4.68 o
4 -6 0 71.74 56.24 5.27 o
4 6 1 70.85 66.81 4.71 o
4 -6 1 70.80 70.79 5.23 o
4 6 2 97.19 100.08 5.20 o
4 -6 2 97.13 86.06 8.94 o
4 6 3 0.96 4.92 2.41 <
4 -6 3 0.97 4.12 4.71 <
4 6 4 16.62 13.41 2.76 o
4 -6 4 16.59 18.61 5.65 o
4 6 5 4.60 5.24 2.48 <
4 -6 5 4.63 5.14 4.83 <
4 6 6 3.41 4.37 2.39 <
4 -6 6 3.39 6.97 5.01 <
4 6 7 8.10 8.10 2.64 o
4 -6 7 8.06 9.75 5.06 <
4 6 8 13.58 18.51 3.02 o
4 -6 8 13.58 13.91 5.33 <
4 6 9 26.10 25.07 3.42 o
4 -6 9 26.08 31.97 6.14 o
4 6 10 12.38 9.31 2.92 o
4 -6 10 12.41 17.93 5.39 o
4 6 11 96.33 79.30 5.98 o
4 -6 11 96.35 84.26 8.61 o
4 7 -8 3.23 0.53 2.21 <
4 -7 -8 3.22 1.85 3.17 <
4 7 -7 7.28 7.66 2.51 o
4 -7 -7 7.32 3.82 3.21 <
4 7 -6 5.40 8.54 2.58 o
4 -7 -6 5.37 2.74 3.18 <
4 7 -5 2.78 5.22 2.37 <
4 -7 -5 2.79 3.89 3.15 <
4 7 -4 14.37 10.80 2.83 o
4 -7 -4 14.38 8.00 3.48 <
4 7 -3 8.99 7.22 2.60 <
4 -7 -3 8.99 4.23 3.12 <
4 7 -2 0.41 0.68 2.20 <
4 -7 -2 0.41 -1.31 2.93 <
4 7 -1 16.62 15.25 2.95 o
4 -7 -1 16.64 15.21 3.68 o
4 7 0 2.90 3.63 2.39 <
4 -7 0 2.89 -0.85 2.88 <
4 7 1 13.91 12.45 2.78 o
4 -7 1 13.89 11.29 3.43 o
4 7 2 21.09 23.85 3.33 o
4 -7 2 21.08 17.70 3.67 o
4 7 3 9.77 7.85 2.73 <
4 -7 3 9.80 7.56 3.17 <
4 7 4 14.84 16.17 3.05 o
4 -7 4 14.83 12.02 5.67 <
4 7 5 16.64 14.07 2.92 o
4 -7 5 16.72 15.13 5.90 <
4 7 6 1.01 1.88 2.43 <
4 -7 6 1.01 2.74 5.14 <
4 7 7 7.77 7.25 2.69 <
4 -7 7 7.77 9.57 5.44 <
4 7 8 5.03 5.99 2.93 <
4 -7 8 5.05 5.47 5.18 <
5 0 -9 5.04 11.32 4.24 <
5 0 -8 0.27 11.54 4.10 <
5 0 -7 0.09 5.61 2.42 <
5 0 -6 15.02 15.13 3.27 o
5 0 -5 159.78 164.03 6.99 o
5 0 -4 12.21 19.36 2.96 o
5 0 -3 9.42 16.61 2.84 o
5 0 -2 30.13 35.99 3.78 o
5 0 -1 25.06 25.73 3.33 o
5 0 0 20.83 19.33 3.18 o
5 0 1 1.64 4.21 2.32 <
5 0 2 1.01 11.80 4.73 <
5 0 3 19.97 18.90 3.10 o
5 0 4 3.47 12.01 2.86 o
5 0 5 271.10 246.54 11.03 o
5 0 6 1.10 8.64 2.61 o
5 0 7 0.64 4.70 2.48 <
5 0 8 8.97 9.70 2.71 o
5 0 9 3.53 3.67 2.44 <
5 1 -9 2.62 4.90 2.41 <
5 -1 -9 2.62 13.93 4.46 o
5 1 -8 25.92 48.43 6.65 o
5 -1 -8 26.00 53.14 6.76 o
5 1 -7 190.88 187.45 8.16 o
5 -1 -7 190.86 194.92 11.80 o
5 1 -6 363.82 344.29 13.48 o
5 -1 -6 363.57 358.49 18.31 o
5 1 -5 214.38 193.84 9.44 o
5 -1 -5 214.46 224.70 12.43 o
5 1 -4 38.47 48.08 4.19 o
5 -1 -4 38.54 68.17 7.05 o
5 1 -3 2.39 14.50 4.38 o
5 -1 -3 2.42 13.00 4.51 <
5 1 -2 7.86 8.73 2.65 o
5 -1 -2 7.86 17.00 4.78 o
5 1 -1 7.31 13.74 2.78 o
5 -1 -1 7.33 11.08 2.93 o
5 1 0 6.17 9.66 2.60 o
5 -1 0 6.15 10.11 2.64 o
5 1 1 12.72 13.39 2.74 o
5 -1 1 12.68 16.57 2.98 o
5 1 2 7.19 13.75 2.90 o
5 -1 2 7.18 13.34 2.88 o
5 1 3 56.33 56.33 4.45 o
5 -1 3 56.44 53.20 4.45 o
5 1 4 99.69 88.90 5.76 o
5 -1 4 99.77 92.21 5.71 o
5 1 5 2.70 9.14 2.68 o
5 -1 5 2.69 9.28 2.72 o
5 1 6 3.61 10.54 2.60 o
5 -1 6 3.61 9.82 2.70 o
5 1 7 4.27 9.72 2.65 o
5 -1 7 4.27 12.45 2.84 o
5 1 8 1.93 5.28 2.56 <
5 -1 8 1.93 8.62 2.78 o
5 2 -8 12.16 9.23 3.24 <
5 2 -7 54.39 55.85 4.42 o
5 -2 -7 54.33 53.64 7.16 o
5 2 -6 85.97 77.89 5.43 o
5 -2 -6 86.10 81.49 8.21 o
5 2 -5 42.89 47.05 4.27 o
5 -2 -5 42.93 52.70 7.03 o
5 2 -4 10.37 14.49 2.86 o
5 -2 -4 10.33 19.52 5.04 o
5 2 -3 44.14 45.51 4.22 o
5 -2 -3 44.22 57.18 7.05 o
5 2 -2 112.86 110.44 5.98 o
5 -2 -2 113.05 111.56 9.26 o
5 2 -1 9.09 13.88 2.83 o
5 -2 -1 9.09 23.97 5.29 o
5 2 0 5.36 10.05 2.65 o
5 -2 0 5.33 16.44 4.98 o
5 2 1 10.24 8.56 2.74 o
5 -2 1 10.21 17.80 5.22 o
5 2 2 4.69 9.14 2.71 o
5 -2 2 4.66 11.80 4.72 <
5 2 3 3.06 6.93 2.61 <
5 -2 3 3.06 10.60 4.59 <
5 2 4 1.32 4.46 2.53 <
5 -2 4 1.31 9.23 4.64 <
5 2 5 2.48 5.12 2.66 <
5 -2 5 2.49 10.96 4.85 <
5 2 6 6.62 7.16 2.70 <
5 -2 6 6.61 20.27 5.32 o
5 2 7 13.60 17.05 3.16 o
5 -2 7 13.57 19.56 3.41 o
5 3 -6 12.84 13.39 3.58 o
5 3 -5 29.72 36.21 3.96 o
5 -3 -5 29.78 44.98 6.70 o
5 3 -4 11.84 13.96 3.10 o
5 -3 -4 11.82 17.49 4.96 o
5 3 -3 0.48 0.87 2.48 <
5 -3 -3 0.47 2.73 4.11 <
5 3 -2 47.02 44.60 4.49 o
5 -3 -2 47.10 56.96 7.22 o
5 3 -1 27.93 24.91 3.69 o
5 -3 -1 27.82 31.51 5.94 o
5 3 0 49.87 43.96 4.73 o
5 -3 0 49.86 57.15 7.48 o
5 3 1 3.98 6.50 2.81 <
5 -3 1 3.99 8.29 4.53 <
5 3 2 3.10 6.43 2.71 <
5 -3 2 3.07 13.97 5.14 <
5 3 3 4.16 6.30 2.90 <
5 -3 3 4.14 9.76 4.85 <
5 3 4 5.18 6.80 2.68 <
5 -3 4 5.17 16.19 5.21 o
5 3 5 61.93 54.13 5.04 o
5 -3 5 61.97 65.25 7.92 o
