#------------------------------------------------------------------------------
#$Date: 2019-11-24 21:37:12 +0200 (Sun, 24 Nov 2019) $
#$Revision: 239489 $
#$URL: file:///home/coder/svn-repositories/cod/cif/4/51/67/4516727.cif $
#------------------------------------------------------------------------------
#
# This file is available in the Crystallography Open Database (COD),
# http://www.crystallography.net/
#
# All data on this site have been placed in the public domain by the
# contributors.
#
data_4516727
loop_
_publ_author_name
'Eisink, Niek N. H. M.'
'Witte, Martin D.'
'Minnaard, Adriaan J.'
_publ_section_title
;
 Regioselective Carbohydrate Oxidations: A Nuclear Magnetic Resonance
 (NMR) Study on Selectivity, Rate, and Side-Product Formation.
;
_journal_issue                   2
_journal_name_full               'ACS catalysis'
_journal_page_first              1438
_journal_page_last               1445
_journal_paper_doi               10.1021/acscatal.6b03459
_journal_volume                  7
_journal_year                    2017
_chemical_absolute_configuration ad
_chemical_formula_sum            'C33 H40 O7'
_chemical_formula_weight         548.65
_space_group_crystal_system      triclinic
_space_group_IT_number           1
_space_group_name_Hall           'P 1'
_space_group_name_H-M_alt        'P 1'
_atom_sites_solution_hydrogens   geom
_audit_creation_method           SHELXL-2014
_cell_angle_alpha                67.3845(10)
_cell_angle_beta                 81.2585(10)
_cell_angle_gamma                88.6059(11)
_cell_formula_units_Z            1
_cell_length_a                   6.1366(2)
_cell_length_b                   11.2261(4)
_cell_length_c                   11.6894(4)
_cell_measurement_reflns_used    9904
_cell_measurement_temperature    100(2)
_cell_measurement_theta_max      27.95
_cell_measurement_theta_min      3.23
_cell_volume                     734.21(4)
_computing_cell_refinement       'Bruker SAINT'
_computing_data_collection       'Bruker APEX2'
_computing_data_reduction        'Bruker SAINT'
_computing_structure_refinement  'SHELXL-2014 (Sheldrick, 2014)'
_computing_structure_solution    'SHELXS-97 (Sheldrick 2008)'
_diffrn_ambient_temperature      100(2)
_diffrn_measured_fraction_theta_full 0.999
_diffrn_measured_fraction_theta_max 0.998
_diffrn_measurement_device_type  'Bruker APEX-II CCD'
_diffrn_measurement_method       '\f and \w scans'
_diffrn_radiation_type           MoK\a
_diffrn_radiation_wavelength     0.71073
_diffrn_reflns_av_R_equivalents  0.0196
_diffrn_reflns_av_unetI/netI     0.0198
_diffrn_reflns_Laue_measured_fraction_full 0.999
_diffrn_reflns_Laue_measured_fraction_max 0.998
_diffrn_reflns_limit_h_max       8
_diffrn_reflns_limit_h_min       -8
_diffrn_reflns_limit_k_max       14
_diffrn_reflns_limit_k_min       -14
_diffrn_reflns_limit_l_max       15
_diffrn_reflns_limit_l_min       -15
_diffrn_reflns_number            21077
_diffrn_reflns_point_group_measured_fraction_full 0.992
_diffrn_reflns_point_group_measured_fraction_max 0.991
_diffrn_reflns_theta_full        25.242
_diffrn_reflns_theta_max         27.937
_diffrn_reflns_theta_min         3.228
_exptl_absorpt_coefficient_mu    0.086
_exptl_absorpt_correction_T_max  0.7456
_exptl_absorpt_correction_T_min  0.7102
_exptl_absorpt_correction_type   multi-scan
_exptl_absorpt_process_details   SADABS
_exptl_crystal_colour            colourless
_exptl_crystal_density_diffrn    1.241
_exptl_crystal_description       needle
_exptl_crystal_F_000             294
_exptl_crystal_size_max          0.650
_exptl_crystal_size_mid          0.430
_exptl_crystal_size_min          0.170
_refine_diff_density_max         0.238
_refine_diff_density_min         -0.221
_refine_diff_density_rms         0.039
_refine_ls_abs_structure_details
;
 Flack x determined using 3251 quotients [(I+)-(I-)]/[(I+)+(I-)]
 (Parsons, Flack and Wagner, Acta Cryst. B69 (2013) 249-259).
;
_refine_ls_abs_structure_Flack   -0.1(2)
_refine_ls_extinction_method     none
_refine_ls_goodness_of_fit_ref   1.068
_refine_ls_hydrogen_treatment    constr
_refine_ls_matrix_type           full
_refine_ls_number_parameters     362
_refine_ls_number_reflns         6984
_refine_ls_number_restraints     3
_refine_ls_restrained_S_all      1.068
_refine_ls_R_factor_all          0.0346
_refine_ls_R_factor_gt           0.0331
_refine_ls_shift/su_max          0.000
_refine_ls_shift/su_mean         0.000
_refine_ls_structure_factor_coef Fsqd
_refine_ls_weighting_details
'w=1/[\s^2^(Fo^2^)+(0.0399P)^2^+0.1804P] where P=(Fo^2^+2Fc^2^)/3'
_refine_ls_weighting_scheme      calc
_refine_ls_wR_factor_gt          0.0820
_refine_ls_wR_factor_ref         0.0831
_reflns_Friedel_coverage         0.985
_reflns_Friedel_fraction_full    0.986
_reflns_Friedel_fraction_max     0.983
_reflns_number_gt                6761
_reflns_number_total             6984
_reflns_threshold_expression     'I > 2\s(I)'
_cod_data_source_file            cs6b03459_si_002.cif
_cod_data_source_block           mo_molan249_0m
_cod_database_code               4516727
_shelx_space_group_comment
;
The symmetry employed for this shelxl refinement is uniquely defined
by the following loop, which should always be used as a source of
symmetry information in preference to the above space-group names.
They are only intended as comments.
;
_shelx_estimated_absorpt_t_min   0.946
_shelx_estimated_absorpt_t_max   0.986
_shelxl_version_number           2014-3
_shelx_res_file
;
TITL mo_molan249_0m in P1
CELL 0.71073   6.13660  11.22610  11.68940  67.3845  81.2585  88.6059
ZERR    1.00   0.00020   0.00040   0.00040   0.0010   0.0010   0.0011
LATT -1
SFAC C  H  O
UNIT 33 40 7
LIST 4 ! automatically inserted. Change 6 to 4 for CHECKCIF!!
L.S. 10
BOND
acta
FMAP 2
PLAN 5
SIZE 0.17 0.43 0.65
TEMP -173.170
WGHT    0.039900    0.180400
FVAR       0.34471
MOLE 1
O1    3   -0.028487   -0.271241    0.696299    11.00000    0.02767    0.01726 =
         0.01521   -0.00202   -0.00805   -0.00481
O2    3    0.072636   -0.306960    0.511859    11.00000    0.06111    0.02445 =
         0.02732   -0.01628   -0.02288    0.02146
O3    3   -0.144395   -0.099120    0.375504    11.00000    0.02003    0.02032 =
         0.01425   -0.00553   -0.00607   -0.00088
O4    3    0.010841    0.102490    0.451869    11.00000    0.02218    0.01298 =
         0.01197   -0.00268   -0.00393    0.00371
O5    3    0.350578    0.005047    0.600584    11.00000    0.01390    0.01521 =
         0.01979   -0.00720   -0.00268    0.00059
O6    3    0.328288   -0.373071    0.838901    11.00000    0.03187    0.01645 =
         0.01495   -0.00530   -0.00953    0.00721
O7    3    0.309470    0.076034    0.760904    11.00000    0.02871    0.02402 =
         0.01519   -0.00822   -0.00261   -0.00377
C1    1   -0.087459   -0.260515    0.580838    11.00000    0.03396    0.01583 =
         0.01879   -0.00396   -0.01075   -0.00200
AFIX  13
H1    2   -0.228684   -0.311313    0.597922    11.00000   -1.20000
AFIX   0
C6    1    0.238229   -0.248671    0.812951    11.00000    0.02657    0.01449 =
         0.01643   -0.00505   -0.00751    0.00330
AFIX  23
H6A   2    0.348541   -0.187448    0.815936    11.00000   -1.20000
H6B   2    0.106427   -0.253781    0.875337    11.00000   -1.20000
AFIX   0
C2    1   -0.123678   -0.118631    0.501273    11.00000    0.01817    0.01595 =
         0.01361   -0.00420   -0.00314   -0.00053
AFIX  13
H2    2   -0.261901   -0.091309    0.540395    11.00000   -1.20000
AFIX   0
C3    1    0.068382   -0.029678    0.493037    11.00000    0.01722    0.01236 =
         0.01266   -0.00407   -0.00250    0.00268
AFIX  13
H3    2    0.195683   -0.038911    0.432924    11.00000   -1.20000
AFIX   0
C4    1    0.142888   -0.060795    0.620463    11.00000    0.01423    0.01411 =
         0.01336   -0.00387   -0.00231   -0.00037
AFIX  13
H4    2    0.030687   -0.032678    0.675593    11.00000   -1.20000
AFIX   0
C5    1    0.176323   -0.204706    0.682604    11.00000    0.02074    0.01292 =
         0.01460   -0.00456   -0.00467    0.00131
AFIX  13
H5    2    0.291945   -0.230919    0.627608    11.00000   -1.20000
AFIX   0
C7    1    0.108850   -0.441191    0.580590    11.00000    0.13170    0.03028 =
         0.05198   -0.02675   -0.05894    0.04368
AFIX 137
H7A   2    0.199086   -0.476125    0.524902    11.00000   -1.50000
H7B   2   -0.033387   -0.489134    0.612781    11.00000   -1.50000
H7C   2    0.185502   -0.449690    0.650877    11.00000   -1.50000
AFIX   0
C8    1   -0.333107   -0.162856    0.365817    11.00000    0.01816    0.03637 =
         0.01876   -0.00904   -0.00490   -0.00249
AFIX  23
H8A   2   -0.467776   -0.133241    0.403881    11.00000   -1.20000
H8B   2   -0.325438   -0.257161    0.411972    11.00000   -1.20000
AFIX   0
C9    1   -0.344387   -0.134131    0.229794    11.00000    0.01864    0.01679 =
         0.01938   -0.00648   -0.00634    0.00372
C10   1   -0.542906   -0.158072    0.196336    11.00000    0.01811    0.02204 =
         0.02490   -0.01038   -0.00574    0.00125
AFIX  43
H10   2   -0.670369   -0.187743    0.258315    11.00000   -1.20000
AFIX   0
C11   1   -0.554488   -0.138590    0.072519    11.00000    0.02253    0.02828 =
         0.02915   -0.01430   -0.01211    0.00126
AFIX  43
H11   2   -0.689997   -0.154892    0.050260    11.00000   -1.20000
AFIX   0
C12   1   -0.368905   -0.095411   -0.018771    11.00000    0.02985    0.02717 =
         0.02076   -0.01241   -0.00992    0.00264
AFIX  43
H12   2   -0.377147   -0.082855   -0.103119    11.00000   -1.20000
AFIX   0
C13   1   -0.171396   -0.070676    0.013675    11.00000    0.02222    0.02098 =
         0.02058   -0.00731   -0.00372    0.00022
AFIX  43
H13   2   -0.044394   -0.040709   -0.048603    11.00000   -1.20000
AFIX   0
C14   1   -0.159389   -0.089789    0.137541    11.00000    0.01632    0.01917 =
         0.02111   -0.00754   -0.00665    0.00241
AFIX  43
H14   2   -0.024034   -0.072459    0.159291    11.00000   -1.20000
AFIX   0
C15   1    0.006404    0.169443    0.321353    11.00000    0.06502    0.01608 =
         0.01598   -0.00322   -0.01167    0.00372
AFIX  23
H15A  2   -0.128869    0.144198    0.298309    11.00000   -1.20000
H15B  2    0.136183    0.148475    0.271847    11.00000   -1.20000
AFIX   0
C16   1    0.010202    0.312211    0.295080    11.00000    0.03397    0.01609 =
         0.01250   -0.00264   -0.00339    0.00243
C17   1   -0.164006    0.387162    0.247019    11.00000    0.02310    0.03333 =
         0.01755   -0.00587   -0.00229   -0.00568
AFIX  43
H17   2   -0.283314    0.349018    0.228367    11.00000   -1.20000
AFIX   0
C18   1   -0.163461    0.518412    0.226208    11.00000    0.02764    0.03163 =
         0.02274   -0.00245   -0.00219    0.01344
AFIX  43
H18   2   -0.282664    0.569274    0.193748    11.00000   -1.20000
AFIX   0
C19   1    0.009879    0.574097    0.252742    11.00000    0.04461    0.01696 =
         0.02388   -0.00634    0.00367    0.00296
AFIX  43
H19   2    0.008879    0.662937    0.239977    11.00000   -1.20000
AFIX   0
C20   1    0.184771    0.500779    0.297833    11.00000    0.03108    0.02772 =
         0.02217   -0.00921   -0.00263   -0.00613
AFIX  43
H20   2    0.305871    0.539592    0.314264    11.00000   -1.20000
AFIX   0
C21   1    0.183868    0.371162    0.319065    11.00000    0.02609    0.02740 =
         0.01824   -0.00670   -0.00658    0.00640
AFIX  43
H21   2    0.304573    0.321337    0.350732    11.00000   -1.20000
AFIX   0
C22   1    0.361782   -0.434178    0.967007    11.00000    0.03101    0.01821 =
         0.01401   -0.00403   -0.00823    0.00727
AFIX  23
H22A  2    0.218736   -0.466928    1.021850    11.00000   -1.20000
H22B  2    0.427915   -0.371124    0.993345    11.00000   -1.20000
AFIX   0
C23   1    0.513664   -0.544431    0.978692    11.00000    0.02329    0.01702 =
         0.01258   -0.00473   -0.00648    0.00268
C24   1    0.438384   -0.672465    1.042019    11.00000    0.01954    0.01821 =
         0.01651   -0.00354   -0.00256   -0.00065
AFIX  43
H24   2    0.287073   -0.691825    1.076959    11.00000   -1.20000
AFIX   0
C25   1    0.583775   -0.772338    1.054420    11.00000    0.02848    0.01637 =
         0.02176   -0.00501   -0.00677    0.00093
AFIX  43
H25   2    0.531965   -0.859527    1.098693    11.00000   -1.20000
AFIX   0
C26   1    0.803172   -0.744614    1.002368    11.00000    0.02519    0.02575 =
         0.02669   -0.01251   -0.00948    0.00897
AFIX  43
H26   2    0.902422   -0.812767    1.011273    11.00000   -1.20000
AFIX   0
C27   1    0.879193   -0.617043    0.936891    11.00000    0.01753    0.03226 =
         0.02227   -0.00958   -0.00273   -0.00078
AFIX  43
H27   2    1.029751   -0.598216    0.900010    11.00000   -1.20000
AFIX   0
C28   1    0.735667   -0.517627    0.925475    11.00000    0.02564    0.01992 =
         0.01766   -0.00364   -0.00522   -0.00435
AFIX  43
H28   2    0.788337   -0.430598    0.881187    11.00000   -1.20000
AFIX   0
C29   1    0.343607    0.116429    0.627325    11.00000    0.01689    0.01570 =
         0.01676   -0.00703   -0.00381    0.00127
AFIX  13
H29   2    0.220338    0.171034    0.591449    11.00000   -1.20000
AFIX   0
C30   1    0.561844    0.189641    0.569622    11.00000    0.01851    0.02035 =
         0.02076   -0.00731   -0.00045   -0.00206
AFIX  23
H30A  2    0.581030    0.217456    0.477296    11.00000   -1.20000
H30B  2    0.683549    0.132518    0.600533    11.00000   -1.20000
AFIX   0
C31   1    0.571083    0.307591    0.603419    11.00000    0.02788    0.02293 =
         0.03157   -0.01071   -0.00289   -0.00750
AFIX  23
H31A  2    0.719950    0.349980    0.572543    11.00000   -1.20000
H31B  2    0.462806    0.370427    0.562790    11.00000   -1.20000
AFIX   0
C32   1    0.518982    0.266418    0.745227    11.00000    0.04107    0.03236 =
         0.03206   -0.01953   -0.00555   -0.00787
AFIX  23
H32A  2    0.640700    0.215395    0.784763    11.00000   -1.20000
H32B  2    0.505692    0.343874    0.766413    11.00000   -1.20000
AFIX   0
C33   1    0.304220    0.185604    0.795863    11.00000    0.03735    0.03639 =
         0.02629   -0.02057    0.00072   -0.00481
AFIX  23
H33A  2    0.277094    0.155328    0.888471    11.00000   -1.20000
H33B  2    0.180676    0.240071    0.763235    11.00000   -1.20000
AFIX   0
HKLF 4

REM  mo_molan249_0m in P1
REM R1 =  0.0331 for    6761 Fo > 4sig(Fo)  and  0.0346 for all    6984 data
REM    362 parameters refined using      3 restraints

END

WGHT      0.0399      0.1804

REM Highest difference peak  0.238,  deepest hole -0.221,  1-sigma level  0.039
Q1    1   0.1432  0.1748  0.3210  11.00000  0.05    0.24
Q2    1   0.1614 -0.1376  0.6572  11.00000  0.05    0.23
Q3    1   0.1043 -0.0436  0.5568  11.00000  0.05    0.22
Q4    1   0.4547  0.1580  0.5979  11.00000  0.05    0.21
Q5    1   0.0697  0.5250  0.3005  11.00000  0.05    0.21
;
_shelx_res_checksum              21254
_shelx_hkl_file
;
  -1   0   0   39.48    0.74
  -1   0   0   39.43    0.69
   1   0   0   39.80    0.69
   1   0   0   38.49    0.76
   1   0   0   39.07    0.73
   1   0   0   40.28    0.72
  -2   0   0   35.67    0.67
  -2   0   0   35.93    0.72
  -2   0   0   36.13    0.68
   2   0   0   35.44    0.68
   2   0   0   36.44    0.66
   2   0   0   36.06    0.72
   2   0   0   36.59    0.68
  -3   0   0    5.22    0.17
  -3   0   0    5.13    0.13
  -3   0   0    5.80    0.17
  -3   0   0    5.61    0.13
   3   0   0    5.61    0.17
   3   0   0    5.61    0.18
   3   0   0    5.55    0.13
  -4   0   0   28.24    0.55
  -4   0   0   27.92    0.55
  -4   0   0   27.99    0.59
  -4   0   0   27.82    0.62
   4   0   0   29.06    0.56
   4   0   0   27.83    0.64
   4   0   0   28.60    0.56
   4   0   0   29.32    0.59
   4   0   0   28.65    0.58
  -5   0   0    2.60    0.17
  -5   0   0    2.62    0.17
   5   0   0    2.87    0.16
   5   0   0    2.69    0.09
   5   0   0    2.53    0.13
   5   0   0    2.60    0.22
   6   0   0   27.76    0.58
   6   0   0   27.37    0.65
  -7   0   0    4.35    0.26
   7   0   0    4.75    0.29
   7   0   0    4.33    0.18
   7  -1   0    2.19    0.26
  -7   1   0    1.79    0.20
   6  -1   0    5.19    0.17
   6  -1   0    5.29    0.25
  -6   1   0    4.90    0.24
   5  -1   0    9.60    0.35
   5  -1   0   10.00    0.30
   5  -1   0   10.12    0.24
  -5   1   0    9.36    0.30
   4  -1   0    3.45    0.11
   4  -1   0    3.03    0.17
   4  -1   0    3.38    0.10
   4  -1   0    3.35    0.09
   4  -1   0    3.28    0.15
  -4   1   0    3.25    0.09
  -4   1   0    3.43    0.16
  -4   1   0    3.19    0.09
   3  -1   0    4.12    0.16
   3  -1   0    4.30    0.12
   3  -1   0    4.41    0.11
   3  -1   0    4.28    0.11
   3  -1   0    4.07    0.14
  -3   1   0    4.01    0.10
  -3   1   0    3.99    0.13
  -3   1   0    4.14    0.15
  -3   1   0    4.03    0.10
   2  -1   0   27.04    0.53
   2  -1   0   26.43    0.55
   2  -1   0   26.92    0.51
   2  -1   0   27.20    0.52
  -2   1   0   25.25    0.51
  -2   1   0   26.37    0.50
  -2   1   0   26.42    0.50
   1  -1   0   60.54    1.09
   1  -1   0   60.05    1.11
   1  -1   0   59.33    1.11
   1  -1   0   59.84    1.10
  -1   1   0   65.12    1.09
  -1   1   0   62.86    1.13
  -1   1   0   60.80    1.15
  -1   1   0   61.45    1.16
  -1  -1   0   82.54    1.56
  -1  -1   0   85.68    1.58
  -1  -1   0   86.55    1.46
  -1  -1   0   80.21    1.58
  -1  -1   0   84.34    1.44
   1   1   0   78.87    1.52
   1   1   0   82.78    1.39
   1   1   0   82.26    1.51
  -2  -1   0    2.46    0.09
  -2  -1   0    2.36    0.08
  -2  -1   0    2.53    0.08
  -2  -1   0    2.42    0.10
   2   1   0    2.43    0.09
   2   1   0    2.41    0.08
   2   1   0    2.33    0.09
   2   1   0    2.43    0.09
   2   1   0    2.38    0.08
  -3  -1   0   38.04    0.78
  -3  -1   0   37.68    0.72
  -3  -1   0   37.91    0.73
  -3  -1   0   38.22    0.74
   3   1   0   39.99    0.80
   3   1   0   39.12    0.76
   3   1   0   38.53    0.76
   3   1   0   39.23    0.74
  -4  -1   0   92.00    1.65
  -4  -1   0   91.14    1.58
  -4  -1   0   90.33    1.61
  -4  -1   0   75.25    1.64
  -4  -1   0   88.98    1.74
   4   1   0   92.52    1.75
   4   1   0   94.53    1.68
   4   1   0   93.38    1.83
  -5  -1   0   13.53    0.38
  -5  -1   0   14.26    0.39
  -5  -1   0   14.08    0.30
  -5  -1   0   13.87    0.31
   5   1   0   13.86    0.41
   5   1   0   14.48    0.37
   5   1   0   14.81    0.31
  -6  -1   0    2.83    0.20
  -6  -1   0    2.84    0.20
   6   1   0    2.84    0.20
   6   1   0    2.78    0.16
  -7  -1   0    1.63    0.21
   7   1   0    1.87    0.20
   7   1   0    2.00    0.18
   7  -2   0    2.90    0.28
  -7   2   0    2.19    0.21
   6  -2   0    9.95    0.23
   6  -2   0   10.00    0.34
  -6   2   0    9.58    0.34
   5  -2   0   40.58    0.77
   5  -2   0   40.36    0.82
   5  -2   0   39.20    0.92
  -5   2   0   38.13    0.80
   4  -2   0    7.80    0.18
   4  -2   0    7.73    0.27
   4  -2   0    7.70    0.18
   4  -2   0    7.60    0.23
   4  -2   0    7.71    0.19
  -4   2   0    7.54    0.17
  -4   2   0    7.72    0.24
  -4   2   0    7.52    0.18
   3  -2   0   52.56    1.00
   3  -2   0   52.03    1.06
   3  -2   0   52.48    0.98
  -3   2   0   52.22    0.98
  -3   2   0   52.27    0.98
  -3   2   0   51.69    1.00
   2  -2   0   66.02    1.29
   2  -2   0   65.94    1.22
   2  -2   0   66.07    1.24
   2  -2   0   66.65    1.22
   2  -2   0   65.89    1.24
  -2   2   0   62.84    1.22
  -2   2   0   64.90    1.20
  -2   2   0   65.24    1.21
  -2   2   0   66.07    1.20
   1  -2   0  319.71    5.93
   1  -2   0  311.21    5.83
   1  -2   0  317.69    5.68
   1  -2   0  317.07    5.92
  -1   2   0  306.39    5.90
  -1   2   0  326.00    5.78
  -1   2   0  320.15    5.99
  -1   2   0  334.14    5.56
  -1   2   0  313.17    5.98
   0  -2   0   82.84    1.53
   0  -2   0   80.99    1.53
   0   2   0   78.65    1.50
   0   2   0   81.27    1.50
   0   2   0   81.30    1.50
  -1  -2   0  137.31    2.56
  -1  -2   0  134.84    2.60
  -1  -2   0  145.18    2.38
  -1  -2   0  133.61    2.38
   1   2   0  135.78    2.57
   1   2   0  137.49    2.34
   1   2   0  138.92    2.55
  -2  -2   0   41.82    0.77
  -2  -2   0   43.41    0.79
  -2  -2   0   42.09    0.83
  -2  -2   0   43.70    0.82
  -2  -2   0   42.02    0.84
   2   2   0   42.70    0.82
   2   2   0   42.44    0.77
   2   2   0   42.19    0.82
  -3  -2   0  278.42    5.26
  -3  -2   0  270.60    5.20
  -3  -2   0  274.52    5.18
  -3  -2   0  291.86    4.85
  -3  -2   0  283.12    4.78
   3   2   0  262.22    5.01
   3   2   0  280.14    4.62
   3   2   0  268.18    5.00
  -4  -2   0   94.61    1.76
  -4  -2   0   95.56    1.83
  -4  -2   0   98.14    1.82
  -4  -2   0   96.89    1.73
  -4  -2   0   96.30    1.90
   4   2   0   96.18    1.70
   4   2   0   93.09    1.80
   4   2   0   94.88    1.79
  -5  -2   0   16.10    0.42
  -5  -2   0   17.17    0.45
  -5  -2   0   16.62    0.37
  -5  -2   0   16.36    0.42
   5   2   0   16.67    0.41
   5   2   0   16.76    0.37
  -6  -2   0    4.71    0.15
  -6  -2   0    5.22    0.25
  -6  -2   0    4.89    0.24
  -6  -2   0    4.78    0.17
   6   2   0    5.09    0.16
   6   2   0    4.93    0.24
  -7  -2   0    1.28    0.18
   7   2   0    1.07    0.13
   7   2   0    1.33    0.17
   7   2   0    1.15    0.14
   7  -3   0    0.66    0.17
  -7   3   0    0.61    0.14
   6  -3   0    1.00    0.14
  -6   3   0    0.88    0.13
   5  -3   0    3.54    0.12
   5  -3   0    3.36    0.11
   5  -3   0    3.37    0.19
   5  -3   0    3.37    0.11
  -5   3   0    3.25    0.19
  -5   3   0    3.13    0.11
  -5   3   0    3.50    0.10
   4  -3   0   17.20    0.35
   4  -3   0   17.32    0.37
   4  -3   0   16.76    0.45
  -4   3   0   14.24    0.34
  -4   3   0   16.46    0.39
  -4   3   0   16.75    0.34
  -4   3   0   16.34    0.38
   3  -3   0    2.06    0.07
   3  -3   0    2.11    0.09
   3  -3   0    2.05    0.08
   3  -3   0    1.93    0.12
  -3   3   0    2.09    0.08
  -3   3   0    2.16    0.12
  -3   3   0    1.97    0.09
  -3   3   0    2.12    0.08
  -3   3   0    2.13    0.10
   2  -3   0   10.60    0.24
   2  -3   0   10.28    0.23
   2  -3   0   10.42    0.22
   2  -3   0   10.31    0.23
  -2   3   0   10.60    0.24
  -2   3   0   10.61    0.23
  -2   3   0   10.11    0.24
  -2   3   0   10.20    0.23
  -2   3   0   10.33    0.23
   1  -3   0  140.38    2.60
   1  -3   0  138.72    2.60
   1  -3   0  143.61    2.50
   1  -3   0  136.43    2.56
  -1   3   0  135.59    2.56
  -1   3   0  138.61    2.57
  -1   3   0  136.69    2.47
  -1   3   0  140.95    2.57
   0  -3   0  104.65    1.96
   0  -3   0  106.33    1.96
   0  -3   0  101.78    1.78
   0   3   0  106.66    1.97
   0   3   0  104.18    1.97
   0   3   0  103.97    1.93
  -1  -3   0   80.75    1.57
  -1  -3   0   84.30    1.43
  -1  -3   0   83.22    1.57
   1   3   0   82.02    1.56
   1   3   0   82.90    1.42
  -2  -3   0   18.73    0.39
  -2  -3   0   19.65    0.39
  -2  -3   0   19.56    0.41
  -2  -3   0   18.92    0.41
   2   3   0   19.28    0.41
   2   3   0   19.16    0.41
   2   3   0   19.32    0.38
  -3  -3   0   41.85    0.84
  -3  -3   0   42.47    0.80
  -3  -3   0   41.30    0.79
  -3  -3   0   41.85    0.83
  -3  -3   0   42.26    0.86
   3   3   0   40.94    0.77
   3   3   0   40.78    0.82
   3   3   0   41.58    0.82
  -4  -3   0   44.97    0.91
  -4  -3   0   45.46    0.95
  -4  -3   0   44.80    0.88
  -4  -3   0   46.17    0.90
  -4  -3   0   44.80    0.89
   4   3   0   45.39    0.89
   4   3   0   43.70    0.90
   4   3   0   45.81    0.86
  -5  -3   0    8.06    0.28
  -5  -3   0    8.50    0.30
  -5  -3   0    8.18    0.24
  -5  -3   0    8.60    0.28
  -5  -3   0    8.75    0.23
   5   3   0    8.60    0.23
   5   3   0    8.52    0.27
   5   3   0    7.94    0.24
  -6  -3   0    1.28    0.11
  -6  -3   0    1.37    0.18
  -6  -3   0    1.49    0.17
  -6  -3   0    1.50    0.13
   6   3   0    1.48    0.13
   6   3   0    1.93    0.19
  -7  -3   0    3.06    0.25
  -7  -3   0    2.89    0.15
   7   3   0    3.07    0.18
   7   3   0    2.96    0.26
   7  -4   0    1.92    0.22
  -7   4   0    2.04    0.25
   6  -4   0    8.70    0.33
  -6   4   0    8.59    0.33
   5  -4   0   23.17    0.46
   5  -4   0   23.21    0.48
   5  -4   0   23.51    0.50
  -5   4   0   22.67    0.46
  -5   4   0   21.88    0.47
  -5   4   0   21.82    0.53
   4  -4   0    0.94    0.09
   4  -4   0    0.94    0.07
   4  -4   0    0.84    0.13
   4  -4   0    0.99    0.07
  -4   4   0    1.01    0.12
  -4   4   0    0.96    0.10
  -4   4   0    1.07    0.09
  -4   4   0    0.95    0.07
   3  -4   0   17.16    0.37
   3  -4   0   16.67    0.37
   3  -4   0   17.05    0.35
  -3   4   0   17.56    0.37
  -3   4   0   16.90    0.36
  -3   4   0   16.66    0.38
  -3   4   0   16.47    0.38
  -3   4   0   16.77    0.36
   2  -4   0   34.49    0.69
   2  -4   0   33.68    0.68
   2  -4   0   34.82    0.66
  -2   4   0   34.25    0.67
  -2   4   0   34.99    0.69
  -2   4   0   33.67    0.68
  -2   4   0   35.27    0.65
  -2   4   0   32.63    0.67
   1  -4   0  131.18    2.43
   1  -4   0  131.10    2.42
   1  -4   0  123.63    2.38
   1  -4   0  130.79    2.32
  -1   4   0  132.16    2.41
  -1   4   0  131.67    2.45
  -1   4   0  128.26    2.45
  -1   4   0  131.06    2.35
   0  -4   0   17.78    0.38
   0  -4   0   17.53    0.39
   0  -4   0   18.15    0.35
   0   4   0   17.95    0.39
   0   4   0   17.41    0.37
   0   4   0   17.50    0.38
   0   4   0   17.90    0.34
  -1  -4   0   36.07    0.65
  -1  -4   0   34.74    0.72
  -1  -4   0   35.51    0.71
   1   4   0   34.37    0.64
   1   4   0   35.10    0.71
   1   4   0   34.91    0.71
   1   4   0   35.36    0.68
  -2  -4   0   20.46    0.44
  -2  -4   0   20.19    0.41
  -2  -4   0   19.94    0.41
  -2  -4   0   20.05    0.44
   2   4   0   19.33    0.39
   2   4   0   19.63    0.43
   2   4   0   19.92    0.43
  -3  -4   0   17.68    0.39
  -3  -4   0   16.73    0.40
  -3  -4   0   16.95    0.38
  -3  -4   0   16.49    0.38
  -3  -4   0   17.04    0.40
   3   4   0   16.47    0.39
   3   4   0   16.83    0.38
   3   4   0   16.77    0.36
  -4  -4   0   27.76    0.60
  -4  -4   0   28.14    0.64
  -4  -4   0   26.91    0.59
  -4  -4   0   29.05    0.60
  -4  -4   0   27.45    0.61
   4   4   0   26.75    0.60
   4   4   0   27.84    0.57
   4   4   0   27.81    0.59
  -5  -4   0   10.79    0.35
  -5  -4   0   10.72    0.31
  -5  -4   0   11.36    0.29
   5   4   0   10.80    0.31
   5   4   0   10.76    0.29
   5   4   0   10.62    0.31
  -6  -4   0    6.07    0.23
  -6  -4   0    6.01    0.29
  -6  -4   0    6.29    0.22
   6   4   0    5.75    0.21
   6   4   0    6.07    0.24
   6   4   0    5.76    0.25
  -7  -4   0   10.12    0.40
  -7  -4   0    9.93    0.37
  -7  -4   0    9.96    0.29
   7   4   0   10.63    0.39
   7   4   0   10.31    0.34
   7   4   0   10.27    0.31
   7  -5   0    2.22    0.23
   6  -5   0    3.21    0.11
   6  -5   0    3.10    0.16
   6  -5   0    3.04    0.14
   6  -5   0    3.28    0.25
  -6   5   0    3.09    0.13
  -6   5   0    3.25    0.15
  -6   5   0    3.27    0.23
   5  -5   0    0.49    0.05
   5  -5   0    0.47    0.07
   5  -5   0    0.42    0.06
  -5   5   0    0.60    0.12
  -5   5   0    0.48    0.06
  -5   5   0    0.54    0.10
   4  -5   0    1.00    0.10
   4  -5   0    0.96    0.09
   4  -5   0    0.98    0.07
  -4   5   0    0.93    0.11
  -4   5   0    1.11    0.12
  -4   5   0    1.02    0.10
  -4   5   0    1.07    0.09
  -4   5   0    1.16    0.10
   3  -5   0    4.23    0.13
   3  -5   0    4.09    0.14
   3  -5   0    4.42    0.15
  -3   5   0    4.28    0.15
  -3   5   0    4.28    0.15
  -3   5   0    4.56    0.15
  -3   5   0    4.11    0.16
  -3   5   0    4.47    0.16
   2  -5   0    5.37    0.17
   2  -5   0    5.33    0.17
   2  -5   0    5.54    0.15
  -2   5   0    5.47    0.16
  -2   5   0    5.52    0.17
  -2   5   0    5.60    0.17
  -2   5   0    5.31    0.17
  -2   5   0    5.45    0.16
   1  -5   0  340.85    6.32
   1  -5   0  337.05    6.23
   1  -5   0  333.98    6.27
  -1   5   0  345.65    6.36
  -1   5   0  344.61    6.09
  -1   5   0  332.52    6.38
  -1   5   0  340.86    6.33
   0  -5   0   80.28    1.53
   0  -5   0   77.34    1.52
   0  -5   0   79.59    1.39
   0   5   0   79.81    1.55
   0   5   0   79.83    1.55
   0   5   0   82.99    1.45
   0   5   0   78.74    1.51
  -1  -5   0   22.87    0.45
  -1  -5   0   23.17    0.50
  -1  -5   0   22.13    0.50
   1   5   0   22.86    0.50
   1   5   0   23.20    0.48
   1   5   0   22.67    0.50
   1   5   0   23.21    0.45
  -2  -5   0    3.54    0.14
  -2  -5   0    3.75    0.13
  -2  -5   0    3.67    0.14
   2   5   0    3.67    0.14
   2   5   0    3.66    0.12
   2   5   0    3.41    0.12
   2   5   0    3.60    0.15
  -3  -5   0    0.11    0.05
  -3  -5   0    0.13    0.05
  -3  -5   0    0.11    0.05
  -3  -5   0    0.07    0.05
   3   5   0    0.12    0.06
   3   5   0    0.07    0.04
   3   5   0    0.10    0.05
  -4  -5   0    1.92    0.13
  -4  -5   0    1.94    0.14
  -4  -5   0    1.97    0.15
  -4  -5   0    1.92    0.14
  -4  -5   0    1.87    0.13
   4   5   0    1.88    0.13
   4   5   0    1.74    0.14
   4   5   0    1.78    0.13
  -5  -5   0   15.22    0.38
  -5  -5   0   15.09    0.40
  -5  -5   0   14.71    0.41
  -5  -5   0   14.78    0.40
  -5  -5   0   15.23    0.43
   5   5   0   14.76    0.40
   5   5   0   14.48    0.36
  -6  -5   0    0.63    0.11
  -6  -5   0    0.82    0.11
  -6  -5   0    0.72    0.14
  -6  -5   0    0.50    0.14
   6   5   0    0.79    0.13
   6   5   0    0.68    0.12
   6   5   0    0.78    0.11
  -7  -5   0    2.82    0.24
  -7  -5   0    3.07    0.28
  -7  -5   0    2.60    0.24
  -7  -5   0    2.88    0.27
   7   5   0    2.94    0.23
   7   5   0    2.73    0.27
   7   5   0    3.00    0.28
   7   5   0    3.38    0.23
   7  -6   0    0.29    0.19
  -7   6   0    0.47    0.16
   6  -6   0    2.01    0.15
   6  -6   0    2.48    0.17
  -6   6   0    1.95    0.14
  -6   6   0    2.20    0.22
  -6   6   0    2.14    0.16
   5  -6   0    4.02    0.13
   5  -6   0    3.53    0.16
   5  -6   0    3.77    0.18
  -5   6   0    3.72    0.17
  -5   6   0    4.03    0.16
  -5   6   0    3.86    0.20
  -5   6   0    3.75    0.22
  -5   6   0    3.87    0.18
   4  -6   0    0.76    0.08
   4  -6   0    0.80    0.09
   4  -6   0    0.72    0.10
  -4   6   0    0.84    0.11
  -4   6   0    0.80    0.09
  -4   6   0    0.78    0.10
  -4   6   0    0.94    0.11
  -4   6   0    0.78    0.09
   3  -6   0   23.31    0.51
   3  -6   0   22.24    0.50
   3  -6   0   23.10    0.48
  -3   6   0   22.29    0.49
  -3   6   0   23.52    0.51
  -3   6   0   22.62    0.50
  -3   6   0   22.71    0.50
  -3   6   0   23.06    0.51
   2  -6   0    6.06    0.19
   2  -6   0    6.15    0.19
   2  -6   0    6.25    0.17
  -2   6   0    6.39    0.20
  -2   6   0    6.31    0.18
  -2   6   0    6.33    0.18
  -2   6   0    6.28    0.20
  -2   6   0    6.06    0.19
   1  -6   0   71.74    1.41
   1  -6   0   71.98    1.41
  -1   6   0   73.70    1.37
  -1   6   0   73.79    1.45
  -1   6   0   75.75    1.41
  -1   6   0   73.22    1.45
   0  -6   0   18.96    0.43
   0  -6   0   17.76    0.37
   0  -6   0   17.90    0.42
   0   6   0   18.15    0.43
   0   6   0   18.96    0.43
   0   6   0   18.47    0.41
   0   6   0   18.61    0.37
  -1  -6   0   21.45    0.49
  -1  -6   0   21.27    0.44
  -1  -6   0   21.26    0.49
   1   6   0   21.83    0.50
   1   6   0   21.96    0.47
  -2  -6   0   13.16    0.34
  -2  -6   0   12.52    0.30
  -2  -6   0   12.89    0.34
   2   6   0   12.56    0.33
   2   6   0   12.46    0.29
   2   6   0   12.38    0.30
   2   6   0   12.81    0.33
  -3  -6   0   17.19    0.42
  -3  -6   0   16.55    0.40
  -3  -6   0   16.48    0.42
   3   6   0   16.39    0.41
   3   6   0   16.97    0.37
   3   6   0   16.30    0.42
   3   6   0   16.06    0.38
  -4  -6   0   26.08    0.59
  -4  -6   0   24.81    0.60
  -4  -6   0   25.65    0.61
   4   6   0   24.51    0.58
   4   6   0   24.58    0.53
   4   6   0   24.09    0.54
   4   6   0   24.91    0.57
  -5  -6   0    7.80    0.30
  -5  -6   0    8.05    0.28
  -5  -6   0    7.82    0.28
   5   6   0    7.60    0.26
   5   6   0    7.83    0.30
   5   6   0    8.05    0.28
   5   6   0    7.72    0.27
  -6  -6   0    1.16    0.19
  -6  -6   0    1.16    0.14
  -6  -6   0    1.14    0.15
  -6  -6   0    1.17    0.14
  -6  -6   0    1.11    0.17
   6   6   0    1.07    0.15
   6   6   0    1.25    0.13
   6   6   0    0.97    0.13
   6   6   0    0.96    0.16
  -7  -6   0    3.10    0.31
  -7  -6   0    3.45    0.26
  -7  -6   0    2.96    0.29
  -7  -6   0    3.22    0.39
   7   6   0    3.70    0.32
   7   6   0    3.29    0.28
   7   6   0    3.24    0.26
   7  -7   0    7.06    0.44
   6  -7   0    0.83    0.12
  -6   7   0    0.80    0.15
   5  -7   0    1.58    0.14
   5  -7   0    1.88    0.17
  -5   7   0    2.08    0.16
  -5   7   0    1.98    0.19
  -5   7   0    1.98    0.17
  -5   7   0    1.83    0.17
  -5   7   0    1.82    0.14
   4  -7   0    2.34    0.15
   4  -7   0    2.30    0.14
  -4   7   0    2.52    0.17
  -4   7   0    2.36    0.16
  -4   7   0    2.39    0.15
  -4   7   0    2.32    0.15
   3  -7   0    1.81    0.13
   3  -7   0    1.56    0.13
  -3   7   0    1.86    0.14
  -3   7   0    1.77    0.12
  -3   7   0    1.71    0.14
  -3   7   0    1.75    0.12
  -3   7   0    1.94    0.13
   2  -7   0    7.36    0.23
   2  -7   0    7.19    0.23
  -2   7   0    7.25    0.24
  -2   7   0    7.55    0.22
  -2   7   0    9.04    0.24
  -2   7   0    7.66    0.24
   1  -7   0   11.09    0.30
   1  -7   0   10.85    0.30
  -1   7   0   11.46    0.31
  -1   7   0   11.59    0.29
  -1   7   0   11.39    0.27
  -1   7   0   11.04    0.31
   0  -7   0    2.39    0.11
   0  -7   0    2.26    0.13
   0  -7   0    2.30    0.13
   0   7   0    2.45    0.12
   0   7   0    2.41    0.14
   0   7   0    2.30    0.13
   0   7   0    2.36    0.10
  -1  -7   0    5.75    0.18
  -1  -7   0    5.29    0.20
  -1  -7   0    5.68    0.21
   1   7   0    5.41    0.20
   1   7   0    5.66    0.21
   1   7   0    5.68    0.18
  -2  -7   0   52.78    1.07
  -2  -7   0   51.10    1.08
  -2  -7   0   51.83    0.98
   2   7   0   51.10    1.07
   2   7   0   51.38    1.06
   2   7   0   51.63    0.96
   2   7   0   51.29    1.02
  -3  -7   0   51.29    1.05
  -3  -7   0   49.71    0.98
   3   7   0   50.12    1.04
   3   7   0   49.06    0.94
   3   7   0   48.64    1.04
   3   7   0   49.57    1.00
  -4  -7   0    3.63    0.20
  -4  -7   0    3.81    0.21
  -4  -7   0    3.46    0.20
   4   7   0    3.55    0.18
   4   7   0    3.24    0.20
   4   7   0    3.60    0.22
   4   7   0    3.68    0.18
  -5  -7   0    0.19    0.10
  -5  -7   0    0.08    0.09
  -5  -7   0   -0.08    0.10
  -5  -7   0   -0.02    0.09
   5   7   0   -0.07    0.09
   5   7   0    0.35    0.09
   5   7   0    0.22    0.12
   5   7   0    0.06    0.10
  -6  -7   0    1.18    0.16
  -6  -7   0    0.90    0.16
  -6  -7   0    1.10    0.20
  -6  -7   0    1.14    0.17
   6   7   0    0.84    0.14
   6   7   0    1.13    0.14
   6   7   0    0.70    0.14
   6   7   0    0.88    0.18
   6  -8   0    1.81    0.17
   6  -8   0    1.59    0.19
  -6   8   0    1.48    0.15
  -6   8   0    1.91    0.20
  -6   8   0    1.52    0.20
   5  -8   0    0.36    0.11
   5  -8   0    0.42    0.09
  -5   8   0    0.39    0.11
  -5   8   0    0.15    0.08
  -5   8   0    0.43    0.13
  -5   8   0    0.48    0.11
  -5   8   0    0.43    0.10
   4  -8   0    0.83    0.10
   4  -8   0    1.01    0.14
  -4   8   0    1.22    0.15
  -4   8   0    1.01    0.13
  -4   8   0    1.21    0.16
  -4   8   0    0.97    0.11
   3  -8   0    6.76    0.24
   3  -8   0    6.86    0.26
  -3   8   0    7.53    0.26
  -3   8   0    7.16    0.24
  -3   8   0    7.17    0.24
  -3   8   0    7.06    0.24
  -3   8   0    6.87    0.25
   2  -8   0   22.42    0.52
   2  -8   0   21.29    0.52
  -2   8   0   22.43    0.53
  -2   8   0   22.05    0.51
  -2   8   0   22.57    0.49
  -2   8   0   22.14    0.53
   1  -8   0   13.58    0.33
   1  -8   0   13.49    0.37
   1  -8   0   14.06    0.37
  -1   8   0   14.11    0.35
  -1   8   0   14.10    0.38
  -1   8   0   13.70    0.32
  -1   8   0   14.49    0.38
   0  -8   0    6.90    0.24
   0  -8   0    6.89    0.21
   0  -8   0    6.68    0.24
   0   8   0    6.76    0.24
   0   8   0    6.68    0.18
   0   8   0    6.82    0.22
   0   8   0    6.80    0.24
  -1  -8   0    2.16    0.12
  -1  -8   0    2.06    0.15
  -1  -8   0    2.14    0.16
   1   8   0    2.05    0.13
   1   8   0    2.13    0.16
   1   8   0    2.19    0.16
   1   8   0    2.06    0.10
  -2  -8   0   39.56    0.85
  -2  -8   0   37.32    0.78
   2   8   0   38.14    0.84
   2   8   0   38.07    0.85
  -3  -8   0   22.15    0.52
  -3  -8   0   23.19    0.56
   3   8   0   22.87    0.56
   3   8   0   22.31    0.52
   3   8   0   21.99    0.57
  -4  -8   0   22.27    0.57
  -4  -8   0   22.87    0.57
   4   8   0   21.43    0.58
   4   8   0   21.99    0.50
   4   8   0   22.03    0.53
   4   8   0   21.85    0.56
  -5  -8   0    1.75    0.23
  -5  -8   0    2.31    0.24
  -5  -8   0    1.97    0.23
  -5  -8   0    1.90    0.24
   5   8   0    2.13    0.21
   5   8   0    2.16    0.27
   5   8   0    2.27    0.23
   5   8   0    2.50    0.21
  -6  -8   0    3.97    0.35
  -6  -8   0    5.03    0.32
  -6  -8   0    5.21    0.32
  -6  -8   0    4.04    0.36
   6   8   0    4.26    0.28
   6   8   0    4.90    0.32
   6   8   0    3.87    0.29
   6   8   0    4.29    0.38
   6  -9   0    0.26    0.15
  -6   9   0    0.27    0.16
  -6   9   0    0.48    0.16
  -6   9   0    0.34    0.13
   5  -9   0    0.79    0.13
   5  -9   0    0.68    0.14
  -5   9   0    0.91    0.13
  -5   9   0    0.83    0.14
  -5   9   0    0.59    0.14
  -5   9   0    0.63    0.13
  -5   9   0    0.80    0.14
   4  -9   0    6.00    0.26
   4  -9   0    5.71    0.25
  -4   9   0    6.37    0.27
  -4   9   0    6.29    0.27
  -4   9   0    6.47    0.26
  -4   9   0    6.66    0.28
   3  -9   0   19.63    0.49
   3  -9   0   18.95    0.50
  -3   9   0   20.07    0.48
  -3   9   0   19.69    0.48
  -3   9   0   20.08    0.52
  -3   9   0   19.98    0.49
   2  -9   0    4.30    0.20
   2  -9   0    3.99    0.20
  -2   9   0    4.24    0.22
  -2   9   0    4.33    0.18
  -2   9   0    4.31    0.19
   1  -9   0   10.90    0.34
   1  -9   0   11.12    0.34
  -1   9   0   10.78    0.34
  -1   9   0   10.95    0.32
  -1   9   0   10.69    0.28
  -1   9   0   10.77    0.33
   0  -9   0    1.10    0.14
   0  -9   0    0.92    0.11
   0   9   0    0.94    0.12
   0   9   0    0.97    0.12
   0   9   0    1.06    0.10
  -1  -9   0    2.09    0.17
  -1  -9   0    1.86    0.13
  -1  -9   0    2.21    0.18
   1   9   0    2.02    0.11
   1   9   0    1.96    0.18
   1   9   0    1.99    0.18
  -2  -9   0    4.38    0.23
  -2  -9   0    4.43    0.23
   2   9   0    4.66    0.23
   2   9   0    3.60    0.18
   2   9   0    4.45    0.24
   3   9   0    5.07    0.22
   3   9   0    5.43    0.22
   3   9   0    5.25    0.28
   3   9   0    5.01    0.26
  -4  -9   0    1.13    0.16
  -4  -9   0    0.87    0.15
  -4  -9   0    0.89    0.13
   4   9   0    1.00    0.14
   4   9   0    0.83    0.16
   4   9   0    0.90    0.12
   4   9   0    1.02    0.13
  -5  -9   0    2.95    0.28
  -5  -9   0    3.76    0.30
  -5  -9   0    2.90    0.30
  -5  -9   0    3.35    0.28
   5   9   0    3.32    0.24
   5   9   0    2.84    0.24
   5   9   0    3.56    0.34
   5   9   0    2.87    0.29
   5 -10   0    1.61    0.19
   5 -10   0    1.56    0.18
  -5  10   0    1.49    0.19
  -5  10   0    1.73    0.18
  -5  10   0    1.42    0.18
  -5  10   0    1.65    0.20
  -5  10   0    1.71    0.20
   4 -10   0    9.21    0.35
   4 -10   0    9.11    0.34
  -4  10   0    9.36    0.36
  -4  10   0    9.78    0.33
  -4  10   0    9.35    0.34
  -4  10   0   10.20    0.37
  -4  10   0    9.47    0.35
   3 -10   0    1.46    0.19
   3 -10   0    1.50    0.18
  -3  10   0    1.21    0.16
  -3  10   0    1.50    0.15
  -3  10   0    1.27    0.14
  -3  10   0    1.49    0.21
  -3  10   0    1.50    0.18
   2 -10   0    4.06    0.22
   2 -10   0    4.03    0.23
  -2  10   0    4.02    0.21
  -2  10   0    4.07    0.19
  -2  10   0    4.06    0.24
   1 -10   0    0.71    0.11
   1 -10   0    0.99    0.13
  -1  10   0    0.67    0.11
  -1  10   0    0.87    0.10
  -1  10   0    0.93    0.12
   0 -10   0    2.23    0.20
   0 -10   0    2.03    0.19
   0  10   0    2.11    0.20
   0  10   0    2.13    0.13
  -1 -10   0    5.71    0.28
  -1 -10   0    5.64    0.26
   1  10   0    5.39    0.17
   1  10   0    5.59    0.27
   1  10   0    5.17    0.26
  -2 -10   0    0.06    0.06
  -2 -10   0    0.29    0.10
   2  10   0    0.34    0.12
   2  10   0    0.38    0.09
   2  10   0    0.29    0.07
   2  10   0    0.33    0.10
  -3 -10   0    0.82    0.12
  -3 -10   0    1.14    0.18
   3  10   0    1.13    0.15
   3  10   0    0.98    0.12
   3  10   0    1.21    0.17
  -4 -10   0    1.52    0.20
  -4 -10   0    1.69    0.19
  -4 -10   0    2.04    0.27
   4  10   0    1.65    0.22
   4  10   0    1.90    0.25
   4  10   0    1.49    0.16
   4  10   0    1.44    0.20
  -5 -10   0    3.44    0.34
  -5 -10   0    3.59    0.29
  -5 -10   0    3.58    0.35
   5  10   0    3.25    0.34
   5  10   0    3.72    0.42
   5  10   0    3.41    0.30
   5  10   0    3.18    0.30
   4 -11   0    1.45    0.19
   4 -11   0    1.08    0.17
  -4  11   0    1.48    0.18
  -4  11   0    1.67    0.19
  -4  11   0    1.66    0.19
  -4  11   0    1.64    0.19
   3 -11   0    4.72    0.28
   3 -11   0    4.27    0.28
  -3  11   0    5.14    0.23
  -3  11   0    4.71    0.28
  -3  11   0    4.40    0.24
  -3  11   0    4.94    0.31
   2 -11   0    7.63    0.33
   2 -11   0    5.90    0.25
   1 -11   0    0.23    0.12
   1 -11   0    0.30    0.11
   1 -11   0    0.02    0.08
  -1  11   0    0.16    0.08
  -1  11   0    0.25    0.13
  -1  11   0    0.32    0.12
  -1  11   0   -0.02    0.08
   0 -11   0    7.16    0.31
   0 -11   0    6.96    0.32
   0  11   0    7.16    0.33
   0  11   0    6.66    0.32
   0  11   0    6.79    0.22
  -1 -11   0    0.35    0.10
  -1 -11   0    0.62    0.14
  -1 -11   0    0.34    0.11
   1  11   0    0.57    0.09
   1  11   0    0.42    0.13
   1  11   0    0.45    0.14
  -2 -11   0    4.64    0.29
  -2 -11   0    4.57    0.24
  -2 -11   0    4.20    0.29
   2  11   0    4.38    0.32
   2  11   0    3.87    0.24
   2  11   0    4.05    0.29
  -3 -11   0    1.09    0.15
  -3 -11   0    1.07    0.16
  -3 -11   0    0.95    0.18
   3  11   0    0.89    0.17
   3  11   0    1.14    0.20
   3  11   0    0.93    0.15
  -4 -11   0    3.32    0.33
  -4 -11   0    3.71    0.35
   4  11   0    3.16    0.34
   4  11   0    2.61    0.28
   4  11   0    2.91    0.27
  -4  12   0    2.00    0.24
  -4  12   0    1.98    0.21
  -4  12   0    2.09    0.24
   3 -12   0    3.47    0.30
   3 -12   0    2.69    0.32
   3 -12   0    2.27    0.25
  -3  12   0    3.33    0.29
  -3  12   0    2.91    0.23
  -3  12   0    2.62    0.31
  -3  12   0    3.33    0.21
   2 -12   0    1.22    0.19
   2 -12   0    1.32    0.15
  -2  12   0    0.99    0.14
  -2  12   0    1.29    0.20
  -2  12   0    0.97    0.16
  -2  12   0    1.15    0.13
   1 -12   0    1.99    0.21
   1 -12   0    2.33    0.28
   1 -12   0    1.72    0.18
  -1  12   0    2.02    0.17
  -1  12   0    1.98    0.27
  -1  12   0    2.52    0.24
  -1  12   0    2.66    0.28
   0 -12   0    2.53    0.29
   0 -12   0    2.44    0.21
   0 -12   0    1.94    0.25
   0  12   0    1.90    0.22
   0  12   0    1.85    0.16
   0  12   0    2.30    0.28
   0  12   0    2.26    0.28
  -1 -12   0    3.39    0.24
  -1 -12   0    3.80    0.32
  -1 -12   0    3.41    0.29
   1  12   0    3.48    0.31
   1  12   0    3.84    0.33
   1  12   0    3.48    0.25
  -2 -12   0    3.65    0.27
  -2 -12   0    3.32    0.32
  -2 -12   0    3.26    0.33
   2  12   0    3.16    0.35
   2  12   0    3.39    0.27
   2  12   0    3.84    0.33
  -3 -12   0   -0.24    0.16
  -3 -12   0    0.27    0.18
   3  12   0   -0.09    0.16
   3  12   0    0.38    0.22
   2 -13   0    0.59    0.21
  -2  13   0    0.20    0.17
  -2  13   0    0.26    0.18
   1 -13   0    0.36    0.15
   1 -13   0    0.32    0.14
   1 -13   0    0.60    0.21
  -1  13   0    0.00    0.16
  -1  13   0    0.24    0.12
  -1  13   0   -0.03    0.14
  -1  13   0    0.56    0.19
   0 -13   0    3.05    0.39
   0 -13   0    3.55    0.26
   0 -13   0    2.31    0.32
   0  13   0    3.01    0.20
   0  13   0    3.18    0.29
   0  13   0    3.50    0.36
   0  13   0    3.23    0.36
  -1 -13   0    6.19    0.39
  -1 -13   0    6.08    0.42
   1  13   0    5.58    0.45
   1  13   0    6.83    0.42
  -2 -13   0    0.43    0.20
   2  13   0    0.20    0.22
   1  13  -1    4.04    0.42
   1  13  -1    3.24    0.22
   1  13  -1    3.93    0.45
  -1 -13   1    2.38    0.25
   0  13  -1    1.23    0.16
   0  13  -1    1.09    0.23
   0 -13   1    1.27    0.20
   0 -13   1    0.90    0.23
  -1  13  -1    0.28    0.20
  -1  13  -1    0.28    0.13
   1 -13   1    0.27    0.21
   2  12  -1    0.33    0.15
   2  12  -1    0.52    0.20
   2  12  -1    0.37    0.12
   2  12  -1    0.28    0.20
  -2 -12   1    0.00    0.16
  -2 -12   1    0.21    0.16
  -2 -12   1    0.50    0.18
   1  12  -1    1.22    0.13
   1  12  -1    0.83    0.15
   1  12  -1    1.01    0.21
   1  12  -1    1.21    0.20
  -1 -12   1    1.17    0.18
  -1 -12   1    0.77    0.13
  -1 -12   1    0.92    0.19
   0  12  -1    3.64    0.27
   0  12  -1    4.21    0.35
   0  12  -1    3.85    0.21
   0  12  -1    4.40    0.34
   0 -12   1    3.80    0.30
   0 -12   1    3.76    0.26
   0 -12   1    3.82    0.34
  -1  12  -1    0.52    0.13
  -1  12  -1    0.29    0.14
  -1  12  -1    0.59    0.17
  -1  12  -1    0.21    0.16
   1 -12   1    0.52    0.17
   1 -12   1    0.55    0.13
   1 -12   1    0.41    0.14
  -2  12  -1    3.71    0.33
  -2  12  -1    3.87    0.30
  -2  12  -1    3.43    0.32
   2 -12   1    4.08    0.36
   2 -12   1    3.64    0.25
   2 -12   1    3.40    0.29
  -3  12  -1    6.79    0.29
  -3  12  -1    5.81    0.36
  -3  12  -1    6.93    0.30
  -3  12  -1    6.78    0.41
   3 -12   1    6.68    0.42
   3 -12   1    6.60    0.36
   4  11  -1    1.31    0.27
   4  11  -1    0.50    0.19
  -4 -11   1    1.28    0.23
   3  11  -1    1.33    0.16
   3  11  -1    1.14    0.22
   3  11  -1    0.84    0.18
  -3 -11   1    0.98    0.20
  -3 -11   1    0.93    0.19
  -3 -11   1    0.74    0.16
   2  11  -1    1.55    0.21
   2  11  -1    1.56    0.16
   2  11  -1    1.51    0.19
   2  11  -1    1.46    0.15
  -2 -11   1    1.59    0.20
  -2 -11   1    1.43    0.19
  -2 -11   1    1.19    0.15
   1  11  -1    0.68    0.11
   1  11  -1    0.75    0.15
   1  11  -1    0.55    0.16
  -1 -11   1    0.56    0.14
  -1 -11   1    0.91    0.15
   0  11  -1    5.61    0.21
   0  11  -1    5.33    0.27
   0  11  -1    5.61    0.32
   0  11  -1    5.65    0.32
   0 -11   1    5.98    0.30
   0 -11   1    5.95    0.33
  -1  11  -1    0.43    0.13
  -1  11  -1    0.40    0.10
  -1  11  -1    0.34    0.13
  -1  11  -1    0.26    0.11
   1 -11   1    0.11    0.09
   1 -11   1    0.39    0.11
   1 -11   1    0.32    0.12
  -2  11  -1    1.68    0.17
  -2  11  -1    1.52    0.17
   2 -11   1    1.69    0.18
   2 -11   1    1.48    0.18
   2 -11   1    1.25    0.16
  -3  11  -1    0.43    0.12
  -3  11  -1    0.19    0.15
  -3  11  -1    0.44    0.12
  -3  11  -1    0.23    0.13
  -3  11  -1    0.35    0.14
   3 -11   1    0.74    0.16
   3 -11   1    0.32    0.11
   3 -11   1    0.27    0.13
  -4  11  -1    0.92    0.20
  -4  11  -1    1.40    0.19
  -4  11  -1    1.22    0.16
  -4  11  -1    1.52    0.18
  -4  11  -1    1.16    0.18
   4 -11   1    1.12    0.18
   4 -11   1    1.50    0.20
   4  10  -1    2.00    0.24
   4  10  -1    1.98    0.24
   4  10  -1    2.44    0.30
   4  10  -1    1.99    0.24
  -4 -10   1    2.24    0.30
  -4 -10   1    2.02    0.22
  -4 -10   1    2.40    0.32
   3  10  -1    1.35    0.17
   3  10  -1    1.24    0.18
   3  10  -1    1.45    0.19
  -3 -10   1    1.18    0.17
  -3 -10   1    1.32    0.17
  -3 -10   1    1.22    0.14
   2  10  -1    9.39    0.36
   2  10  -1    9.18    0.32
   2  10  -1    9.49    0.38
  -2 -10   1    9.19    0.37
  -2 -10   1    9.92    0.38
   1  10  -1    9.02    0.35
   1  10  -1    8.60    0.24
   1  10  -1    8.76    0.36
  -1 -10   1    8.68    0.35
  -1 -10   1    8.96    0.34
   0  10  -1    9.29    0.26
   0  10  -1    9.26    0.35
   0  10  -1    9.15    0.35
   0 -10   1    9.06    0.35
   0 -10   1    9.69    0.34
  -1  10  -1    0.65    0.10
  -1  10  -1    0.63    0.11
  -1  10  -1    0.58    0.13
   1 -10   1    0.51    0.11
   1 -10   1    0.32    0.08
  -2  10  -1    0.09    0.09
  -2  10  -1    0.11    0.10
   2 -10   1    0.05    0.07
   2 -10   1    0.07    0.09
   2 -10   1    0.06    0.10
  -3  10  -1    0.64    0.13
  -3  10  -1    0.74    0.12
  -3  10  -1    0.79    0.12
  -3  10  -1    0.70    0.13
   3 -10   1    0.39    0.10
   3 -10   1    0.80    0.13
  -4  10  -1    0.02    0.12
  -4  10  -1    0.06    0.12
  -4  10  -1    0.12    0.10
  -4  10  -1    0.05    0.11
   4 -10   1    0.01    0.13
   4 -10   1   -0.06    0.11
  -5  10  -1    1.70    0.21
  -5  10  -1    1.58    0.19
  -5  10  -1    1.87    0.20
  -5  10  -1    1.37    0.19
   5 -10   1    1.23    0.17
   5 -10   1    1.65    0.19
   5   9  -1   -0.04    0.18
   5   9  -1    0.15    0.16
   5   9  -1   -0.13    0.13
   5   9  -1   -0.07    0.13
  -5  -9   1   -0.18    0.13
  -5  -9   1   -0.10    0.16
  -5  -9   1    0.01    0.16
  -5  -9   1    0.10    0.17
   4   9  -1    0.46    0.13
   4   9  -1    0.50    0.12
   4   9  -1    0.50    0.11
  -4  -9   1    0.55    0.13
  -4  -9   1    0.41    0.14
  -4  -9   1    0.56    0.14
  -4  -9   1    0.39    0.12
   3   9  -1    9.24    0.35
   3   9  -1    9.52    0.30
   3   9  -1    9.46    0.31
  -3  -9   1    5.27    0.25
   2   9  -1    1.06    0.14
   2   9  -1    0.90    0.13
  -2  -9   1    1.32    0.18
  -2  -9   1    1.16    0.14
   1   9  -1    1.32    0.11
   1   9  -1    1.35    0.18
  -1  -9   1    1.47    0.17
  -1  -9   1    1.25    0.17
   0   9  -1    2.42    0.14
   0   9  -1    2.57    0.19
   0   9  -1    2.43    0.17
   0   9  -1    2.50    0.19
   0  -9   1    2.62    0.20
  -1   9  -1   15.36    0.37
  -1   9  -1   16.21    0.42
  -1   9  -1   15.42    0.44
  -1   9  -1   15.70    0.44
   1  -9   1   15.94    0.43
   1  -9   1   15.64    0.44
  -2   9  -1    2.56    0.19
  -2   9  -1    2.66    0.16
  -2   9  -1    2.55    0.17
   2  -9   1    2.44    0.15
   2  -9   1    2.71    0.18
   2  -9   1    2.63    0.19
  -3   9  -1    1.44    0.18
  -3   9  -1    1.42    0.16
  -3   9  -1    1.57    0.15
  -3   9  -1    1.59    0.14
   3  -9   1    1.59    0.16
   3  -9   1    1.47    0.18
  -4   9  -1    2.90    0.22
  -4   9  -1    2.49    0.20
  -4   9  -1    2.88    0.20
  -4   9  -1    2.93    0.22
   4  -9   1    2.60    0.21
   4  -9   1    2.53    0.21
  -5   9  -1    4.70    0.25
  -5   9  -1    4.75    0.26
  -5   9  -1    4.80    0.28
  -5   9  -1    4.78    0.27
  -5   9  -1    4.29    0.28
   5  -9   1    4.08    0.26
   5  -9   1    5.07    0.27
  -6   9  -1    1.12    0.16
  -6   9  -1    1.43    0.18
  -6   9  -1    1.30    0.20
  -6   9  -1    1.28    0.23
   6  -9   1    1.37    0.18
   6   8  -1    1.43    0.26
   6   8  -1    1.43    0.19
   6   8  -1    1.39    0.18
   6   8  -1    1.30    0.20
  -6  -8   1    1.68    0.21
  -6  -8   1    1.51    0.21
   5   8  -1    0.19    0.11
   5   8  -1    0.04    0.13
   5   8  -1    0.21    0.12
   5   8  -1    0.35    0.15
  -5  -8   1    0.31    0.14
  -5  -8   1    0.09    0.15
  -5  -8   1    0.29    0.14
  -5  -8   1    0.23    0.12
   4   8  -1    8.79    0.29
   4   8  -1    8.44    0.35
   4   8  -1    8.24    0.32
   4   8  -1    8.19    0.29
  -4  -8   1    9.01    0.34
  -4  -8   1    9.24    0.32
   3   8  -1   14.40    0.44
   3   8  -1   14.36    0.37
   3   8  -1   14.95    0.39
   3   8  -1   14.82    0.43
  -3  -8   1   15.06    0.43
   2   8  -1    9.80    0.33
   2   8  -1    9.66    0.29
  -2  -8   1    9.84    0.29
  -2  -8   1    9.59    0.33
  -2  -8   1    9.89    0.32
   1   8  -1   10.41    0.33
   1   8  -1   10.50    0.34
  -1  -8   1   10.87    0.34
  -1  -8   1   10.23    0.33
   0   8  -1    1.04    0.13
   0   8  -1    0.83    0.10
   0   8  -1    1.19    0.10
   0   8  -1    1.20    0.11
   0  -8   1    1.17    0.11
   0  -8   1    1.23    0.14
   0  -8   1    1.19    0.14
  -1   8  -1   32.44    0.74
  -1   8  -1   33.80    0.72
  -1   8  -1   33.78    0.74
  -1   8  -1   32.99    0.68
   1  -8   1   33.08    0.66
   1  -8   1   32.63    0.74
   1  -8   1   33.35    0.74
  -2   8  -1    4.22    0.18
  -2   8  -1    4.32    0.21
  -2   8  -1    4.34    0.19
   2  -8   1    3.98    0.20
   2  -8   1    3.96    0.19
  -3   8  -1   22.76    0.54
  -3   8  -1   22.68    0.54
  -3   8  -1   22.97    0.51
  -3   8  -1   21.06    0.52
  -3   8  -1   22.39    0.53
   3  -8   1   21.97    0.54
   3  -8   1   21.72    0.53
   3  -8   1   22.22    0.49
  -4   8  -1    2.74    0.20
  -4   8  -1    2.53    0.18
  -4   8  -1    2.89    0.18
  -4   8  -1    2.80    0.19
   4  -8   1    2.86    0.15
   4  -8   1    2.56    0.18
   4  -8   1    2.45    0.18
  -5   8  -1    0.36    0.11
  -5   8  -1    0.32    0.12
  -5   8  -1    0.29    0.12
  -5   8  -1    0.41    0.12
   5  -8   1    0.38    0.10
   5  -8   1    0.15    0.10
  -6   8  -1    1.31    0.18
  -6   8  -1    0.83    0.13
  -6   8  -1    1.16    0.18
  -6   8  -1    1.36    0.18
   6  -8   1    1.16    0.14
   6  -8   1    1.09    0.13
   6   7  -1    0.09    0.14
   6   7  -1    0.29    0.19
   6   7  -1    0.40    0.15
   6   7  -1    0.58    0.13
  -6  -7   1    0.41    0.19
  -6  -7   1    0.41    0.15
  -6  -7   1    0.71    0.15
  -6  -7   1    0.50    0.17
   5   7  -1    0.59    0.13
   5   7  -1    0.47    0.12
   5   7  -1    0.39    0.10
   5   7  -1    0.29    0.11
  -5  -7   1    0.70    0.14
  -5  -7   1    0.57    0.13
  -5  -7   1    0.37    0.13
  -5  -7   1    0.42    0.13
   4   7  -1    0.66    0.13
   4   7  -1    0.50    0.09
   4   7  -1    0.49    0.09
   4   7  -1    0.58    0.10
  -4  -7   1    0.56    0.11
  -4  -7   1    0.47    0.11
   3   7  -1   16.71    0.46
   3   7  -1   16.97    0.41
  -3  -7   1   17.73    0.46
  -3  -7   1   17.44    0.44
   2   7  -1    2.78    0.17
   2   7  -1    2.74    0.16
   2   7  -1    2.76    0.14
   2   7  -1    2.57    0.14
  -2  -7   1    2.95    0.17
  -2  -7   1    2.94    0.15
  -2  -7   1    2.62    0.17
   1   7  -1    8.39    0.27
   1   7  -1    8.39    0.24
   1   7  -1    8.28    0.27
  -1  -7   1    8.60    0.27
  -1  -7   1    8.29    0.27
  -1  -7   1    8.46    0.24
   0   7  -1   18.87    0.46
   0   7  -1   19.07    0.47
   0   7  -1   18.75    0.40
   0   7  -1   18.90    0.44
   0  -7   1   18.23    0.40
   0  -7   1   18.86    0.46
   0  -7   1   18.77    0.45
  -1   7  -1    5.06    0.20
  -1   7  -1    5.42    0.19
  -1   7  -1    5.11    0.17
  -1   7  -1    4.97    0.20
   1  -7   1    5.05    0.17
   1  -7   1    5.16    0.20
   1  -7   1    5.11    0.19
  -2   7  -1   12.06    0.33
  -2   7  -1   11.68    0.31
  -2   7  -1   12.65    0.34
  -2   7  -1   12.07    0.32
   2  -7   1   12.26    0.33
   2  -7   1   12.19    0.33
   2  -7   1   12.38    0.30
  -3   7  -1    4.78    0.19
  -3   7  -1    4.69    0.19
  -3   7  -1    4.64    0.19
  -3   7  -1    4.53    0.19
  -3   7  -1    4.69    0.19
   3  -7   1    4.39    0.19
   3  -7   1    4.63    0.18
   3  -7   1    4.68    0.16
  -4   7  -1    6.58    0.23
  -4   7  -1    6.56    0.25
  -4   7  -1    6.58    0.25
  -4   7  -1    6.71    0.23
   4  -7   1    6.74    0.20
   4  -7   1    6.74    0.23
   4  -7   1    6.65    0.23
  -5   7  -1    1.38    0.16
  -5   7  -1    0.95    0.13
  -5   7  -1    1.42    0.16
  -5   7  -1    1.22    0.15
  -5   7  -1    1.27    0.13
   5  -7   1    1.22    0.11
   5  -7   1    1.21    0.11
   5  -7   1    1.18    0.14
  -6   7  -1    2.80    0.24
  -6   7  -1    3.14    0.22
  -6   7  -1    2.65    0.18
   6  -7   1    2.77    0.20
   6  -7   1    2.89    0.20
   6  -7   1    3.01    0.16
   6   6  -1    0.60    0.14
   6   6  -1    0.69    0.17
   6   6  -1    0.65    0.12
   6   6  -1    0.70    0.14
  -6  -6   1    0.98    0.14
  -6  -6   1    0.71    0.19
  -6  -6   1    0.75    0.15
  -6  -6   1    0.89    0.15
   5   6  -1    3.52    0.21
   5   6  -1    3.17    0.24
   5   6  -1    3.64    0.18
   5   6  -1    3.68    0.21
   4   6  -1   25.31    0.62
   4   6  -1   25.50    0.56
   4   6  -1   24.61    0.58
   4   6  -1   25.48    0.59
  -4  -6   1   26.68    0.62
  -4  -6   1   25.34    0.60
  -4  -6   1   26.20    0.61
  -4  -6   1   26.60    0.64
   3   6  -1   15.44    0.36
   3   6  -1   15.49    0.40
   3   6  -1   15.19    0.37
   3   6  -1   15.82    0.42
  -3  -6   1   15.61    0.39
  -3  -6   1   16.04    0.41
  -3  -6   1   15.45    0.42
   2   6  -1    1.59    0.13
   2   6  -1    1.45    0.10
   2   6  -1    1.50    0.10
   2   6  -1    1.36    0.13
  -2  -6   1    1.52    0.13
  -2  -6   1    1.38    0.12
   1   6  -1    0.42    0.06
   1   6  -1    0.32    0.06
   1   6  -1    0.40    0.07
  -1  -6   1    0.28    0.05
  -1  -6   1    0.35    0.06
  -1  -6   1    0.42    0.07
   0   6  -1   26.94    0.59
   0   6  -1   26.27    0.59
   0   6  -1   27.39    0.57
   0  -6   1   26.70    0.58
   0  -6   1   26.33    0.52
   0  -6   1   26.61    0.59
  -1   6  -1    6.34    0.21
  -1   6  -1    6.21    0.19
  -1   6  -1    5.98    0.18
  -1   6  -1    5.94    0.20
   1  -6   1    5.90    0.20
   1  -6   1    6.22    0.20
   1  -6   1    6.17    0.18
  -2   6  -1    2.86    0.12
  -2   6  -1    3.06    0.14
  -2   6  -1    2.84    0.13
  -2   6  -1    2.85    0.13
  -2   6  -1    2.79    0.13
   2  -6   1    2.98    0.13
   2  -6   1    2.71    0.13
   2  -6   1    2.95    0.12
  -3   6  -1    5.31    0.19
  -3   6  -1    5.20    0.19
  -3   6  -1    5.14    0.19
  -3   6  -1    5.23    0.19
  -3   6  -1    5.19    0.18
   3  -6   1    5.20    0.18
   3  -6   1    5.18    0.16
   3  -6   1    5.06    0.18
  -4   6  -1    4.53    0.19
  -4   6  -1    4.43    0.20
  -4   6  -1    4.43    0.17
  -4   6  -1    4.69    0.18
  -4   6  -1    4.51    0.19
   4  -6   1    4.57    0.17
   4  -6   1    4.61    0.18
   4  -6   1    4.55    0.15
  -5   6  -1    3.36    0.22
  -5   6  -1    3.54    0.20
  -5   6  -1    3.65    0.16
  -5   6  -1    3.65    0.20
  -5   6  -1    3.19    0.15
   5  -6   1    3.38    0.14
   5  -6   1    3.71    0.17
   5  -6   1    3.52    0.16
  -6   6  -1    3.20    0.21
  -6   6  -1    3.02    0.17
  -6   6  -1    3.02    0.25
   6  -6   1    3.11    0.16
   6  -6   1    3.04    0.14
   6  -6   1    3.16    0.17
  -7   6  -1    5.41    0.32
   7  -6   1    4.80    0.38
   7   5  -1    0.27    0.13
   7   5  -1    0.11    0.17
   7   5  -1    0.16    0.13
  -7  -5   1    0.07    0.13
  -7  -5   1    0.10    0.15
  -7  -5   1    0.32    0.14
  -7  -5   1    0.24    0.21
   6   5  -1    0.86    0.11
   6   5  -1    1.01    0.12
   6   5  -1    0.82    0.15
   6   5  -1    0.80    0.13
  -6  -5   1    1.05    0.13
  -6  -5   1    0.64    0.12
  -6  -5   1    1.00    0.15
  -6  -5   1    0.69    0.13
  -6  -5   1    1.00    0.17
   5   5  -1    0.45    0.09
   5   5  -1    0.69    0.11
   5   5  -1    0.63    0.11
   5   5  -1    0.68    0.09
  -5  -5   1    0.53    0.10
  -5  -5   1    0.72    0.11
  -5  -5   1    0.54    0.10
   4   5  -1    6.18    0.20
   4   5  -1    6.19    0.22
   4   5  -1    6.35    0.22
   4   5  -1    6.25    0.24
  -4  -5   1    6.19    0.23
  -4  -5   1    6.45    0.23
  -4  -5   1    5.84    0.21
   3   5  -1   12.93    0.34
   3   5  -1   12.37    0.35
   3   5  -1   13.19    0.31
   3   5  -1   12.95    0.31
  -3  -5   1   13.00    0.35
  -3  -5   1   12.97    0.34
  -3  -5   1   12.68    0.31
  -3  -5   1   12.71    0.33
   2   5  -1    3.55    0.15
   2   5  -1    3.69    0.13
   2   5  -1    3.41    0.13
   2   5  -1    3.54    0.16
  -2  -5   1    3.50    0.14
  -2  -5   1    3.52    0.16
  -2  -5   1    3.59    0.15
   1   5  -1    2.51    0.10
   1   5  -1    2.40    0.12
   1   5  -1    2.52    0.12
  -1  -5   1    2.28    0.12
  -1  -5   1    2.55    0.10
  -1  -5   1    2.48    0.12
   0   5  -1   67.23    1.26
   0   5  -1   65.48    1.29
   0   5  -1   65.32    1.30
   0  -5   1   65.35    1.30
   0  -5   1   66.16    1.17
   0  -5   1   66.03    1.29
  -1   5  -1   40.55    0.82
  -1   5  -1   39.53    0.82
  -1   5  -1   40.43    0.80
  -1   5  -1   40.14    0.77
   1  -5   1   39.60    0.78
   1  -5   1   40.16    0.81
   1  -5   1   39.63    0.81
  -2   5  -1   14.26    0.34
  -2   5  -1   14.48    0.31
  -2   5  -1   14.15    0.33
  -2   5  -1   14.19    0.33
  -2   5  -1   14.87    0.34
   2  -5   1   13.84    0.33
   2  -5   1   14.29    0.32
   2  -5   1   14.03    0.33
  -3   5  -1    2.92    0.14
  -3   5  -1    2.96    0.14
  -3   5  -1    3.34    0.14
  -3   5  -1    3.16    0.12
  -3   5  -1    3.30    0.13
   3  -5   1    3.15    0.12
   3  -5   1    3.08    0.12
   3  -5   1    3.13    0.13
  -4   5  -1    1.23    0.12
  -4   5  -1    1.46    0.10
  -4   5  -1    1.37    0.14
  -4   5  -1    1.28    0.12
  -4   5  -1    1.65    0.10
   4  -5   1    1.30    0.09
   4  -5   1    1.32    0.09
   4  -5   1    1.44    0.10
  -5   5  -1    2.20    0.12
  -5   5  -1    2.50    0.16
  -5   5  -1    2.40    0.12
  -5   5  -1    2.71    0.17
  -5   5  -1    2.39    0.18
   5  -5   1    2.37    0.12
   5  -5   1    2.61    0.13
  -6   5  -1    2.17    0.21
  -6   5  -1    1.95    0.18
   6  -5   1    2.00    0.12
   6  -5   1    2.01    0.23
   7  -5   1    1.64    0.21
   7  -5   1    1.36    0.12
   7   4  -1    3.51    0.21
   7   4  -1    3.38    0.25
   7   4  -1    3.28    0.30
   7   4  -1    3.53    0.27
  -7  -4   1    3.38    0.27
  -7  -4   1    3.02    0.24
  -7  -4   1    3.57    0.25
   6   4  -1    1.00    0.13
   6   4  -1    0.73    0.13
   6   4  -1    0.92    0.13
   6   4  -1    0.88    0.11
  -6  -4   1    0.80    0.15
  -6  -4   1    0.94    0.15
  -6  -4   1    0.59    0.11
  -6  -4   1    0.84    0.11
   5   4  -1    0.62    0.09
   5   4  -1    0.79    0.11
   5   4  -1    0.55    0.10
   5   4  -1    0.65    0.11
  -5  -4   1    0.62    0.11
  -5  -4   1    0.73    0.09
  -5  -4   1    0.59    0.11
  -5  -4   1    0.73    0.11
  -5  -4   1    0.64    0.09
   4   4  -1   34.92    0.76
   4   4  -1   35.14    0.72
   4   4  -1   35.60    0.75
   4   4  -1   35.75    0.71
  -4  -4   1   35.56    0.74
  -4  -4   1   35.05    0.76
  -4  -4   1   35.46    0.75
  -4  -4   1   35.84    0.77
   3   4  -1    1.06    0.10
   3   4  -1    1.24    0.08
   3   4  -1    1.18    0.09
   3   4  -1    1.42    0.10
  -3  -4   1    1.24    0.10
  -3  -4   1    1.35    0.11
  -3  -4   1    1.27    0.11
  -3  -4   1    1.21    0.10
  -3  -4   1    1.26    0.10
   2   4  -1   43.33    0.88
   2   4  -1   43.69    0.88
   2   4  -1   43.26    0.85
  -2  -4   1   44.44    0.84
  -2  -4   1   45.76    0.91
  -2  -4   1   45.65    0.84
  -2  -4   1   44.39    0.91
   1   4  -1    3.85    0.14
   1   4  -1    4.13    0.12
   1   4  -1    3.93    0.14
  -1  -4   1    3.88    0.14
  -1  -4   1    3.69    0.14
  -1  -4   1    3.77    0.12
   0   4  -1   75.69    1.46
   0   4  -1   75.94    1.46
   0   4  -1   76.41    1.43
   0  -4   1   75.63    1.47
   0  -4   1   76.81    1.34
   0  -4   1   76.55    1.43
   0  -4   1   76.77    1.47
  -1   4  -1   87.37    1.70
  -1   4  -1   88.80    1.67
  -1   4  -1   89.17    1.70
  -1   4  -1   91.25    1.63
   1  -4   1   88.97    1.68
   1  -4   1   87.36    1.64
   1  -4   1   88.10    1.68
  -2   4  -1    1.31    0.08
  -2   4  -1    1.49    0.08
  -2   4  -1    1.21    0.07
  -2   4  -1    1.04    0.07
  -2   4  -1    1.31    0.08
   2  -4   1    1.14    0.07
   2  -4   1    1.21    0.07
   2  -4   1    1.28    0.07
  -3   4  -1   16.81    0.36
  -3   4  -1   16.63    0.37
  -3   4  -1   16.23    0.37
  -3   4  -1   16.69    0.36
  -3   4  -1   16.07    0.38
   3  -4   1   16.40    0.35
   3  -4   1   16.81    0.36
   3  -4   1   16.02    0.36
   3  -4   1   16.21    0.42
  -4   4  -1    3.24    0.15
  -4   4  -1    3.16    0.15
  -4   4  -1    3.15    0.16
  -4   4  -1    3.23    0.11
   4  -4   1    3.32    0.21
   4  -4   1    3.27    0.12
   4  -4   1    3.05    0.11
   4  -4   1    3.17    0.12
  -5   4  -1    7.90    0.20
  -5   4  -1    8.01    0.28
  -5   4  -1    8.08    0.20
   5  -4   1    8.32    0.21
   5  -4   1    8.59    0.22
   5  -4   1    8.79    0.22
  -6   4  -1    1.24    0.15
   6  -4   1    0.88    0.10
   6  -4   1    1.28    0.15
  -7   4  -1    0.52    0.15
   7  -4   1    0.78    0.08
   7  -4   1    0.97    0.18
   7   3  -1    0.88    0.12
   7   3  -1    0.69    0.16
   7   3  -1    0.94    0.11
  -7  -3   1    0.95    0.11
  -7  -3   1    0.81    0.15
  -7  -3   1    0.92    0.16
   6   3  -1    0.53    0.08
   6   3  -1    0.38    0.11
   6   3  -1    0.29    0.10
  -6  -3   1    0.33    0.11
  -6  -3   1    0.39    0.08
  -6  -3   1    0.52    0.12
  -6  -3   1    0.41    0.09
   5   3  -1    9.42    0.25
   5   3  -1    9.74    0.30
   5   3  -1    9.31    0.29
   5   3  -1    9.78    0.27
  -5  -3   1    9.70    0.29
  -5  -3   1    9.98    0.31
  -5  -3   1    9.75    0.27
  -5  -3   1    9.60    0.31
  -5  -3   1    9.51    0.30
   4   3  -1    3.25    0.12
   4   3  -1    3.25    0.16
   4   3  -1    3.40    0.15
   4   3  -1    3.48    0.16
  -4  -3   1    3.48    0.14
  -4  -3   1    3.30    0.16
  -4  -3   1    3.34    0.15
  -4  -3   1    3.07    0.16
   3   3  -1   17.87    0.40
   3   3  -1   18.38    0.39
   3   3  -1   17.55    0.38
   3   3  -1   17.77    0.41
  -3  -3   1   17.71    0.39
  -3  -3   1   18.26    0.40
  -3  -3   1   17.88    0.41
  -3  -3   1   17.32    0.40
  -3  -3   1   18.14    0.41
   2   3  -1   21.19    0.45
   2   3  -1   21.08    0.46
   2   3  -1   21.11    0.43
   2   3  -1   20.35    0.42
  -2  -3   1   21.91    0.46
  -2  -3   1   21.07    0.43
  -2  -3   1   21.40    0.43
  -2  -3   1   21.11    0.47
   1   3  -1    4.29    0.14
   1   3  -1    4.29    0.12
   1   3  -1    4.46    0.14
   1   3  -1    4.32    0.12
  -1  -3   1    4.36    0.14
  -1  -3   1    4.34    0.12
  -1  -3   1    4.42    0.13
   0   3  -1  107.84    2.05
   0   3  -1  110.44    2.01
   0   3  -1  108.69    2.05
   0  -3   1  108.58    1.85
   0  -3   1  106.89    1.99
   0  -3   1  108.01    2.03
   0  -3   1  107.63    2.03
  -1   3  -1   11.39    0.26
  -1   3  -1   11.62    0.26
  -1   3  -1   11.74    0.26
  -1   3  -1   11.93    0.25
   1  -3   1   11.58    0.26
   1  -3   1   11.60    0.25
   1  -3   1   11.62    0.26
  -2   3  -1    0.37    0.05
  -2   3  -1    0.33    0.05
  -2   3  -1    0.37    0.05
  -2   3  -1    0.36    0.05
  -2   3  -1    0.33    0.04
   2  -3   1    0.29    0.04
   2  -3   1    0.35    0.04
   2  -3   1    0.40    0.05
  -3   3  -1   26.04    0.53
  -3   3  -1   25.47    0.53
  -3   3  -1   26.14    0.52
   3  -3   1   26.18    0.51
   3  -3   1   25.79    0.52
   3  -3   1   25.10    0.51
  -4   3  -1    4.16    0.18
  -4   3  -1    4.11    0.12
  -4   3  -1    4.04    0.17
  -4   3  -1    4.38    0.12
   4  -3   1    4.47    0.12
   4  -3   1    4.44    0.13
   4  -3   1    3.93    0.21
   4  -3   1    4.44    0.14
  -5   3  -1    7.83    0.27
  -5   3  -1    7.88    0.27
   5  -3   1    8.03    0.21
   5  -3   1    8.32    0.27
  -6   3  -1    1.65    0.19
   6  -3   1    1.63    0.19
   6  -3   1    1.77    0.11
  -7   3  -1    0.63    0.14
   7  -3   1    0.52    0.15
   7  -3   1    0.55    0.07
   7   2  -1    0.95    0.13
   7   2  -1    1.04    0.17
   7   2  -1    1.04    0.10
   7   2  -1    1.14    0.13
   7   2  -1    1.15    0.11
  -7  -2   1    0.87    0.17
  -7  -2   1    1.10    0.14
  -7  -2   1    0.98    0.10
   6   2  -1    4.80    0.25
   6   2  -1    5.42    0.19
   6   2  -1    5.11    0.21
   6   2  -1    5.10    0.17
  -6  -2   1    5.22    0.20
  -6  -2   1    4.95    0.25
  -6  -2   1    5.50    0.25
   5   2  -1   27.46    0.59
   5   2  -1   26.62    0.59
   5   2  -1   26.94    0.57
   5   2  -1   25.82    0.54
  -5  -2   1   26.21    0.58
  -5  -2   1   27.98    0.57
  -5  -2   1   26.10    0.61
  -5  -2   1   27.43    0.64
  -5  -2   1   26.52    0.63
   4   2  -1   28.30    0.59
   4   2  -1   28.22    0.60
   4   2  -1   28.08    0.59
  -4  -2   1   27.63    0.59
  -4  -2   1   27.90    0.60
  -4  -2   1   28.89    0.59
  -4  -2   1   28.00    0.60
   3   2  -1   16.30    0.36
   3   2  -1   16.15    0.36
   3   2  -1   16.01    0.37
  -3  -2   1   16.16    0.37
  -3  -2   1   16.29    0.38
  -3  -2   1   16.87    0.37
  -3  -2   1   16.36    0.37
  -3  -2   1   16.42    0.37
   2   2  -1   49.78    0.94
   2   2  -1   49.81    0.98
   2   2  -1   49.11    0.97
   2   2  -1   51.15    0.90
  -2  -2   1   50.92    0.99
  -2  -2   1   51.06    0.93
  -2  -2   1   51.96    0.99
  -2  -2   1   50.84    1.00
  -2  -2   1   50.75    0.93
   1   2  -1  146.96    2.76
   1   2  -1  151.96    2.78
   1   2  -1  148.41    2.54
   1   2  -1  148.35    2.78
  -1  -2   1  149.14    2.68
  -1  -2   1  153.70    2.91
  -1  -2   1  169.76    2.69
  -1  -2   1  151.58    2.90
   0   2  -1  242.82    4.63
   0   2  -1  249.16    4.28
   0   2  -1  252.35    4.73
   0   2  -1  251.59    4.70
   0  -2   1  248.75    4.25
   0  -2   1  237.14    4.57
   0  -2   1  246.49    4.65
   0  -2   1  250.95    4.65
  -1   2  -1   57.44    1.13
  -1   2  -1   64.76    1.06
  -1   2  -1   59.27    1.15
  -1   2  -1   62.18    1.15
  -1   2  -1   60.14    1.11
   1  -2   1   60.60    1.13
   1  -2   1   58.27    1.12
   1  -2   1   58.86    1.13
   1  -2   1   62.26    1.09
  -2   2  -1  204.02    3.67
  -2   2  -1  188.07    3.59
  -2   2  -1  198.45    3.72
  -2   2  -1  211.57    3.47
   2  -2   1  213.55    3.64
   2  -2   1  201.80    3.78
   2  -2   1  198.54    3.75
   2  -2   1  196.28    3.78
   2  -2   1  206.91    3.83
  -3   2  -1   28.99    0.56
  -3   2  -1   29.10    0.58
  -3   2  -1   28.85    0.58
  -3   2  -1   29.15    0.56
  -3   2  -1   28.57    0.59
   3  -2   1   29.43    0.58
   3  -2   1   29.92    0.57
   3  -2   1   28.70    0.64
   3  -2   1   29.64    0.57
  -4   2  -1   14.13    0.35
  -4   2  -1   14.65    0.36
   4  -2   1   14.84    0.33
   4  -2   1   14.68    0.41
  -5   2  -1    2.81    0.17
  -5   2  -1    2.70    0.15
   5  -2   1    3.30    0.13
   5  -2   1    3.07    0.18
  -6   2  -1    5.65    0.26
   6  -2   1    5.82    0.19
  -7   2  -1    1.42    0.17
   7  -2   1    1.52    0.12
   7  -2   1    1.79    0.19
   7   1  -1    0.88    0.09
   7   1  -1    0.86    0.11
   7   1  -1    1.05    0.11
   7   1  -1    0.89    0.08
   7   1  -1    0.83    0.17
   6   1  -1    3.26    0.12
   6   1  -1    3.59    0.16
   6   1  -1    3.35    0.23
   6   1  -1    3.84    0.15
  -6  -1   1    3.56    0.15
  -6  -1   1    3.51    0.22
  -6  -1   1    3.55    0.14
   5   1  -1   23.14    0.57
   5   1  -1   23.79    0.52
   5   1  -1   24.39    0.51
   5   1  -1   25.18    0.55
  -5  -1   1   23.94    0.51
  -5  -1   1   23.39    0.55
  -5  -1   1   23.96    0.56
   4   1  -1   27.62    0.60
   4   1  -1   26.72    0.56
   4   1  -1   27.28    0.57
   4   1  -1   27.58    0.57
  -4  -1   1   26.93    0.59
  -4  -1   1   27.12    0.58
  -4  -1   1   27.81    0.58
  -4  -1   1   28.14    0.57
   3   1  -1   19.65    0.42
   3   1  -1   18.36    0.41
   3   1  -1   19.28    0.41
   3   1  -1   19.44    0.41
  -3  -1   1   19.63    0.41
  -3  -1   1   19.40    0.42
  -3  -1   1   19.10    0.41
  -3  -1   1   19.38    0.43
  -3  -1   1   19.58    0.42
   2   1  -1    1.01    0.06
   2   1  -1    0.97    0.06
   2   1  -1    0.88    0.06
  -2  -1   1    0.83    0.06
  -2  -1   1    0.99    0.06
  -2  -1   1    0.96    0.07
  -2  -1   1    0.95    0.06
  -2  -1   1    0.99    0.06
   1   1  -1  206.56    3.80
   1   1  -1  197.92    3.73
   1   1  -1  201.72    3.77
  -1  -1   1  203.93    3.86
  -1  -1   1  205.62    3.55
  -1  -1   1  202.01    3.83
  -1  -1   1  206.93    3.53
   0   1  -1  118.05    2.20
   0  -1   1  127.45    2.28
   0  -1   1  117.42    2.30
   0  -1   1  123.52    2.11
  -1   1  -1  280.05    5.34
  -1   1  -1  296.45    4.94
  -1   1  -1  275.75    5.30
  -1   1  -1  294.82    5.18
   1  -1   1  281.22    5.27
   1  -1   1  287.08    5.39
   1  -1   1  279.67    5.31
   1  -1   1  280.79    5.30
   1  -1   1  295.74    5.10
  -2   1  -1  112.75    2.03
  -2   1  -1  110.12    2.07
  -2   1  -1  115.69    1.96
  -2   1  -1  110.25    2.07
  -2   1  -1  112.09    2.07
  -2   1  -1  111.97    2.14
   2  -1   1  112.10    2.05
   2  -1   1  110.77    2.06
   2  -1   1  110.78    2.05
  -3   1  -1    4.89    0.16
  -3   1  -1    4.71    0.15
   3  -1   1    5.05    0.14
   3  -1   1    5.00    0.18
  -4   1  -1    5.74    0.19
  -4   1  -1    5.86    0.20
   4  -1   1    6.09    0.17
   4  -1   1    5.78    0.19
   4  -1   1    5.44    0.22
  -5   1  -1    9.42    0.30
   5  -1   1   10.13    0.29
   5  -1   1   10.13    0.26
   5  -1   1    9.91    0.36
  -6   1  -1    8.03    0.30
   6  -1   1    8.63    0.24
   6  -1   1    8.56    0.31
  -7   1  -1    0.97    0.16
   7  -1   1    1.20    0.16
   7  -1   1    1.42    0.14
  -8   1  -1   -0.08    0.13
   8  -1   1    0.28    0.22
   7   0  -1    2.72    0.27
  -7   0   1    2.37    0.24
   6   0  -1   16.11    0.36
   6   0  -1   16.33    0.45
   6   0  -1   15.51    0.33
   6   0  -1   16.32    0.36
   6   0  -1   16.19    0.36
  -6   0   1   15.72    0.34
  -6   0   1   15.47    0.34
  -6   0   1   15.02    0.44
   5   0  -1   41.68    0.94
   5   0  -1   44.19    0.84
   5   0  -1   43.77    0.87
   5   0  -1   43.20    0.85
  -5   0   1   42.45    0.87
  -5   0   1   42.66    0.83
  -5   0   1   40.39    0.82
   4   0  -1    1.67    0.12
   4   0  -1    1.70    0.13
   4   0  -1    1.47    0.09
  -4   0   1    1.40    0.09
  -4   0   1    1.62    0.12
   3   0  -1   23.97    0.49
   3   0  -1   24.10    0.52
   3   0  -1   23.58    0.49
   3   0  -1   23.75    0.49
  -3   0   1   22.79    0.50
  -3   0   1   24.41    0.48
  -3   0   1   22.69    0.48
  -3   0   1   23.45    0.48
  -3   0   1   23.68    0.49
   2   0  -1  144.38    2.69
   2   0  -1  142.25    2.49
   2   0  -1  146.98    2.72
   2   0  -1  144.94    2.69
  -2   0   1  145.35    2.48
  -2   0   1  146.96    2.69
  -2   0   1  140.07    2.68
  -2   0   1  145.10    2.72
   1   0  -1  950.78   17.56
   1   0  -1  934.75   16.13
   1   0  -1  932.28   17.56
   1   0  -1  974.56   17.66
  -1   0   1 1000.00   16.55
  -1   0   1  966.64   17.91
  -1   0   1  971.63   17.81
  -1   0   1  932.68   16.36
  -1   0   1  936.98   17.80
  -1   0  -1    3.87    0.10
  -1   0  -1    3.92    0.11
  -1   0  -1    4.13    0.10
   1   0   1    3.79    0.10
   1   0   1    3.91    0.09
   1   0   1    3.89    0.10
  -2   0  -1   66.37    1.22
  -2   0  -1   67.04    1.19
  -2   0  -1   67.06    1.30
   2   0   1   66.02    1.15
   2   0   1   64.81    1.28
   2   0   1   66.31    1.21
   2   0   1   66.65    1.23
  -3   0  -1   58.96    1.18
  -3   0  -1   61.21    1.09
  -3   0  -1   57.37    1.11
   3   0   1   62.75    1.11
   3   0   1   61.96    1.18
   3   0   1   61.46    1.24
  -4   0  -1   16.34    0.41
  -4   0  -1   16.04    0.37
  -4   0  -1   16.36    0.38
   4   0   1   16.86    0.37
   4   0   1   16.58    0.43
   4   0   1   16.85    0.38
  -5   0  -1   61.79    1.20
  -5   0  -1   62.19    1.29
   5   0   1   60.92    1.31
   5   0   1   63.38    1.18
   5   0   1   63.48    1.22
  -6   0  -1    1.62    0.17
   6   0   1    1.85    0.18
   6   0   1    1.99    0.14
  -7   0  -1    1.13    0.16
   7   0   1    1.12    0.12
   7   0   1    1.04    0.17
  -8   0  -1    0.62    0.17
   8   0   1    0.55    0.21
   8   0   1    0.94    0.13
   7  -1  -1    0.51    0.16
  -7   1   1    0.39    0.14
   6  -1  -1    0.68    0.09
   6  -1  -1    0.67    0.06
   6  -1  -1    0.92    0.13
  -6   1   1    0.82    0.14
  -6   1   1    0.63    0.08
  -6   1   1    0.55    0.08
   5  -1  -1   37.78    0.75
   5  -1  -1   36.28    0.85
   5  -1  -1   38.16    0.74
   5  -1  -1   38.62    0.79
  -5   1   1   36.83    0.73
  -5   1   1   37.04    0.72
  -5   1   1   36.22    0.78
   4  -1  -1    8.80    0.25
   4  -1  -1    8.90    0.22
   4  -1  -1    8.75    0.27
   4  -1  -1    8.25    0.21
   4  -1  -1    9.00    0.19
  -4   1   1    8.65    0.21
  -4   1   1    8.40    0.26
   3  -1  -1    7.95    0.23
   3  -1  -1    8.02    0.22
   3  -1  -1    8.00    0.20
   3  -1  -1    7.81    0.19
  -3   1   1    7.55    0.21
  -3   1   1    7.67    0.18
   2  -1  -1    2.07    0.08
   2  -1  -1    2.09    0.09
   2  -1  -1    2.20    0.09
   2  -1  -1    1.97    0.08
   2  -1  -1    2.00    0.07
  -2   1   1    2.03    0.07
  -2   1   1    2.10    0.07
   1  -1  -1  682.69   12.88
   1  -1  -1  705.37   12.88
  -1   1   1  693.43   13.24
  -1   1   1  734.62   12.33
  -1  -1  -1    3.55    0.08
  -1  -1  -1    3.45    0.08
  -1  -1  -1    3.31    0.09
  -1  -1  -1    3.56    0.08
  -1  -1  -1    3.49    0.08
   1   1   1    3.42    0.08
   1   1   1    3.41    0.08
   1   1   1    3.45    0.08
   1   1   1    3.53    0.08
  -2  -1  -1   52.88    1.05
  -2  -1  -1   57.36    1.06
  -2  -1  -1   56.39    1.11
  -2  -1  -1   57.84    1.02
  -2  -1  -1   57.70    1.04
  -2  -1  -1   58.04    1.00
   2   1   1   58.72    1.07
   2   1   1   56.60    1.09
   2   1   1   59.03    1.09
   2   1   1   58.32    1.14
   2   1   1   59.31    1.02
  -3  -1  -1   41.51    0.79
  -3  -1  -1   41.59    0.78
  -3  -1  -1   42.60    0.78
  -3  -1  -1   40.94    0.86
  -3  -1  -1   41.08    0.79
  -3  -1  -1   41.24    0.77
   3   1   1   41.77    0.78
   3   1   1   41.94    0.86
   3   1   1   42.54    0.80
   3   1   1   42.47    0.79
  -4  -1  -1    1.94    0.14
  -4  -1  -1    1.80    0.12
   4   1   1    1.76    0.14
   4   1   1    2.15    0.12
  -5  -1  -1   14.28    0.38
  -5  -1  -1   14.96    0.41
   5   1   1   14.63    0.43
   5   1   1   15.25    0.38
  -6  -1  -1   19.53    0.53
  -6  -1  -1   18.98    0.50
   6   1   1   20.01    0.49
   6   1   1   20.25    0.47
  -7  -1  -1    1.13    0.15
   7   1   1    1.54    0.18
   7   1   1    1.10    0.16
  -8  -1  -1    6.18    0.33
   8   1   1    5.98    0.28
   8   1   1    5.94    0.39
   7  -2  -1    0.90    0.17
  -7   2   1    0.74    0.16
   6  -2  -1   12.67    0.28
   6  -2  -1   12.46    0.39
   6  -2  -1   12.56    0.28
  -6   2   1   11.88    0.38
   5  -2  -1   10.70    0.38
   5  -2  -1   11.10    0.33
   5  -2  -1   11.48    0.26
   5  -2  -1   11.30    0.27
  -5   2   1   10.68    0.33
  -5   2   1   10.88    0.25
  -5   2   1   10.74    0.26
   4  -2  -1    4.18    0.14
   4  -2  -1    4.23    0.17
   4  -2  -1    3.83    0.12
   4  -2  -1    4.15    0.20
  -4   2   1    4.13    0.12
  -4   2   1    4.09    0.18
   3  -2  -1   26.87    0.54
   3  -2  -1   26.01    0.57
   3  -2  -1   26.11    0.53
   3  -2  -1   26.47    0.53
  -3   2   1   25.77    0.52
  -3   2   1   25.86    0.54
  -3   2   1   26.77    0.53
   2  -2  -1   18.66    0.38
   2  -2  -1   18.70    0.39
   2  -2  -1   19.27    0.39
  -2   2   1   18.91    0.39
  -2   2   1   19.43    0.39
  -2   2   1   18.94    0.39
  -2   2   1   18.82    0.36
   1  -2  -1   88.72    1.67
   1  -2  -1   88.28    1.67
   1  -2  -1   90.62    1.60
  -1   2   1   90.12    1.69
  -1   2   1   93.14    1.57
  -1   2   1   90.00    1.69
  -1   2   1   89.76    1.62
  -1   2   1   88.11    1.66
   0  -2  -1  218.48    4.29
   0  -2  -1  237.09    4.05
   0  -2  -1  228.47    4.31
   0   2   1  229.83    4.27
   0   2   1  225.78    4.28
  -1  -2  -1   45.28    0.88
  -1  -2  -1   45.66    0.89
  -1  -2  -1   46.85    0.81
  -1  -2  -1   49.57    0.83
   1   2   1   45.53    0.87
   1   2   1   45.15    0.87
   1   2   1   47.09    0.83
   1   2   1   46.29    0.80
  -2  -2  -1  138.86    2.62
  -2  -2  -1  142.56    2.62
  -2  -2  -1  137.20    2.67
  -2  -2  -1  143.16    2.47
  -2  -2  -1  144.46    2.42
   2   2   1  135.73    2.59
   2   2   1  143.60    2.39
   2   2   1  138.22    2.59
   2   2   1  141.78    2.50
  -3  -2  -1  136.81    2.56
  -3  -2  -1  137.98    2.43
  -3  -2  -1  141.37    2.39
  -3  -2  -1  135.04    2.64
   3   2   1  137.40    2.38
   3   2   1  139.05    2.56
   3   2   1  140.12    2.50
   3   2   1  134.51    2.56
  -4  -2  -1    0.17    0.04
  -4  -2  -1    0.09    0.06
  -4  -2  -1    0.18    0.06
  -4  -2  -1    0.08    0.06
  -4  -2  -1    0.14    0.03
   4   2   1    0.18    0.03
   4   2   1    0.08    0.05
   4   2   1    0.14    0.04
  -5  -2  -1    0.81    0.11
  -5  -2  -1    0.87    0.11
  -5  -2  -1    0.84    0.06
  -5  -2  -1    0.90    0.07
   5   2   1    0.90    0.07
   5   2   1    0.98    0.08
  -6  -2  -1    0.21    0.10
  -6  -2  -1    0.12    0.10
   6   2   1    0.40    0.11
  -7  -2  -1    1.00    0.15
  -7  -2  -1    0.97    0.16
   7   2   1    1.08    0.14
   7   2   1    0.98    0.16
   7  -3  -1    4.28    0.32
   6  -3  -1   16.59    0.47
   6  -3  -1   16.24    0.35
   6  -3  -1   16.28    0.36
  -6   3   1   15.89    0.34
  -6   3   1   16.04    0.34
  -6   3   1   15.60    0.46
   5  -3  -1   23.90    0.56
   5  -3  -1   23.94    0.51
   5  -3  -1   23.64    0.49
  -5   3   1   22.99    0.47
  -5   3   1   22.66    0.48
  -5   3   1   22.85    0.55
   4  -3  -1    9.47    0.23
   4  -3  -1    9.49    0.24
   4  -3  -1    9.71    0.27
   4  -3  -1    9.02    0.30
  -4   3   1    9.26    0.22
  -4   3   1    9.05    0.27
   3  -3  -1    0.44    0.06
   3  -3  -1    0.46    0.06
   3  -3  -1    0.39    0.03
   3  -3  -1    0.42    0.06
  -3   3   1    0.56    0.05
  -3   3   1    0.48    0.07
  -3   3   1    0.42    0.06
  -3   3   1    0.39    0.05
   2  -3  -1   32.58    0.64
   2  -3  -1   32.56    0.65
   2  -3  -1   32.35    0.64
   2  -3  -1   33.04    0.61
  -2   3   1   32.89    0.62
  -2   3   1   32.30    0.62
  -2   3   1   32.95    0.63
  -2   3   1   33.28    0.65
  -2   3   1   32.40    0.64
   1  -3  -1  130.60    2.50
   1  -3  -1  138.05    2.41
   1  -3  -1  134.87    2.51
  -1   3   1  128.53    2.44
  -1   3   1  134.78    2.48
  -1   3   1  131.21    2.48
  -1   3   1  136.65    2.38
   0  -3  -1  222.61    3.87
   0  -3  -1  216.81    4.11
   0  -3  -1  213.44    4.11
   0   3   1  217.47    4.14
   0   3   1  212.67    4.12
   0   3   1  226.79    3.89
  -1  -3  -1    9.00    0.21
  -1  -3  -1    9.21    0.18
  -1  -3  -1    8.64    0.21
   1   3   1    9.06    0.21
   1   3   1    8.98    0.21
   1   3   1    9.01    0.18
  -2  -3  -1  113.12    1.94
  -2  -3  -1  114.23    1.97
  -2  -3  -1  109.56    2.11
  -2  -3  -1  112.72    2.10
   2   3   1  110.25    2.10
   2   3   1  112.33    1.93
   2   3   1  113.53    2.01
   2   3   1  112.17    2.10
  -3  -3  -1  112.62    2.06
  -3  -3  -1  108.23    1.92
  -3  -3  -1  108.32    1.95
  -3  -3  -1  109.74    2.12
  -3  -3  -1  109.03    2.06
   3   3   1  109.51    1.99
   3   3   1  110.80    2.05
   3   3   1  109.76    1.91
   3   3   1  107.24    2.06
  -4  -3  -1    0.21    0.04
  -4  -3  -1    0.26    0.07
  -4  -3  -1    0.21    0.07
  -4  -3  -1    0.23    0.06
  -4  -3  -1    0.18    0.04
   4   3   1    0.20    0.05
   4   3   1    0.22    0.04
   4   3   1    0.23    0.05
  -5  -3  -1    1.20    0.09
  -5  -3  -1    1.46    0.14
  -5  -3  -1    1.52    0.16
  -5  -3  -1    1.87    0.15
  -5  -3  -1    1.73    0.11
   5   3   1    1.85    0.14
   5   3   1    1.70    0.10
  -6  -3  -1    5.67    0.17
  -6  -3  -1    5.76    0.16
  -6  -3  -1    5.35    0.25
  -6  -3  -1    5.74    0.28
   6   3   1    5.81    0.19
   6   3   1    6.00    0.18
  -7  -3  -1    2.05    0.23
   7   3   1    1.92    0.23
   7  -4  -1    2.13    0.22
   6  -4  -1   13.73    0.33
   6  -4  -1   13.63    0.42
   6  -4  -1   13.72    0.31
  -6   4   1   13.44    0.42
  -6   4   1   13.50    0.30
  -6   4   1   13.24    0.32
   5  -4  -1    0.44    0.07
   5  -4  -1    0.47    0.06
   5  -4  -1    0.38    0.10
  -5   4   1    0.44    0.06
  -5   4   1    0.43    0.10
   4  -4  -1   26.15    0.50
   4  -4  -1   26.85    0.55
   4  -4  -1   25.52    0.62
   4  -4  -1   25.31    0.54
  -4   4   1   25.92    0.57
  -4   4   1   25.71    0.53
   3  -4  -1    6.27    0.17
   3  -4  -1    6.48    0.18
   3  -4  -1    6.35    0.14
  -3   4   1    6.19    0.18
  -3   4   1    6.10    0.18
  -3   4   1    6.03    0.17
  -3   4   1    6.15    0.16
  -3   4   1    6.19    0.20
   2  -4  -1   48.66    0.95
   2  -4  -1   48.28    0.95
  -2   4   1   48.42    0.91
  -2   4   1   48.02    0.91
  -2   4   1   48.37    0.95
  -2   4   1   49.83    0.89
  -2   4   1   47.01    0.94
   1  -4  -1   70.41    1.36
   1  -4  -1   71.32    1.29
   1  -4  -1   71.73    1.36
  -1   4   1   70.39    1.38
  -1   4   1   72.47    1.31
  -1   4   1   72.86    1.38
  -1   4   1   73.13    1.34
   0  -4  -1  107.59    2.03
   0  -4  -1  107.76    2.03
   0   4   1  107.33    2.06
   0   4   1  111.59    1.95
   0   4   1  109.69    2.06
  -1  -4  -1   61.21    1.06
  -1  -4  -1   60.98    1.16
  -1  -4  -1   58.17    1.16
   1   4   1   59.84    1.16
   1   4   1   60.75    1.06
   1   4   1   60.27    1.16
  -2  -4  -1    7.00    0.18
  -2  -4  -1    7.21    0.19
  -2  -4  -1    6.86    0.19
   2   4   1    6.98    0.17
   2   4   1    7.00    0.19
   2   4   1    7.12    0.16
   2   4   1    7.05    0.19
  -3  -4  -1   54.40    0.99
  -3  -4  -1   54.64    1.05
  -3  -4  -1   53.87    1.06
  -3  -4  -1   52.11    1.00
   3   4   1   55.08    1.05
   3   4   1   53.34    1.05
   3   4   1   53.78    0.97
   3   4   1   52.22    1.00
  -4  -4  -1    2.18    0.11
  -4  -4  -1    2.17    0.13
  -4  -4  -1    1.99    0.14
  -4  -4  -1    1.95    0.11
  -4  -4  -1    2.03    0.13
   4   4   1    1.88    0.12
   4   4   1    2.12    0.11
   4   4   1    2.14    0.12
  -5  -4  -1    8.23    0.30
  -5  -4  -1    8.62    0.23
  -5  -4  -1    8.36    0.28
  -5  -4  -1    7.80    0.27
  -5  -4  -1    8.51    0.25
   5   4   1    8.73    0.24
   5   4   1    8.44    0.26
   5   4   1    8.26    0.25
  -6  -4  -1    0.90    0.11
  -6  -4  -1    0.59    0.10
  -6  -4  -1    0.92    0.15
  -6  -4  -1    0.97    0.13
   6   4   1    0.74    0.11
   6   4   1    0.97    0.12
  -7  -4  -1    0.45    0.12
  -7  -4  -1    0.64    0.17
   7   4   1    0.67    0.10
   7   4   1    0.52    0.14
   7  -5  -1    5.10    0.36
  -7   5   1    5.15    0.32
   6  -5  -1   11.61    0.31
   6  -5  -1   11.31    0.39
   6  -5  -1   11.69    0.29
  -6   5   1   11.70    0.28
  -6   5   1   11.35    0.40
  -6   5   1   11.56    0.30
   5  -5  -1    8.91    0.24
   5  -5  -1    8.86    0.26
  -5   5   1    8.69    0.23
  -5   5   1    8.80    0.26
  -5   5   1    8.48    0.31
   4  -5  -1    0.97    0.13
   4  -5  -1    0.81    0.10
   4  -5  -1    0.84    0.09
  -4   5   1    0.75    0.09
  -4   5   1    0.71    0.09
  -4   5   1    0.79    0.09
  -4   5   1    0.76    0.11
   3  -5  -1    5.99    0.19
   3  -5  -1    5.88    0.18
  -3   5   1    5.97    0.16
  -3   5   1    5.98    0.18
  -3   5   1    5.90    0.20
  -3   5   1    6.16    0.19
  -3   5   1    5.91    0.19
   2  -5  -1  114.60    2.16
   2  -5  -1  112.81    2.15
  -2   5   1  115.68    2.11
  -2   5   1  115.79    2.02
  -2   5   1  112.09    2.16
  -2   5   1  114.54    2.16
  -2   5   1  112.26    2.08
   1  -5  -1   45.93    0.86
   1  -5  -1   46.95    0.92
   1  -5  -1   45.84    0.92
  -1   5   1   45.46    0.92
  -1   5   1   47.25    0.92
  -1   5   1   46.36    0.89
  -1   5   1   46.58    0.87
   0  -5  -1    9.71    0.25
   0  -5  -1    9.91    0.25
   0   5   1   10.22    0.25
   0   5   1   10.14    0.23
   0   5   1    9.79    0.25
   0   5   1    9.95    0.20
  -1  -5  -1   43.25    0.86
  -1  -5  -1   44.46    0.78
  -1  -5  -1   41.72    0.86
   1   5   1   43.12    0.85
   1   5   1   41.41    0.85
  -2  -5  -1    6.05    0.17
  -2  -5  -1    6.05    0.18
  -2  -5  -1    5.93    0.18
   2   5   1    6.26    0.16
   2   5   1    6.19    0.18
   2   5   1    5.92    0.19
  -3  -5  -1    0.08    0.04
  -3  -5  -1    0.05    0.05
  -3  -5  -1    0.05    0.04
  -3  -5  -1    0.09    0.05
   3   5   1    0.04    0.06
   3   5   1   -0.02    0.03
   3   5   1    0.06    0.04
   3   5   1    0.03    0.04
  -4  -5  -1   47.12    0.91
  -4  -5  -1   46.40    0.96
  -4  -5  -1   47.08    1.00
  -4  -5  -1   48.06    0.95
  -4  -5  -1   45.64    0.91
   4   5   1   46.75    0.88
   4   5   1   47.97    0.95
   4   5   1   45.50    0.95
  -5  -5  -1    7.47    0.26
  -5  -5  -1    8.09    0.24
  -5  -5  -1    7.69    0.25
  -5  -5  -1    7.94    0.30
   5   5   1    7.34    0.25
   5   5   1    7.70    0.24
   5   5   1    7.95    0.25
  -6  -5  -1    8.72    0.26
  -6  -5  -1    8.38    0.29
  -6  -5  -1    8.43    0.35
  -6  -5  -1    7.74    0.30
   6   5   1    7.53    0.28
   6   5   1    8.41    0.29
   6   5   1    8.51    0.26
  -7  -5  -1    1.64    0.19
  -7  -5  -1    1.93    0.21
  -7  -5  -1    2.14    0.17
  -7  -5  -1    1.83    0.23
   7   5   1    1.65    0.19
   7   5   1    1.78    0.22
   7   5   1    1.86    0.19
   7   5   1    1.49    0.14
   7  -6  -1    5.28    0.39
  -7   6   1    5.42    0.33
   6  -6  -1   15.87    0.42
   6  -6  -1   15.67    0.48
  -6   6   1   15.35    0.36
  -6   6   1   15.38    0.47
  -6   6   1   13.35    0.37
   5  -6  -1    1.38    0.15
   5  -6  -1    1.56    0.13
  -5   6   1    1.43    0.18
  -5   6   1    1.58    0.14
   4  -6  -1   12.50    0.32
   4  -6  -1   12.74    0.33
  -4   6   1   12.09    0.35
  -4   6   1   12.07    0.31
  -4   6   1   13.05    0.33
  -4   6   1   12.52    0.34
  -4   6   1   12.56    0.30
   3  -6  -1    3.11    0.14
   3  -6  -1    3.00    0.13
  -3   6   1    2.95    0.14
  -3   6   1    3.16    0.15
  -3   6   1    3.17    0.14
  -3   6   1    2.95    0.12
  -3   6   1    2.91    0.13
   2  -6  -1   49.67    1.01
   2  -6  -1   51.35    1.01
  -2   6   1   52.30    1.00
  -2   6   1   49.88    0.98
  -2   6   1   53.39    0.97
  -2   6   1   49.96    1.03
  -2   6   1   52.17    1.03
   1  -6  -1   67.62    1.31
   1  -6  -1   68.05    1.31
   1  -6  -1   64.38    1.22
  -1   6   1   68.94    1.29
  -1   6   1   65.91    1.33
  -1   6   1   69.49    1.25
  -1   6   1   67.72    1.33
   0  -6  -1   69.39    1.38
   0  -6  -1   70.16    1.37
   0  -6  -1   71.43    1.25
   0   6   1   71.63    1.28
   0   6   1   70.46    1.35
   0   6   1   71.38    1.39
   0   6   1   69.99    1.39
  -1  -6  -1    0.24    0.05
  -1  -6  -1    0.41    0.06
  -1  -6  -1    0.34    0.04
   1   6   1    0.40    0.06
   1   6   1    0.36    0.05
   1   6   1    0.33    0.05
  -2  -6  -1    2.71    0.13
  -2  -6  -1    2.91    0.14
  -2  -6  -1    2.71    0.12
   2   6   1    2.56    0.13
   2   6   1    2.73    0.11
   2   6   1    2.68    0.13
  -3  -6  -1   10.17    0.29
  -3  -6  -1   10.27    0.27
  -3  -6  -1   10.37    0.29
   3   6   1   10.17    0.25
   3   6   1    9.92    0.29
   3   6   1   10.37    0.28
   3   6   1   10.08    0.25
  -4  -6  -1   41.65    0.86
  -4  -6  -1   40.33    0.82
  -4  -6  -1   40.86    0.90
  -4  -6  -1   40.53    0.87
   4   6   1   40.39    0.79
   4   6   1   40.00    0.86
   4   6   1   41.41    0.85
  -5  -6  -1    4.93    0.20
  -5  -6  -1    4.56    0.21
  -5  -6  -1    4.74    0.21
  -5  -6  -1    4.62    0.23
  -5  -6  -1    4.22    0.24
   5   6   1    4.59    0.20
   5   6   1    4.61    0.22
  -6  -6  -1    1.08    0.13
  -6  -6  -1    1.10    0.16
  -6  -6  -1    1.21    0.17
   6   6   1    1.17    0.14
   6   6   1    1.05    0.12
   6   6   1    1.03    0.14
   6   6   1    1.00    0.12
  -7  -6  -1    0.81    0.21
  -7  -6  -1    0.82    0.18
  -7  -6  -1    0.86    0.15
  -7  -6  -1    0.73    0.15
   7   6   1    0.56    0.14
   7   6   1    0.64    0.18
   7   6   1    0.67    0.16
   7   6   1    0.54    0.13
   7  -7  -1    1.02    0.14
   7  -7  -1    1.16    0.24
  -7   7   1    1.08    0.19
   6  -7  -1    6.43    0.24
   6  -7  -1    6.54    0.27
  -6   7   1    6.54    0.32
   5  -7  -1    5.00    0.21
   5  -7  -1    5.33    0.23
  -5   7   1    5.61    0.27
  -5   7   1    5.47    0.22
  -5   7   1    5.53    0.21
  -5   7   1    5.70    0.21
   4  -7  -1   15.15    0.38
   4  -7  -1   15.44    0.40
  -4   7   1   15.72    0.42
  -4   7   1   15.38    0.40
  -4   7   1   16.43    0.41
  -4   7   1   15.25    0.37
   3  -7  -1   35.93    0.77
   3  -7  -1   37.51    0.78
  -3   7   1   36.62    0.78
  -3   7   1   36.69    0.76
  -3   7   1   37.79    0.79
  -3   7   1   37.62    0.75
  -3   7   1   35.61    0.75
   2  -7  -1   10.99    0.30
   2  -7  -1   11.11    0.30
  -2   7   1   11.09    0.30
  -2   7   1   11.51    0.28
  -2   7   1   11.45    0.31
  -2   7   1   11.19    0.28
   1  -7  -1   20.36    0.48
   1  -7  -1   21.29    0.48
  -1   7   1   21.27    0.43
  -1   7   1   20.75    0.48
  -1   7   1   20.37    0.45
  -1   7   1   20.72    0.48
   0  -7  -1   15.78    0.34
   0  -7  -1   16.15    0.39
   0  -7  -1   15.77    0.39
   0   7   1   15.84    0.32
   0   7   1   16.00    0.37
   0   7   1   15.86    0.39
   0   7   1   16.42    0.40
  -1  -7  -1   55.01    1.11
  -1  -7  -1   53.09    1.11
  -1  -7  -1   56.48    1.01
   1   7   1   54.86    1.11
   1   7   1   54.75    1.00
   1   7   1   55.30    1.12
   1   7   1   54.73    1.08
  -2  -7  -1   24.35    0.55
  -2  -7  -1   22.88    0.55
  -2  -7  -1   24.01    0.50
   2   7   1   24.26    0.55
   2   7   1   23.87    0.49
   2   7   1   23.31    0.52
   2   7   1   23.87    0.55
  -3  -7  -1   43.27    0.93
  -3  -7  -1   44.36    0.92
  -3  -7  -1   43.85    0.86
   3   7   1   42.85    0.92
   3   7   1   43.73    0.91
   3   7   1   43.75    0.82
   3   7   1   42.97    0.83
  -4  -7  -1    6.85    0.25
  -4  -7  -1    6.50    0.25
  -4  -7  -1    7.07    0.27
   4   7   1    6.84    0.22
   4   7   1    6.87    0.26
  -5  -7  -1    5.39    0.24
  -5  -7  -1    5.08    0.27
   5   7   1    4.84    0.21
   5   7   1    4.92    0.22
   5   7   1    5.26    0.24
   5   7   1    5.31    0.26
  -6  -7  -1    1.89    0.21
  -6  -7  -1    1.63    0.16
  -6  -7  -1    2.04    0.24
  -6  -7  -1    1.52    0.16
   6   7   1    1.58    0.16
   6   7   1    1.39    0.18
   6   7   1    1.49    0.20
   6   7   1    1.46    0.15
   6  -8  -1    8.82    0.30
   6  -8  -1    8.90    0.34
  -6   8   1    9.43    0.31
   5  -8  -1    1.83    0.17
   5  -8  -1    1.96    0.19
  -5   8   1    1.84    0.17
  -5   8   1    1.93    0.18
  -5   8   1    1.66    0.20
   4  -8  -1    3.62    0.19
   4  -8  -1    3.87    0.20
  -4   8   1    3.74    0.19
  -4   8   1    3.82    0.21
  -4   8   1    3.99    0.21
   3  -8  -1    7.98    0.27
   3  -8  -1    8.36    0.27
  -3   8   1    8.44    0.25
  -3   8   1    8.55    0.26
  -3   8   1    8.27    0.27
  -3   8   1    8.64    0.28
  -3   8   1    8.45    0.27
   2  -8  -1  100.30    1.94
   2  -8  -1   97.68    1.93
  -2   8   1   99.83    1.96
  -2   8   1  100.51    1.96
  -2   8   1  100.38    1.91
  -2   8   1  100.20    1.86
   1  -8  -1    9.30    0.28
   1  -8  -1    9.85    0.29
  -1   8   1    9.96    0.24
  -1   8   1   10.04    0.30
  -1   8   1    9.57    0.26
  -1   8   1    9.44    0.29
   0  -8  -1    0.52    0.08
   0  -8  -1    0.34    0.05
   0  -8  -1    0.36    0.06
   0   8   1    0.51    0.06
   0   8   1    0.45    0.08
   0   8   1    0.53    0.08
   0   8   1    0.54    0.07
  -1  -8  -1   14.52    0.38
  -1  -8  -1   13.29    0.37
  -1  -8  -1   13.88    0.33
   1   8   1   14.26    0.38
   1   8   1   13.85    0.35
   1   8   1   13.96    0.38
   1   8   1   13.95    0.28
  -2  -8  -1   29.34    0.61
  -2  -8  -1   29.49    0.66
  -2  -8  -1   28.94    0.67
   2   8   1   28.09    0.66
   2   8   1   29.04    0.66
   2   8   1   28.62    0.62
  -3  -8  -1    0.20    0.09
   3   8   1    0.16    0.07
   3   8   1    0.17    0.08
   3   8   1    0.07    0.06
   3   8   1    0.15    0.09
  -4  -8  -1    9.04    0.31
  -4  -8  -1    8.81    0.32
   4   8   1    9.17    0.33
   4   8   1    8.92    0.27
   4   8   1    9.01    0.31
   4   8   1    8.36    0.28
  -5  -8  -1    0.48    0.12
  -5  -8  -1    0.62    0.15
  -5  -8  -1    0.63    0.12
   5   8   1    0.72    0.11
   5   8   1    0.50    0.14
   5   8   1    0.55    0.13
   5   8   1    0.71    0.12
  -6  -8  -1    1.10    0.20
  -6  -8  -1    1.12    0.17
  -6  -8  -1    1.35    0.19
  -6  -8  -1    1.27    0.17
   6   8   1    1.33    0.17
   6   8   1    0.98    0.15
   6   8   1    1.35    0.19
   6   8   1    1.01    0.15
   6  -9  -1    0.31    0.12
   6  -9  -1    0.28    0.15
  -6   9   1    0.33    0.14
  -6   9   1    0.26    0.13
  -6   9   1    0.26    0.15
   5  -9  -1    0.10    0.11
   5  -9  -1   -0.08    0.10
  -5   9   1    0.12    0.12
  -5   9   1    0.14    0.10
  -5   9   1    0.05    0.11
  -5   9   1   -0.01    0.10
   4  -9  -1   18.41    0.49
   4  -9  -1   18.22    0.48
  -4   9   1   18.82    0.50
  -4   9   1   19.61    0.48
  -4   9   1   18.70    0.47
  -4   9   1   19.42    0.51
   3  -9  -1    8.24    0.29
   3  -9  -1    8.02    0.29
  -3   9   1    8.66    0.27
  -3   9   1    8.82    0.31
  -3   9   1    8.40    0.28
  -3   9   1    8.42    0.26
   2  -9  -1    6.48    0.25
  -2   9   1    6.35    0.22
  -2   9   1    6.63    0.21
  -2   9   1    6.80    0.26
   1  -9  -1   56.09    1.16
   1  -9  -1   55.50    1.17
  -1   9   1   57.36    1.14
  -1   9   1   56.39    1.18
  -1   9   1   56.54    1.07
   0  -9  -1    9.42    0.26
   0  -9  -1    8.68    0.30
   0  -9  -1    9.42    0.30
   0   9   1    9.42    0.27
   0   9   1    9.39    0.31
   0   9   1    9.30    0.31
   0   9   1    9.46    0.23
  -1  -9  -1    2.92    0.18
  -1  -9  -1    2.90    0.19
   1   9   1    3.00    0.19
   1   9   1    2.87    0.19
  -2  -9  -1   47.64    1.01
  -2  -9  -1   46.27    0.92
  -2  -9  -1   46.72    1.02
   2   9   1   45.55    1.00
   2   9   1   44.91    0.99
  -3  -9  -1    7.32    0.29
   3   9   1    7.10    0.30
   3   9   1    6.89    0.25
   3   9   1    6.35    0.21
   3   9   1    7.80    0.29
  -4  -9  -1    9.32    0.35
  -4  -9  -1    9.68    0.35
   4   9   1    9.27    0.30
   4   9   1    9.80    0.35
   4   9   1    9.58    0.37
   4   9   1    9.36    0.31
  -5  -9  -1    2.70    0.25
  -5  -9  -1    2.42    0.26
  -5  -9  -1    2.11    0.26
  -5  -9  -1    2.04    0.24
   5   9   1    1.96    0.27
   5   9   1    2.21    0.25
   5   9   1    2.25    0.22
   5   9   1    2.41    0.23
  -6  -9  -1    5.16    0.35
  -6  -9  -1    4.83    0.38
  -6  -9  -1    5.13    0.35
  -6  -9  -1    4.67    0.36
   6   9   1    4.08    0.32
   6   9   1    4.83    0.35
   6   9   1    5.15    0.41
   6   9   1    5.48    0.34
   5 -10  -1    5.38    0.29
   5 -10  -1    6.34    0.34
  -5  10   1    5.71    0.29
  -5  10   1    5.83    0.33
  -5  10   1    5.85    0.29
  -5  10   1    5.87    0.31
   4 -10  -1    5.05    0.26
   4 -10  -1    4.94    0.27
  -4  10   1    5.29    0.26
  -4  10   1    5.39    0.25
  -4  10   1    5.68    0.24
  -4  10   1    5.18    0.27
  -4  10   1    5.50    0.29
   3 -10  -1    6.53    0.27
   3 -10  -1    6.42    0.28
  -3  10   1    6.47    0.25
  -3  10   1    6.51    0.29
  -3  10   1    6.34    0.24
   2 -10  -1    0.97    0.12
   2 -10  -1    0.63    0.10
  -2  10   1    0.89    0.12
  -2  10   1    0.97    0.12
   1 -10  -1   14.70    0.42
   1 -10  -1   14.32    0.42
  -1  10   1   14.94    0.43
  -1  10   1   14.99    0.35
  -1  10   1   15.04    0.39
  -1  10   1   14.95    0.43
   0 -10  -1    8.21    0.31
   0  10   1    8.20    0.31
   0  10   1    8.53    0.22
   0  10   1    8.49    0.28
   0  10   1    8.40    0.31
  -1 -10  -1   11.22    0.37
  -1 -10  -1   11.02    0.36
   1  10   1   11.93    0.38
   1  10   1   11.60    0.38
  -2 -10  -1    3.70    0.23
  -2 -10  -1    3.46    0.22
   2  10   1    3.70    0.22
   3  10   1   12.98    0.45
   3  10   1   13.03    0.38
   3  10   1   13.11    0.42
  -4 -10  -1   10.09    0.37
  -4 -10  -1   10.17    0.39
  -4 -10  -1    9.75    0.39
   4  10   1   10.19    0.38
   4  10   1   10.26    0.41
   4  10   1   10.03    0.35
  -5 -10  -1    4.70    0.35
  -5 -10  -1    5.93    0.33
  -5 -10  -1    4.58    0.34
  -5 -10  -1    5.05    0.35
   5  10   1    5.44    0.31
   5  10   1    4.59    0.37
   5  10   1    5.56    0.31
   5  10   1    5.69    0.35
   5 -11  -1    0.61    0.17
   5 -11  -1    0.88    0.19
  -5  11   1    0.61    0.16
  -5  11   1    0.79    0.19
  -5  11   1    0.50    0.18
  -5  11   1    0.20    0.18
   4 -11  -1    4.41    0.29
   4 -11  -1    4.16    0.29
  -4  11   1    4.59    0.26
  -4  11   1    4.85    0.30
  -4  11   1    4.42    0.32
   3 -11  -1    5.76    0.28
   3 -11  -1    5.26    0.29
  -3  11   1    5.65    0.25
  -3  11   1    5.20    0.27
  -3  11   1    5.99    0.32
   2 -11  -1    4.09    0.24
  -2  11   1    3.84    0.19
  -2  11   1    4.19    0.27
   1 -11  -1    5.70    0.28
   1 -11  -1    5.96    0.27
  -1  11   1    5.91    0.28
  -1  11   1    6.02    0.20
   0 -11  -1    4.26    0.25
   0 -11  -1    4.79    0.27
   0  11   1    4.18    0.26
   0  11   1    4.57    0.16
   0  11   1    4.53    0.27
  -1 -11  -1    6.56    0.31
  -1 -11  -1    7.09    0.31
   1  11   1    6.58    0.32
   1  11   1    7.03    0.32
  -2 -11  -1    1.05    0.13
  -2 -11  -1    0.95    0.14
  -2 -11  -1    1.27    0.16
   2  11   1    1.32    0.17
   2  11   1    1.77    0.22
  -3 -11  -1   12.87    0.46
  -3 -11  -1   13.54    0.46
  -3 -11  -1   12.58    0.41
   3  11   1   13.47    0.45
   3  11   1   12.76    0.40
   3  11   1   13.02    0.48
  -4 -11  -1    0.91    0.18
  -4 -11  -1    0.98    0.18
  -4 -11  -1    1.07    0.18
   4  11   1    0.84    0.15
   4  11   1    0.98    0.20
   4  11   1    0.85    0.17
   4 -12  -1    2.25    0.31
  -4  12   1    2.50    0.26
  -4  12   1    2.18    0.22
  -4  12   1    2.97    0.25
   3 -12  -1    6.24    0.35
   3 -12  -1    6.59    0.33
  -3  12   1    6.13    0.35
  -3  12   1    6.80    0.31
  -3  12   1    6.76    0.26
  -3  12   1    6.22    0.29
   2 -12  -1    2.41    0.27
   2 -12  -1    1.98    0.21
   2 -12  -1    2.57    0.25
  -2  12   1    2.01    0.21
  -2  12   1    2.63    0.29
  -2  12   1    2.63    0.17
  -2  12   1    2.38    0.27
   1 -12  -1    1.92    0.23
   1 -12  -1    2.68    0.27
  -1  12   1    2.25    0.26
  -1  12   1    1.83    0.25
  -1  12   1    1.93    0.15
  -1  12   1    2.24    0.21
   0 -12  -1    0.61    0.14
   0 -12  -1    0.69    0.11
   0 -12  -1    0.59    0.14
   0  12   1    0.66    0.15
   0  12   1    0.62    0.09
   0  12   1    0.55    0.11
   0  12   1    0.51    0.13
  -1 -12  -1    4.56    0.25
  -1 -12  -1    4.77    0.31
  -1 -12  -1    4.81    0.30
   1  12   1    4.57    0.32
   1  12   1    4.24    0.24
   1  12   1    4.36    0.31
  -2 -12  -1    1.44    0.19
  -2 -12  -1    1.31    0.17
  -2 -12  -1    1.29    0.15
   2  12   1    1.47    0.16
   2  12   1    1.34    0.19
   2  12   1    1.49    0.19
  -3 -12  -1    3.21    0.32
  -3 -12  -1    2.75    0.27
  -3 -12  -1    3.58    0.34
   3  12   1    3.05    0.31
   3  12   1    3.58    0.27
   3  12   1    2.71    0.36
   3 -13  -1    2.85    0.37
  -3  13   1    2.72    0.32
  -3  13   1    3.25    0.41
  -3  13   1    3.16    0.25
   2 -13  -1    4.95    0.37
   2 -13  -1    4.88    0.29
   2 -13  -1    5.25    0.36
  -2  13   1    5.42    0.40
  -2  13   1    5.28    0.23
  -2  13   1    5.07    0.31
  -2  13   1    5.37    0.35
   1 -13  -1    0.77    0.15
   1 -13  -1    0.82    0.19
   1 -13  -1    0.77    0.19
  -1  13   1    1.07    0.12
  -1  13   1    0.50    0.18
  -1  13   1    0.89    0.15
  -1  13   1    0.82    0.18
   0 -13  -1    9.63    0.45
   0 -13  -1    8.98    0.35
   0  13   1    8.60    0.36
   0  13   1    8.67    0.42
   0  13   1    9.08    0.44
  -1 -13  -1    4.44    0.27
  -1 -13  -1    4.25    0.37
  -1 -13  -1    3.50    0.34
   1  13   1    3.27    0.35
   1  13   1    3.85    0.28
   1  13   1    4.40    0.38
  -2 -13  -1    2.21    0.27
  -2 -13  -1    2.27    0.25
  -2 -13  -1    2.66    0.37
   2  13   1    1.68    0.23
   2  13   1    1.93    0.24
   2  12  -2    8.66    0.53
   2  12  -2    7.79    0.52
   2  12  -2    9.00    0.30
  -2 -12   2    9.07    0.50
   1  12  -2    3.94    0.38
   1  12  -2    3.02    0.22
   1  12  -2    3.36    0.40
  -1 -12   2    3.66    0.36
  -1 -12   2    3.23    0.39
  -1 -12   2    3.16    0.30
   0  12  -2   -0.08    0.12
   0  12  -2    0.17    0.19
   0  12  -2   -0.33    0.14
   0  12  -2    0.19    0.18
   0 -12   2   -0.05    0.18
   0 -12   2    0.24    0.13
   0 -12   2    0.11    0.15
  -1  12  -2    6.17    0.37
  -1  12  -2    7.49    0.42
  -1  12  -2    7.05    0.40
   1 -12   2    6.36    0.36
   1 -12   2    7.75    0.33
   1 -12   2    6.81    0.43
  -2  12  -2    3.62    0.34
  -2  12  -2    3.68    0.23
  -2  12  -2    2.77    0.35
  -2  12  -2    3.67    0.24
   2 -12   2    3.34    0.31
   2 -12   2    3.45    0.28
   2 -12   2    3.23    0.38
  -3  12  -2    0.16    0.14
  -3  12  -2    0.20    0.20
  -3  12  -2    0.18    0.13
  -3  12  -2   -0.03    0.19
   3 -12   2    0.06    0.21
   3  11  -2    0.59    0.16
   3  11  -2    0.55    0.23
   3  11  -2    0.83    0.19
  -3 -11   2    0.05    0.18
   2  11  -2    0.85    0.20
   2  11  -2    0.77    0.12
   2  11  -2    0.57    0.14
   2  11  -2    1.06    0.18
  -2 -11   2    0.76    0.15
  -2 -11   2    0.61    0.18
  -2 -11   2    0.16    0.16
   1  11  -2    4.16    0.33
   1  11  -2    3.66    0.20
   1  11  -2    3.45    0.26
   1  11  -2    4.11    0.33
  -1 -11   2    3.86    0.33
  -1 -11   2    4.03    0.31
  -1 -11   2    3.71    0.25
   0  11  -2    1.41    0.16
   0  11  -2    1.52    0.19
   0  11  -2    1.12    0.16
   0  11  -2    1.59    0.17
   0 -11   2    1.85    0.20
   0 -11   2    1.48    0.19
   0 -11   2    1.98    0.27
  -1  11  -2    0.89    0.16
  -1  11  -2    1.42    0.17
  -1  11  -2    1.32    0.19
  -1  11  -2    1.12    0.15
   1 -11   2    1.20    0.14
   1 -11   2    1.08    0.15
   1 -11   2    1.18    0.18
  -2  11  -2    0.57    0.15
  -2  11  -2    0.75    0.13
  -2  11  -2    0.74    0.12
  -2  11  -2    0.69    0.15
  -2  11  -2    0.48    0.17
   2 -11   2    0.78    0.14
   2 -11   2    0.67    0.17
   2 -11   2    0.66    0.12
  -3  11  -2    0.65    0.17
  -3  11  -2    0.53    0.17
  -3  11  -2    0.98    0.15
  -3  11  -2    0.91    0.15
  -3  11  -2    0.75    0.16
   3 -11   2    0.90    0.15
   3 -11   2    0.69    0.13
  -4  11  -2    3.48    0.35
  -4  11  -2    3.21    0.37
  -4  11  -2    3.70    0.25
  -4  11  -2    3.06    0.33
  -4  11  -2    3.71    0.26
   4 -11   2    3.29    0.34
   4 -11   2    3.21    0.31
   4 -11   2    2.90    0.31
   4  10  -2    0.60    0.23
   4  10  -2    0.65    0.16
   4  10  -2    0.18    0.17
   4  10  -2    0.65    0.16
  -4 -10   2    0.70    0.20
  -4 -10   2    1.07    0.16
   3  10  -2    2.36    0.31
   3  10  -2    2.25    0.24
   3  10  -2    1.97    0.20
  -3 -10   2    2.73    0.26
  -3 -10   2    2.95    0.29
  -3 -10   2    2.15    0.29
   2  10  -2    0.26    0.13
   2  10  -2    0.13    0.13
   2  10  -2    0.39    0.11
  -2 -10   2    0.20    0.10
  -2 -10   2    0.40    0.13
  -2 -10   2    0.33    0.14
   1  10  -2    0.89    0.10
   1  10  -2    1.00    0.16
   1  10  -2    0.86    0.14
  -1 -10   2    0.72    0.15
  -1 -10   2    1.12    0.15
   0  10  -2    5.20    0.21
   0  10  -2    5.42    0.29
   0  10  -2    5.75    0.29
   0 -10   2    5.62    0.29
   0 -10   2    5.79    0.30
  -1  10  -2    1.02    0.16
  -1  10  -2    1.34    0.16
   1 -10   2    1.00    0.14
   1 -10   2    1.47    0.19
   1 -10   2    1.09    0.11
   2 -10   2    3.33    0.25
   2 -10   2    3.09    0.19
   2 -10   2    3.27    0.22
  -3  10  -2    1.05    0.16
  -3  10  -2    1.01    0.15
  -3  10  -2    1.12    0.14
  -3  10  -2    1.21    0.14
   3 -10   2    0.77    0.12
   3 -10   2    0.92    0.14
   3 -10   2    0.76    0.13
  -4  10  -2    2.65    0.28
  -4  10  -2    3.35    0.22
  -4  10  -2    3.42    0.28
  -4  10  -2    3.23    0.30
  -4  10  -2    3.30    0.24
   4 -10   2    3.07    0.25
   4 -10   2    3.00    0.28
  -5  10  -2    1.18    0.21
  -5  10  -2    1.35    0.17
  -5  10  -2    1.46    0.20
  -5  10  -2    1.74    0.20
  -5  10  -2    1.65    0.20
   5 -10   2    1.08    0.18
   5 -10   2    1.40    0.20
   5   9  -2    0.24    0.23
   5   9  -2    0.37    0.15
   5   9  -2    0.00    0.17
  -5  -9   2   -0.10    0.14
   4   9  -2    2.18    0.21
   4   9  -2    1.98    0.23
   4   9  -2    2.50    0.32
   4   9  -2    2.03    0.23
  -4  -9   2    2.65    0.27
  -4  -9   2    2.62    0.22
  -4  -9   2    2.43    0.28
   3   9  -2    2.62    0.20
   3   9  -2    2.36    0.23
   3   9  -2    2.19    0.20
   3   9  -2    2.37    0.26
  -3  -9   2    2.03    0.24
  -3  -9   2    1.77    0.21
   2   9  -2    2.54    0.24
   2   9  -2    2.60    0.18
   2   9  -2    2.40    0.22
  -2  -9   2    2.41    0.23
  -2  -9   2    2.25    0.23
   1   9  -2   14.54    0.44
   1   9  -2   14.11    0.45
  -1  -9   2   14.27    0.45
  -1  -9   2   14.42    0.44
   0   9  -2   14.94    0.45
   0   9  -2   14.20    0.36
   0   9  -2   14.85    0.44
   0  -9   2   14.29    0.44
   0  -9   2   15.22    0.43
  -1   9  -2    6.87    0.23
  -1   9  -2    6.77    0.30
  -1   9  -2    7.16    0.29
   1  -9   2    6.75    0.29
   1  -9   2    6.73    0.23
   1  -9   2    6.92    0.27
  -2   9  -2    0.65    0.11
  -2   9  -2    0.65    0.11
   2  -9   2    0.60    0.11
   2  -9   2    0.56    0.10
   2  -9   2    0.67    0.09
  -3   9  -2    0.99    0.14
  -3   9  -2    1.07    0.12
  -3   9  -2    1.03    0.14
   3  -9   2    1.01    0.12
   3  -9   2    1.07    0.14
   3  -9   2    1.14    0.13
  -4   9  -2    1.59    0.21
  -4   9  -2    1.41    0.16
  -4   9  -2    1.93    0.19
  -4   9  -2    1.67    0.18
   4  -9   2    1.64    0.16
   4  -9   2    1.67    0.21
   4  -9   2    1.57    0.20
  -5   9  -2    2.98    0.25
  -5   9  -2    3.58    0.26
  -5   9  -2    3.36    0.26
  -5   9  -2    3.23    0.23
   5  -9   2    3.01    0.26
   5  -9   2    3.31    0.25
   5   8  -2    0.25    0.15
   5   8  -2    0.39    0.13
   5   8  -2    0.46    0.19
   5   8  -2    0.57    0.14
  -5  -8   2    0.34    0.16
  -5  -8   2    0.25    0.17
  -5  -8   2    0.44    0.14
  -5  -8   2    0.10    0.15
   4   8  -2    3.09    0.28
   4   8  -2    3.39    0.24
   4   8  -2    3.03    0.22
   4   8  -2    3.12    0.21
  -4  -8   2    3.10    0.26
  -4  -8   2    2.99    0.21
  -4  -8   2    3.05    0.24
   3   8  -2   11.43    0.37
   3   8  -2   11.36    0.32
   3   8  -2   10.90    0.34
   3   8  -2   11.05    0.39
   2   8  -2   11.72    0.37
   2   8  -2   11.64    0.32
   2   8  -2   11.69    0.38
   2   8  -2   11.70    0.34
  -2  -8   2   11.56    0.38
  -2  -8   2   11.88    0.37
   1   8  -2    2.09    0.18
   1   8  -2    2.04    0.17
  -1  -8   2    2.10    0.17
   0   8  -2    2.23    0.17
   0   8  -2    2.17    0.13
   0  -8   2    2.31    0.13
   0  -8   2    2.25    0.17
   0  -8   2    2.38    0.18
  -1   8  -2    4.08    0.17
  -1   8  -2    3.83    0.20
  -1   8  -2    3.90    0.21
   1  -8   2    3.87    0.20
   1  -8   2    4.00    0.21
   1  -8   2    3.72    0.17
  -2   8  -2    5.48    0.23
  -2   8  -2    5.22    0.21
   2  -8   2    5.16    0.19
   2  -8   2    5.07    0.19
   2  -8   2    5.35    0.24
  -3   8  -2    3.86    0.21
  -3   8  -2    3.80    0.19
  -3   8  -2    3.84    0.18
   3  -8   2    3.76    0.21
   3  -8   2    3.92    0.17
   3  -8   2    3.64    0.19
  -4   8  -2    0.87    0.11
  -4   8  -2    0.95    0.13
  -4   8  -2    0.80    0.12
   4  -8   2    0.80    0.09
   4  -8   2    0.95    0.12
   4  -8   2    0.76    0.10
  -5   8  -2    0.21    0.10
  -5   8  -2    0.27    0.11
  -5   8  -2    0.16    0.12
  -5   8  -2    0.32    0.13
  -5   8  -2    0.27    0.11
   5  -8   2    0.30    0.09
   5  -8   2    0.20    0.10
   5  -8   2    0.39    0.10
  -6   8  -2    0.57    0.18
  -6   8  -2    0.36    0.14
  -6   8  -2    0.38    0.13
  -6   8  -2    0.47    0.16
   6  -8   2    0.35    0.13
   6  -8   2    0.27    0.12
   6   7  -2    0.50    0.17
   6   7  -2    0.97    0.18
   6   7  -2    0.75    0.22
   6   7  -2    1.06    0.17
  -6  -7   2    0.98    0.20
  -6  -7   2    0.98    0.19
  -6  -7   2    0.91    0.17
   5   7  -2    1.35    0.16
   5   7  -2    1.40    0.16
   5   7  -2    1.40    0.19
   5   7  -2    1.47    0.19
  -5  -7   2    1.62    0.20
  -5  -7   2    1.30    0.18
  -5  -7   2    1.88    0.25
  -5  -7   2    1.18    0.16
   4   7  -2    2.73    0.18
   4   7  -2    2.49    0.17
   4   7  -2    2.61    0.21
   4   7  -2    2.67    0.25
   3   7  -2   25.87    0.60
   3   7  -2   26.15    0.66
   3   7  -2   26.74    0.64
   3   7  -2   27.25    0.58
  -3  -7   2   27.63    0.66
   2   7  -2    5.64    0.25
   2   7  -2    5.91    0.20
   2   7  -2    5.68    0.24
   2   7  -2    5.66    0.22
  -2  -7   2    5.98    0.24
   1   7  -2    9.06    0.29
   1   7  -2    9.40    0.27
   1   7  -2    9.33    0.30
  -1  -7   2    9.61    0.30
  -1  -7   2    9.38    0.31
   0   7  -2   11.47    0.31
   0   7  -2   11.39    0.33
   0   7  -2   10.74    0.32
   0  -7   2   11.15    0.32
   0  -7   2   11.23    0.28
   0  -7   2   10.82    0.33
  -1   7  -2   45.29    0.91
  -1   7  -2   47.43    0.98
  -1   7  -2   46.08    0.99
  -1   7  -2   47.99    0.96
   1  -7   2   46.01    0.92
   1  -7   2   45.89    0.97
   1  -7   2   45.88    0.87
   1  -7   2   46.03    0.96
  -2   7  -2    0.56    0.09
  -2   7  -2    0.68    0.09
  -2   7  -2    0.78    0.09
  -2   7  -2    0.80    0.09
  -2   7  -2    0.58    0.09
   2  -7   2    0.57    0.09
   2  -7   2    0.63    0.08
   2  -7   2    0.62    0.07
  -3   7  -2   28.33    0.59
  -3   7  -2   27.48    0.63
  -3   7  -2   28.67    0.64
  -3   7  -2   28.53    0.64
   3  -7   2   28.88    0.61
   3  -7   2   28.51    0.64
   3  -7   2   28.63    0.65
  -4   7  -2   10.84    0.34
  -4   7  -2   11.17    0.32
  -4   7  -2   10.92    0.34
  -4   7  -2   11.09    0.32
  -4   7  -2   10.57    0.32
   4  -7   2   10.85    0.29
   4  -7   2   10.89    0.32
  -5   7  -2    0.60    0.12
  -5   7  -2    0.36    0.11
  -5   7  -2    0.46    0.10
  -5   7  -2    0.65    0.14
   5  -7   2    0.44    0.08
   5  -7   2    0.61    0.09
   5  -7   2    0.50    0.10
  -6   7  -2    0.69    0.13
  -6   7  -2    0.80    0.10
  -6   7  -2    0.81    0.17
  -6   7  -2    0.68    0.15
   6  -7   2    0.72    0.11
   6  -7   2    0.65    0.12
   6  -7   2    0.68    0.11
   6   6  -2    4.86    0.25
   6   6  -2    4.04    0.35
   6   6  -2    4.54    0.30
   6   6  -2    4.70    0.29
  -6  -6   2    4.86    0.29
  -6  -6   2    5.22    0.31
  -6  -6   2    4.81    0.27
  -6  -6   2    5.03    0.38
  -6  -6   2    4.38    0.32
   5   6  -2    1.15    0.16
   5   6  -2    0.84    0.12
   5   6  -2    1.07    0.17
   5   6  -2    0.92    0.13
  -5  -6   2    1.08    0.14
  -5  -6   2    1.27    0.16
  -5  -6   2    1.37    0.17
  -5  -6   2    1.19    0.14
  -5  -6   2    1.07    0.14
   4   6  -2   16.38    0.45
   4   6  -2   16.32    0.47
   4   6  -2   16.77    0.41
  -4  -6   2   17.24    0.44
  -4  -6   2   17.29    0.46
   3   6  -2   12.92    0.37
   3   6  -2   12.83    0.33
   3   6  -2   13.05    0.38
   3   6  -2   12.63    0.33
  -3  -6   2   12.92    0.37
  -3  -6   2   13.02    0.37
   2   6  -2    1.45    0.11
   2   6  -2    1.29    0.13
   2   6  -2    1.42    0.14
   2   6  -2    1.37    0.11
  -2  -6   2    1.44    0.13
  -2  -6   2    1.34    0.14
  -2  -6   2    1.31    0.11
   1   6  -2   14.79    0.33
   1   6  -2   15.15    0.36
   1   6  -2   14.58    0.39
   1   6  -2   14.50    0.38
  -1  -6   2   14.78    0.38
  -1  -6   2   14.75    0.39
   0   6  -2    0.96    0.11
   0   6  -2    0.99    0.11
   0   6  -2    0.90    0.09
   0  -6   2    0.90    0.10
   0  -6   2    0.89    0.08
   0  -6   2    1.00    0.08
   0  -6   2    0.84    0.10
  -1   6  -2    1.01    0.10
  -1   6  -2    1.19    0.09
  -1   6  -2    1.15    0.11
  -1   6  -2    0.96    0.11
   1  -6   2    1.06    0.08
   1  -6   2    0.99    0.08
   1  -6   2    1.10    0.11
   1  -6   2    0.96    0.10
  -2   6  -2   18.03    0.43
  -2   6  -2   18.22    0.43
  -2   6  -2   17.83    0.41
  -2   6  -2   17.82    0.43
  -2   6  -2   18.22    0.38
   2  -6   2   18.27    0.43
   2  -6   2   17.77    0.43
   2  -6   2   17.81    0.40
  -3   6  -2    5.44    0.20
  -3   6  -2    5.61    0.19
  -3   6  -2    5.53    0.21
  -3   6  -2    5.69    0.20
  -3   6  -2    5.38    0.19
   3  -6   2    5.42    0.19
   3  -6   2    5.57    0.18
   3  -6   2    5.48    0.20
  -4   6  -2   11.64    0.34
  -4   6  -2   11.75    0.34
  -4   6  -2   12.30    0.32
  -4   6  -2   12.32    0.32
  -4   6  -2   11.78    0.35
   4  -6   2   11.80    0.31
   4  -6   2   11.95    0.30
   4  -6   2   11.74    0.32
  -5   6  -2   12.18    0.37
  -5   6  -2   12.59    0.33
  -5   6  -2   13.37    0.39
  -5   6  -2   12.66    0.38
   5  -6   2   12.62    0.32
   5  -6   2   12.32    0.33
   5  -6   2   12.53    0.32
  -6   6  -2    4.08    0.26
  -6   6  -2    4.17    0.24
   6  -6   2    3.98    0.18
   6  -6   2    3.96    0.18
   6  -6   2    3.85    0.18
   7  -6   2    1.76    0.17
   7  -6   2    2.50    0.26
   6   5  -2    0.80    0.12
   6   5  -2    1.08    0.16
   6   5  -2    0.83    0.14
   6   5  -2    0.89    0.17
  -6  -5   2    1.02    0.14
  -6  -5   2    0.85    0.19
  -6  -5   2    0.94    0.14
  -6  -5   2    0.84    0.15
  -6  -5   2    0.93    0.15
   5   5  -2    0.85    0.10
   5   5  -2    0.72    0.11
   5   5  -2    0.78    0.13
   5   5  -2    0.79    0.11
  -5  -5   2    0.93    0.13
  -5  -5   2    0.94    0.12
  -5  -5   2    0.89    0.13
   4   5  -2    3.02    0.15
   4   5  -2    2.97    0.20
  -4  -5   2    2.57    0.18
  -4  -5   2    2.85    0.18
  -4  -5   2    2.83    0.16
  -4  -5   2    3.03    0.17
  -4  -5   2    2.82    0.18
   3   5  -2    4.31    0.19
   3   5  -2    4.44    0.20
   3   5  -2    4.32    0.17
   3   5  -2    4.32    0.16
  -3  -5   2    4.40    0.17
  -3  -5   2    4.31    0.18
  -3  -5   2    4.31    0.16
  -3  -5   2    4.15    0.19
  -3  -5   2    4.22    0.19
   2   5  -2    2.27    0.11
   2   5  -2    2.06    0.14
   2   5  -2    2.35    0.13
   2   5  -2    2.09    0.11
  -2  -5   2    2.10    0.12
  -2  -5   2    2.14    0.13
  -2  -5   2    2.26    0.14
   1   5  -2   19.73    0.40
   1   5  -2   19.23    0.46
   1   5  -2   19.43    0.46
   1   5  -2   19.97    0.44
  -1  -5   2   19.41    0.46
  -1  -5   2   18.94    0.41
  -1  -5   2   19.85    0.46
   0   5  -2   22.38    0.50
   0   5  -2   22.06    0.51
   0   5  -2   22.33    0.48
   0  -5   2   22.25    0.45
   0  -5   2   21.91    0.51
   0  -5   2   22.29    0.50
   0  -5   2   22.51    0.47
  -1   5  -2   20.16    0.45
  -1   5  -2   19.93    0.45
  -1   5  -2   19.77    0.44
  -1   5  -2   19.36    0.42
   1  -5   2   20.02    0.43
   1  -5   2   20.15    0.45
   1  -5   2   20.12    0.40
   1  -5   2   19.52    0.46
  -2   5  -2    1.99    0.10
  -2   5  -2    1.88    0.11
  -2   5  -2    1.80    0.11
  -2   5  -2    2.02    0.11
  -2   5  -2    1.95    0.11
   2  -5   2    2.00    0.10
   2  -5   2    1.88    0.11
   2  -5   2    2.10    0.11
  -3   5  -2    2.86    0.14
  -3   5  -2    2.89    0.13
  -3   5  -2    2.96    0.13
  -3   5  -2    3.09    0.14
  -3   5  -2    2.94    0.15
   3  -5   2    2.86    0.13
   3  -5   2    2.96    0.12
   3  -5   2    2.84    0.12
  -4   5  -2    3.83    0.15
  -4   5  -2    3.71    0.18
  -4   5  -2    4.10    0.15
  -4   5  -2    3.68    0.18
  -4   5  -2    3.61    0.18
   4  -5   2    3.83    0.15
   4  -5   2    3.90    0.15
   4  -5   2    3.85    0.15
  -5   5  -2    1.24    0.10
  -5   5  -2    1.10    0.14
  -5   5  -2    0.73    0.10
  -5   5  -2    0.98    0.13
  -5   5  -2    1.24    0.16
   5  -5   2    1.24    0.11
   5  -5   2    1.19    0.10
   5  -5   2    1.12    0.11
  -6   5  -2    2.73    0.22
  -6   5  -2    3.05    0.21
   6  -5   2    2.96    0.16
  -7   5  -2    3.22    0.26
   7  -5   2    2.79    0.17
   7  -5   2    2.56    0.31
   7   4  -2    1.24    0.16
   7   4  -2    1.00    0.21
   7   4  -2    1.31    0.14
  -7  -4   2    1.08    0.18
  -7  -4   2    1.15    0.18
  -7  -4   2    0.91    0.15
  -7  -4   2    0.98    0.24
   6   4  -2    5.06    0.24
   6   4  -2    4.91    0.27
   6   4  -2    5.08    0.28
   6   4  -2    4.88    0.21
  -6  -4   2    4.76    0.26
  -6  -4   2    4.81    0.25
  -6  -4   2    5.01    0.31
  -6  -4   2    5.18    0.24
   5   4  -2    2.36    0.20
   5   4  -2    2.29    0.18
   5   4  -2    2.17    0.17
   5   4  -2    2.14    0.14
  -5  -4   2    2.03    0.17
  -5  -4   2    2.23    0.17
   4   4  -2   16.43    0.40
   4   4  -2   16.30    0.41
   4   4  -2   16.16    0.43
   4   4  -2   16.16    0.37
  -4  -4   2   16.16    0.43
  -4  -4   2   16.45    0.41
  -4  -4   2   15.76    0.40
   3   4  -2    7.91    0.24
   3   4  -2    7.87    0.21
   3   4  -2    7.99    0.23
   3   4  -2    7.85    0.25
  -3  -4   2    8.12    0.23
  -3  -4   2    7.95    0.26
  -3  -4   2    8.11    0.23
  -3  -4   2    8.28    0.25
  -3  -4   2    8.19    0.25
   2   4  -2    5.35    0.19
   2   4  -2    5.43    0.16
   2   4  -2    5.73    0.19
   2   4  -2    5.40    0.16
  -2  -4   2    5.55    0.16
  -2  -4   2    5.38    0.19
  -2  -4   2    5.60    0.18
  -2  -4   2    5.75    0.19
   1   4  -2   33.42    0.70
   1   4  -2   32.84    0.62
   1   4  -2   33.59    0.70
   1   4  -2   33.24    0.67
  -1  -4   2   33.80    0.64
  -1  -4   2   34.04    0.70
  -1  -4   2   32.63    0.71
   0   4  -2  135.26    2.55
   0   4  -2  136.25    2.59
   0   4  -2  140.11    2.60
   0  -4   2  137.67    2.36
   0  -4   2  134.48    2.54
   0  -4   2  137.71    2.60
   0  -4   2  138.15    2.59
  -1   4  -2   27.08    0.56
  -1   4  -2   27.04    0.53
  -1   4  -2   25.60    0.55
  -1   4  -2   26.36    0.56
   1  -4   2   26.67    0.54
   1  -4   2   26.19    0.56
   1  -4   2   26.31    0.56
   1  -4   2   27.22    0.50
  -2   4  -2   17.75    0.35
  -2   4  -2   17.00    0.38
  -2   4  -2   16.84    0.38
  -2   4  -2   17.11    0.39
  -2   4  -2   17.45    0.38
   2  -4   2   17.28    0.38
   2  -4   2   16.77    0.38
   2  -4   2   17.11    0.37
  -3   4  -2   20.25    0.44
  -3   4  -2   20.84    0.47
  -3   4  -2   21.28    0.44
  -3   4  -2   20.50    0.46
  -3   4  -2   20.62    0.44
   3  -4   2   20.50    0.44
   3  -4   2   20.11    0.44
   3  -4   2   20.74    0.43
   3  -4   2   19.96    0.50
  -4   4  -2   17.68    0.38
  -4   4  -2   17.64    0.42
  -4   4  -2   17.60    0.42
   4  -4   2   18.46    0.40
   4  -4   2   18.17    0.39
   4  -4   2   17.53    0.39
  -5   4  -2    2.41    0.10
  -5   4  -2    2.26    0.10
  -5   4  -2    2.47    0.18
  -5   4  -2    2.50    0.16
   5  -4   2    2.62    0.13
   5  -4   2    2.42    0.11
   5  -4   2    2.44    0.11
  -6   4  -2    4.69    0.25
  -6   4  -2    4.75    0.24
   6  -4   2    4.70    0.25
   6  -4   2    4.71    0.18
  -7   4  -2    5.75    0.30
   7  -4   2    5.04    0.20
   7  -4   2    5.21    0.33
   7   3  -2    7.07    0.36
   7   3  -2    6.58    0.31
   7   3  -2    7.01    0.25
   7   3  -2    7.06    0.29
  -7  -3   2    7.21    0.28
  -7  -3   2    7.22    0.33
  -7  -3   2    6.46    0.30
   6   3  -2    0.24    0.08
   6   3  -2    0.31    0.09
   6   3  -2    0.11    0.11
   6   3  -2    0.11    0.13
  -6  -3   2    0.30    0.10
  -6  -3   2    0.17    0.08
  -6  -3   2    0.21    0.13
  -6  -3   2    0.13    0.10
   5   3  -2    2.34    0.16
   5   3  -2    2.25    0.12
   5   3  -2    2.15    0.18
   5   3  -2    2.34    0.17
  -5  -3   2    2.50    0.17
  -5  -3   2    2.39    0.17
  -5  -3   2    2.38    0.15
  -5  -3   2    2.38    0.17
   4   3  -2    3.89    0.17
   4   3  -2    4.15    0.17
   4   3  -2    4.21    0.19
   4   3  -2    3.99    0.14
  -4  -3   2    4.20    0.19
  -4  -3   2    4.12    0.18
  -4  -3   2    4.08    0.18
  -4  -3   2    4.27    0.17
  -4  -3   2    4.12    0.17
   3   3  -2    3.50    0.12
   3   3  -2    3.37    0.14
   3   3  -2    3.43    0.14
   3   3  -2    3.33    0.15
  -3  -3   2    3.31    0.13
  -3  -3   2    3.37    0.14
  -3  -3   2    3.66    0.15
  -3  -3   2    3.15    0.15
  -3  -3   2    3.35    0.15
   2   3  -2   12.64    0.31
   2   3  -2   12.51    0.28
   2   3  -2   12.81    0.29
   2   3  -2   12.59    0.32
  -2  -3   2   12.57    0.30
  -2  -3   2   13.17    0.29
  -2  -3   2   12.93    0.32
  -2  -3   2   12.84    0.32
   1   3  -2    8.17    0.20
   1   3  -2    8.12    0.22
   1   3  -2    8.24    0.19
   1   3  -2    8.40    0.22
  -1  -3   2    8.33    0.20
  -1  -3   2    8.20    0.23
  -1  -3   2    8.24    0.20
  -1  -3   2    8.48    0.22
   0   3  -2   48.92    0.97
   0   3  -2   49.96    0.97
   0   3  -2   49.42    0.88
   0   3  -2   49.73    0.95
   0  -3   2   49.76    0.97
   0  -3   2   48.75    0.98
   0  -3   2   49.99    0.88
   0  -3   2   49.56    0.94
  -1   3  -2   11.04    0.26
  -1   3  -2   10.90    0.25
  -1   3  -2   11.00    0.26
  -1   3  -2   10.61    0.26
   1  -3   2   10.66    0.26
   1  -3   2   10.89    0.25
   1  -3   2   10.82    0.25
  -2   3  -2  114.64    2.16
  -2   3  -2  115.26    2.17
  -2   3  -2  116.55    2.17
  -2   3  -2  116.18    2.11
   2  -3   2  113.90    2.16
   2  -3   2  113.28    2.16
   2  -3   2  115.46    2.14
   2  -3   2  117.79    2.22
  -3   3  -2   19.41    0.44
  -3   3  -2   19.96    0.42
  -3   3  -2   20.15    0.42
  -3   3  -2   19.63    0.44
  -3   3  -2   20.22    0.41
   3  -3   2   19.46    0.42
   3  -3   2   20.01    0.43
   3  -3   2   20.88    0.42
  -4   3  -2   20.64    0.50
  -4   3  -2   21.90    0.48
  -4   3  -2   22.07    0.44
  -4   3  -2   22.21    0.44
  -4   3  -2   22.37    0.49
   4  -3   2   23.01    0.45
   4  -3   2   22.61    0.48
   4  -3   2   21.47    0.56
   4  -3   2   22.90    0.46
  -5   3  -2    7.72    0.27
   5  -3   2    8.08    0.23
  -6   3  -2    3.22    0.21
  -6   3  -2    3.16    0.20
   6  -3   2    3.14    0.15
  -7   3  -2    0.87    0.16
   7  -3   2    0.88    0.10
   7  -3   2    0.71    0.16
   7   2  -2    3.90    0.17
   7   2  -2    4.26    0.32
   7   2  -2    4.17    0.22
  -7  -2   2    2.97    0.21
  -7  -2   2    4.08    0.26
   6   2  -2    2.22    0.17
   6   2  -2    1.76    0.19
   6   2  -2    1.86    0.12
   6   2  -2    2.17    0.21
  -6  -2   2    1.59    0.15
  -6  -2   2    1.55    0.18
  -6  -2   2    1.91    0.18
  -6  -2   2    1.73    0.17
   5   2  -2    3.25    0.12
   5   2  -2    3.28    0.17
   5   2  -2    3.43    0.19
  -5  -2   2    3.53    0.17
  -5  -2   2    3.33    0.18
  -5  -2   2    3.42    0.20
  -5  -2   2    3.26    0.20
  -5  -2   2    3.31    0.16
   4   2  -2    6.39    0.17
   4   2  -2    6.47    0.22
   4   2  -2    6.50    0.22
   4   2  -2    6.56    0.21
  -4  -2   2    6.88    0.21
  -4  -2   2    6.79    0.23
  -4  -2   2    6.67    0.23
  -4  -2   2    6.75    0.22
  -4  -2   2    6.59    0.22
   3   2  -2   17.38    0.41
   3   2  -2   17.86    0.37
   3   2  -2   17.88    0.39
   3   2  -2   18.03    0.41
  -3  -2   2   17.68    0.40
  -3  -2   2   18.13    0.42
  -3  -2   2   18.37    0.41
  -3  -2   2   17.49    0.39
  -3  -2   2   17.33    0.40
   2   2  -2   63.81    1.24
   2   2  -2   63.30    1.20
   2   2  -2   64.08    1.25
  -2  -2   2   63.55    1.17
  -2  -2   2   65.54    1.25
  -2  -2   2   66.34    1.18
  -2  -2   2   65.82    1.27
  -2  -2   2   64.11    1.27
   1   2  -2   33.97    0.68
   1   2  -2   33.77    0.65
   1   2  -2   33.19    0.61
  -1  -2   2   35.77    0.62
  -1  -2   2   33.37    0.69
  -1  -2   2   34.57    0.66
  -1  -2   2   33.72    0.69
   0   2  -2   10.55    0.25
   0   2  -2   10.74    0.24
   0   2  -2   11.07    0.22
   0   2  -2   11.04    0.25
   0  -2   2   10.76    0.22
   0  -2   2   11.07    0.25
   0  -2   2   10.80    0.24
   0  -2   2   10.87    0.25
  -1   2  -2    3.33    0.10
  -1   2  -2    3.21    0.10
  -1   2  -2    3.30    0.10
  -1   2  -2    3.31    0.08
  -1   2  -2    3.21    0.11
   1  -2   2    3.14    0.10
   1  -2   2    3.06    0.10
   1  -2   2    3.25    0.10
  -2   2  -2   51.12    1.01
  -2   2  -2   53.38    0.94
  -2   2  -2   52.77    0.99
  -2   2  -2   52.04    0.99
  -2   2  -2   51.64    0.98
   2  -2   2   51.85    1.05
   2  -2   2   52.71    1.00
   2  -2   2   53.03    0.99
   2  -2   2   51.76    1.00
  -3   2  -2    0.85    0.08
  -3   2  -2    0.86    0.05
  -3   2  -2    0.85    0.08
  -3   2  -2    0.93    0.05
   3  -2   2    0.78    0.11
   3  -2   2    0.91    0.05
   3  -2   2    0.95    0.08
   3  -2   2    0.86    0.05
  -4   2  -2   15.14    0.37
  -4   2  -2   15.18    0.37
   4  -2   2   15.68    0.35
   4  -2   2   14.90    0.42
  -5   2  -2   14.88    0.39
  -5   2  -2   15.04    0.39
   5  -2   2   15.29    0.39
   5  -2   2   15.60    0.37
  -6   2  -2   16.17    0.44
  -6   2  -2   16.31    0.45
   6  -2   2   16.78    0.40
   6  -2   2   16.94    0.45
  -7   2  -2    4.00    0.26
   7  -2   2    4.00    0.28
   7  -2   2    3.99    0.19
   7   1  -2    2.12    0.18
   7   1  -2    2.43    0.18
   7   1  -2    1.93    0.20
  -7  -1   2    1.90    0.23
  -7  -1   2    1.91    0.16
   6   1  -2    1.26    0.09
   6   1  -2    1.16    0.13
   6   1  -2    0.92    0.14
  -6  -1   2    1.18    0.13
  -6  -1   2    1.10    0.15
  -6  -1   2    1.26    0.14
   5   1  -2    9.07    0.26
   5   1  -2    8.91    0.21
   5   1  -2    8.83    0.29
   5   1  -2    9.10    0.27
  -5  -1   2    9.09    0.27
  -5  -1   2    9.17    0.26
  -5  -1   2    9.04    0.30
  -5  -1   2    9.29    0.29
   4   1  -2   41.47    0.80
   4   1  -2   39.66    0.77
   4   1  -2   40.54    0.82
   4   1  -2   39.78    0.83
  -4  -1   2   39.64    0.80
  -4  -1   2   38.85    0.82
  -4  -1   2   39.80    0.80
  -4  -1   2   40.76    0.81
  -4  -1   2   39.56    0.82
   3   1  -2    8.55    0.19
   3   1  -2    8.44    0.23
   3   1  -2    8.51    0.23
   3   1  -2    8.68    0.23
  -3  -1   2    8.93    0.23
  -3  -1   2    8.45    0.23
  -3  -1   2    8.60    0.24
  -3  -1   2    8.78    0.22
  -3  -1   2    8.57    0.24
   2   1  -2   53.22    1.07
   2   1  -2   56.26    1.07
   2   1  -2   55.25    1.03
  -2  -1   2   54.45    1.01
  -2  -1   2   57.19    1.02
  -2  -1   2   56.42    1.07
  -2  -1   2   56.58    1.09
  -2  -1   2   54.40    1.09
   1   1  -2   43.31    0.86
   1   1  -2   43.57    0.78
   1   1  -2   44.00    0.82
   1   1  -2   44.18    0.86
  -1  -1   2   44.14    0.87
  -1  -1   2   44.25    0.80
  -1  -1   2   46.60    0.80
  -1  -1   2   43.76    0.88
  -1  -1   2   45.57    0.84
   0   1  -2   47.50    0.81
   0   1  -2   47.76    0.91
   0   1  -2   46.53    0.81
   0   1  -2   47.37    0.90
   0   1  -2   45.58    0.88
   0  -1   2   46.88    0.82
   0  -1   2   46.85    0.89
   0  -1   2   47.63    0.91
  -1   1  -2  175.59    3.22
  -1   1  -2  185.37    2.98
  -1   1  -2  165.53    3.20
  -1   1  -2  167.38    3.23
  -1   1  -2  175.72    3.13
   1  -1   2  163.28    3.21
   1  -1   2  171.91    3.16
   1  -1   2  173.41    3.19
   1  -1   2  180.28    3.23
  -2   1  -2    9.28    0.24
  -2   1  -2    9.62    0.21
  -2   1  -2    9.40    0.22
  -2   1  -2    9.57    0.20
  -2   1  -2    9.37    0.23
   2  -1   2    9.32    0.22
   2  -1   2    9.57    0.19
   2  -1   2    9.29    0.24
   2  -1   2    9.48    0.22
  -3   1  -2   21.29    0.46
  -3   1  -2   20.32    0.50
  -3   1  -2   22.62    0.44
   3  -1   2   22.34    0.52
   3  -1   2   23.09    0.48
  -4   1  -2   19.70    0.44
  -4   1  -2   19.27    0.44
  -4   1  -2   19.71    0.48
   4  -1   2   20.58    0.44
   4  -1   2   19.71    0.50
   4  -1   2   20.71    0.45
  -5   1  -2   24.65    0.56
  -5   1  -2   24.85    0.56
   5  -1   2   26.43    0.57
   5  -1   2   26.41    0.57
  -6   1  -2   11.03    0.35
   6  -1   2   11.24    0.31
   6  -1   2   11.80    0.35
  -7   1  -2    5.89    0.29
   7  -1   2    6.39    0.24
   7  -1   2    6.16    0.30
  -8   1  -2    0.68    0.17
   8  -1   2    0.83    0.22
   8  -1   2    0.75    0.13
   7   0  -2    0.34    0.16
   7   0  -2    0.38    0.09
   7   0  -2    0.43    0.09
  -7   0   2    0.60    0.08
  -7   0   2    0.50    0.08
   6   0  -2   24.92    0.60
   6   0  -2   23.70    0.54
   6   0  -2   24.02    0.53
  -6   0   2   22.77    0.59
  -6   0   2   24.05    0.52
   5   0  -2    6.04    0.26
   5   0  -2    6.39    0.15
   5   0  -2    6.58    0.25
   5   0  -2    6.71    0.21
   5   0  -2    6.59    0.21
  -5   0   2    6.94    0.21
  -5   0   2    6.45    0.25
  -5   0   2    6.54    0.21
   4   0  -2   21.92    0.48
   4   0  -2   22.50    0.49
   4   0  -2   21.44    0.42
   4   0  -2   21.64    0.48
   4   0  -2   21.37    0.50
  -4   0   2   21.63    0.48
  -4   0   2   21.27    0.49
  -4   0   2   22.53    0.48
   3   0  -2   39.84    0.81
   3   0  -2   40.23    0.75
   3   0  -2   40.85    0.78
   3   0  -2   40.84    0.81
  -3   0   2   41.10    0.79
  -3   0   2   40.78    0.79
  -3   0   2   41.39    0.82
  -3   0   2   40.88    0.82
  -3   0   2   40.70    0.82
   2   0  -2   39.61    0.80
   2   0  -2   39.64    0.74
   2   0  -2   39.78    0.75
   2   0  -2   41.43    0.78
   2   0  -2   40.49    0.80
  -2   0   2   40.80    0.76
  -2   0   2   41.43    0.80
  -2   0   2   40.39    0.81
  -2   0   2   41.00    0.79
  -2   0   2   39.94    0.75
   1   0  -2    8.77    0.19
   1   0  -2    9.10    0.21
   1   0  -2    9.16    0.21
   1   0  -2    9.08    0.20
  -1   0   2    9.14    0.20
  -1   0   2    9.62    0.22
  -1   0   2    9.37    0.19
  -1   0   2    9.36    0.22
  -1   0   2    9.91    0.20
   0   0  -2   16.03    0.34
   0   0  -2   16.85    0.35
   0   0  -2   17.51    0.33
   0   0  -2   17.21    0.30
   0   0  -2   17.06    0.31
   0   0   2   16.33    0.35
   0   0   2   17.70    0.33
   0   0   2   16.99    0.30
   0   0   2   16.60    0.31
   0   0   2   16.39    0.33
  -1   0  -2  176.20    3.52
  -1   0  -2  188.44    3.47
  -1   0  -2  180.13    3.51
  -1   0  -2  194.44    3.41
  -1   0  -2  196.22    3.54
  -1   0  -2  197.84    3.23
   1   0   2  187.90    3.50
   1   0   2  196.95    3.51
   1   0   2  184.87    3.48
   1   0   2  181.02    3.49
  -2   0  -2   73.03    1.35
  -2   0  -2   74.69    1.30
   2   0   2   71.33    1.36
   2   0   2   69.75    1.41
   2   0   2   75.42    1.32
  -3   0  -2   16.44    0.36
  -3   0  -2   16.37    0.40
  -3   0  -2   17.41    0.36
   3   0   2   17.58    0.36
   3   0   2   17.82    0.42
   3   0   2   17.66    0.39
  -4   0  -2    8.14    0.26
  -4   0  -2    7.80    0.23
  -4   0  -2    7.73    0.22
   4   0   2    8.10    0.27
   4   0   2    8.43    0.23
   4   0   2    8.28    0.23
  -5   0  -2    5.37    0.21
  -5   0  -2    5.58    0.23
  -5   0  -2    5.24    0.20
   5   0   2    5.69    0.21
   5   0   2    5.57    0.20
  -6   0  -2    4.32    0.22
  -6   0  -2    4.59    0.25
   6   0   2    4.85    0.20
   6   0   2    4.95    0.23
  -7   0  -2    0.35    0.12
   7   0   2    0.57    0.11
   7   0   2    0.41    0.15
  -8   0  -2    4.27    0.29
   8   0   2    4.20    0.36
   8   0   2    4.17    0.25
   7  -1  -2    2.80    0.15
   7  -1  -2    2.66    0.16
   7  -1  -2    2.81    0.31
   6  -1  -2    3.23    0.16
   6  -1  -2    2.94    0.16
   6  -1  -2    3.60    0.24
  -6   1   2    3.32    0.15
  -6   1   2    3.21    0.22
  -6   1   2    3.03    0.15
   5  -1  -2   -0.19    0.10
   5  -1  -2   -0.04    0.05
   5  -1  -2    0.03    0.08
   5  -1  -2    0.03    0.05
  -5   1   2    0.03    0.05
  -5   1   2   -0.05    0.05
  -5   1   2    0.06    0.08
   4  -1  -2    2.87    0.15
   4  -1  -2    2.54    0.12
   4  -1  -2    2.69    0.12
   4  -1  -2    2.63    0.16
  -4   1   2    2.52    0.15
  -4   1   2    2.52    0.11
  -4   1   2    2.64    0.12
   3  -1  -2    4.08    0.14
   3  -1  -2    4.30    0.15
   3  -1  -2    3.91    0.15
   3  -1  -2    4.15    0.14
  -3   1   2    3.92    0.15
  -3   1   2    4.08    0.14
  -3   1   2    3.98    0.13
   2  -1  -2    3.67    0.12
   2  -1  -2    3.64    0.11
   2  -1  -2    3.71    0.12
   2  -1  -2    3.62    0.12
  -2   1   2    3.86    0.13
  -2   1   2    3.55    0.12
  -2   1   2    3.58    0.12
   1  -1  -2  513.74    8.80
   1  -1  -2  509.47    9.60
   1  -1  -2  510.58    9.58
   1  -1  -2  513.47    9.33
  -1   1   2  513.89    9.92
  -1   1   2  522.92    9.65
  -1   1   2  554.48    9.15
  -1   1   2  527.21    9.92
   0  -1  -2  111.88    2.04
   0  -1  -2  105.99    1.86
   0  -1  -2  110.47    2.04
   0   1   2  110.90    2.03
   0   1   2  106.02    2.00
   0   1   2  109.87    2.03
  -1  -1  -2  420.43    7.46
  -1  -1  -2  399.06    7.72
  -1  -1  -2  401.80    7.71
  -1  -1  -2  411.20    7.85
  -1  -1  -2  444.09    7.17
   1   1   2  413.43    7.85
   1   1   2  422.22    7.85
   1   1   2  431.92    7.96
  -2  -1  -2   75.12    1.37
  -2  -1  -2   74.13    1.35
  -2  -1  -2   74.59    1.31
  -2  -1  -2   73.82    1.37
  -2  -1  -2   72.61    1.44
   2   1   2   76.41    1.30
   2   1   2   75.37    1.38
   2   1   2   73.76    1.40
   2   1   2   76.60    1.40
  -3  -1  -2    9.43    0.23
  -3  -1  -2    9.06    0.23
   3   1   2    9.60    0.22
   3   1   2    9.51    0.26
  -4  -1  -2   11.90    0.34
  -4  -1  -2   11.55    0.30
  -4  -1  -2   11.66    0.29
   4   1   2   12.19    0.29
   4   1   2   11.84    0.34
  -5  -1  -2   57.78    1.14
  -5  -1  -2   60.20    1.25
   5   1   2   57.71    1.28
   5   1   2   62.90    1.14
   5   1   2   62.42    1.21
  -6  -1  -2    4.43    0.24
  -6  -1  -2    4.36    0.22
   6   1   2    4.73    0.21
   6   1   2    4.53    0.22
  -7  -1  -2    0.59    0.13
  -7  -1  -2    0.65    0.15
   7   1   2    0.86    0.12
   7   1   2    0.69    0.14
  -8  -1  -2    0.96    0.17
   8   1   2    0.97    0.21
   8   1   2    1.12    0.17
   7  -2  -2    4.41    0.32
   7  -2  -2    3.95    0.16
   7  -2  -2    3.81    0.17
   6  -2  -2   12.79    0.41
   6  -2  -2   12.16    0.31
   6  -2  -2   12.81    0.31
  -6   2   2   11.85    0.30
  -6   2   2   12.23    0.29
  -6   2   2   11.82    0.39
   5  -2  -2    2.43    0.23
   5  -2  -2    2.87    0.19
   5  -2  -2    2.87    0.13
   5  -2  -2    2.90    0.14
  -5   2   2    2.93    0.13
  -5   2   2    3.10    0.19
   4  -2  -2   12.40    0.33
   4  -2  -2   12.31    0.35
   4  -2  -2   12.87    0.31
   4  -2  -2   12.29    0.30
  -4   2   2   12.79    0.30
  -4   2   2   12.18    0.29
  -4   2   2   12.21    0.33
   3  -2  -2   47.41    0.94
   3  -2  -2   49.27    0.97
   3  -2  -2   47.40    0.91
   3  -2  -2   48.25    0.95
  -3   2   2   47.63    0.91
  -3   2   2   46.88    0.93
  -3   2   2   47.58    0.93
   2  -2  -2   64.02    1.23
   2  -2  -2   63.85    1.19
   2  -2  -2   64.67    1.23
  -2   2   2   64.22    1.25
  -2   2   2   67.14    1.18
  -2   2   2   65.26    1.26
   1  -2  -2   39.27    0.76
   1  -2  -2   38.42    0.75
  -1   2   2   39.45    0.77
  -1   2   2   38.40    0.77
  -1   2   2   41.45    0.72
   0  -2  -2   77.01    1.42
   0  -2  -2   74.29    1.42
   0   2   2   73.59    1.38
  -1  -2  -2  207.44    3.48
  -1  -2  -2  208.01    3.64
  -1  -2  -2  201.38    3.82
  -1  -2  -2  198.20    3.82
   1   2   2  205.44    3.83
   1   2   2  201.43    3.81
   1   2   2  206.82    3.49
  -2  -2  -2   12.63    0.26
  -2  -2  -2   12.92    0.26
  -2  -2  -2   12.72    0.25
   2   2   2   12.69    0.26
   2   2   2   12.88    0.26
   2   2   2   13.08    0.25
   2   2   2   12.65    0.26
  -3  -2  -2   22.68    0.45
  -3  -2  -2   22.95    0.44
  -3  -2  -2   22.20    0.51
  -3  -2  -2   23.06    0.45
  -3  -2  -2   22.87    0.46
  -3  -2  -2   23.00    0.46
   3   2   2   23.02    0.45
   3   2   2   22.61    0.47
   3   2   2   23.58    0.45
   3   2   2   23.34    0.45
  -4  -2  -2   20.52    0.50
  -4  -2  -2   19.94    0.43
  -4  -2  -2   20.01    0.45
   4   2   2   21.34    0.44
   4   2   2   20.21    0.50
   4   2   2   20.92    0.41
  -5  -2  -2    0.56    0.10
  -5  -2  -2    0.63    0.11
   5   2   2    0.64    0.09
   5   2   2    0.66    0.13
  -6  -2  -2    0.87    0.14
  -6  -2  -2    0.89    0.13
   6   2   2    0.94    0.12
   6   2   2    0.91    0.11
  -7  -2  -2    5.05    0.26
  -7  -2  -2    5.06    0.29
   7   2   2    5.07    0.27
   7   2   2    5.01    0.28
  -8  -2  -2    0.41    0.14
   8   2   2    0.65    0.19
   8   2   2    0.86    0.17
   7  -3  -2    0.15    0.17
   7  -3  -2    0.13    0.07
   6  -3  -2    2.04    0.15
   6  -3  -2    2.15    0.22
   6  -3  -2    2.13    0.13
  -6   3   2    2.52    0.21
  -6   3   2    2.12    0.14
  -6   3   2    2.30    0.13
   5  -3  -2   21.67    0.48
   5  -3  -2   21.36    0.52
   5  -3  -2   20.69    0.57
   5  -3  -2   20.96    0.46
  -5   3   2   21.21    0.47
  -5   3   2   19.91    0.44
  -5   3   2   20.67    0.52
   4  -3  -2   11.00    0.33
   4  -3  -2   11.08    0.31
   4  -3  -2   10.66    0.27
   4  -3  -2   11.14    0.28
  -4   3   2   10.67    0.26
  -4   3   2   11.08    0.28
  -4   3   2   10.97    0.31
   3  -3  -2    3.40    0.13
   3  -3  -2    3.30    0.12
   3  -3  -2    3.61    0.15
  -3   3   2    3.33    0.12
  -3   3   2    3.63    0.13
  -3   3   2    3.52    0.15
   2  -3  -2    2.73    0.10
   2  -3  -2    2.92    0.11
   2  -3  -2    2.88    0.11
  -2   3   2    2.84    0.07
  -2   3   2    2.76    0.10
  -2   3   2    2.86    0.11
  -2   3   2    2.91    0.11
   1  -3  -2    1.77    0.07
   1  -3  -2    1.77    0.08
   1  -3  -2    1.77    0.07
  -1   3   2    1.84    0.08
  -1   3   2    2.00    0.08
   0  -3  -2   44.69    0.86
   0  -3  -2   43.78    0.86
   0   3   2   44.79    0.86
   0   3   2   43.81    0.86
  -1  -3  -2   58.19    1.11
  -1  -3  -2   57.70    1.11
  -1  -3  -2   59.69    1.01
   1   3   2   55.10    1.07
   1   3   2   56.91    1.07
  -2  -3  -2  171.94    2.88
  -2  -3  -2  159.45    3.08
  -2  -3  -2  164.61    2.96
  -2  -3  -2  167.12    3.09
  -2  -3  -2  167.98    2.83
   2   3   2  164.70    2.88
   2   3   2  159.74    3.00
   2   3   2  161.35    2.75
   2   3   2  161.33    3.01
  -3  -3  -2  115.98    2.06
  -3  -3  -2  114.09    2.26
  -3  -3  -2  115.28    2.17
  -3  -3  -2  118.50    2.17
  -3  -3  -2  117.31    2.02
   3   3   2  113.48    2.14
   3   3   2  117.46    1.98
   3   3   2  115.74    2.14
   3   3   2  111.90    2.08
  -4  -3  -2    5.09    0.18
  -4  -3  -2    5.07    0.15
  -4  -3  -2    5.21    0.21
  -4  -3  -2    5.36    0.18
   4   3   2    5.33    0.17
   4   3   2    5.36    0.14
  -5  -3  -2    3.12    0.10
  -5  -3  -2    3.25    0.20
  -5  -3  -2    3.08    0.11
  -5  -3  -2    3.13    0.17
  -5  -3  -2    3.32    0.17
   5   3   2    3.24    0.11
   5   3   2    3.06    0.15
   5   3   2    3.19    0.12
  -6  -3  -2    4.94    0.27
  -6  -3  -2    4.80    0.23
   6   3   2    4.87    0.22
  -7  -3  -2    1.07    0.16
  -7  -3  -2    1.05    0.16
   7   3   2    1.06    0.16
   7   3   2    0.99    0.15
   7  -4  -2    2.39    0.15
   7  -4  -2    2.37    0.25
  -7   4   2    2.42    0.25
   6  -4  -2    2.74    0.16
   6  -4  -2    2.78    0.17
   6  -4  -2    2.68    0.24
  -6   4   2    2.44    0.15
  -6   4   2    2.59    0.13
  -6   4   2    2.45    0.23
   5  -4  -2    9.66    0.26
   5  -4  -2   10.26    0.28
  -5   4   2    9.65    0.25
  -5   4   2    9.99    0.27
  -5   4   2    9.36    0.32
   4  -4  -2   22.60    0.56
   4  -4  -2   23.03    0.49
   4  -4  -2   23.52    0.51
  -4   4   2   22.79    0.49
  -4   4   2   22.78    0.53
  -4   4   2   23.73    0.51
   3  -4  -2    3.86    0.14
   3  -4  -2    3.72    0.13
  -3   4   2    3.60    0.15
  -3   4   2    3.63    0.13
  -3   4   2    3.74    0.14
  -3   4   2    3.59    0.09
   2  -4  -2   63.09    1.23
   2  -4  -2   63.16    1.22
  -2   4   2   61.86    1.22
  -2   4   2   63.96    1.17
  -2   4   2   64.16    1.15
  -2   4   2   63.45    1.23
   1  -4  -2   37.58    0.76
   1  -4  -2   38.96    0.71
   1  -4  -2   37.67    0.76
  -1   4   2   38.85    0.77
  -1   4   2   38.67    0.77
   0  -4  -2    5.30    0.15
   0  -4  -2    5.43    0.11
   0  -4  -2    5.37    0.15
   0   4   2    5.41    0.15
   0   4   2    5.24    0.15
  -1  -4  -2    5.53    0.15
  -1  -4  -2    5.22    0.15
  -1  -4  -2    5.53    0.13
   1   4   2    5.39    0.15
   1   4   2    5.34    0.15
  -2  -4  -2   20.93    0.41
  -2  -4  -2   21.67    0.44
  -2  -4  -2   20.59    0.44
   2   4   2   20.93    0.39
   2   4   2   20.35    0.43
   2   4   2   20.31    0.43
   2   4   2   21.19    0.39
  -3  -4  -2   63.21    1.30
  -3  -4  -2   64.06    1.18
  -3  -4  -2   63.92    1.24
  -3  -4  -2   65.20    1.24
  -3  -4  -2   65.17    1.16
   3   4   2   64.83    1.24
   3   4   2   62.84    1.18
   3   4   2   64.01    1.14
   3   4   2   64.80    1.24
  -4  -4  -2    0.27    0.06
  -4  -4  -2    0.20    0.07
  -4  -4  -2    0.29    0.05
  -4  -4  -2    0.23    0.06
  -4  -4  -2    0.22    0.05
   4   4   2    0.23    0.06
   4   4   2    0.28    0.05
   4   4   2    0.26    0.05
  -5  -4  -2    1.69    0.11
  -5  -4  -2    2.05    0.16
  -5  -4  -2    1.75    0.14
  -5  -4  -2    2.16    0.18
   5   4   2    1.90    0.12
   5   4   2    1.86    0.13
   5   4   2    2.09    0.11
  -6  -4  -2    0.11    0.11
  -6  -4  -2    0.12    0.05
  -6  -4  -2    0.21    0.09
  -6  -4  -2    0.10    0.10
  -6  -4  -2    0.18    0.06
   6   4   2    0.11    0.09
   6   4   2    0.17    0.07
   6   4   2    0.21    0.06
  -7  -4  -2    1.26    0.18
   7   4   2    1.07    0.15
   7  -5  -2    3.62    0.35
   7  -5  -2    3.82    0.20
   7  -5  -2    3.78    0.18
  -7   5   2    4.41    0.18
  -7   5   2    4.30    0.31
  -7   5   2    3.79    0.19
   6  -5  -2    2.69    0.25
  -6   5   2    2.88    0.24
  -6   5   2    2.81    0.15
   5  -5  -2   34.69    0.73
   5  -5  -2   35.72    0.76
   5  -5  -2   35.17    0.77
  -5   5   2   35.13    0.72
  -5   5   2   35.09    0.75
  -5   5   2   34.84    0.78
   4  -5  -2    6.59    0.28
   4  -5  -2    6.72    0.20
   4  -5  -2    7.26    0.23
  -4   5   2    6.77    0.20
  -4   5   2    6.72    0.25
  -4   5   2    6.86    0.22
   3  -5  -2    0.04    0.05
   3  -5  -2    0.05    0.04
  -3   5   2    0.03    0.03
  -3   5   2    0.02    0.04
  -3   5   2    0.02    0.06
  -3   5   2   -0.03    0.04
   2  -5  -2    2.47    0.11
   2  -5  -2    2.52    0.12
  -2   5   2    2.37    0.11
  -2   5   2    2.65    0.11
  -2   5   2    2.70    0.09
  -2   5   2    2.64    0.12
   1  -5  -2   30.16    0.62
   1  -5  -2   29.92    0.57
   1  -5  -2   29.66    0.62
  -1   5   2   30.92    0.59
  -1   5   2   30.66    0.63
  -1   5   2   29.86    0.63
   0  -5  -2    0.57    0.06
   0  -5  -2    0.51    0.06
   0  -5  -2    0.66    0.04
   0   5   2    0.53    0.07
   0   5   2    0.63    0.06
  -1  -5  -2   13.17    0.31
  -1  -5  -2   12.71    0.31
  -1  -5  -2   13.38    0.27
   1   5   2   13.60    0.31
   1   5   2   12.65    0.31
  -2  -5  -2    4.09    0.12
  -2  -5  -2    4.00    0.14
  -2  -5  -2    4.08    0.14
   2   5   2    3.93    0.14
   2   5   2    4.21    0.12
   2   5   2    4.05    0.10
   2   5   2    4.09    0.14
  -3  -5  -2   15.60    0.35
  -3  -5  -2   15.69    0.36
  -3  -5  -2   15.39    0.36
   3   5   2   15.82    0.37
   3   5   2   15.70    0.34
   3   5   2   15.75    0.33
   3   5   2   15.96    0.37
  -4  -5  -2   12.15    0.31
  -4  -5  -2   11.98    0.31
  -4  -5  -2   12.39    0.36
  -4  -5  -2   11.92    0.31
  -4  -5  -2   12.17    0.30
   4   5   2   11.68    0.30
   4   5   2   12.08    0.29
   4   5   2   12.51    0.30
  -5  -5  -2    1.33    0.13
  -5  -5  -2    1.33    0.12
  -5  -5  -2    1.54    0.16
  -5  -5  -2    1.64    0.18
  -5  -5  -2    1.29    0.12
   5   5   2    1.40    0.13
   5   5   2    1.26    0.13
   5   5   2    1.42    0.12
  -6  -5  -2    1.06    0.16
  -6  -5  -2    0.93    0.13
   6   5   2    0.99    0.10
   6   5   2    0.77    0.12
  -7  -5  -2    0.64    0.14
  -7  -5  -2    0.74    0.18
   7   5   2    1.05    0.12
   7   5   2    0.86    0.15
   7  -6  -2    2.37    0.22
   7  -6  -2    2.95    0.18
   7  -6  -2    2.96    0.34
  -7   6   2    2.57    0.28
  -7   6   2    2.88    0.20
   6  -6  -2    7.59    0.25
   6  -6  -2    7.92    0.36
   6  -6  -2    7.89    0.28
  -6   6   2    7.27    0.33
   5  -6  -2    2.56    0.15
   5  -6  -2    2.84    0.18
  -5   6   2    2.92    0.18
  -5   6   2    2.72    0.21
  -5   6   2    2.73    0.15
   4  -6  -2    2.66    0.14
   4  -6  -2    2.61    0.15
  -4   6   2    2.60    0.15
  -4   6   2    2.65    0.11
  -4   6   2    2.61    0.17
  -4   6   2    2.72    0.14
   3  -6  -2    2.40    0.14
   3  -6  -2    2.41    0.13
  -3   6   2    2.42    0.10
  -3   6   2    2.39    0.14
  -3   6   2    2.29    0.12
  -3   6   2    2.58    0.14
   2  -6  -2   11.61    0.29
   2  -6  -2   11.44    0.30
  -2   6   2   11.87    0.26
  -2   6   2   11.41    0.28
  -2   6   2   11.99    0.30
  -2   6   2   11.09    0.29
   1  -6  -2   71.20    1.38
   1  -6  -2   70.89    1.29
   1  -6  -2   69.47    1.38
  -1   6   2   70.88    1.40
  -1   6   2   72.21    1.40
  -1   6   2   71.57    1.31
  -1   6   2   72.07    1.35
   0  -6  -2    8.27    0.23
   0  -6  -2    8.00    0.23
   0   6   2    8.54    0.24
   0   6   2    8.08    0.23
   0   6   2    8.43    0.17
  -1  -6  -2   17.19    0.40
  -1  -6  -2   17.26    0.35
  -1  -6  -2   16.87    0.40
   1   6   2   17.40    0.40
   1   6   2   17.04    0.40
  -2  -6  -2    3.73    0.15
  -2  -6  -2    3.78    0.13
  -2  -6  -2    3.31    0.14
   2   6   2    3.70    0.15
   2   6   2    3.90    0.12
   2   6   2    3.47    0.14
  -3  -6  -2    3.79    0.15
  -3  -6  -2    3.81    0.15
  -3  -6  -2    3.82    0.16
   3   6   2    3.97    0.16
   3   6   2    3.96    0.16
   3   6   2    3.92    0.14
   3   6   2    3.84    0.13
  -4  -6  -2    6.67    0.22
  -4  -6  -2    6.67    0.22
  -4  -6  -2    6.57    0.23
  -4  -6  -2    6.82    0.26
   4   6   2    6.54    0.23
   4   6   2    7.04    0.22
   4   6   2    6.61    0.20
  -5  -6  -2    3.38    0.17
  -5  -6  -2    3.25    0.17
  -5  -6  -2    3.38    0.22
  -5  -6  -2    3.10    0.17
   5   6   2    3.11    0.17
   5   6   2    3.21    0.18
   5   6   2    2.98    0.17
  -6  -6  -2    5.71    0.23
  -6  -6  -2    6.27    0.32
  -6  -6  -2    5.34    0.25
   6   6   2    5.35    0.22
   6   6   2    5.29    0.25
   6   6   2    5.41    0.24
  -7  -6  -2    1.43    0.13
  -7  -6  -2    1.38    0.21
  -7  -6  -2    1.45    0.21
  -7  -6  -2    1.41    0.17
  -7  -6  -2    1.39    0.14
   7   6   2    1.50    0.16
   7   6   2    1.48    0.19
   7   6   2    1.20    0.17
   6  -7  -2    1.41    0.18
   6  -7  -2    1.28    0.16
   6  -7  -2    1.47    0.15
  -6   7   2    1.53    0.21
  -6   7   2    1.32    0.18
   5  -7  -2    6.45    0.26
   5  -7  -2    6.45    0.24
  -5   7   2    6.29    0.28
  -5   7   2    6.58    0.25
   4  -7  -2   24.52    0.57
   4  -7  -2   24.21    0.56
  -4   7   2   24.54    0.56
  -4   7   2   23.29    0.56
  -4   7   2   23.78    0.51
   3  -7  -2   17.05    0.42
   3  -7  -2   17.30    0.43
  -3   7   2   17.19    0.42
  -3   7   2   17.28    0.42
  -3   7   2   17.72    0.43
  -3   7   2   16.92    0.38
   2  -7  -2   77.81    1.53
   2  -7  -2   77.41    1.53
  -2   7   2   77.56    1.47
  -2   7   2   77.82    1.55
  -2   7   2   79.90    1.50
  -2   7   2   80.52    1.56
   1  -7  -2  194.44    3.68
   1  -7  -2  195.21    3.68
   1  -7  -2  196.34    3.49
  -1   7   2  198.07    3.66
  -1   7   2  199.32    3.74
  -1   7   2  195.97    3.74
  -1   7   2  200.35    3.55
   0  -7  -2   14.07    0.35
   0  -7  -2   14.19    0.36
   0   7   2   14.15    0.28
   0   7   2   13.71    0.35
   0   7   2   13.74    0.35
   0   7   2   14.23    0.32
  -1  -7  -2    0.52    0.07
  -1  -7  -2    0.39    0.05
  -1  -7  -2    0.42    0.06
   1   7   2    0.73    0.09
   1   7   2    0.52    0.07
  -2  -7  -2    8.96    0.27
  -2  -7  -2    9.30    0.24
  -2  -7  -2    9.26    0.27
   2   7   2    9.77    0.28
   2   7   2    9.27    0.28
  -3  -7  -2    0.40    0.07
  -3  -7  -2    0.49    0.07
  -3  -7  -2    0.46    0.07
   3   7   2    0.45    0.06
   3   7   2    0.63    0.07
   3   7   2    0.52    0.08
   3   7   2    0.55    0.08
  -4  -7  -2    0.64    0.10
  -4  -7  -2    0.56    0.09
  -4  -7  -2    0.56    0.09
  -4  -7  -2    0.60    0.11
   4   7   2    0.44    0.09
   4   7   2    0.60    0.08
   4   7   2    0.52    0.09
  -5  -7  -2    5.59    0.23
  -5  -7  -2    5.49    0.25
  -5  -7  -2    5.89    0.29
   5   7   2    5.27    0.24
   5   7   2    5.61    0.23
  -6  -7  -2    0.69    0.12
  -6  -7  -2    0.78    0.15
  -6  -7  -2    0.54    0.12
  -6  -7  -2    0.63    0.16
   6   7   2    0.55    0.13
   6   7   2    0.35    0.12
   6   7   2    0.49    0.11
  -7  -7  -2    5.10    0.37
  -7  -7  -2    4.78    0.39
  -7  -7  -2    4.67    0.30
   7   7   2    4.22    0.30
   7   7   2    4.06    0.31
   7   7   2    4.96    0.29
   6  -8  -2    9.09    0.36
   6  -8  -2    8.64    0.31
  -6   8   2    9.09    0.31
  -6   8   2    9.38    0.35
   5  -8  -2    0.50    0.11
   5  -8  -2    0.34    0.10
  -5   8   2    0.44    0.10
  -5   8   2    0.24    0.08
  -5   8   2    0.39    0.13
   4  -8  -2    0.08    0.08
   4  -8  -2    0.28    0.08
  -4   8   2    0.24    0.09
  -4   8   2    0.20    0.10
  -4   8   2    0.12    0.07
   3  -8  -2   31.18    0.69
   3  -8  -2   30.82    0.70
  -3   8   2   31.42    0.65
  -3   8   2   30.38    0.66
  -3   8   2   32.37    0.71
  -3   8   2   30.35    0.70
   2  -8  -2   12.99    0.35
   2  -8  -2   13.21    0.36
  -2   8   2   12.91    0.31
  -2   8   2   13.31    0.32
  -2   8   2   13.36    0.36
  -2   8   2   12.75    0.35
   1  -8  -2    1.63    0.13
   1  -8  -2    1.60    0.13
  -1   8   2    1.62    0.10
  -1   8   2    1.44    0.09
  -1   8   2    1.45    0.13
  -1   8   2    1.66    0.12
   0  -8  -2   11.14    0.31
   0  -8  -2   10.97    0.27
   0  -8  -2   10.79    0.31
   0   8   2   11.04    0.28
   0   8   2   11.13    0.23
   0   8   2   10.83    0.31
   0   8   2   11.08    0.31
  -1  -8  -2   11.07    0.31
  -1  -8  -2   10.79    0.31
  -1  -8  -2   11.17    0.27
   1   8   2   11.44    0.32
   1   8   2   10.95    0.32
   1   8   2   11.18    0.29
  -2  -8  -2   48.93    0.92
  -2  -8  -2   50.12    1.02
  -2  -8  -2   47.44    1.02
   2   8   2   49.12    1.02
   2   8   2   48.76    1.02
  -3  -8  -2   25.83    0.62
  -3  -8  -2   26.25    0.60
  -3  -8  -2   25.67    0.56
   3   8   2   26.07    0.60
   3   8   2   25.92    0.53
   3   8   2   25.23    0.61
  -4  -8  -2    1.24    0.17
  -4  -8  -2    1.28    0.15
  -4  -8  -2    1.16    0.13
   4   8   2    1.48    0.15
   4   8   2    1.04    0.11
   4   8   2    1.36    0.13
   4   8   2    1.33    0.17
  -5  -8  -2    1.24    0.14
  -5  -8  -2    1.13    0.16
   5   8   2    1.03    0.13
   5   8   2    1.12    0.14
   5   8   2    1.10    0.12
  -6  -8  -2    0.41    0.13
  -6  -8  -2    0.39    0.16
  -6  -8  -2    0.50    0.14
  -6  -8  -2    0.23    0.16
   6   8   2    0.42    0.13
   6   8   2    0.49    0.14
   6   8   2    0.40    0.16
   6   8   2    0.41    0.13
   6  -9  -2    1.77    0.17
   6  -9  -2    1.70    0.19
  -6   9   2    1.73    0.22
  -6   9   2    1.88    0.23
   5  -9  -2    0.49    0.13
   5  -9  -2    0.23    0.11
  -5   9   2    0.36    0.13
  -5   9   2    0.33    0.10
  -5   9   2    0.33    0.13
  -5   9   2    0.25    0.10
   4  -9  -2    4.08    0.24
   4  -9  -2    4.07    0.22
  -4   9   2    4.45    0.25
  -4   9   2    4.09    0.23
  -4   9   2    3.91    0.19
   3  -9  -2   12.47    0.36
   3  -9  -2   11.75    0.36
  -3   9   2   12.25    0.32
  -3   9   2   12.66    0.38
  -3   9   2   11.73    0.34
   2  -9  -2   14.84    0.42
   2  -9  -2   14.79    0.40
  -2   9   2   15.17    0.36
  -2   9   2   15.73    0.43
  -2   9   2   15.63    0.38
   1  -9  -2    2.59    0.17
  -1   9   2    2.71    0.12
  -1   9   2    2.61    0.16
  -1   9   2    2.76    0.14
  -1   9   2    2.91    0.18
   0  -9  -2   41.98    0.90
   0  -9  -2   41.67    0.80
   0  -9  -2   40.54    0.89
   0   9   2   41.52    0.90
   0   9   2   41.25    0.90
   0   9   2   42.14    0.77
   0   9   2   42.23    0.86
  -1  -9  -2   25.74    0.53
  -1  -9  -2   25.64    0.60
  -1  -9  -2   24.24    0.60
   1   9   2   24.93    0.60
   1   9   2   25.12    0.56
   1   9   2   25.73    0.61
  -2  -9  -2   43.11    0.85
  -2  -9  -2   44.08    0.94
   2   9   2   41.85    0.94
   2   9   2   41.33    0.91
  -3  -9  -2    6.18    0.26
  -3  -9  -2    5.87    0.22
   3   9   2    5.75    0.26
   3   9   2    5.75    0.22
   3   9   2    6.10    0.25
   4   9   2    4.47    0.21
   4   9   2    4.06    0.21
   4   9   2    4.65    0.24
   4   9   2    4.26    0.26
  -5  -9  -2    0.46    0.14
  -5  -9  -2    0.43    0.13
  -5  -9  -2    0.25    0.13
  -5  -9  -2    0.40    0.13
   5   9   2    0.42    0.11
   5   9   2    0.36    0.13
   5   9   2    0.49    0.14
   5   9   2    0.30    0.11
  -6  -9  -2    2.67    0.29
  -6  -9  -2    2.71    0.30
  -6  -9  -2    2.41    0.24
  -6  -9  -2    2.47    0.30
   6   9   2    2.21    0.30
   6   9   2    2.41    0.27
   6   9   2    1.90    0.19
   6   9   2    2.38    0.24
   5 -10  -2    2.29    0.27
   5 -10  -2    1.88    0.23
  -5  10   2    2.02    0.23
  -5  10   2    2.26    0.27
  -5  10   2    2.73    0.24
   4 -10  -2    1.72    0.22
   4 -10  -2    1.48    0.21
  -4  10   2    1.38    0.17
  -4  10   2    1.75    0.23
  -4  10   2    1.80    0.19
  -4  10   2    1.52    0.19
   3 -10  -2    1.71    0.18
   3 -10  -2    1.49    0.19
  -3  10   2    1.48    0.16
  -3  10   2    1.66    0.15
  -3  10   2    1.70    0.21
   2 -10  -2   19.40    0.51
   2 -10  -2   19.59    0.52
  -2  10   2   20.14    0.48
  -2  10   2   21.10    0.54
   1 -10  -2   10.53    0.34
   1 -10  -2   10.93    0.35
  -1  10   2   10.85    0.26
  -1  10   2   10.82    0.35
  -1  10   2   10.43    0.34
   0 -10  -2    3.10    0.19
   0 -10  -2    3.14    0.15
   0  10   2    2.93    0.16
   0  10   2    3.12    0.20
   0  10   2    2.97    0.11
   0  10   2    3.16    0.20
  -1 -10  -2   14.67    0.43
  -1 -10  -2   15.82    0.38
  -1 -10  -2   15.57    0.44
  -2 -10  -2    0.10    0.09
  -2 -10  -2    0.15    0.09
   2  10   2    0.13    0.10
   2  10   2    0.09    0.09
  -3 -10  -2   13.96    0.42
   3  10   2   13.10    0.42
   3  10   2   13.18    0.38
   3  10   2   13.87    0.42
  -4 -10  -2    0.67    0.13
  -4 -10  -2    0.73    0.14
  -4 -10  -2    0.61    0.13
   4  10   2    0.92    0.12
   4  10   2    0.77    0.16
   4  10   2    1.08    0.15
  -5 -10  -2    5.35    0.34
  -5 -10  -2    5.65    0.32
  -5 -10  -2    6.23    0.33
  -5 -10  -2    5.24    0.34
   5  10   2    5.73    0.33
   5  10   2    6.22    0.37
   5  10   2    6.01    0.31
   5  10   2    6.08    0.29
   5 -11  -2    2.40    0.32
   5 -11  -2    1.90    0.20
  -5  11   2    2.15    0.20
  -5  11   2    2.55    0.26
  -5  11   2    2.68    0.31
  -5  11   2    2.74    0.30
   4 -11  -2    2.99    0.26
   4 -11  -2    3.53    0.29
  -4  11   2    3.94    0.27
  -4  11   2    3.29    0.31
  -4  11   2    3.33    0.23
   3 -11  -2    1.21    0.15
   3 -11  -2    1.25    0.15
  -3  11   2    1.27    0.15
  -3  11   2    0.92    0.14
  -3  11   2    1.41    0.17
  -3  11   2    1.41    0.17
   2 -11  -2    9.33    0.35
  -2  11   2    9.70    0.36
  -2  11   2    9.59    0.30
   1 -11  -2    4.68    0.25
   1 -11  -2    4.33    0.24
  -1  11   2    5.17    0.26
   0 -11  -2    1.32    0.18
   0 -11  -2    1.61    0.18
   0  11   2    1.81    0.20
   0  11   2    1.25    0.14
  -1 -11  -2    2.27    0.21
  -1 -11  -2    2.36    0.20
   1  11   2    2.47    0.21
   1  11   2    2.24    0.21
  -2 -11  -2    1.00    0.15
  -2 -11  -2    0.97    0.14
   2  11   2    0.76    0.13
   2  11   2    0.85    0.13
  -3 -11  -2    0.87    0.14
  -3 -11  -2    0.17    0.11
   3  11   2    0.84    0.14
   3  11   2    0.92    0.11
   3  11   2    0.90    0.15
  -4 -11  -2    2.08    0.21
  -4 -11  -2    2.38    0.28
  -4 -11  -2    2.22    0.26
   4  11   2    2.17    0.21
   4  11   2    2.23    0.24
   4  11   2    1.94    0.21
  -5 -11  -2   11.52    0.48
  -5 -11  -2   13.42    0.49
  -5 -11  -2   11.80    0.50
   4 -12  -2    3.43    0.34
  -4  12   2    3.74    0.27
  -4  12   2    3.48    0.33
  -4  12   2    3.55    0.37
   3 -12  -2    1.16    0.18
   3 -12  -2    1.21    0.16
  -3  12   2    2.29    0.27
  -3  12   2    1.54    0.18
   2 -12  -2    8.42    0.36
   2 -12  -2    8.01    0.35
  -2  12   2    8.01    0.35
  -2  12   2    6.30    0.28
  -2  12   2    9.11    0.38
   1 -12  -2    6.00    0.30
   1 -12  -2    5.66    0.30
  -1  12   2    6.24    0.31
  -1  12   2    5.98    0.33
   0 -12  -2    2.21    0.19
   0 -12  -2    2.39    0.24
   0 -12  -2    2.05    0.24
   0  12   2    2.45    0.20
   0  12   2    2.67    0.26
   0  12   2    2.34    0.25
  -1 -12  -2    0.25    0.13
  -1 -12  -2    0.46    0.10
  -1 -12  -2    0.49    0.14
   1  12   2    0.40    0.11
   1  12   2    0.47    0.13
   1  12   2    0.20    0.12
  -2 -12  -2    5.60    0.32
  -2 -12  -2    5.58    0.27
  -2 -12  -2    5.41    0.32
   2  12   2    5.93    0.33
   2  12   2    5.19    0.34
  -3 -12  -2    0.07    0.16
  -3 -12  -2    0.19    0.12
  -3 -12  -2    0.35    0.16
   3  12   2    0.26    0.19
   3  12   2    0.26    0.15
   3  12   2    0.10    0.11
  -4 -12  -2    1.06    0.21
  -4 -12  -2    0.54    0.18
   4  12   2    1.09    0.24
   3 -13  -2    6.62    0.40
   3 -13  -2    8.04    0.43
  -3  13   2    8.40    0.47
  -3  13   2    8.05    0.37
  -3  13   2    8.28    0.34
   2 -13  -2    0.43    0.16
   2 -13  -2    0.29    0.16
   2 -13  -2    0.05    0.13
  -2  13   2    0.41    0.14
  -2  13   2    0.17    0.18
  -2  13   2    0.64    0.16
   1 -13  -2    0.06    0.10
   1 -13  -2    0.07    0.14
   1 -13  -2    0.02    0.14
  -1  13   2    0.03    0.14
  -1  13   2    0.07    0.16
  -1  13   2    0.01    0.12
   0 -13  -2    0.41    0.15
   0 -13  -2    0.69    0.13
   0 -13  -2    0.78    0.17
   0  13   2    0.49    0.15
   0  13   2    0.72    0.14
   0  13   2    0.46    0.18
  -1 -13  -2    2.58    0.30
  -1 -13  -2    2.68    0.32
  -1 -13  -2    2.99    0.24
   1  13   2    2.38    0.24
   1  13   2    3.03    0.34
   1  13   2    2.64    0.32
  -2 -13  -2    5.83    0.38
  -2 -13  -2    5.37    0.36
  -2 -13  -2    4.91    0.30
   2  13   2    4.85    0.39
   2  13   2    5.10    0.30
   2  13   2    4.41    0.36
  -3 -13  -2    4.21    0.32
  -3 -13  -2    4.33    0.39
   3  13   2    4.13    0.45
   1 -14  -2    0.95    0.23
  -1  14   2    0.89    0.17
  -1  14   2    0.90    0.24
   0 -14  -2    5.53    0.42
   0 -14  -2    5.99    0.42
   0  14   2    5.17    0.33
   0  14   2    4.34    0.41
   0  14   2    5.43    0.43
  -1 -14  -2   -0.11    0.18
   1  14   2    0.18    0.21
   1  14   2   -0.11    0.21
   1  12  -3    0.39    0.24
   1  12  -3    0.63    0.16
  -1 -12   3    0.51    0.21
   0  12  -3    3.72    0.41
   0 -12   3    4.54    0.39
   0 -12   3    3.78    0.44
  -1  12  -3    7.01    0.30
  -1  12  -3    6.20    0.45
   1 -12   3    6.32    0.46
  -2  12  -3    0.38    0.14
  -2  12  -3    0.54    0.14
  -2  12  -3    0.50    0.20
   2 -12   3    0.41    0.22
   2 -12   3    0.61    0.19
   2  11  -3    2.90    0.29
   2  11  -3    2.61    0.29
   2  11  -3    2.62    0.27
  -2 -11   3    2.86    0.28
  -2 -11   3    3.46    0.36
   1  11  -3    5.73    0.38
   1  11  -3    6.11    0.42
   1  11  -3    6.20    0.33
   1  11  -3    6.16    0.25
  -1 -11   3    5.77    0.40
  -1 -11   3    5.98    0.38
  -1 -11   3    5.72    0.31
   0  11  -3    4.67    0.29
   0  11  -3    4.64    0.23
   0  11  -3    4.99    0.36
   0  11  -3    4.47    0.35
   0 -11   3    4.53    0.26
   0 -11   3    4.01    0.36
   0 -11   3    5.04    0.33
  -1  11  -3    1.35    0.19
  -1  11  -3    1.59    0.20
  -1  11  -3    1.48    0.19
  -1  11  -3    1.80    0.20
   1 -11   3    1.78    0.22
   1 -11   3    2.70    0.23
   1 -11   3    2.01    0.27
  -2  11  -3    1.43    0.21
  -2  11  -3    1.19    0.16
  -2  11  -3    1.19    0.14
  -2  11  -3    1.15    0.19
  -2  11  -3    1.08    0.18
   2 -11   3    1.07    0.20
   2 -11   3    1.21    0.17
   2 -11   3    1.19    0.15
  -3  11  -3    0.77    0.20
  -3  11  -3    0.63    0.15
  -3  11  -3    0.62    0.17
  -3  11  -3    0.60    0.14
   3 -11   3    0.88    0.15
   3 -11   3    0.79    0.17
   3 -11   3    0.75    0.20
   3  10  -3    0.17    0.17
   3  10  -3    0.18    0.14
   3  10  -3    0.12    0.21
  -3 -10   3    0.01    0.16
  -3 -10   3   -0.04    0.17
  -3 -10   3    0.75    0.18
   2  10  -3    2.62    0.29
   2  10  -3    2.53    0.32
   2  10  -3    3.04    0.25
  -2 -10   3    2.94    0.31
  -2 -10   3    3.10    0.31
  -2 -10   3    2.40    0.24
   1  10  -3    2.86    0.29
   1  10  -3    3.28    0.24
   1  10  -3    3.30    0.18
   1  10  -3    3.75    0.31
  -1 -10   3    4.04    0.32
  -1 -10   3    3.46    0.29
  -1 -10   3    2.93    0.22
   0  10  -3    2.22    0.26
   0  10  -3    2.28    0.17
   0  10  -3    2.32    0.26
   0 -10   3    2.39    0.24
   0 -10   3    2.37    0.19
   0 -10   3    2.59    0.27
  -1  10  -3    1.21    0.16
  -1  10  -3    1.20    0.16
  -1  10  -3    0.97    0.15
  -1  10  -3    1.05    0.16
   1 -10   3    1.30    0.14
   1 -10   3    1.09    0.14
   1 -10   3    1.03    0.16
  -2  10  -3    0.77    0.16
  -2  10  -3    0.75    0.15
  -2  10  -3    0.86    0.13
  -2  10  -3    0.79    0.12
   2 -10   3    0.68    0.16
   2 -10   3    0.75    0.12
   2 -10   3    0.68    0.12
  -3  10  -3    2.73    0.20
  -3  10  -3    2.77    0.21
  -3  10  -3    2.56    0.27
  -3  10  -3    2.46    0.28
  -3  10  -3    2.96    0.27
   3 -10   3    2.49    0.28
   3 -10   3    2.68    0.24
   3 -10   3    2.68    0.21
  -4  10  -3    2.92    0.29
  -4  10  -3    2.24    0.30
  -4  10  -3    2.66    0.33
  -4  10  -3    2.76    0.23
  -4  10  -3    2.75    0.22
   4 -10   3    2.15    0.25
   4 -10   3    2.37    0.31
   4 -10   3    2.33    0.25
   4   9  -3    8.99    0.41
   4   9  -3    8.51    0.34
   4   9  -3    9.28    0.48
   4   9  -3    8.86    0.38
  -4  -9   3    9.07    0.45
  -4  -9   3    9.52    0.35
  -4  -9   3   10.06    0.45
  -4  -9   3    8.64    0.41
   3   9  -3    1.41    0.16
   3   9  -3    1.31    0.19
   3   9  -3    1.86    0.24
   3   9  -3    1.52    0.15
  -3  -9   3    1.18    0.17
  -3  -9   3    1.78    0.19
  -3  -9   3    1.51    0.18
   2   9  -3    4.81    0.31
   2   9  -3    4.47    0.27
   2   9  -3    4.78    0.25
  -2  -9   3    4.77    0.30
  -2  -9   3    4.91    0.29
   1   9  -3   29.16    0.74
   1   9  -3   35.02    0.82
   1   9  -3   34.39    0.80
  -1  -9   3   34.74    0.86
  -1  -9   3   35.40    0.83
   0   9  -3    5.30    0.21
   0   9  -3    5.44    0.28
   0   9  -3    5.57    0.28
   0  -9   3    5.20    0.22
   0  -9   3    5.28    0.28
   0  -9   3    5.75    0.27
  -1   9  -3    2.72    0.17
  -1   9  -3    2.30    0.21
  -1   9  -3    2.53    0.22
   1  -9   3    2.65    0.17
   1  -9   3    2.67    0.20
  -2   9  -3    2.00    0.21
  -2   9  -3    1.73    0.15
  -2   9  -3    1.76    0.17
   2  -9   3    1.87    0.16
   2  -9   3    1.90    0.19
   2  -9   3    1.83    0.22
   2  -9   3    1.84    0.15
  -3   9  -3    9.49    0.36
  -3   9  -3   10.06    0.31
  -3   9  -3   10.02    0.36
  -3   9  -3    9.79    0.33
   3  -9   3    9.61    0.34
   3  -9   3    9.70    0.31
   3  -9   3    9.41    0.30
   3  -9   3   10.09    0.37
  -4   9  -3    3.85    0.30
  -4   9  -3    3.83    0.27
  -4   9  -3    4.15    0.24
  -4   9  -3    4.11    0.26
  -4   9  -3    4.01    0.23
   4  -9   3    4.30    0.24
   4  -9   3    4.20    0.22
   4  -9   3    3.72    0.28
  -5   9  -3    2.36    0.31
  -5   9  -3    2.54    0.27
  -5   9  -3    2.67    0.25
  -5   9  -3    2.75    0.23
  -5   9  -3    2.92    0.26
   5  -9   3    2.46    0.25
   5  -9   3    2.28    0.27
   5  -9   3    3.06    0.22
   5   8  -3    6.43    0.46
   5   8  -3    6.73    0.34
   5   8  -3    6.84    0.37
   5   8  -3    7.53    0.35
  -5  -8   3    7.65    0.33
   4   8  -3    4.09    0.29
   4   8  -3    3.82    0.25
   4   8  -3    4.42    0.34
   4   8  -3    4.06    0.26
  -4  -8   3    4.65    0.24
  -4  -8   3    4.20    0.31
  -4  -8   3    4.17    0.29
   3   8  -3    4.20    0.22
   3   8  -3    4.24    0.26
   3   8  -3    4.12    0.23
   3   8  -3    4.06    0.30
  -3  -8   3    1.48    0.17
   2   8  -3    8.20    0.27
   2   8  -3    7.93    0.29
   2   8  -3    8.37    0.32
   2   8  -3    8.12    0.34
  -2  -8   3    8.08    0.33
  -2  -8   3    7.84    0.33
   1   8  -3    0.39    0.09
   1   8  -3    0.32    0.10
  -1  -8   3    0.31    0.10
   0   8  -3    5.39    0.19
   0   8  -3    5.25    0.25
   0   8  -3    5.31    0.24
   0  -8   3    5.46    0.26
   0  -8   3    5.26    0.20
  -1   8  -3    2.84    0.16
  -1   8  -3    2.94    0.18
  -1   8  -3    2.90    0.20
   1  -8   3    2.82    0.15
   1  -8   3    2.73    0.15
   1  -8   3    2.75    0.19
   1  -8   3    2.89    0.21
  -2   8  -3   19.83    0.52
  -2   8  -3   20.28    0.44
  -2   8  -3   19.92    0.48
  -2   8  -3   20.07    0.51
   2  -8   3   19.08    0.44
   2  -8   3   19.54    0.52
   2  -8   3   18.96    0.47
   2  -8   3   19.77    0.50
  -3   8  -3    1.32    0.17
  -3   8  -3    1.37    0.17
  -3   8  -3    1.25    0.15
   3  -8   3    1.02    0.13
   3  -8   3    1.42    0.15
   3  -8   3    1.43    0.14
   3  -8   3    1.03    0.13
  -4   8  -3    1.63    0.18
  -4   8  -3    1.78    0.19
  -4   8  -3    1.69    0.18
   4  -8   3    1.73    0.16
   4  -8   3    1.72    0.20
   4  -8   3    1.85    0.17
  -5   8  -3    0.51    0.13
  -5   8  -3    0.31    0.12
  -5   8  -3    0.36    0.12
  -5   8  -3    0.42    0.14
   5  -8   3    0.26    0.11
   5  -8   3    0.37    0.10
   5  -8   3    0.14    0.12
  -6   8  -3    0.61    0.16
  -6   8  -3    0.57    0.16
  -6   8  -3    0.73    0.16
  -6   8  -3    0.13    0.19
   6  -8   3    0.64    0.13
   6  -8   3    0.50    0.14
   5   7  -3    4.33    0.30
   5   7  -3    4.76    0.38
   5   7  -3    4.53    0.27
   5   7  -3    4.50    0.26
  -5  -7   3    4.42    0.32
  -5  -7   3    5.01    0.25
  -5  -7   3    4.23    0.33
  -5  -7   3    4.58    0.35
   4   7  -3    8.33    0.37
   4   7  -3    8.70    0.34
   4   7  -3    8.11    0.29
   4   7  -3    8.14    0.29
  -4  -7   3    3.79    0.25
   3   7  -3   13.89    0.42
   3   7  -3   13.67    0.44
   3   7  -3   13.58    0.38
   3   7  -3   13.88    0.37
  -3  -7   3   14.42    0.43
   2   7  -3    0.89    0.11
   2   7  -3    1.33    0.18
   2   7  -3    1.15    0.12
   2   7  -3    1.33    0.14
  -2  -7   3    1.41    0.17
  -2  -7   3    1.21    0.14
   1   7  -3    3.67    0.20
   1   7  -3    3.64    0.21
  -1  -7   3    3.39    0.18
  -1  -7   3    3.52    0.21
  -1  -7   3    3.44    0.19
   0   7  -3    9.33    0.31
   0   7  -3    9.50    0.29
   0   7  -3    9.73    0.31
   0  -7   3    9.72    0.32
   0  -7   3    9.46    0.27
   0  -7   3    9.48    0.27
   0  -7   3    9.85    0.31
  -1   7  -3    0.75    0.10
  -1   7  -3    0.82    0.10
  -1   7  -3    0.60    0.10
  -1   7  -3    0.80    0.11
   1  -7   3    0.58    0.09
   1  -7   3    0.57    0.07
   1  -7   3    0.70    0.09
   1  -7   3    0.47    0.09
  -2   7  -3  120.47    2.29
  -2   7  -3  113.20    2.32
  -2   7  -3  120.78    2.10
  -2   7  -3  116.04    2.20
  -2   7  -3  121.22    2.30
   2  -7   3  118.28    2.28
   2  -7   3  116.78    2.08
   2  -7   3  118.58    2.24
   2  -7   3  117.33    2.30
  -3   7  -3   14.98    0.43
  -3   7  -3   14.63    0.36
  -3   7  -3   14.75    0.39
  -3   7  -3   14.99    0.40
  -3   7  -3   14.45    0.40
   3  -7   3   14.38    0.40
   3  -7   3   14.85    0.37
  -4   7  -3    1.91    0.16
  -4   7  -3    2.00    0.17
  -4   7  -3    2.02    0.17
   4  -7   3    1.91    0.14
   4  -7   3    1.57    0.15
   4  -7   3    1.90    0.17
  -5   7  -3    0.31    0.09
  -5   7  -3    0.34    0.13
  -5   7  -3    0.36    0.11
  -5   7  -3    0.32    0.13
   5  -7   3    0.19    0.10
   5  -7   3    0.32    0.09
   5  -7   3    0.36    0.10
  -6   7  -3    1.86    0.17
  -6   7  -3    1.91    0.24
  -6   7  -3    2.30    0.29
  -6   7  -3    1.96    0.21
   6  -7   3    2.27    0.21
   6  -7   3    1.74    0.19
   6  -7   3    2.19    0.20
   6   6  -3    1.41    0.16
   6   6  -3    1.60    0.24
   6   6  -3    1.25    0.19
   6   6  -3    1.69    0.20
  -6  -6   3    1.54    0.20
  -6  -6   3    1.33    0.17
  -6  -6   3    1.83    0.23
  -6  -6   3    1.61    0.18
   5   6  -3    0.85    0.14
   5   6  -3    0.69    0.12
   5   6  -3    0.93    0.18
   5   6  -3    0.89    0.14
  -5  -6   3    0.99    0.15
  -5  -6   3    1.10    0.14
  -5  -6   3    0.78    0.16
  -5  -6   3    0.83    0.14
  -5  -6   3    0.79    0.12
   4   6  -3    0.12    0.08
   4   6  -3    0.23    0.12
   4   6  -3    0.39    0.10
   4   6  -3    0.08    0.08
  -4  -6   3   -0.06    0.09
  -4  -6   3    0.14    0.09
  -4  -6   3    0.26    0.09
  -4  -6   3   -0.08    0.07
   3   6  -3    9.54    0.28
   3   6  -3    9.14    0.29
   3   6  -3    9.30    0.34
   3   6  -3    9.70    0.33
  -3  -6   3    9.38    0.32
   2   6  -3    0.15    0.06
   2   6  -3    0.17    0.07
   2   6  -3    0.02    0.07
   2   6  -3    0.07    0.05
  -2  -6   3    0.16    0.06
  -2  -6   3    0.07    0.07
   1   6  -3    7.44    0.27
   1   6  -3    7.64    0.22
   1   6  -3    7.57    0.26
   1   6  -3    7.51    0.24
  -1  -6   3    7.50    0.27
  -1  -6   3    7.31    0.23
  -1  -6   3    7.61    0.26
   0   6  -3   11.13    0.33
   0   6  -3   11.59    0.31
   0   6  -3   11.54    0.33
   0  -6   3   11.63    0.32
   0  -6   3   11.36    0.29
   0  -6   3   11.10    0.28
   0  -6   3   11.29    0.33
  -1   6  -3    5.69    0.21
  -1   6  -3    5.57    0.21
  -1   6  -3    5.66    0.19
  -1   6  -3    5.86    0.21
   1  -6   3    5.33    0.17
   1  -6   3    5.69    0.21
   1  -6   3    5.68    0.22
   1  -6   3    5.51    0.18
  -2   6  -3    3.92    0.18
  -2   6  -3    3.88    0.18
  -2   6  -3    4.13    0.15
  -2   6  -3    4.05    0.17
  -2   6  -3    3.97    0.18
   2  -6   3    3.78    0.18
   2  -6   3    3.91    0.15
   2  -6   3    3.88    0.15
   2  -6   3    4.08    0.17
  -3   6  -3   11.50    0.32
  -3   6  -3   11.72    0.33
  -3   6  -3   11.94    0.30
  -3   6  -3   11.70    0.32
  -3   6  -3   12.12    0.35
   3  -6   3   11.47    0.33
   3  -6   3   11.71    0.32
   3  -6   3   12.29    0.31
  -4   6  -3   26.60    0.65
  -4   6  -3   27.57    0.60
  -4   6  -3   27.65    0.60
  -4   6  -3   28.37    0.65
   4  -6   3   27.27    0.60
   4  -6   3   27.20    0.62
   4  -6   3   28.23    0.60
  -5   6  -3    6.53    0.22
  -5   6  -3    6.21    0.26
  -5   6  -3    6.07    0.22
  -5   6  -3    6.04    0.29
  -5   6  -3    6.39    0.27
   5  -6   3    6.57    0.22
   5  -6   3    6.45    0.23
   5  -6   3    6.46    0.23
  -6   6  -3    0.09    0.11
  -6   6  -3    0.21    0.13
  -6   6  -3    0.18    0.07
   6  -6   3    0.15    0.09
   6  -6   3    0.16    0.09
   6  -6   3    0.11    0.08
  -7   6  -3    2.57    0.24
   7  -6   3    2.92    0.21
   7  -6   3    2.90    0.36
   6   5  -3    2.18    0.23
   6   5  -3    2.41    0.28
   6   5  -3    2.29    0.26
   6   5  -3    2.21    0.21
  -6  -5   3    2.24    0.26
  -6  -5   3    2.09    0.22
  -6  -5   3    2.28    0.29
  -6  -5   3    2.25    0.24
   5   5  -3    3.25    0.23
   5   5  -3    3.61    0.28
   5   5  -3    4.15    0.25
  -5  -5   3    3.62    0.21
  -5  -5   3    3.28    0.25
  -5  -5   3    3.36    0.20
  -5  -5   3    3.00    0.25
  -5  -5   3    3.41    0.23
   4   5  -3   16.06    0.41
   4   5  -3   15.40    0.39
   4   5  -3   16.42    0.44
   4   5  -3   14.92    0.46
  -4  -5   3   16.17    0.44
  -4  -5   3   16.01    0.40
   3   5  -3    3.41    0.19
   3   5  -3    3.21    0.20
   3   5  -3    3.26    0.16
   3   5  -3    3.07    0.15
  -3  -5   3    3.25    0.15
  -3  -5   3    3.40    0.18
  -3  -5   3    3.29    0.15
   2   5  -3   10.91    0.28
   2   5  -3   10.82    0.33
   2   5  -3   10.67    0.29
   2   5  -3   10.82    0.32
  -2  -5   3   10.96    0.32
  -2  -5   3   11.14    0.30
  -2  -5   3   10.66    0.33
   1   5  -3   16.57    0.43
   1   5  -3   17.00    0.37
   1   5  -3   17.46    0.43
   1   5  -3   17.18    0.40
  -1  -5   3   17.00    0.42
  -1  -5   3   17.29    0.39
  -1  -5   3   17.10    0.44
  -1  -5   3   16.73    0.38
   0   5  -3   10.36    0.30
   0   5  -3   10.61    0.29
   0   5  -3   10.67    0.28
   0  -5   3   10.38    0.30
   0  -5   3   10.64    0.27
   0  -5   3   10.33    0.25
   0  -5   3   10.37    0.29
  -1   5  -3    7.01    0.22
  -1   5  -3    7.15    0.20
  -1   5  -3    7.45    0.22
  -1   5  -3    7.07    0.23
   1  -5   3    7.22    0.22
   1  -5   3    7.24    0.20
   1  -5   3    7.41    0.19
   1  -5   3    6.93    0.23
  -2   5  -3    1.53    0.11
  -2   5  -3    1.63    0.09
  -2   5  -3    1.62    0.11
  -2   5  -3    1.25    0.11
  -2   5  -3    1.48    0.11
   2  -5   3    1.56    0.11
   2  -5   3    1.56    0.10
   2  -5   3    1.50    0.11
  -3   5  -3    5.23    0.21
  -3   5  -3    5.14    0.18
  -3   5  -3    5.15    0.18
  -3   5  -3    5.06    0.18
  -3   5  -3    4.91    0.19
   3  -5   3    5.18    0.18
   3  -5   3    5.08    0.18
   3  -5   3    5.08    0.17
   3  -5   3    4.67    0.24
  -4   5  -3    1.04    0.10
  -4   5  -3    1.25    0.12
  -4   5  -3    1.10    0.11
  -4   5  -3    1.04    0.11
  -4   5  -3    1.17    0.14
   4  -5   3    0.89    0.10
   4  -5   3    1.11    0.11
   4  -5   3    1.16    0.11
  -5   5  -3    2.26    0.17
  -5   5  -3    2.20    0.12
  -5   5  -3    2.51    0.20
  -5   5  -3    2.27    0.13
  -5   5  -3    2.20    0.19
   5  -5   3    2.44    0.15
   5  -5   3    2.08    0.14
   5  -5   3    2.28    0.13
  -6   5  -3    4.24    0.23
  -6   5  -3    3.76    0.24
   6  -5   3    3.62    0.19
  -7   5  -3    0.78    0.15
  -7   5  -3    0.77    0.16
   7  -5   3    1.04    0.13
   7  -5   3    0.77    0.19
   6   4  -3    2.80    0.25
   6   4  -3    2.24    0.25
   6   4  -3    2.52    0.29
   6   4  -3    2.61    0.18
  -6  -4   3    2.80    0.21
  -6  -4   3    2.31    0.23
  -6  -4   3    2.43    0.20
  -6  -4   3    2.35    0.25
  -6  -4   3    3.05    0.30
   5   4  -3    5.25    0.24
   5   4  -3    4.93    0.28
   5   4  -3    4.87    0.19
   5   4  -3    5.21    0.24
   4   4  -3    2.15    0.13
   4   4  -3    2.29    0.19
   4   4  -3    2.36    0.17
  -4  -4   3    2.36    0.17
  -4  -4   3    2.31    0.14
  -4  -4   3    2.43    0.15
  -4  -4   3    2.36    0.16
   3   4  -3    6.88    0.21
   3   4  -3    7.15    0.22
   3   4  -3    7.09    0.26
   3   4  -3    7.24    0.25
  -3  -4   3    7.24    0.24
  -3  -4   3    7.11    0.21
  -3  -4   3    7.21    0.22
  -3  -4   3    6.98    0.25
  -3  -4   3    7.15    0.24
   2   4  -3    7.80    0.22
   2   4  -3    7.73    0.25
   2   4  -3    8.12    0.25
  -2  -4   3    7.67    0.25
  -2  -4   3    8.26    0.25
  -2  -4   3    7.87    0.21
  -2  -4   3    8.16    0.23
   1   4  -3   30.44    0.68
   1   4  -3   31.76    0.65
   1   4  -3   31.69    0.60
   1   4  -3   31.81    0.68
  -1  -4   3   32.19    0.62
  -1  -4   3   32.12    0.69
  -1  -4   3   32.33    0.65
  -1  -4   3   31.12    0.69
   0   4  -3   11.20    0.28
   0   4  -3   11.21    0.30
   0   4  -3   11.52    0.30
   0  -4   3   11.12    0.26
   0  -4   3   11.43    0.27
   0  -4   3   11.12    0.29
   0  -4   3   11.21    0.30
  -1   4  -3    4.29    0.15
  -1   4  -3    4.16    0.16
  -1   4  -3    4.27    0.15
   1  -4   3    4.01    0.14
   1  -4   3    4.00    0.15
   1  -4   3    4.07    0.15
   1  -4   3    4.00    0.12
  -2   4  -3    1.90    0.10
  -2   4  -3    1.80    0.11
  -2   4  -3    1.93    0.11
  -2   4  -3    1.94    0.10
  -2   4  -3    1.87    0.09
   2  -4   3    1.83    0.10
   2  -4   3    1.90    0.10
   2  -4   3    1.97    0.11
  -3   4  -3   15.65    0.35
  -3   4  -3   15.54    0.35
  -3   4  -3   15.60    0.36
  -3   4  -3   15.52    0.38
  -3   4  -3   15.61    0.39
   3  -4   3   15.98    0.37
   3  -4   3   14.86    0.36
   3  -4   3   15.90    0.36
   3  -4   3   15.48    0.42
  -4   4  -3   10.01    0.30
  -4   4  -3   10.01    0.28
  -4   4  -3    9.52    0.30
  -4   4  -3    9.91    0.25
   4  -4   3   10.01    0.27
   4  -4   3   10.06    0.24
   4  -4   3    9.74    0.25
  -5   4  -3    3.91    0.13
  -5   4  -3    3.89    0.20
  -5   4  -3    3.96    0.20
  -5   4  -3    3.82    0.13
  -5   4  -3    3.66    0.20
   5  -4   3    4.05    0.17
   5  -4   3    4.01    0.14
   5  -4   3    3.84    0.13
  -6   4  -3    4.87    0.24
  -6   4  -3    5.05    0.26
   6  -4   3    5.32    0.21
  -7   4  -3    2.96    0.22
  -7   4  -3    2.93    0.25
   7  -4   3    2.63    0.19
   7  -4   3    2.55    0.28
   7   3  -3    0.41    0.17
   7   3  -3    0.36    0.11
   7   3  -3    0.53    0.14
  -7  -3   3    0.75    0.17
  -7  -3   3    0.56    0.14
   6   3  -3    1.11    0.13
   6   3  -3    0.99    0.16
   6   3  -3    0.96    0.16
   6   3  -3    1.07    0.14
  -6  -3   3    1.11    0.14
  -6  -3   3    1.05    0.15
  -6  -3   3    1.12    0.18
  -6  -3   3    0.99    0.15
   5   3  -3   12.27    0.31
   5   3  -3   12.78    0.39
   5   3  -3   12.83    0.37
   5   3  -3   12.53    0.36
  -5  -3   3   13.42    0.37
  -5  -3   3   12.35    0.37
  -5  -3   3   13.23    0.36
   4   3  -3    8.86    0.24
   4   3  -3    8.84    0.30
   4   3  -3    9.43    0.28
   4   3  -3    8.68    0.28
  -4  -3   3    9.47    0.29
  -4  -3   3    8.99    0.28
  -4  -3   3    9.16    0.26
  -4  -3   3    8.84    0.30
   3   3  -3   23.43    0.53
   3   3  -3   22.60    0.49
   3   3  -3   23.34    0.49
   3   3  -3   22.83    0.54
  -3  -3   3   22.59    0.50
  -3  -3   3   23.86    0.54
  -3  -3   3   23.36    0.50
  -3  -3   3   23.64    0.55
  -3  -3   3   23.58    0.52
   2   3  -3   19.31    0.45
   2   3  -3   19.09    0.40
   2   3  -3   19.20    0.41
   2   3  -3   18.56    0.45
  -2  -3   3   19.27    0.45
  -2  -3   3   19.55    0.40
  -2  -3   3   19.02    0.42
  -2  -3   3   18.96    0.46
   1   3  -3   10.70    0.26
   1   3  -3   10.43    0.24
   1   3  -3   10.37    0.28
  -1  -3   3   10.76    0.25
  -1  -3   3   10.82    0.25
  -1  -3   3   10.63    0.28
  -1  -3   3   10.32    0.28
   0   3  -3    1.30    0.08
   0   3  -3    1.35    0.07
   0   3  -3    1.45    0.09
   0   3  -3    1.29    0.09
   0  -3   3    1.53    0.08
   0  -3   3    1.25    0.09
   0  -3   3    1.21    0.09
   0  -3   3    1.34    0.07
  -1   3  -3   10.02    0.25
  -1   3  -3   10.11    0.26
   1  -3   3    9.92    0.22
   1  -3   3   10.13    0.25
   1  -3   3    9.97    0.24
   1  -3   3   10.08    0.26
  -2   3  -3    1.43    0.08
  -2   3  -3    1.33    0.09
  -2   3  -3    1.37    0.08
  -2   3  -3    1.45    0.08
  -2   3  -3    1.31    0.09
   2  -3   3    1.24    0.10
   2  -3   3    1.40    0.08
   2  -3   3    1.19    0.08
   2  -3   3    1.38    0.08
  -3   3  -3    6.35    0.21
  -3   3  -3    7.13    0.18
  -3   3  -3    6.59    0.21
  -3   3  -3    6.70    0.18
  -3   3  -3    6.97    0.19
   3  -3   3    6.94    0.18
   3  -3   3    6.79    0.19
   3  -3   3    6.43    0.23
   3  -3   3    6.85    0.20
  -4   3  -3    3.11    0.11
  -4   3  -3    3.26    0.16
  -4   3  -3    3.09    0.10
  -4   3  -3    3.23    0.16
   4  -3   3    3.24    0.11
   4  -3   3    2.98    0.21
   4  -3   3    3.11    0.14
   4  -3   3    3.27    0.11
  -5   3  -3    1.36    0.14
  -5   3  -3    1.18    0.15
   5  -3   3    1.43    0.12
  -6   3  -3   12.27    0.38
  -6   3  -3   12.05    0.38
   6  -3   3   13.23    0.35
   6  -3   3   13.07    0.40
  -7   3  -3   10.95    0.39
  -7   3  -3   10.75    0.38
   7  -3   3   11.17    0.40
   7  -3   3   10.69    0.32
   7   2  -3    0.35    0.13
   7   2  -3    0.10    0.09
   7   2  -3    0.51    0.18
  -7  -2   3    0.28    0.13
  -7  -2   3    0.19    0.13
  -7  -2   3    0.25    0.12
   6   2  -3    0.11    0.11
   6   2  -3    0.03    0.09
   6   2  -3    0.13    0.06
   6   2  -3    0.05    0.12
  -6  -2   3    0.16    0.09
  -6  -2   3    0.13    0.11
  -6  -2   3   -0.03    0.09
   5   2  -3    0.35    0.10
   5   2  -3    0.31    0.06
   5   2  -3    0.26    0.10
  -5  -2   3    0.28    0.07
  -5  -2   3    0.33    0.10
  -5  -2   3    0.30    0.08
  -5  -2   3    0.40    0.09
   4   2  -3    0.89    0.10
   4   2  -3    0.82    0.08
   4   2  -3    1.11    0.12
   4   2  -3    0.95    0.11
  -4  -2   3    1.04    0.12
  -4  -2   3    0.81    0.09
  -4  -2   3    1.13    0.12
  -4  -2   3    0.80    0.10
  -4  -2   3    0.97    0.10
   3   2  -3    5.56    0.20
   3   2  -3    5.62    0.16
   3   2  -3    5.59    0.19
   3   2  -3    5.88    0.20
  -3  -2   3    6.02    0.20
  -3  -2   3    5.97    0.17
  -3  -2   3    6.20    0.20
  -3  -2   3    5.58    0.21
  -3  -2   3    5.88    0.19
   2   2  -3    4.35    0.13
   2   2  -3    4.42    0.14
   2   2  -3    4.26    0.16
   2   2  -3    4.38    0.16
  -2  -2   3    4.65    0.12
  -2  -2   3    4.19    0.16
  -2  -2   3    4.46    0.16
  -2  -2   3    4.71    0.16
  -2  -2   3    4.57    0.14
   1   2  -3    5.76    0.16
   1   2  -3    6.10    0.15
   1   2  -3    5.74    0.18
   1   2  -3    6.08    0.18
  -1  -2   3    6.31    0.16
  -1  -2   3    6.19    0.16
  -1  -2   3    6.12    0.18
  -1  -2   3    6.17    0.15
  -1  -2   3    6.10    0.19
   0   2  -3    0.39    0.05
   0   2  -3    0.42    0.06
   0   2  -3    0.34    0.05
   0   2  -3    0.42    0.04
   0  -2   3    0.51    0.06
   0  -2   3    0.34    0.05
   0  -2   3    0.40    0.05
   0  -2   3    0.40    0.04
  -1   2  -3   35.64    0.72
  -1   2  -3   35.53    0.73
  -1   2  -3   37.72    0.64
   1  -2   3   35.15    0.71
   1  -2   3   36.02    0.70
   1  -2   3   35.25    0.63
   1  -2   3   35.03    0.71
  -2   2  -3   35.41    0.63
  -2   2  -3   32.69    0.67
  -2   2  -3   33.66    0.68
  -2   2  -3   34.09    0.69
  -2   2  -3   33.95    0.67
   2  -2   3   33.50    0.67
   2  -2   3   33.55    0.66
   2  -2   3   33.56    0.71
   2  -2   3   34.06    0.68
  -3   2  -3   15.12    0.36
  -3   2  -3   15.07    0.33
  -3   2  -3   14.63    0.31
  -3   2  -3   14.53    0.35
   3  -2   3   15.26    0.31
   3  -2   3   15.43    0.35
   3  -2   3   14.40    0.39
  -4   2  -3    4.21    0.17
  -4   2  -3    4.20    0.17
   4  -2   3    4.36    0.23
   4  -2   3    4.40    0.17
  -5   2  -3   11.41    0.34
  -5   2  -3   11.57    0.33
   5  -2   3   11.99    0.32
   5  -2   3   12.27    0.32
  -6   2  -3    0.71    0.12
  -6   2  -3    0.52    0.10
   6  -2   3    0.70    0.11
   6  -2   3    0.54    0.09
  -7   2  -3    3.42    0.24
   7  -2   3    3.92    0.28
   7  -2   3    3.94    0.21
   7   1  -3    2.51    0.31
   7   1  -3    3.04    0.24
   7   1  -3    3.10    0.23
  -7  -1   3    2.96    0.26
  -7  -1   3    2.75    0.22
   6   1  -3   14.44    0.39
   6   1  -3   14.13    0.31
   6   1  -3   14.23    0.44
  -6  -1   3   13.45    0.42
  -6  -1   3   14.66    0.38
   5   1  -3    0.75    0.11
   5   1  -3    0.81    0.09
   5   1  -3    0.90    0.08
   5   1  -3    1.20    0.15
  -5  -1   3    1.03    0.13
  -5  -1   3    0.78    0.11
   4   1  -3    1.75    0.14
   4   1  -3    1.90    0.09
   4   1  -3    2.08    0.13
   4   1  -3    1.82    0.14
  -4  -1   3    2.02    0.13
  -4  -1   3    2.11    0.15
  -4  -1   3    1.84    0.14
  -4  -1   3    1.97    0.11
  -4  -1   3    1.99    0.13
   3   1  -3    4.63    0.17
   3   1  -3    4.55    0.17
   3   1  -3    4.40    0.12
   3   1  -3    4.52    0.17
  -3  -1   3    4.74    0.18
  -3  -1   3    4.64    0.17
  -3  -1   3    4.65    0.18
  -3  -1   3    4.60    0.14
  -3  -1   3    4.72    0.17
   2   1  -3   11.86    0.26
   2   1  -3   11.69    0.30
   2   1  -3   12.09    0.30
   2   1  -3   11.68    0.27
  -2  -1   3   11.48    0.30
  -2  -1   3   12.16    0.30
  -2  -1   3   12.03    0.28
  -2  -1   3   12.27    0.27
  -2  -1   3   12.15    0.25
   1   1  -3   72.37    1.36
   1   1  -3   72.00    1.41
   1   1  -3   73.60    1.41
   1   1  -3   73.30    1.28
  -1  -1   3   74.08    1.39
  -1  -1   3   73.38    1.31
  -1  -1   3   74.74    1.44
  -1  -1   3   77.41    1.31
  -1  -1   3   73.49    1.44
   0   1  -3   27.97    0.57
   0   1  -3   28.89    0.50
   0   1  -3   28.84    0.58
   0   1  -3   28.71    0.51
   0  -1   3   28.69    0.59
   0  -1   3   29.86    0.57
   0  -1   3   29.46    0.53
   0  -1   3   28.25    0.57
  -1   1  -3   61.68    1.02
  -1   1  -3   59.80    1.14
  -1   1  -3   58.00    1.13
  -1   1  -3   57.83    1.14
   1  -1   3   59.03    1.15
   1  -1   3   59.32    1.03
   1  -1   3   59.81    1.15
   1  -1   3   60.15    1.14
   1  -1   3   61.93    1.17
  -2   1  -3    1.55    0.09
  -2   1  -3    1.50    0.08
  -2   1  -3    1.57    0.07
  -2   1  -3    1.47    0.07
  -2   1  -3    1.48    0.06
   2  -1   3    1.42    0.07
   2  -1   3    1.49    0.06
   2  -1   3    1.86    0.09
   2  -1   3    1.62    0.10
  -3   1  -3   29.87    0.57
  -3   1  -3   27.34    0.65
  -3   1  -3   29.22    0.62
  -3   1  -3   30.44    0.56
  -3   1  -3   30.26    0.61
  -3   1  -3   29.90    0.58
   3  -1   3   30.67    0.63
   3  -1   3   30.76    0.58
   3  -1   3   29.24    0.67
   3  -1   3   31.21    0.59
  -4   1  -3   10.41    0.32
  -4   1  -3   10.64    0.29
  -4   1  -3   11.02    0.28
   4  -1   3   11.30    0.28
   4  -1   3   11.54    0.30
   4  -1   3   10.66    0.34
  -5   1  -3    4.01    0.18
  -5   1  -3    4.12    0.19
   5  -1   3    4.24    0.18
   5  -1   3    4.20    0.18
  -6   1  -3    0.44    0.11
  -6   1  -3    0.36    0.09
   6  -1   3    0.43    0.09
   6  -1   3    0.45    0.11
  -7   1  -3    5.96    0.29
   7  -1   3    6.15    0.26
   7  -1   3    6.09    0.30
  -8   1  -3    0.54    0.16
   8  -1   3    0.44    0.21
   8  -1   3    0.33    0.14
   7   0  -3    1.64    0.19
   7   0  -3    1.74    0.22
  -7   0   3    1.26    0.17
  -7   0   3    1.68    0.20
   6   0  -3    0.50    0.09
   6   0  -3    0.25    0.09
   6   0  -3    0.26    0.12
   6   0  -3    0.31    0.16
  -6   0   3    0.43    0.10
  -6   0   3    0.33    0.09
  -6   0   3    0.31    0.11
   5   0  -3   28.63    0.63
   5   0  -3   28.21    0.65
  -5   0   3   28.87    0.63
  -5   0   3   29.09    0.63
  -5   0   3   27.41    0.65
   4   0  -3   32.75    0.70
   4   0  -3   33.07    0.70
   4   0  -3   33.12    0.71
   4   0  -3   34.06    0.69
   4   0  -3   32.31    0.63
  -4   0   3   33.60    0.70
  -4   0   3   32.82    0.69
  -4   0   3   33.18    0.70
  -4   0   3   33.27    0.71
   3   0  -3   12.14    0.31
   3   0  -3   12.58    0.29
   3   0  -3   12.07    0.25
   3   0  -3   12.43    0.31
   3   0  -3   11.85    0.31
  -3   0   3   12.29    0.31
  -3   0   3   12.00    0.31
  -3   0   3   12.55    0.31
  -3   0   3   12.57    0.31
   2   0  -3    1.69    0.09
   2   0  -3    1.73    0.06
   2   0  -3    1.54    0.09
   2   0  -3    1.77    0.07
   2   0  -3    1.56    0.09
  -2   0   3    1.78    0.06
  -2   0   3    1.58    0.09
  -2   0   3    1.71    0.09
  -2   0   3    1.68    0.09
  -2   0   3    1.79    0.09
   1   0  -3    5.81    0.17
   1   0  -3    5.57    0.14
   1   0  -3    5.73    0.14
  -1   0   3    5.71    0.13
  -1   0   3    5.55    0.15
  -1   0   3    5.79    0.16
  -1   0   3    5.96    0.14
   0   0  -3  169.13    3.31
   0   0  -3  177.92    3.10
   0   0  -3  182.43    3.37
   0   0  -3  183.04    3.37
   0   0  -3  186.35    3.09
   0   0  -3  186.05    3.37
   0   0   3  173.33    3.35
   0   0   3  180.23    3.35
   0   0   3  176.58    3.09
   0   0   3  177.43    3.30
   0   0   3  183.40    3.35
   0   0   3  188.83    3.07
  -1   0  -3   62.92    1.05
  -1   0  -3   59.65    1.16
  -1   0  -3   61.98    1.18
  -1   0  -3   62.15    1.16
  -1   0  -3   58.69    1.16
   1   0   3   60.57    1.04
   1   0   3   60.78    1.05
   1   0   3   59.50    1.16
   1   0   3   60.96    1.16
   1   0   3   63.57    1.18
   1   0   3   61.05    1.16
  -2   0  -3    8.91    0.24
  -2   0  -3    8.68    0.22
  -2   0  -3    9.15    0.20
  -2   0  -3    8.95    0.19
  -2   0  -3    9.28    0.21
   2   0   3    9.19    0.20
   2   0   3    9.09    0.24
   2   0   3    8.93    0.23
  -3   0  -3    4.59    0.14
  -3   0  -3    4.64    0.15
   3   0   3    4.77    0.16
   3   0   3    4.98    0.14
   3   0   3    4.86    0.18
  -4   0  -3    0.36    0.07
  -4   0  -3    0.52    0.08
  -4   0  -3    0.31    0.08
   4   0   3    0.30    0.06
   4   0   3    0.35    0.09
   4   0   3    0.42    0.06
  -5   0  -3    7.85    0.29
  -5   0  -3    7.66    0.25
  -5   0  -3    7.23    0.24
   5   0   3    8.12    0.25
   5   0   3    8.29    0.25
  -6   0  -3   20.74    0.52
  -6   0  -3   20.98    0.52
  -6   0  -3   21.29    0.58
   6   0   3   21.70    0.51
   6   0   3   22.08    0.52
  -7   0  -3    0.80    0.15
   7   0   3    0.90    0.13
   7   0   3    0.81    0.15
  -8   0  -3    0.22    0.14
   8   0   3    0.24    0.19
   8   0   3    0.16    0.15
   7  -1  -3    8.19    0.28
   7  -1  -3    8.86    0.40
   7  -1  -3    8.66    0.28
  -7   1   3    8.98    0.37
  -7   1   3    8.42    0.27
   6  -1  -3    6.17    0.23
   6  -1  -3    6.52    0.31
  -6   1   3    5.98    0.22
  -6   1   3    6.35    0.23
  -6   1   3    5.96    0.28
   5  -1  -3   16.20    0.45
   5  -1  -3   16.64    0.41
   5  -1  -3   16.89    0.41
  -5   1   3   17.17    0.41
  -5   1   3   16.71    0.45
  -5   1   3   17.45    0.42
   4  -1  -3    1.21    0.11
   4  -1  -3    1.34    0.13
   4  -1  -3    1.18    0.11
   4  -1  -3    1.09    0.13
  -4   1   3    1.20    0.13
  -4   1   3    1.08    0.11
  -4   1   3    1.06    0.11
   3  -1  -3    8.76    0.24
   3  -1  -3    8.61    0.24
   3  -1  -3    8.62    0.24
  -3   1   3    8.33    0.24
  -3   1   3    8.44    0.23
  -3   1   3    8.51    0.23
   2  -1  -3   77.45    1.40
   2  -1  -3   77.23    1.44
   2  -1  -3   78.31    1.51
   2  -1  -3   79.42    1.51
   2  -1  -3   79.68    1.49
  -2   1   3   77.74    1.40
  -2   1   3   76.68    1.52
  -2   1   3   80.52    1.44
  -2   1   3   80.14    1.52
  -2   1   3   79.87    1.42
   1  -1  -3  168.32    3.14
   1  -1  -3  174.53    2.94
   1  -1  -3  170.58    3.22
   1  -1  -3  175.38    3.22
  -1   1   3  169.40    3.20
  -1   1   3  180.78    3.01
  -1   1   3  170.88    3.25
  -1   1   3  174.85    3.25
  -1   1   3  175.18    2.98
   0  -1  -3  417.18    7.83
   0  -1  -3  408.58    7.71
   0  -1  -3  422.36    7.80
   0  -1  -3  422.01    7.13
   0   1   3  421.65    7.79
   0   1   3  409.18    7.69
   0   1   3  407.35    7.81
   0   1   3  423.61    7.09
  -1  -1  -3   14.60    0.31
  -1  -1  -3   14.90    0.32
  -1  -1  -3   15.10    0.31
   1   1   3   14.71    0.31
   1   1   3   15.03    0.32
   1   1   3   14.78    0.32
   1   1   3   14.83    0.31
  -2  -1  -3    2.35    0.07
  -2  -1  -3    2.32    0.08
  -2  -1  -3    2.26    0.10
  -2  -1  -3    2.26    0.08
   2   1   3    2.24    0.10
   2   1   3    2.35    0.06
   2   1   3    2.35    0.07
   2   1   3    2.30    0.08
   2   1   3    2.25    0.10
  -3  -1  -3   34.77    0.69
  -3  -1  -3   34.65    0.66
   3   1   3   35.84    0.64
   3   1   3   35.07    0.72
   3   1   3   34.65    0.75
  -4  -1  -3   60.50    1.13
  -4  -1  -3   61.45    1.26
  -4  -1  -3   59.49    1.16
   4   1   3   63.00    1.12
   4   1   3   61.94    1.22
   4   1   3   61.66    1.28
  -5  -1  -3    3.50    0.17
  -5  -1  -3    3.46    0.16
  -5  -1  -3    3.61    0.21
   5   1   3    3.78    0.16
   5   1   3    3.64    0.18
  -6  -1  -3    0.57    0.13
  -6  -1  -3    0.47    0.11
   6   1   3    0.55    0.10
   6   1   3    0.53    0.10
  -7  -1  -3   -0.03    0.10
  -7  -1  -3    0.11    0.13
   7   1   3    0.25    0.11
   7   1   3    0.09    0.12
  -8  -1  -3    3.78    0.27
   8   1   3    4.13    0.34
   8   1   3    3.71    0.30
   7  -2  -3    1.54    0.18
   7  -2  -3    1.46    0.21
   7  -2  -3    1.70    0.17
  -7   2   3    1.42    0.16
  -7   2   3    1.19    0.17
   6  -2  -3   12.68    0.34
   6  -2  -3   13.07    0.41
  -6   2   3   12.52    0.33
  -6   2   3   12.07    0.40
  -6   2   3   13.23    0.34
   5  -2  -3    0.42    0.13
   5  -2  -3    0.42    0.08
   5  -2  -3    0.40    0.08
  -5   2   3    0.46    0.10
  -5   2   3    0.37    0.07
  -5   2   3    0.31    0.07
   4  -2  -3    2.53    0.14
   4  -2  -3    2.55    0.17
   4  -2  -3    2.54    0.13
   4  -2  -3    2.60    0.15
  -4   2   3    2.65    0.16
  -4   2   3    2.59    0.13
  -4   2   3    2.51    0.13
   3  -2  -3   17.79    0.40
   3  -2  -3   17.27    0.40
   3  -2  -3   17.05    0.39
   3  -2  -3   17.57    0.40
  -3   2   3   17.87    0.40
  -3   2   3   17.05    0.39
  -3   2   3   16.86    0.39
   2  -2  -3   52.07    0.94
   2  -2  -3   51.31    1.01
   2  -2  -3   50.18    1.00
  -2   2   3   52.54    1.02
  -2   2   3   49.85    1.01
  -2   2   3   52.16    0.95
   1  -2  -3  116.79    2.02
   1  -2  -3  117.94    2.21
   1  -2  -3  116.69    2.20
  -1   2   3  119.22    2.19
  -1   2   3  115.65    2.25
  -1   2   3  118.40    2.25
  -1   2   3  125.53    2.08
   0  -2  -3  302.06    5.74
   0  -2  -3  308.98    5.75
   0   2   3  314.33    5.95
   0   2   3  319.89    5.89
  -1  -2  -3  102.47    1.92
  -1  -2  -3  102.26    1.91
   1   2   3  102.45    1.93
   1   2   3  104.37    1.93
  -2  -2  -3    6.33    0.15
  -2  -2  -3    6.24    0.19
  -2  -2  -3    6.68    0.16
  -2  -2  -3    6.24    0.13
  -2  -2  -3    6.53    0.15
   2   2   3    6.63    0.16
   2   2   3    6.45    0.13
   2   2   3    6.37    0.15
   2   2   3    6.46    0.15
  -3  -2  -3   13.09    0.29
  -3  -2  -3   12.87    0.27
  -3  -2  -3   12.95    0.29
  -3  -2  -3   12.99    0.26
   3   2   3   13.31    0.27
   3   2   3   13.25    0.34
   3   2   3   13.00    0.27
   3   2   3   13.38    0.27
  -4  -2  -3    3.32    0.13
  -4  -2  -3    3.22    0.14
  -4  -2  -3    3.01    0.17
   4   2   3    3.54    0.13
   4   2   3    3.36    0.18
  -5  -2  -3    6.91    0.28
  -5  -2  -3    6.56    0.22
  -5  -2  -3    6.51    0.23
   5   2   3    7.15    0.25
   5   2   3    7.31    0.22
  -6  -2  -3    1.69    0.16
  -6  -2  -3    1.84    0.20
   6   2   3    2.01    0.17
   6   2   3    1.80    0.18
  -7  -2  -3    0.69    0.15
  -7  -2  -3    0.54    0.12
   7   2   3    0.67    0.14
   7   2   3    0.36    0.13
  -8  -2  -3    1.24    0.18
   8   2   3    1.55    0.21
   7  -3  -3    3.07    0.20
   7  -3  -3    3.33    0.33
   7  -3  -3    2.71    0.19
  -7   3   3    3.00    0.18
  -7   3   3    2.63    0.26
   6  -3  -3    0.03    0.11
   6  -3  -3    0.18    0.07
  -6   3   3    0.25    0.09
  -6   3   3    0.30    0.12
  -6   3   3    0.14    0.08
   5  -3  -3   13.50    0.43
   5  -3  -3   14.01    0.36
   5  -3  -3   13.68    0.34
   5  -3  -3   13.52    0.41
  -5   3   3   13.15    0.33
  -5   3   3   14.20    0.36
  -5   3   3   13.18    0.39
   4  -3  -3   17.37    0.43
   4  -3  -3   17.37    0.44
   4  -3  -3   17.80    0.42
   4  -3  -3   17.24    0.40
  -4   3   3   17.04    0.42
  -4   3   3   16.67    0.39
  -4   3   3   17.37    0.41
   3  -3  -3   51.73    1.01
   3  -3  -3   53.75    1.07
   3  -3  -3   53.20    1.06
   3  -3  -3   55.22    1.08
  -3   3   3   52.65    1.01
  -3   3   3   52.57    1.05
  -3   3   3   54.52    1.06
   2  -3  -3   68.11    1.32
   2  -3  -3   68.21    1.33
  -2   3   3   66.56    1.31
  -2   3   3   69.29    1.23
   1  -3  -3   47.54    0.94
   1  -3  -3   47.73    0.93
  -1   3   3   47.78    0.94
  -1   3   3   48.60    0.95
   0  -3  -3    8.81    0.21
   0  -3  -3    8.54    0.21
   0   3   3    8.51    0.21
   0   3   3    8.77    0.21
  -1  -3  -3  125.91    2.37
  -1  -3  -3  127.11    2.17
  -1  -3  -3  128.19    2.38
   1   3   3  125.32    2.33
   1   3   3  124.00    2.33
  -2  -3  -3  105.03    1.77
  -2  -3  -3  100.18    1.99
  -2  -3  -3  102.92    1.93
  -2  -3  -3  105.10    1.86
  -2  -3  -3  103.15    1.93
   2   3   3  102.79    1.96
   2   3   3  106.29    1.79
   2   3   3  102.79    1.96
   2   3   3  107.76    1.88
  -3  -3  -3   69.88    1.32
  -3  -3  -3   68.90    1.26
  -3  -3  -3   70.95    1.23
  -3  -3  -3   69.10    1.29
   3   3   3   71.27    1.23
   3   3   3   69.33    1.33
   3   3   3   71.35    1.33
   3   3   3   69.86    1.30
  -4  -3  -3    3.24    0.10
  -4  -3  -3    3.38    0.18
  -4  -3  -3    2.91    0.14
  -4  -3  -3    3.32    0.13
  -4  -3  -3    3.29    0.10
  -4  -3  -3    3.02    0.13
   4   3   3    3.47    0.11
   4   3   3    3.41    0.13
   4   3   3    3.35    0.10
  -5  -3  -3    1.10    0.12
  -5  -3  -3    1.13    0.14
   5   3   3    1.15    0.11
  -6  -3  -3    1.68    0.21
  -6  -3  -3    1.75    0.16
   6   3   3    1.70    0.16
  -7  -3  -3    0.87    0.13
  -7  -3  -3    1.02    0.18
   7   3   3    1.14    0.16
   7   3   3    1.20    0.14
   7  -4  -3    1.19    0.12
   7  -4  -3    1.43    0.23
   7  -4  -3    1.41    0.13
  -7   4   3    1.46    0.18
  -7   4   3    1.28    0.20
   6  -4  -3    4.61    0.22
   6  -4  -3    4.77    0.29
   6  -4  -3    4.65    0.19
  -6   4   3    4.76    0.21
  -6   4   3    4.81    0.19
  -6   4   3    4.79    0.27
   5  -4  -3    3.92    0.16
   5  -4  -3    3.83    0.19
   5  -4  -3    4.18    0.22
  -5   4   3    3.78    0.16
  -5   4   3    3.93    0.19
  -5   4   3    3.90    0.22
   4  -4  -3    7.14    0.23
   4  -4  -3    7.21    0.22
   4  -4  -3    7.04    0.27
   4  -4  -3    7.17    0.25
  -4   4   3    7.15    0.21
  -4   4   3    7.49    0.24
  -4   4   3    7.38    0.26
   3  -4  -3    5.40    0.18
   3  -4  -3    5.33    0.19
  -3   4   3    5.30    0.19
  -3   4   3    5.21    0.17
   2  -4  -3   50.46    1.00
   2  -4  -3   49.30    0.99
  -2   4   3   48.83    0.99
  -2   4   3   50.10    1.00
  -2   4   3   50.77    0.93
  -2   4   3   51.27    0.94
   1  -4  -3   33.85    0.62
   1  -4  -3   31.83    0.67
   1  -4  -3   33.02    0.67
  -1   4   3   33.34    0.67
  -1   4   3   32.09    0.66
   0  -4  -3    8.69    0.22
   0  -4  -3    8.56    0.22
   0   4   3    8.27    0.21
   0   4   3    8.66    0.22
  -1  -4  -3   13.42    0.31
  -1  -4  -3   14.28    0.26
  -1  -4  -3   13.67    0.31
   1   4   3   13.54    0.31
   1   4   3   14.13    0.31
  -2  -4  -3   40.00    0.80
  -2  -4  -3   41.06    0.73
  -2  -4  -3   41.40    0.80
  -2  -4  -3   39.89    0.74
   2   4   3   40.92    0.72
   2   4   3   39.90    0.80
   2   4   3   41.38    0.74
   2   4   3   40.35    0.80
  -3  -4  -3    5.76    0.16
  -3  -4  -3    5.70    0.20
  -3  -4  -3    5.74    0.17
  -3  -4  -3    5.60    0.16
  -3  -4  -3    5.75    0.16
   3   4   3    5.93    0.15
   3   4   3    5.82    0.16
   3   4   3    5.78    0.17
   3   4   3    5.57    0.16
  -4  -4  -3    0.75    0.07
  -4  -4  -3    0.61    0.09
  -4  -4  -3    0.69    0.08
  -4  -4  -3    0.70    0.09
   4   4   3    0.70    0.07
   4   4   3    0.66    0.08
   4   4   3    0.69    0.07
  -5  -4  -3    2.93    0.20
  -5  -4  -3    2.94    0.12
  -5  -4  -3    2.89    0.16
  -5  -4  -3    2.99    0.11
  -5  -4  -3    2.96    0.16
   5   4   3    2.80    0.14
   5   4   3    2.84    0.12
   5   4   3    3.05    0.12
  -6  -4  -3    0.62    0.14
  -6  -4  -3    0.60    0.10
   6   4   3    0.69    0.10
  -7  -4  -3    1.30    0.19
   7   4   3    1.18    0.15
   7  -5  -3    4.69    0.37
   7  -5  -3    4.08    0.22
   7  -5  -3    4.05    0.24
  -7   5   3    2.71    0.19
  -7   5   3    4.14    0.30
  -7   5   3    3.96    0.22
   6  -5  -3    9.10    0.36
   6  -5  -3    9.01    0.28
   6  -5  -3    9.37    0.31
  -6   5   3    9.01    0.36
  -6   5   3    9.66    0.31
   5  -5  -3    3.41    0.19
   5  -5  -3    3.23    0.16
   5  -5  -3    3.25    0.22
  -5   5   3    3.34    0.18
  -5   5   3    3.10    0.21
   4  -5  -3   11.04    0.31
   4  -5  -3   10.31    0.28
   4  -5  -3   10.39    0.35
  -4   5   3   10.91    0.30
  -4   5   3   10.17    0.32
  -4   5   3   10.68    0.28
   3  -5  -3    8.67    0.24
   3  -5  -3    8.76    0.25
  -3   5   3    9.13    0.26
  -3   5   3    8.57    0.24
  -3   5   3    8.82    0.26
   2  -5  -3   91.50    1.76
   2  -5  -3   91.10    1.75
  -2   5   3   91.17    1.78
  -2   5   3   93.54    1.67
  -2   5   3   92.31    1.79
  -2   5   3   93.78    1.71
   1  -5  -3    8.54    0.23
   1  -5  -3    8.27    0.22
   1  -5  -3    8.20    0.20
  -1   5   3    8.46    0.22
  -1   5   3    8.30    0.23
   0  -5  -3  140.28    2.47
   0  -5  -3  137.33    2.62
   0  -5  -3  139.88    2.63
   0   5   3  138.15    2.61
   0   5   3  138.87    2.61
  -1  -5  -3   75.51    1.46
  -1  -5  -3   77.86    1.32
  -1  -5  -3   74.25    1.46
   1   5   3   72.94    1.42
   1   5   3   74.64    1.42
  -2  -5  -3  108.17    1.83
  -2  -5  -3  106.89    2.01
  -2  -5  -3  102.73    2.01
   2   5   3  106.32    1.81
   2   5   3  103.18    1.99
   2   5   3  104.89    1.99
  -3  -5  -3    0.16    0.06
  -3  -5  -3    0.16    0.04
  -3  -5  -3    0.13    0.04
  -3  -5  -3    0.30    0.05
   3   5   3    0.14    0.04
   3   5   3    0.14    0.05
   3   5   3    0.11    0.04
   3   5   3    0.18    0.04
  -4  -5  -3    3.20    0.15
  -4  -5  -3    3.11    0.18
  -4  -5  -3    3.38    0.14
  -4  -5  -3    3.10    0.15
  -4  -5  -3    3.23    0.13
   4   5   3    3.28    0.13
   4   5   3    3.03    0.13
   4   5   3    3.16    0.13
  -5  -5  -3    0.89    0.11
  -5  -5  -3    1.07    0.11
  -5  -5  -3    0.84    0.10
  -5  -5  -3    0.82    0.13
  -5  -5  -3    0.96    0.12
   5   5   3    1.10    0.11
   5   5   3    0.76    0.10
   5   5   3    1.09    0.12
  -6  -5  -3    2.66    0.18
  -6  -5  -3    2.97    0.25
  -6  -5  -3    2.59    0.13
  -6  -5  -3    2.73    0.15
   6   5   3    2.93    0.15
   6   5   3    2.97    0.18
   6   5   3    2.84    0.16
  -7  -5  -3    5.77    0.35
  -7  -5  -3    5.58    0.28
   7   5   3    5.29    0.27
   7  -6  -3    0.64    0.14
   7  -6  -3    0.38    0.21
  -7   6   3    0.27    0.18
  -7   6   3    0.61    0.11
   6  -6  -3   10.16    0.31
   6  -6  -3   11.02    0.35
   6  -6  -3   10.72    0.41
  -6   6   3   10.61    0.34
  -6   6   3   10.28    0.39
   5  -6  -3    3.32    0.17
   5  -6  -3    3.50    0.23
  -5   6   3    3.57    0.23
  -5   6   3    3.53    0.17
  -5   6   3    3.23    0.20
   4  -6  -3    3.83    0.19
   4  -6  -3    3.78    0.17
  -4   6   3    3.85    0.17
  -4   6   3    4.04    0.20
  -4   6   3    4.11    0.19
   3  -6  -3    9.97    0.28
   3  -6  -3    9.90    0.29
  -3   6   3   10.21    0.29
  -3   6   3   10.11    0.29
  -3   6   3   10.20    0.28
  -3   6   3    9.80    0.22
   2  -6  -3    0.70    0.09
   2  -6  -3    0.76    0.09
  -2   6   3    0.75    0.06
  -2   6   3    0.74    0.10
  -2   6   3    0.72    0.08
  -2   6   3    0.83    0.09
   1  -6  -3   24.06    0.47
   1  -6  -3   23.53    0.52
   1  -6  -3   24.40    0.53
  -1   6   3   24.29    0.54
  -1   6   3   24.79    0.54
   0  -6  -3   48.31    0.88
   0  -6  -3   47.25    0.97
   0  -6  -3   50.49    0.98
   0   6   3   49.72    0.99
   0   6   3   48.55    0.98
  -1  -6  -3    8.57    0.24
  -1  -6  -3    8.40    0.19
  -1  -6  -3    7.91    0.23
   1   6   3    8.38    0.23
   1   6   3    8.24    0.23
  -2  -6  -3    4.67    0.16
  -2  -6  -3    4.56    0.16
  -2  -6  -3    4.70    0.14
   2   6   3    4.76    0.16
   2   6   3    4.47    0.16
  -3  -6  -3    4.66    0.17
  -3  -6  -3    4.20    0.16
  -3  -6  -3    4.55    0.15
   3   6   3    4.62    0.17
   3   6   3    4.57    0.14
   3   6   3    4.30    0.13
   3   6   3    4.40    0.17
  -4  -6  -3   22.48    0.49
  -4  -6  -3   23.45    0.51
  -4  -6  -3   21.75    0.56
  -4  -6  -3   22.38    0.51
   4   6   3   23.18    0.46
   4   6   3   22.49    0.50
   4   6   3   21.89    0.51
  -5  -6  -3    2.04    0.19
  -5  -6  -3    2.21    0.17
  -5  -6  -3    1.79    0.14
  -5  -6  -3    2.24    0.15
  -5  -6  -3    1.93    0.15
   5   6   3    1.85    0.13
   5   6   3    2.14    0.15
   5   6   3    1.90    0.15
  -6  -6  -3    3.67    0.21
  -6  -6  -3    3.88    0.19
  -6  -6  -3    3.70    0.24
  -6  -6  -3    4.06    0.28
   6   6   3    3.67    0.19
   6   6   3    3.79    0.21
   6   6   3    3.70    0.19
  -7  -6  -3    2.24    0.17
  -7  -6  -3    2.20    0.21
  -7  -6  -3    2.20    0.30
   7   6   3    1.88    0.24
   7   6   3    2.24    0.20
   7   6   3    2.22    0.18
   6  -7  -3    3.28    0.31
   6  -7  -3    3.68    0.25
   6  -7  -3    3.41    0.22
  -6   7   3    3.78    0.25
  -6   7   3    3.23    0.20
   5  -7  -3   11.24    0.36
   5  -7  -3   10.54    0.32
  -5   7   3   11.21    0.36
  -5   7   3   10.87    0.37
   4  -7  -3    1.73    0.14
   4  -7  -3    1.29    0.16
  -4   7   3    1.41    0.16
  -4   7   3    1.59    0.15
  -4   7   3    1.41    0.09
  -4   7   3    1.36    0.13
   3  -7  -3   77.28    1.55
   3  -7  -3   79.90    1.57
  -3   7   3   78.74    1.53
  -3   7   3   75.22    1.44
  -3   7   3   76.57    1.51
  -3   7   3   76.90    1.45
   2  -7  -3   63.82    1.28
   2  -7  -3   64.76    1.29
  -2   7   3   65.74    1.22
  -2   7   3   63.89    1.30
  -2   7   3   65.97    1.24
  -2   7   3   66.42    1.32
   1  -7  -3   51.11    1.03
   1  -7  -3   49.63    0.95
   1  -7  -3   51.80    1.04
  -1   7   3   52.46    1.00
  -1   7   3   50.06    1.05
  -1   7   3   52.93    1.06
   0  -7  -3    5.48    0.19
   0  -7  -3    5.65    0.19
   0   7   3    5.76    0.20
   0   7   3    5.54    0.19
  -1  -7  -3    2.52    0.10
  -1  -7  -3    2.48    0.13
  -1  -7  -3    2.59    0.13
   1   7   3    2.26    0.12
   1   7   3    2.46    0.13
  -2  -7  -3   52.38    1.06
  -2  -7  -3   53.50    0.96
  -2  -7  -3   51.41    1.06
   2   7   3   51.92    1.05
   2   7   3   50.73    1.04
  -3  -7  -3   30.21    0.65
  -3  -7  -3   29.05    0.65
  -3  -7  -3   29.71    0.59
   3   7   3   28.85    0.64
   3   7   3   29.43    0.57
   3   7   3   28.49    0.64
  -4  -7  -3   51.90    1.01
  -4  -7  -3   53.99    1.08
  -4  -7  -3   52.91    1.14
   4   7   3   48.56    0.97
   4   7   3   51.52    1.06
   4   7   3   52.40    1.05
   4   7   3   53.06    0.96
  -5  -7  -3    9.91    0.30
  -5  -7  -3    9.52    0.37
   5   7   3    9.09    0.30
   5   7   3    9.29    0.29
   5   7   3    9.40    0.27
  -6  -7  -3    0.77    0.12
  -6  -7  -3    0.56    0.15
   6   7   3    0.63    0.12
   6   7   3    0.54    0.11
   6   7   3    0.55    0.11
  -7  -7  -3    0.25    0.19
  -7  -7  -3   -0.04    0.17
  -7  -7  -3    0.21    0.13
   7   7   3    0.26    0.12
   7   7   3   -0.18    0.14
   6  -8  -3    0.92    0.13
   6  -8  -3    0.97    0.20
   6  -8  -3    0.48    0.15
  -6   8   3    0.74    0.16
  -6   8   3    0.52    0.17
  -6   8   3    0.65    0.12
   5  -8  -3    5.40    0.24
   5  -8  -3    5.09    0.27
  -5   8   3    5.49    0.26
  -5   8   3    5.20    0.28
   4  -8  -3    1.45    0.17
   4  -8  -3    1.32    0.15
  -4   8   3    1.53    0.17
  -4   8   3    1.19    0.17
  -4   8   3    1.48    0.12
   3  -8  -3    7.79    0.26
   3  -8  -3    7.94    0.28
  -3   8   3    7.43    0.26
  -3   8   3    7.72    0.21
  -3   8   3    7.72    0.26
  -3   8   3    8.25    0.28
   2  -8  -3   44.45    0.94
   2  -8  -3   45.23    0.95
  -2   8   3   46.60    0.98
  -2   8   3   46.20    0.91
  -2   8   3   45.94    0.97
   1  -8  -3    2.82    0.15
   1  -8  -3    2.81    0.15
   1  -8  -3    2.62    0.12
  -1   8   3    2.71    0.15
  -1   8   3    3.01    0.16
  -1   8   3    2.85    0.12
   0  -8  -3    1.28    0.12
   0   8   3    1.31    0.12
   0   8   3    1.24    0.12
  -1  -8  -3    8.65    0.27
  -1  -8  -3    8.55    0.27
  -1  -8  -3    8.71    0.23
   1   8   3    8.70    0.27
   1   8   3    9.00    0.28
  -2  -8  -3   52.01    0.97
  -2  -8  -3   53.18    1.08
  -2  -8  -3   51.75    1.08
   2   8   3   52.20    1.08
   2   8   3   51.86    1.08
  -3  -8  -3    2.45    0.17
  -3  -8  -3    2.67    0.14
   3   8   3    2.50    0.16
   3   8   3    2.25    0.16
  -4  -8  -3    8.02    0.27
  -4  -8  -3    7.96    0.30
  -4  -8  -3    7.70    0.26
   4   8   3    7.91    0.23
   4   8   3    6.88    0.23
   4   8   3    7.91    0.27
   4   8   3    7.30    0.27
  -5  -8  -3    2.57    0.21
  -5  -8  -3    2.41    0.20
  -5  -8  -3    2.68    0.24
   5   8   3    2.51    0.17
   5   8   3    2.82    0.21
   5   8   3    2.13    0.20
  -6  -8  -3    5.63    0.28
  -6  -8  -3    6.46    0.28
  -6  -8  -3    5.40    0.32
  -6  -8  -3    6.11    0.35
   6   8   3    6.05    0.30
   6   8   3    6.23    0.28
   6   8   3    5.98    0.29
   6  -9  -3    0.78    0.15
   6  -9  -3    0.44    0.17
  -6   9   3    0.92    0.19
  -6   9   3    1.04    0.14
  -6   9   3    0.82    0.19
   5  -9  -3    3.70    0.23
   5  -9  -3    3.73    0.26
  -5   9   3    3.10    0.17
  -5   9   3    3.57    0.25
  -5   9   3    3.23    0.24
  -5   9   3    3.30    0.22
   4  -9  -3    2.39    0.21
   4  -9  -3    2.21    0.19
  -4   9   3    2.49    0.20
  -4   9   3    2.15    0.19
  -4   9   3    1.97    0.14
   3  -9  -3   36.78    0.82
   3  -9  -3   37.62    0.84
  -3   9   3   37.70    0.83
  -3   9   3   36.11    0.75
  -3   9   3   35.55    0.77
   2  -9  -3    3.00    0.18
   2  -9  -3    3.17    0.18
  -2   9   3    2.92    0.14
  -2   9   3    3.24    0.19
   1  -9  -3   42.04    0.90
   1  -9  -3   40.90    0.89
  -1   9   3   42.08    0.90
  -1   9   3   41.74    0.84
  -1   9   3   40.98    0.89
   0  -9  -3   23.22    0.55
   0  -9  -3   22.59    0.48
   0  -9  -3   22.37    0.55
   0   9   3   23.14    0.51
   0   9   3   22.13    0.54
   0   9   3   22.94    0.55
  -1  -9  -3   42.37    0.91
  -1  -9  -3   41.46    0.90
  -1  -9  -3   41.72    0.80
   1   9   3   42.26    0.91
   1   9   3   42.02    0.91
  -2  -9  -3   18.90    0.43
  -2  -9  -3   19.69    0.49
   2   9   3   19.41    0.50
   2   9   3   19.81    0.50
  -3  -9  -3   17.67    0.47
  -3  -9  -3   17.76    0.42
   3   9   3   16.65    0.45
   3   9   3   16.75    0.45
  -4  -9  -3    0.91    0.12
  -4  -9  -3    0.88    0.13
   4   9   3    0.72    0.11
   4   9   3    0.71    0.12
  -5  -9  -3    6.67    0.30
  -5  -9  -3    7.55    0.34
  -5  -9  -3    6.19    0.30
   5   9   3    7.02    0.32
   5   9   3    7.06    0.26
   5   9   3    6.22    0.30
  -6  -9  -3    1.85    0.22
  -6  -9  -3    1.77    0.19
  -6  -9  -3    1.47    0.20
  -6  -9  -3    1.95    0.27
   6   9   3    1.48    0.17
   6   9   3    1.42    0.19
   6   9   3    1.48    0.17
   5 -10  -3    0.78    0.15
   5 -10  -3    0.82    0.16
  -5  10   3    0.98    0.16
  -5  10   3    0.60    0.11
  -5  10   3    0.97    0.14
   4 -10  -3    0.60    0.13
   4 -10  -3    0.80    0.14
  -4  10   3    0.53    0.13
  -4  10   3    0.41    0.11
  -4  10   3    0.60    0.14
  -4  10   3    0.60    0.10
   3 -10  -3    1.88    0.20
   3 -10  -3    2.34    0.20
  -3  10   3    2.41    0.15
  -3  10   3    2.37    0.23
  -3  10   3    2.32    0.17
   2 -10  -3    4.95    0.23
   2 -10  -3    4.50    0.23
  -2  10   3    4.84    0.19
  -2  10   3    5.10    0.25
   1 -10  -3    6.85    0.29
   1 -10  -3    6.70    0.27
  -1  10   3    6.95    0.26
  -1  10   3    7.27    0.28
  -1  10   3    7.06    0.23
   0 -10  -3    3.17    0.20
   0 -10  -3    3.20    0.16
   0  10   3    3.15    0.20
  -1 -10  -3   42.11    0.91
  -1 -10  -3   39.72    0.90
   1  10   3   39.75    0.85
   1  10   3   41.76    0.91
  -2 -10  -3    4.06    0.18
  -2 -10  -3    4.20    0.23
   2  10   3    4.02    0.23
   2  10   3    4.04    0.22
  -3 -10  -3    0.21    0.10
   3  10   3    0.37    0.11
   3  10   3    0.17    0.10
  -4 -10  -3    1.63    0.22
  -4 -10  -3    1.87    0.22
   4  10   3    1.38    0.15
   4  10   3    1.49    0.17
  -5 -10  -3    6.89    0.36
  -5 -10  -3    7.47    0.34
  -5 -10  -3    7.92    0.37
  -5 -10  -3    8.00    0.37
   5  10   3    6.87    0.31
   5  10   3    7.04    0.34
   5  10   3    7.64    0.37
   5 -11  -3    0.96    0.20
   5 -11  -3    0.64    0.17
  -5  11   3    0.58    0.16
  -5  11   3    0.48    0.14
  -5  11   3    0.82    0.17
  -5  11   3    0.30    0.19
   4 -11  -3    1.57    0.19
   4 -11  -3    1.53    0.17
  -4  11   3    2.11    0.28
  -4  11   3    1.62    0.19
  -4  11   3    1.85    0.20
  -4  11   3    1.33    0.15
   3 -11  -3    2.18    0.23
   3 -11  -3    1.68    0.18
  -3  11   3    1.90    0.17
  -3  11   3    1.80    0.25
  -3  11   3    2.00    0.18
   2 -11  -3    0.52    0.11
  -2  11   3    0.82    0.14
  -2  11   3    0.80    0.10
   1 -11  -3    6.66    0.29
   1 -11  -3    5.74    0.27
  -1  11   3    6.33    0.24
  -1  11   3    6.96    0.30
  -1  11   3    6.55    0.28
   0 -11  -3   18.38    0.50
   0 -11  -3   18.17    0.50
   0  11   3   18.90    0.52
   0  11   3   18.58    0.52
  -1 -11  -3    3.40    0.21
  -1 -11  -3    3.73    0.25
   1  11   3    4.00    0.24
   1  11   3    3.79    0.25
  -2 -11  -3    2.51    0.21
  -2 -11  -3    2.28    0.23
   2  11   3    2.29    0.21
   2  11   3    2.07    0.21
   3  11   3    1.86    0.18
   3  11   3    1.64    0.22
  -4 -11  -3    6.12    0.34
  -4 -11  -3    6.36    0.33
  -4 -11  -3    6.12    0.29
   4  11   3    5.91    0.29
   4  11   3    5.92    0.33
   4  11   3    6.59    0.36
  -5 -11  -3    3.87    0.34
  -5 -11  -3    3.98    0.33
  -5 -11  -3    4.18    0.37
  -5 -11  -3    3.49    0.34
   5  11   3    3.96    0.34
   5  11   3    4.40    0.39
   5  11   3    3.89    0.30
   4 -12  -3    6.77    0.40
  -4  12   3    6.93    0.33
  -4  12   3    6.34    0.36
  -4  12   3    7.35    0.41
  -4  12   3    6.68    0.31
   3 -12  -3    4.48    0.30
   3 -12  -3    4.36    0.31
  -3  12   3    4.41    0.29
  -3  12   3    4.51    0.25
   2 -12  -3    2.93    0.24
   2 -12  -3    2.98    0.26
  -2  12   3    2.65    0.25
  -2  12   3    3.69    0.29
   1 -12  -3    0.33    0.12
   1 -12  -3    0.57    0.14
   1 -12  -3    0.28    0.10
  -1  12   3    0.55    0.13
  -1  12   3    0.57    0.14
   0 -12  -3    0.67    0.10
   0 -12  -3    0.42    0.13
   0 -12  -3    0.60    0.12
   0  12   3    0.69    0.13
   0  12   3    0.74    0.13
   0  12   3    0.37    0.09
  -1 -12  -3    1.73    0.24
  -1 -12  -3    1.63    0.18
  -1 -12  -3    1.65    0.17
   1  12   3    1.56    0.18
   1  12   3    1.59    0.18
   1  12   3    2.02    0.25
  -2 -12  -3    4.31    0.30
  -2 -12  -3    4.20    0.23
  -2 -12  -3    4.66    0.29
   2  12   3    4.41    0.29
   2  12   3    4.80    0.32
  -3 -12  -3    2.75    0.27
  -3 -12  -3    2.49    0.23
  -3 -12  -3    1.72    0.19
   3  12   3    1.93    0.22
   3  12   3    2.25    0.28
   3  12   3    2.77    0.23
  -4 -12  -3   10.16    0.41
  -4 -12  -3   11.12    0.48
   4  12   3   10.13    0.48
   4  12   3   11.17    0.45
   4  12   3    9.99    0.39
   3 -13  -3    0.16    0.18
   3 -13  -3    0.32    0.18
  -3  13   3    0.52    0.20
  -3  13   3    0.64    0.14
  -3  13   3    0.60    0.14
   2 -13  -3    4.06    0.33
   2 -13  -3    4.72    0.33
  -2  13   3    4.51    0.27
  -2  13   3    5.79    0.34
  -2  13   3    5.60    0.38
   1 -13  -3    4.23    0.24
   1 -13  -3    4.25    0.31
   1 -13  -3    3.56    0.30
  -1  13   3    5.34    0.33
  -1  13   3    4.42    0.26
  -1  13   3    4.39    0.35
   0 -13  -3    1.26    0.14
   0 -13  -3    0.85    0.15
   0 -13  -3    1.12    0.16
   0  13   3    1.55    0.20
   0  13   3    1.15    0.18
   0  13   3    1.64    0.21
  -1 -13  -3    1.18    0.18
  -1 -13  -3    1.05    0.14
  -1 -13  -3    1.09    0.18
   1  13   3    1.04    0.17
   1  13   3    0.83    0.14
   1  13   3    1.04    0.18
  -2 -13  -3    0.91    0.19
  -2 -13  -3    0.54    0.12
  -2 -13  -3    0.67    0.19
   2  13   3    0.51    0.17
   2  13   3    0.57    0.13
   2  13   3    0.56    0.19
  -3 -13  -3    1.07    0.17
  -3 -13  -3    0.76    0.21
   3  13   3    0.42    0.19
   3  13   3    0.95    0.23
   2 -14  -3    1.42    0.21
   2 -14  -3    1.35    0.24
  -2  14   3    1.48    0.19
  -2  14   3    1.78    0.25
   1 -14  -3    4.77    0.37
   1 -14  -3    3.75    0.37
  -1  14   3    4.88    0.42
  -1  14   3    4.70    0.32
   0 -14  -3    4.47    0.38
   0 -14  -3    4.42    0.29
   0 -14  -3    4.42    0.38
   0  14   3    3.95    0.30
   0  14   3    3.95    0.36
   0  14   3    3.90    0.39
  -1 -14  -3    1.58    0.22
  -1 -14  -3    1.61    0.22
  -1 -14  -3    1.86    0.20
   1  14   3    2.22    0.26
   1  14   3    2.92    0.39
  -2 -14  -3    2.56    0.30
   2  14   3    1.17    0.24
   1  11  -4    1.36    0.16
   1  11  -4    0.90    0.23
   1  11  -4    1.19    0.24
  -1 -11   4    1.17    0.24
  -1 -11   4    1.46    0.22
   0  11  -4    1.98    0.24
   0  11  -4    2.39    0.30
   0  11  -4    1.80    0.24
   0  11  -4    2.67    0.22
   0 -11   4    2.16    0.26
   0 -11   4    2.17    0.24
   0 -11   4    2.26    0.27
  -1  11  -4    2.11    0.24
  -1  11  -4    2.55    0.21
  -1  11  -4    1.97    0.24
  -1  11  -4    3.18    0.33
   1 -11   4    2.61    0.27
   1 -11   4    2.67    0.31
   1 -11   4    1.72    0.17
  -2  11  -4    1.28    0.16
  -2  11  -4    1.17    0.22
  -2  11  -4    1.06    0.22
  -2  11  -4    1.25    0.15
   2 -11   4    1.11    0.18
   2 -11   4    1.28    0.17
   2 -11   4    1.39    0.23
  -3  11  -4    7.39    0.33
  -3  11  -4    7.45    0.43
  -3  11  -4    7.26    0.31
  -3  11  -4    6.89    0.47
   3 -11   4    7.75    0.47
   3  10  -4    0.57    0.25
   3  10  -4    0.54    0.19
  -3 -10   4    1.14    0.21
   2  10  -4    0.55    0.18
   2  10  -4    1.20    0.25
   2  10  -4    0.93    0.16
  -2 -10   4    0.80    0.19
  -2 -10   4    0.43    0.17
  -2 -10   4    1.18    0.21
   1  10  -4    3.67    0.32
   1  10  -4    4.01    0.27
  -1 -10   4    3.44    0.33
  -1 -10   4    2.69    0.24
   0  10  -4    3.61    0.28
   0  10  -4    4.12    0.32
   0  10  -4    4.32    0.32
   0 -10   4    3.80    0.30
   0 -10   4    4.43    0.34
   0 -10   4    3.69    0.24
  -1  10  -4    2.37    0.28
  -1  10  -4    2.39    0.28
  -1  10  -4    2.57    0.20
  -1  10  -4    2.94    0.28
   1 -10   4    2.55    0.26
   1 -10   4    2.40    0.22
   1 -10   4    3.16    0.31
  -2  10  -4    2.46    0.21
  -2  10  -4    2.47    0.29
  -2  10  -4    2.12    0.28
  -2  10  -4    2.55    0.30
  -2  10  -4    2.40    0.19
   2 -10   4    2.84    0.26
   2 -10   4    2.48    0.31
   2 -10   4    2.86    0.23
  -3  10  -4    4.74    0.34
  -3  10  -4    4.88    0.27
  -3  10  -4    5.06    0.25
  -3  10  -4    5.16    0.37
  -3  10  -4    5.13    0.34
   3 -10   4    4.73    0.27
   3 -10   4    4.77    0.28
   3 -10   4    5.08    0.30
  -4  10  -4   11.28    0.38
  -4  10  -4   11.02    0.50
  -4  10  -4   11.37    0.40
  -4  10  -4   11.11    0.45
  -4  10  -4   10.57    0.45
   4 -10   4   11.93    0.40
   4 -10   4   11.70    0.49
   4 -10   4   11.30    0.43
   4 -10   4   11.53    0.40
   4   9  -4    0.48    0.27
   4   9  -4    0.84    0.18
  -4  -9   4    0.88    0.23
  -4  -9   4    1.27    0.16
   3   9  -4    2.10    0.25
   3   9  -4    1.76    0.23
   3   9  -4    1.51    0.18
   3   9  -4    1.77    0.21
  -3  -9   4    1.88    0.20
  -3  -9   4    2.19    0.24
  -3  -9   4    2.03    0.23
   2   9  -4    6.32    0.37
   2   9  -4    5.95    0.34
   2   9  -4    5.79    0.29
  -2  -9   4    5.96    0.35
  -2  -9   4    5.42    0.29
  -2  -9   4    6.00    0.34
   1   9  -4    0.72    0.16
   1   9  -4    0.67    0.12
   1   9  -4    0.70    0.13
  -1  -9   4    0.60    0.12
  -1  -9   4    0.80    0.16
  -1  -9   4    0.66    0.13
   0   9  -4    3.72    0.19
   0   9  -4    3.70    0.27
   0   9  -4    3.63    0.26
   0  -9   4    3.63    0.21
   0  -9   4    4.24    0.29
   0  -9   4    3.95    0.26
  -1   9  -4    2.23    0.22
  -1   9  -4    2.89    0.25
   1  -9   4    3.86    0.21
   1  -9   4    3.41    0.26
   1  -9   4    3.35    0.24
  -2   9  -4   12.98    0.44
  -2   9  -4   13.33    0.39
  -2   9  -4   13.79    0.35
  -2   9  -4   13.85    0.44
   2  -9   4   12.90    0.45
   2  -9   4   13.12    0.37
   2  -9   4   13.12    0.42
   2  -9   4   13.50    0.38
  -3   9  -4    0.09    0.12
  -3   9  -4    0.31    0.11
  -3   9  -4    0.29    0.11
  -3   9  -4    0.03    0.14
  -3   9  -4   -0.04    0.12
   3  -9   4    0.13    0.09
   3  -9   4   -0.05    0.12
   3  -9   4    0.14    0.10
   3  -9   4   -0.01    0.09
  -4   9  -4    6.40    0.33
  -4   9  -4    7.39    0.38
  -4   9  -4    7.38    0.30
  -4   9  -4    7.33    0.34
  -4   9  -4    7.65    0.32
   4  -9   4    7.00    0.30
   4  -9   4    6.94    0.31
   4  -9   4    7.41    0.29
   4  -9   4    7.49    0.36
  -5   9  -4    1.76    0.23
  -5   9  -4    2.49    0.31
  -5   9  -4    2.16    0.27
  -5   9  -4    1.56    0.24
  -5   9  -4    2.11    0.25
   5  -9   4    1.85    0.23
   5  -9   4    1.89    0.22
   5  -9   4    1.88    0.26
   4   8  -4    0.87    0.15
   4   8  -4    0.56    0.13
   4   8  -4    0.75    0.18
   4   8  -4    0.85    0.22
  -4  -8   4    0.73    0.14
  -4  -8   4    0.70    0.17
  -4  -8   4    0.54    0.17
  -4  -8   4    0.92    0.20
   3   8  -4    1.90    0.20
   3   8  -4    2.26    0.25
   3   8  -4    1.74    0.22
   3   8  -4    1.67    0.21
  -3  -8   4    2.17    0.25
  -3  -8   4    1.89    0.21
   2   8  -4    6.77    0.29
   2   8  -4    6.98    0.26
   2   8  -4    7.02    0.35
   2   8  -4    7.36    0.32
  -2  -8   4    6.70    0.33
  -2  -8   4    7.55    0.32
   1   8  -4   28.52    0.68
   1   8  -4   28.22    0.73
   1   8  -4   29.76    0.71
  -1  -8   4   28.47    0.73
  -1  -8   4   29.16    0.71
  -1  -8   4   29.15    0.65
   0   8  -4    0.99    0.13
   0   8  -4    1.15    0.14
   0  -8   4    0.87    0.12
   0  -8   4    1.39    0.19
   0  -8   4    0.86    0.10
  -1   8  -4   11.87    0.37
  -1   8  -4   10.87    0.32
   1  -8   4   10.98    0.32
   1  -8   4   11.39    0.36
   1  -8   4   11.23    0.39
   1  -8   4   11.98    0.33
  -2   8  -4    5.07    0.19
  -2   8  -4    4.66    0.25
   2  -8   4    4.79    0.21
   2  -8   4    5.03    0.24
   2  -8   4    4.40    0.20
   2  -8   4    4.76    0.27
  -3   8  -4    0.88    0.13
  -3   8  -4    0.20    0.10
  -3   8  -4    0.85    0.12
  -3   8  -4    0.80    0.13
   3  -8   4    0.85    0.10
   3  -8   4    0.85    0.13
   3  -8   4    0.65    0.10
   3  -8   4    0.78    0.11
  -4   8  -4    4.76    0.26
  -4   8  -4    4.88    0.26
  -4   8  -4    4.62    0.26
  -4   8  -4    4.93    0.24
   4  -8   4    5.15    0.24
   4  -8   4    4.45    0.23
   4  -8   4    5.25    0.28
  -5   8  -4    1.36    0.20
  -5   8  -4    1.17    0.16
  -5   8  -4    1.76    0.22
  -5   8  -4    1.46    0.17
  -5   8  -4    1.58    0.18
   5  -8   4    1.42    0.17
   5  -8   4    1.33    0.15
   5  -8   4    1.34    0.15
   5   7  -4    1.54    0.18
   5   7  -4    1.18    0.25
   5   7  -4    1.56    0.20
   5   7  -4    0.99    0.16
  -5  -7   4    1.61    0.17
  -5  -7   4    1.48    0.23
   4   7  -4    6.96    0.39
   4   7  -4    6.64    0.29
   4   7  -4    6.58    0.28
   4   7  -4    7.11    0.34
  -4  -7   4    6.98    0.35
  -4  -7   4    7.05    0.26
  -4  -7   4    6.25    0.35
  -4  -7   4    5.69    0.31
   3   7  -4    2.86    0.24
   3   7  -4    2.79    0.26
   3   7  -4    2.19    0.19
   3   7  -4    2.51    0.19
  -3  -7   4    0.96    0.15
   2   7  -4    1.23    0.16
   2   7  -4    1.29    0.15
   2   7  -4    1.94    0.20
   2   7  -4    1.61    0.14
  -2  -7   4    1.38    0.15
  -2  -7   4    1.63    0.19
   1   7  -4    3.02    0.18
   1   7  -4    3.45    0.21
   1   7  -4    3.25    0.22
  -1  -7   4    3.06    0.22
  -1  -7   4    2.80    0.16
  -1  -7   4    3.05    0.20
   0   7  -4   14.86    0.42
   0   7  -4   14.50    0.43
   0  -7   4   14.77    0.43
   0  -7   4   13.97    0.36
   0  -7   4   14.25    0.41
  -1   7  -4   39.93    0.83
  -1   7  -4   40.78    0.88
   1  -7   4   40.64    0.91
  -2   7  -4   15.52    0.35
  -2   7  -4   15.22    0.43
  -2   7  -4   15.17    0.40
  -2   7  -4   15.84    0.42
   2  -7   4   14.90    0.43
   2  -7   4   15.24    0.41
   2  -7   4   14.85    0.37
  -3   7  -4    5.23    0.23
  -3   7  -4    5.18    0.20
  -3   7  -4    4.69    0.23
  -3   7  -4    4.93    0.25
   3  -7   4    4.54    0.21
   3  -7   4    4.69    0.24
   3  -7   4    4.83    0.21
   3  -7   4    5.01    0.19
  -4   7  -4    2.45    0.19
  -4   7  -4    3.04    0.19
  -4   7  -4    2.63    0.19
   4  -7   4    2.25    0.17
   4  -7   4    2.87    0.18
   4  -7   4    2.87    0.20
  -5   7  -4    2.93    0.22
  -5   7  -4    2.17    0.21
  -5   7  -4    3.16    0.20
  -5   7  -4    2.92    0.22
   5  -7   4    2.76    0.21
   5  -7   4    3.10    0.19
   5  -7   4    2.54    0.19
  -6   7  -4    0.33    0.18
  -6   7  -4    0.28    0.12
  -6   7  -4    0.20    0.11
  -6   7  -4    0.41    0.15
  -6   7  -4    0.48    0.13
   6  -7   4    0.38    0.12
   6  -7   4    0.22    0.11
   6  -7   4    0.40    0.13
   5   6  -4    1.03    0.16
   5   6  -4    0.87    0.14
   5   6  -4    0.78    0.20
   5   6  -4    0.83    0.16
  -5  -6   4    1.13    0.17
  -5  -6   4    0.88    0.15
  -5  -6   4    0.86    0.13
  -5  -6   4    1.01    0.14
  -5  -6   4    1.01    0.19
   4   6  -4    8.30    0.34
   4   6  -4    7.79    0.28
   4   6  -4    7.70    0.29
   4   6  -4    7.79    0.37
   3   6  -4    5.50    0.22
   3   6  -4    5.88    0.27
   3   6  -4    5.45    0.29
   3   6  -4    5.16    0.22
  -3  -6   4    5.83    0.27
  -3  -6   4    5.49    0.20
   2   6  -4    1.55    0.18
  -2  -6   4    1.73    0.17
  -2  -6   4    1.81    0.15
  -2  -6   4    1.87    0.18
   1   6  -4    5.66    0.25
   1   6  -4    5.79    0.19
   1   6  -4    5.76    0.22
   1   6  -4    6.01    0.24
  -1  -6   4    5.79    0.25
  -1  -6   4    6.00    0.24
  -1  -6   4    5.54    0.21
  -1  -6   4    5.71    0.20
   0   6  -4    0.44    0.08
   0   6  -4    0.39    0.08
   0   6  -4    0.37    0.08
   0  -6   4    0.26    0.06
   0  -6   4    0.32    0.08
   0  -6   4    0.33    0.06
   0  -6   4    0.38    0.09
  -1   6  -4    8.72    0.29
  -1   6  -4    8.71    0.28
  -1   6  -4    8.89    0.28
  -1   6  -4    8.11    0.25
   1  -6   4    8.67    0.25
   1  -6   4    8.79    0.24
   1  -6   4    8.76    0.28
   1  -6   4    8.61    0.29
  -2   6  -4   54.25    1.12
  -2   6  -4   52.77    1.07
  -2   6  -4   53.07    1.10
  -2   6  -4   54.78    0.99
  -2   6  -4   53.39    1.13
   2  -6   4   54.35    1.08
   2  -6   4   52.84    1.00
   2  -6   4   53.18    1.12
   2  -6   4   54.53    1.10
  -3   6  -4   30.74    0.67
  -3   6  -4   29.19    0.70
  -3   6  -4   31.21    0.71
  -3   6  -4   30.71    0.62
  -3   6  -4   29.69    0.67
   3  -6   4   30.66    0.66
   3  -6   4   30.87    0.67
   3  -6   4   29.87    0.69
  -4   6  -4    1.00    0.13
  -4   6  -4    1.06    0.13
  -4   6  -4    0.85    0.10
  -4   6  -4    0.95    0.14
  -4   6  -4    1.08    0.12
   4  -6   4    0.80    0.10
   4  -6   4    0.98    0.11
  -5   6  -4    4.53    0.25
  -5   6  -4    4.11    0.28
  -5   6  -4    4.76    0.20
  -5   6  -4    4.55    0.24
  -5   6  -4    5.16    0.22
   5  -6   4    4.42    0.21
   5  -6   4    4.83    0.20
  -6   6  -4    8.19    0.34
  -6   6  -4    8.01    0.25
  -6   6  -4    8.18    0.33
  -6   6  -4    7.54    0.24
   6  -6   4    8.32    0.27
   6  -6   4    7.98    0.29
   6  -6   4    8.49    0.26
   6   5  -4    0.16    0.13
   6   5  -4    0.21    0.20
   6   5  -4    0.57    0.17
   6   5  -4    0.20    0.17
  -6  -5   4    0.08    0.16
  -6  -5   4    0.01    0.12
  -6  -5   4    0.14    0.17
  -6  -5   4    0.07    0.12
   5   5  -4    2.35    0.29
   5   5  -4    3.29    0.26
   5   5  -4    2.84    0.23
   5   5  -4    2.75    0.20
  -5  -5   4    2.25    0.24
  -5  -5   4    2.55    0.19
  -5  -5   4    2.72    0.20
  -5  -5   4    2.37    0.26
  -5  -5   4    2.51    0.26
   4   5  -4    0.60    0.13
   4   5  -4    0.75    0.13
   4   5  -4    0.67    0.10
  -4  -5   4    0.66    0.09
  -4  -5   4    0.64    0.12
  -4  -5   4    0.77    0.11
   3   5  -4   17.75    0.43
   3   5  -4   17.84    0.42
   3   5  -4   17.48    0.50
   3   5  -4   17.84    0.48
  -3  -5   4   18.33    0.48
  -3  -5   4   17.66    0.41
   2   5  -4    4.97    0.23
   2   5  -4    5.13    0.18
   2   5  -4    4.85    0.22
   2   5  -4    4.97    0.19
  -2  -5   4    5.31    0.21
  -2  -5   4    5.05    0.23
  -2  -5   4    5.39    0.22
   1   5  -4    5.32    0.23
   1   5  -4    5.51    0.20
   1   5  -4    5.65    0.22
   1   5  -4    5.68    0.18
  -1  -5   4    5.72    0.19
  -1  -5   4    5.82    0.22
  -1  -5   4    5.37    0.23
  -1  -5   4    5.79    0.19
   0   5  -4   10.82    0.31
   0   5  -4   10.71    0.30
   0   5  -4   10.42    0.32
   0  -5   4   10.74    0.28
   0  -5   4   10.82    0.33
   0  -5   4   11.07    0.31
   0  -5   4   10.67    0.27
  -1   5  -4    4.66    0.18
  -1   5  -4    4.24    0.18
  -1   5  -4    4.09    0.18
   1  -5   4    4.35    0.18
   1  -5   4    4.44    0.16
   1  -5   4    4.36    0.15
   1  -5   4    4.48    0.19
  -2   5  -4    6.67    0.23
  -2   5  -4    7.01    0.18
  -2   5  -4    6.75    0.22
  -2   5  -4    6.98    0.24
  -2   5  -4    6.86    0.22
   2  -5   4    6.87    0.22
   2  -5   4    7.07    0.22
   2  -5   4    6.64    0.23
   2  -5   4    7.08    0.27
   2  -5   4    6.94    0.19
  -3   5  -4   18.25    0.44
  -3   5  -4   17.67    0.40
  -3   5  -4   18.24    0.43
  -3   5  -4   18.28    0.46
  -3   5  -4   17.67    0.44
   3  -5   4   18.67    0.44
   3  -5   4   17.98    0.44
   3  -5   4   18.56    0.43
  -4   5  -4   16.71    0.45
  -4   5  -4   17.04    0.39
  -4   5  -4   16.50    0.40
  -4   5  -4   16.34    0.40
  -4   5  -4   15.69    0.45
   4  -5   4   16.04    0.40
   4  -5   4   16.53    0.41
   4  -5   4   16.27    0.39
  -5   5  -4    0.75    0.09
  -5   5  -4    0.72    0.13
  -5   5  -4    0.70    0.13
  -5   5  -4    0.64    0.13
   5  -5   4    0.82    0.11
   5  -5   4    0.65    0.10
  -6   5  -4    0.94    0.14
  -6   5  -4    1.01    0.15
   6  -5   4    1.23    0.13
  -7   5  -4    2.62    0.25
  -7   5  -4    2.79    0.24
   7  -5   4    2.77    0.26
   7  -5   4    1.84    0.23
   6   4  -4    3.17    0.29
   6   4  -4    2.52    0.21
   6   4  -4    3.01    0.35
   6   4  -4    2.42    0.28
  -6  -4   4    2.02    0.26
  -6  -4   4    2.27    0.27
  -6  -4   4    3.05    0.32
   5   4  -4    1.35    0.17
   5   4  -4    0.93    0.14
   5   4  -4    1.03    0.14
   5   4  -4    1.09    0.15
  -5  -4   4    1.09    0.16
  -5  -4   4    0.87    0.13
  -5  -4   4    1.03    0.13
   4   4  -4    6.62    0.25
   4   4  -4    6.79    0.27
   4   4  -4    6.57    0.22
   4   4  -4    6.35    0.29
  -4  -4   4    6.58    0.24
  -4  -4   4    6.37    0.26
  -4  -4   4    6.60    0.21
   3   4  -4    9.98    0.31
   3   4  -4    9.64    0.27
   3   4  -4    9.65    0.33
   3   4  -4    9.80    0.28
  -3  -4   4    9.97    0.25
  -3  -4   4   10.51    0.32
  -3  -4   4    9.94    0.27
   2   4  -4   10.76    0.29
   2   4  -4   10.51    0.27
   2   4  -4   10.99    0.33
   2   4  -4   10.71    0.32
  -2  -4   4   11.10    0.32
  -2  -4   4   10.82    0.26
  -2  -4   4   11.26    0.34
  -2  -4   4   11.14    0.30
   1   4  -4    2.39    0.15
   1   4  -4    2.35    0.11
   1   4  -4    2.55    0.12
  -1  -4   4    2.44    0.11
  -1  -4   4    2.46    0.12
  -1  -4   4    2.53    0.14
  -1  -4   4    2.32    0.14
   0   4  -4    1.15    0.10
   0   4  -4    1.07    0.11
   0   4  -4    1.23    0.08
   0  -4   4    1.09    0.08
   0  -4   4    0.99    0.10
   0  -4   4    0.89    0.10
   0  -4   4    1.07    0.08
  -1   4  -4    3.34    0.15
  -1   4  -4    3.50    0.15
  -1   4  -4    3.15    0.15
   1  -4   4    3.47    0.14
   1  -4   4    3.50    0.16
   1  -4   4    3.46    0.12
  -2   4  -4   12.72    0.29
  -2   4  -4   13.30    0.33
  -2   4  -4   13.12    0.32
  -2   4  -4   13.21    0.33
  -2   4  -4   12.67    0.34
   2  -4   4   13.29    0.33
   2  -4   4   13.32    0.29
   2  -4   4   13.15    0.35
   2  -4   4   13.27    0.33
   2  -4   4   13.20    0.34
  -3   4  -4    1.00    0.11
  -3   4  -4    1.12    0.10
  -3   4  -4    1.30    0.11
  -3   4  -4    1.06    0.09
  -3   4  -4    0.97    0.13
   3  -4   4    1.11    0.11
   3  -4   4    1.14    0.10
   3  -4   4    1.19    0.10
   3  -4   4    1.22    0.17
  -4   4  -4    0.40    0.09
  -4   4  -4    0.50    0.06
  -4   4  -4    0.51    0.07
  -4   4  -4    0.37    0.10
  -4   4  -4    0.47    0.09
   4  -4   4    0.45    0.06
   4  -4   4    0.44    0.06
   4  -4   4    0.39    0.07
  -5   4  -4    5.10    0.16
  -5   4  -4    5.26    0.23
  -5   4  -4    5.30    0.25
  -5   4  -4    5.52    0.17
   5  -4   4    5.58    0.18
   5  -4   4    5.63    0.17
   5  -4   4    5.50    0.22
  -6   4  -4    5.64    0.26
  -6   4  -4    5.97    0.27
   6  -4   4    5.82    0.24
  -7   4  -4    9.92    0.37
  -7   4  -4    9.98    0.38
   7  -4   4    9.12    0.39
   6   3  -4    0.37    0.14
   6   3  -4    0.63    0.17
   6   3  -4    0.41    0.14
   6   3  -4    0.56    0.10
  -6  -3   4    0.37    0.14
  -6  -3   4    0.39    0.12
  -6  -3   4    0.66    0.17
  -6  -3   4    0.44    0.12
   5   3  -4    2.36    0.19
   5   3  -4    2.36    0.23
   5   3  -4    2.19    0.20
   5   3  -4    1.92    0.15
   4   3  -4    2.52    0.16
   4   3  -4    2.43    0.20
   4   3  -4    2.62    0.14
  -4  -3   4    2.62    0.19
  -4  -3   4    2.62    0.13
  -4  -3   4    2.70    0.16
  -4  -3   4    2.49    0.18
   3   3  -4    2.96    0.18
   3   3  -4    3.00    0.15
   3   3  -4    2.88    0.16
   3   3  -4    2.98    0.13
  -3  -3   4    3.00    0.11
  -3  -3   4    2.87    0.14
  -3  -3   4    2.86    0.17
  -3  -3   4    2.94    0.17
  -3  -3   4    2.86    0.16
   2   3  -4    4.50    0.18
   2   3  -4    4.56    0.20
   2   3  -4    4.48    0.16
   2   3  -4    4.59    0.16
  -2  -3   4    4.71    0.13
  -2  -3   4    4.54    0.19
  -2  -3   4    4.69    0.15
  -2  -3   4    4.48    0.15
  -2  -3   4    4.44    0.17
  -2  -3   4    4.71    0.19
   1   3  -4    6.26    0.22
   1   3  -4    6.38    0.17
   1   3  -4    6.26    0.19
  -1  -3   4    6.09    0.18
  -1  -3   4    6.27    0.22
  -1  -3   4    6.49    0.21
  -1  -3   4    6.45    0.18
   0   3  -4   23.28    0.44
   0   3  -4   22.18    0.51
   0   3  -4   22.14    0.49
   0   3  -4   22.96    0.51
   0  -3   4   22.91    0.51
   0  -3   4   22.73    0.48
   0  -3   4   22.45    0.52
   0  -3   4   23.05    0.45
  -1   3  -4   16.42    0.39
  -1   3  -4   16.59    0.39
  -1   3  -4   16.39    0.39
   1  -3   4   17.33    0.39
   1  -3   4   16.85    0.40
   1  -3   4   16.61    0.34
   1  -3   4   16.60    0.39
   1  -3   4   16.70    0.38
  -2   3  -4    0.97    0.08
  -2   3  -4    0.90    0.08
  -2   3  -4    1.01    0.07
  -2   3  -4    0.88    0.09
  -2   3  -4    0.90    0.10
   2  -3   4    0.84    0.07
   2  -3   4    0.93    0.11
   2  -3   4    1.00    0.08
   2  -3   4    0.93    0.07
   2  -3   4    0.82    0.09
  -3   3  -4   31.70    0.63
  -3   3  -4   30.79    0.60
  -3   3  -4   30.99    0.67
  -3   3  -4   30.00    0.65
  -3   3  -4   30.58    0.64
   3  -3   4   31.69    0.63
   3  -3   4   30.68    0.71
   3  -3   4   30.98    0.65
   3  -3   4   30.21    0.64
  -4   3  -4    2.64    0.15
  -4   3  -4    2.93    0.18
  -4   3  -4    2.62    0.16
  -4   3  -4    2.73    0.12
   4  -3   4    2.89    0.11
   4  -3   4    2.72    0.15
  -5   3  -4   18.48    0.45
   5  -3   4   18.89    0.46
  -6   3  -4    5.23    0.25
  -6   3  -4    5.39    0.25
   6  -3   4    5.39    0.23
   6  -3   4    5.48    0.26
  -7   3  -4   19.29    0.55
  -7   3  -4   18.77    0.52
   7  -3   4   18.73    0.48
   7  -3   4   18.44    0.52
   7   2  -4    7.03    0.37
  -7  -2   4    6.20    0.35
  -7  -2   4    6.71    0.33
   6   2  -4    2.27    0.25
   6   2  -4    1.92    0.22
   6   2  -4    2.12    0.26
   6   2  -4    2.20    0.16
  -6  -2   4    1.85    0.20
  -6  -2   4    2.00    0.20
  -6  -2   4    2.04    0.21
  -6  -2   4    1.79    0.23
   5   2  -4    6.28    0.26
   5   2  -4    6.61    0.20
   5   2  -4    6.06    0.28
   5   2  -4    6.41    0.27
  -5  -2   4    6.54    0.26
  -5  -2   4    6.43    0.27
   4   2  -4   15.51    0.41
   4   2  -4   15.01    0.35
   4   2  -4   15.20    0.39
   4   2  -4   14.95    0.42
  -4  -2   4   15.38    0.40
  -4  -2   4   16.27    0.42
   3   2  -4    6.03    0.23
   3   2  -4    6.32    0.18
   3   2  -4    6.58    0.23
  -3  -2   4    6.63    0.23
  -3  -2   4    6.65    0.17
  -3  -2   4    6.30    0.23
  -3  -2   4    6.53    0.23
  -3  -2   4    6.43    0.21
   2   2  -4    9.16    0.23
   2   2  -4    8.97    0.27
  -2  -2   4    9.50    0.23
  -2  -2   4    9.74    0.28
  -2  -2   4    9.57    0.23
  -2  -2   4    8.99    0.25
   1   2  -4    0.18    0.04
   1   2  -4    0.15    0.05
   1   2  -4    0.18    0.05
   1   2  -4    0.17    0.04
  -1  -2   4    0.26    0.04
  -1  -2   4    0.16    0.05
  -1  -2   4    0.19    0.05
  -1  -2   4    0.18    0.03
  -1  -2   4    0.31    0.05
   0   2  -4   38.07    0.78
   0   2  -4   39.00    0.81
   0   2  -4   39.57    0.71
   0   2  -4   39.92    0.80
   0  -2   4   39.93    0.81
   0  -2   4   39.02    0.82
   0  -2   4   40.74    0.78
   0  -2   4   39.91    0.72
   0  -2   4   38.24    0.78
  -1   2  -4   15.62    0.35
  -1   2  -4   14.45    0.35
  -1   2  -4   14.70    0.35
   1  -2   4   14.74    0.35
   1  -2   4   15.11    0.30
   1  -2   4   14.98    0.34
   1  -2   4   14.87    0.34
   1  -2   4   15.14    0.34
  -2   2  -4    1.38    0.09
  -2   2  -4    1.53    0.07
  -2   2  -4    1.45    0.10
  -2   2  -4    1.53    0.09
  -2   2  -4    1.49    0.08
   2  -2   4    1.42    0.09
   2  -2   4    1.49    0.08
   2  -2   4    1.49    0.11
   2  -2   4    1.40    0.09
  -3   2  -4   23.76    0.48
  -3   2  -4   22.76    0.49
  -3   2  -4   23.15    0.53
  -3   2  -4   23.90    0.51
  -3   2  -4   23.41    0.47
   3  -2   4   22.75    0.55
   3  -2   4   23.33    0.51
   3  -2   4   22.80    0.48
   3  -2   4   23.15    0.47
  -4   2  -4    1.34    0.12
  -4   2  -4    1.37    0.06
  -4   2  -4    1.38    0.07
  -4   2  -4    1.40    0.12
  -4   2  -4    1.39    0.13
   4  -2   4    1.34    0.15
   4  -2   4    1.28    0.08
   4  -2   4    1.36    0.07
   4  -2   4    1.67    0.12
  -5   2  -4    1.92    0.15
   5  -2   4    2.49    0.16
  -6   2  -4    6.36    0.27
  -6   2  -4    6.55    0.27
   6  -2   4    6.48    0.25
   6  -2   4    6.41    0.26
  -7   2  -4    4.27    0.25
  -7   2  -4    4.38    0.26
   7  -2   4    4.74    0.28
   7  -2   4    4.16    0.24
   7   1  -4    2.02    0.21
   7   1  -4    2.22    0.24
   7   1  -4    1.84    0.18
  -7  -1   4    2.11    0.26
  -7  -1   4    1.94    0.25
  -7  -1   4    1.77    0.23
   6   1  -4    0.28    0.13
   6   1  -4    0.33    0.11
   6   1  -4   -0.01    0.12
  -6  -1   4    0.36    0.12
  -6  -1   4    0.14    0.10
  -6  -1   4    0.06    0.11
   5   1  -4    0.22    0.09
   5   1  -4    0.15    0.05
   5   1  -4    0.25    0.10
   5   1  -4    0.15    0.10
  -5  -1   4    0.23    0.10
  -5  -1   4    0.21    0.08
  -5  -1   4    0.20    0.09
   4   1  -4    7.26    0.25
   4   1  -4    7.10    0.19
   4   1  -4    7.30    0.26
   4   1  -4    7.13    0.25
  -4  -1   4    7.52    0.25
  -4  -1   4    7.10    0.25
  -4  -1   4    7.31    0.25
   3   1  -4   24.55    0.50
   3   1  -4   24.24    0.52
   3   1  -4   24.58    0.57
   3   1  -4   24.80    0.56
  -3  -1   4   25.45    0.57
  -3  -1   4   24.96    0.57
  -3  -1   4   24.56    0.54
  -3  -1   4   24.54    0.53
   2   1  -4   24.65    0.50
   2   1  -4   24.80    0.55
   2   1  -4   24.58    0.50
   2   1  -4   24.25    0.55
  -2  -1   4   25.27    0.56
  -2  -1   4   25.23    0.52
  -2  -1   4   25.70    0.50
  -2  -1   4   24.06    0.56
  -2  -1   4   25.61    0.50
   1   1  -4   21.08    0.41
   1   1  -4   20.67    0.47
   1   1  -4   20.62    0.44
  -1  -1   4   21.01    0.43
  -1  -1   4   21.77    0.41
  -1  -1   4   21.26    0.43
  -1  -1   4   21.54    0.48
  -1  -1   4   20.27    0.48
   0   1  -4   16.97    0.32
   0   1  -4   16.19    0.38
   0   1  -4   16.40    0.37
   0   1  -4   16.68    0.38
   0  -1   4   16.88    0.38
   0  -1   4   17.34    0.35
   0  -1   4   16.93    0.33
   0  -1   4   16.36    0.36
  -1   1  -4    6.74    0.19
  -1   1  -4    6.67    0.19
  -1   1  -4    7.39    0.19
   1  -1   4    7.14    0.20
   1  -1   4    7.32    0.19
   1  -1   4    7.31    0.16
   1  -1   4    7.41    0.19
   1  -1   4    7.15    0.19
  -2   1  -4   60.30    1.21
  -2   1  -4   60.99    1.19
  -2   1  -4   61.93    1.15
  -2   1  -4   62.46    1.07
  -2   1  -4   61.29    1.17
  -2   1  -4   58.82    1.17
   2  -1   4   60.26    1.16
   2  -1   4   60.04    1.18
   2  -1   4   61.48    1.21
   2  -1   4   60.37    1.17
  -3   1  -4    9.73    0.28
  -3   1  -4    9.57    0.27
  -3   1  -4    9.57    0.26
  -3   1  -4    9.47    0.22
  -3   1  -4    9.58    0.23
   3  -1   4    9.15    0.28
   3  -1   4    9.64    0.26
   3  -1   4    9.58    0.21
  -4   1  -4    2.53    0.16
  -4   1  -4    2.85    0.14
  -4   1  -4    2.68    0.14
   4  -1   4    2.78    0.15
   4  -1   4    2.64    0.20
  -5   1  -4   10.47    0.30
  -5   1  -4   10.15    0.31
   5  -1   4   10.84    0.29
   5  -1   4   10.73    0.31
  -6   1  -4   23.46    0.56
  -6   1  -4   23.17    0.57
   6  -1   4   24.19    0.57
   6  -1   4   24.30    0.55
  -7   1  -4    1.55    0.20
  -7   1  -4    1.73    0.18
   7  -1   4    1.82    0.22
   7  -1   4    2.03    0.24
   7   0  -4    0.50    0.20
   7   0  -4    0.52    0.13
   7   0  -4    0.40    0.14
  -7   0   4    0.30    0.14
  -7   0   4    0.35    0.13
  -7   0   4    0.53    0.13
   6   0  -4    0.27    0.11
   6   0  -4    0.24    0.13
   6   0  -4    0.43    0.11
  -6   0   4    0.56    0.11
  -6   0   4    0.36    0.13
   5   0  -4    6.05    0.26
   5   0  -4    6.35    0.26
  -5   0   4    6.17    0.24
  -5   0   4    6.24    0.24
  -5   0   4    5.97    0.26
   4   0  -4   21.19    0.50
   4   0  -4   20.76    0.49
   4   0  -4   21.13    0.51
   4   0  -4   21.34    0.46
   4   0  -4   20.64    0.42
  -4   0   4   21.14    0.50
  -4   0   4   21.04    0.51
  -4   0   4   20.64    0.49
  -4   0   4   21.75    0.50
   3   0  -4    4.95    0.18
   3   0  -4    4.79    0.13
   3   0  -4    4.81    0.19
   3   0  -4    4.86    0.14
   3   0  -4    4.74    0.19
  -3   0   4    4.63    0.18
  -3   0   4    4.88    0.19
  -3   0   4    4.85    0.18
  -3   0   4    5.17    0.19
   2   0  -4   21.74    0.45
   2   0  -4   22.07    0.46
   2   0  -4   22.21    0.50
   2   0  -4   22.59    0.50
  -2   0   4   22.03    0.47
  -2   0   4   22.33    0.51
  -2   0   4   23.24    0.45
  -2   0   4   22.98    0.51
  -2   0   4   22.85    0.46
   1   0  -4  119.87    2.23
   1   0  -4  121.78    2.29
   1   0  -4  120.59    2.08
   1   0  -4  119.03    2.29
  -1   0   4  119.86    2.24
  -1   0   4  121.47    2.31
  -1   0   4  124.77    2.12
  -1   0   4  120.73    2.11
  -1   0   4  121.22    2.31
   0   0  -4  113.11    2.06
   0   0  -4  108.75    2.09
   0   0  -4  108.65    2.05
   0   0  -4  109.45    1.88
   0   0  -4  109.33    2.09
   0   0   4  109.30    2.11
   0   0   4  109.84    2.07
   0   0   4  113.33    1.91
   0   0   4  110.27    1.91
   0   0   4  113.62    2.08
   0   0   4  111.59    2.11
  -1   0  -4   78.26    1.53
  -1   0  -4   81.57    1.53
  -1   0  -4   79.95    1.53
  -1   0  -4   81.68    1.54
   1   0   4   80.00    1.37
   1   0   4   80.19    1.52
   1   0   4   80.31    1.53
   1   0   4   80.72    1.53
   1   0   4   78.46    1.51
  -2   0  -4   16.89    0.36
  -2   0  -4   15.78    0.39
  -2   0  -4   17.03    0.32
  -2   0  -4   16.75    0.35
  -2   0  -4   16.27    0.35
  -2   0  -4   16.07    0.38
   2   0   4   16.40    0.35
   2   0   4   16.53    0.35
   2   0   4   16.23    0.38
   2   0   4   16.47    0.38
  -3   0  -4    2.80    0.11
  -3   0  -4    2.78    0.08
  -3   0  -4    2.95    0.14
  -3   0  -4    2.81    0.08
  -3   0  -4    2.85    0.12
   3   0   4    2.97    0.09
   3   0   4    3.02    0.15
   3   0   4    2.95    0.14
   3   0   4    2.92    0.09
  -4   0  -4    0.89    0.10
  -4   0  -4    1.07    0.10
  -4   0  -4    1.07    0.12
   4   0   4    1.22    0.12
   4   0   4    1.23    0.16
   4   0   4    1.19    0.09
  -5   0  -4   12.44    0.33
  -5   0  -4   12.30    0.38
  -5   0  -4   12.35    0.34
   5   0   4   13.10    0.32
   5   0   4   13.03    0.36
  -6   0  -4    4.47    0.21
  -6   0  -4    4.34    0.26
  -6   0  -4    4.10    0.22
   6   0   4    4.46    0.22
   6   0   4    4.59    0.22
  -7   0  -4    1.65    0.18
   7   0   4    1.57    0.16
  -8   0  -4    0.87    0.17
   8   0   4    1.11    0.21
   7  -1  -4    6.22    0.38
   7  -1  -4    5.39    0.27
   7  -1  -4    5.55    0.27
  -7   1   4    5.25    0.26
  -7   1   4    5.78    0.31
  -7   1   4    5.72    0.27
   6  -1  -4    8.57    0.30
   6  -1  -4    8.93    0.31
   6  -1  -4    8.26    0.38
   6  -1  -4    9.05    0.36
  -6   1   4    8.59    0.29
  -6   1   4    8.51    0.34
   5  -1  -4   26.38    0.60
   5  -1  -4   26.34    0.60
   5  -1  -4   26.04    0.61
   5  -1  -4   25.43    0.60
  -5   1   4   26.88    0.60
  -5   1   4   25.40    0.61
  -5   1   4   25.60    0.61
   4  -1  -4    6.37    0.23
   4  -1  -4    6.05    0.22
   4  -1  -4    5.94    0.20
  -4   1   4    6.10    0.22
  -4   1   4    5.94    0.22
  -4   1   4    5.75    0.22
   3  -1  -4   12.74    0.33
   3  -1  -4   12.43    0.33
   3  -1  -4   12.64    0.29
   3  -1  -4   12.36    0.26
   3  -1  -4   12.41    0.32
  -3   1   4   12.64    0.33
  -3   1   4   12.76    0.33
  -3   1   4   12.00    0.31
   2  -1  -4  133.07    2.53
   2  -1  -4  135.74    2.50
   2  -1  -4  132.29    2.32
   2  -1  -4  134.31    2.54
   2  -1  -4  130.33    2.44
  -2   1   4  134.09    2.51
  -2   1   4  128.98    2.30
  -2   1   4  131.06    2.41
  -2   1   4  131.98    2.51
  -2   1   4  133.85    2.32
   1  -1  -4   26.67    0.51
   1  -1  -4   27.10    0.57
   1  -1  -4   26.73    0.53
   1  -1  -4   26.30    0.57
  -1   1   4   27.79    0.51
  -1   1   4   26.53    0.58
  -1   1   4   26.67    0.52
  -1   1   4   27.34    0.53
  -1   1   4   27.52    0.58
   0  -1  -4  151.79    2.80
   0  -1  -4  148.42    2.81
   0  -1  -4  150.70    2.81
   0  -1  -4  146.97    2.76
   0  -1  -4  151.16    2.55
   0   1   4  156.26    2.61
   0   1   4  154.46    2.86
   0   1   4  146.48    2.86
   0   1   4  152.17    2.59
   0   1   4  152.05    2.81
  -1  -1  -4  101.02    1.95
  -1  -1  -4  101.93    1.93
  -1  -1  -4  104.41    1.94
   1   1   4  103.77    1.94
   1   1   4   98.83    1.92
   1   1   4  100.50    1.93
   1   1   4  106.83    1.95
  -2  -1  -4   39.16    0.72
  -2  -1  -4   37.81    0.67
  -2  -1  -4   35.59    0.72
  -2  -1  -4   37.84    0.73
  -2  -1  -4   36.09    0.77
   2   1   4   37.72    0.77
   2   1   4   37.48    0.73
   2   1   4   36.70    0.73
   2   1   4   37.57    0.76
  -3  -1  -4   17.38    0.34
  -3  -1  -4   17.29    0.38
  -3  -1  -4   17.26    0.43
  -3  -1  -4   17.38    0.35
  -3  -1  -4   17.01    0.36
   3   1   4   17.09    0.43
   3   1   4   18.05    0.42
   3   1   4   17.73    0.35
   3   1   4   17.98    0.34
   3   1   4   17.76    0.35
  -4  -1  -4    2.16    0.12
  -4  -1  -4    2.01    0.15
  -4  -1  -4    2.16    0.12
   4   1   4    1.91    0.17
   4   1   4    2.28    0.11
   4   1   4    2.28    0.14
  -5  -1  -4    7.59    0.30
  -5  -1  -4    7.38    0.25
  -5  -1  -4    8.02    0.25
   5   1   4    8.14    0.23
   5   1   4    8.13    0.27
  -6  -1  -4    9.10    0.35
  -6  -1  -4    8.39    0.29
  -6  -1  -4    8.32    0.29
   6   1   4    9.24    0.32
   6   1   4    9.33    0.29
  -7  -1  -4    2.83    0.26
  -7  -1  -4    2.71    0.21
   7   1   4    3.22    0.24
   7   1   4    3.07    0.24
  -8  -1  -4    2.12    0.24
   8   1   4    2.36    0.23
   8   1   4    2.52    0.31
   7  -2  -4    1.02    0.22
   7  -2  -4    1.11    0.14
   7  -2  -4    0.87    0.13
  -7   2   4    1.09    0.13
  -7   2   4    1.20    0.19
   6  -2  -4    1.53    0.18
   6  -2  -4    1.49    0.17
   6  -2  -4    1.47    0.18
  -6   2   4    1.42    0.17
  -6   2   4    1.47    0.18
   5  -2  -4    1.31    0.15
   5  -2  -4    1.11    0.11
   5  -2  -4    1.32    0.17
   5  -2  -4    1.25    0.15
  -5   2   4    1.08    0.13
  -5   2   4    1.10    0.15
   4  -2  -4    0.99    0.12
   4  -2  -4    0.98    0.13
   4  -2  -4    0.99    0.11
   4  -2  -4    0.80    0.10
  -4   2   4    1.10    0.12
  -4   2   4    1.05    0.12
  -4   2   4    0.92    0.11
   3  -2  -4    4.44    0.17
   3  -2  -4    4.57    0.18
   3  -2  -4    4.31    0.17
   3  -2  -4    4.61    0.16
  -3   2   4    4.74    0.18
  -3   2   4    4.63    0.17
  -3   2   4    4.49    0.17
   2  -2  -4    9.49    0.26
   2  -2  -4    9.54    0.24
   2  -2  -4    9.67    0.26
  -2   2   4    9.66    0.19
  -2   2   4    9.63    0.26
  -2   2   4    9.07    0.25
  -2   2   4    9.42    0.24
   1  -2  -4   74.40    1.30
   1  -2  -4   72.85    1.42
   1  -2  -4   73.75    1.43
  -1   2   4   72.46    1.43
  -1   2   4   74.74    1.31
  -1   2   4   75.20    1.38
  -1   2   4   73.38    1.43
   0  -2  -4   53.58    0.91
   0  -2  -4   50.11    1.01
   0   2   4   52.59    1.00
   0   2   4   52.40    1.03
   0   2   4   52.50    1.03
  -1  -2  -4   72.47    1.40
  -1  -2  -4   74.50    1.41
  -1  -2  -4   73.75    1.42
   1   2   4   74.41    1.41
   1   2   4   73.28    1.41
  -2  -2  -4    0.10    0.02
  -2  -2  -4    0.11    0.03
  -2  -2  -4    0.13    0.03
  -2  -2  -4    0.04    0.04
  -2  -2  -4    0.13    0.03
   2   2   4    0.09    0.03
   2   2   4    0.10    0.03
  -3  -2  -4    0.38    0.04
  -3  -2  -4    0.38    0.05
  -3  -2  -4    0.31    0.05
  -3  -2  -4    0.34    0.07
  -3  -2  -4    0.40    0.06
   3   2   4    0.31    0.07
   3   2   4    0.39    0.05
   3   2   4    0.31    0.04
   3   2   4    0.42    0.04
  -4  -2  -4   25.93    0.53
  -4  -2  -4   25.64    0.54
  -4  -2  -4   24.46    0.61
   4   2   4   25.13    0.61
   4   2   4   26.13    0.58
   4   2   4   26.60    0.50
  -5  -2  -4   13.43    0.35
  -5  -2  -4   13.56    0.35
  -5  -2  -4   14.11    0.42
   5   2   4   14.39    0.39
   5   2   4   14.67    0.34
  -6  -2  -4    5.50    0.28
  -6  -2  -4    5.43    0.23
  -6  -2  -4    5.34    0.23
   6   2   4    5.89    0.22
   6   2   4    5.62    0.26
  -7  -2  -4    0.30    0.12
  -7  -2  -4    0.40    0.14
   7   2   4    0.23    0.12
   7   2   4    0.34    0.14
  -8  -2  -4    0.49    0.18
  -8  -2  -4    0.58    0.14
   8   2   4    0.72    0.19
   8   2   4    0.95    0.19
   7  -3  -4    5.97    0.39
   7  -3  -4    5.41    0.25
   7  -3  -4    5.11    0.27
  -7   3   4    5.54    0.33
  -7   3   4    4.95    0.24
   6  -3  -4    2.27    0.20
   6  -3  -4    2.35    0.25
   6  -3  -4    2.18    0.18
  -6   3   4    2.17    0.18
  -6   3   4    2.13    0.22
   5  -3  -4    1.97    0.16
   5  -3  -4    2.00    0.15
   5  -3  -4    2.39    0.19
   5  -3  -4    1.95    0.23
  -5   3   4    1.73    0.18
  -5   3   4    2.18    0.17
   4  -3  -4    7.93    0.27
   4  -3  -4    8.01    0.25
   4  -3  -4    8.02    0.27
   4  -3  -4    8.42    0.26
  -4   3   4    7.77    0.26
  -4   3   4    7.73    0.24
  -4   3   4    8.25    0.26
   3  -3  -4   26.23    0.58
   3  -3  -4   26.44    0.59
   3  -3  -4   27.15    0.58
   3  -3  -4   26.56    0.56
  -3   3   4   26.89    0.59
  -3   3   4   25.76    0.57
  -3   3   4   26.52    0.56
   2  -3  -4   27.49    0.59
   2  -3  -4   27.49    0.60
   2  -3  -4   28.05    0.56
  -2   3   4   26.80    0.58
  -2   3   4   27.57    0.59
  -2   3   4   27.69    0.55
   1  -3  -4   74.06    1.44
  -1   3   4   73.38    1.30
  -1   3   4   73.86    1.42
  -1   3   4   72.36    1.42
   0  -3  -4   31.01    0.63
   0  -3  -4   30.55    0.63
   0   3   4   31.11    0.63
   0   3   4   30.28    0.63
  -1  -3  -4   15.05    0.33
  -1  -3  -4   14.23    0.32
   1   3   4   14.36    0.32
   1   3   4   14.27    0.32
  -2  -3  -4   79.85    1.50
  -2  -3  -4   80.86    1.44
  -2  -3  -4   80.34    1.35
  -2  -3  -4   78.12    1.50
  -2  -3  -4   76.31    1.55
   2   3   4   76.81    1.46
   2   3   4   77.35    1.47
  -3  -3  -4    4.32    0.12
  -3  -3  -4    4.22    0.17
  -3  -3  -4    4.39    0.14
  -3  -3  -4    4.27    0.14
  -3  -3  -4    4.48    0.12
   3   3   4    4.33    0.12
   3   3   4    4.46    0.11
   3   3   4    4.54    0.13
   3   3   4    4.45    0.15
  -4  -3  -4    4.82    0.12
  -4  -3  -4    4.95    0.21
  -4  -3  -4    4.55    0.16
  -4  -3  -4    4.75    0.13
  -4  -3  -4    4.61    0.17
   4   3   4    4.88    0.14
   4   3   4    4.94    0.13
   4   3   4    4.80    0.13
  -5  -3  -4    0.82    0.10
  -5  -3  -4    0.89    0.10
  -5  -3  -4    0.94    0.14
   5   3   4    1.04    0.10
  -6  -3  -4    1.52    0.15
  -6  -3  -4    1.50    0.21
   6   3   4    1.53    0.16
   6   3   4    1.67    0.15
  -7  -3  -4    3.20    0.29
  -7  -3  -4    3.95    0.23
   7   3   4    3.94    0.29
   7  -4  -4    2.73    0.27
   7  -4  -4    2.52    0.22
   7  -4  -4    2.77    0.24
  -7   4   4    2.48    0.26
  -7   4   4    2.52    0.20
   6  -4  -4    2.67    0.21
   6  -4  -4    2.47    0.26
   6  -4  -4    2.28    0.17
  -6   4   4    2.67    0.20
  -6   4   4    2.45    0.23
   5  -4  -4    3.30    0.27
   5  -4  -4    3.79    0.23
   5  -4  -4    3.23    0.17
   5  -4  -4    3.52    0.20
  -5   4   4    3.81    0.20
  -5   4   4    3.58    0.17
  -5   4   4    3.39    0.22
   4  -4  -4   10.99    0.33
   4  -4  -4   11.12    0.32
   4  -4  -4   10.84    0.33
   4  -4  -4   10.89    0.30
  -4   4   4   11.31    0.32
  -4   4   4   10.87    0.33
  -4   4   4   10.80    0.30
   3  -4  -4   31.55    0.69
   3  -4  -4   31.40    0.67
   3  -4  -4   31.85    0.65
  -3   4   4   30.51    0.66
  -3   4   4   31.84    0.67
  -3   4   4   30.00    0.64
   2  -4  -4   17.02    0.40
   2  -4  -4   16.84    0.39
  -2   4   4   16.51    0.39
  -2   4   4   17.17    0.37
   1  -4  -4    0.85    0.08
   1  -4  -4    0.96    0.08
  -1   4   4    1.03    0.08
   0  -4  -4    9.07    0.23
   0  -4  -4    9.76    0.25
   0   4   4    9.03    0.23
   0   4   4    9.40    0.24
  -1  -4  -4    9.13    0.23
  -1  -4  -4    9.87    0.24
   1   4   4    9.66    0.24
   1   4   4    9.19    0.23
  -2  -4  -4    8.08    0.21
  -2  -4  -4    7.69    0.20
  -2  -4  -4    7.63    0.17
  -2  -4  -4    7.86    0.17
   2   4   4    7.66    0.20
   2   4   4    7.72    0.20
  -3  -4  -4    0.96    0.07
  -3  -4  -4    0.90    0.06
  -3  -4  -4    1.03    0.07
  -3  -4  -4    1.08    0.10
  -3  -4  -4    0.98    0.08
   3   4   4    0.97    0.09
   3   4   4    0.96    0.07
   3   4   4    0.96    0.07
   3   4   4    0.94    0.06
  -4  -4  -4    2.17    0.09
  -4  -4  -4    2.25    0.12
  -4  -4  -4    2.06    0.16
  -4  -4  -4    2.13    0.11
  -4  -4  -4    2.11    0.11
   4   4   4    2.24    0.10
   4   4   4    2.10    0.09
   4   4   4    2.15    0.10
  -5  -4  -4    0.04    0.04
  -5  -4  -4    0.08    0.04
  -5  -4  -4    0.07    0.07
  -5  -4  -4    0.17    0.09
   5   4   4    0.04    0.04
   5   4   4    0.07    0.04
   5   4   4    0.06    0.05
  -6  -4  -4    1.40    0.15
  -6  -4  -4    1.58    0.19
   6   4   4    1.53    0.14
  -7  -4  -4    1.22    0.18
  -7  -4  -4    1.32    0.17
   7   4   4    1.26    0.15
   7   4   4    1.03    0.18
   7  -5  -4    0.16    0.13
   7  -5  -4    0.49    0.21
  -7   5   4    0.09    0.16
  -7   5   4    0.24    0.11
   6  -5  -4    2.67    0.27
   6  -5  -4    2.92    0.22
   6  -5  -4    2.82    0.20
  -6   5   4    2.98    0.22
  -6   5   4    2.45    0.24
   5  -5  -4    6.48    0.23
   5  -5  -4    6.60    0.28
  -5   5   4    6.83    0.26
  -5   5   4    6.45    0.28
  -5   5   4    6.19    0.22
   4  -5  -4   14.20    0.39
   4  -5  -4   14.22    0.41
   4  -5  -4   14.33    0.39
   4  -5  -4   13.54    0.36
  -4   5   4   13.93    0.39
  -4   5   4   13.71    0.36
  -4   5   4   14.05    0.38
   3  -5  -4   47.42    0.97
   3  -5  -4   46.19    0.95
  -3   5   4   47.84    0.93
  -3   5   4   46.45    0.96
   2  -5  -4    1.74    0.11
   2  -5  -4    1.74    0.12
  -2   5   4    1.74    0.11
  -2   5   4    1.72    0.10
  -2   5   4    1.95    0.12
   1  -5  -4    0.26    0.05
   1  -5  -4    0.22    0.04
  -1   5   4    0.18    0.04
  -1   5   4    0.27    0.05
   0  -5  -4   36.89    0.77
   0  -5  -4   38.89    0.78
   0   5   4   38.29    0.78
   0   5   4   37.50    0.77
  -1  -5  -4   20.80    0.46
  -1  -5  -4   21.42    0.39
  -1  -5  -4   21.16    0.46
   1   5   4   21.33    0.47
   1   5   4   21.40    0.46
  -2  -5  -4    3.31    0.09
  -2  -5  -4    3.37    0.12
  -2  -5  -4    3.34    0.10
  -2  -5  -4    3.30    0.13
   2   5   4    3.37    0.12
   2   5   4    3.04    0.12
  -3  -5  -4    9.65    0.29
  -3  -5  -4    9.67    0.23
  -3  -5  -4    9.82    0.22
  -3  -5  -4    9.74    0.25
  -3  -5  -4    9.51    0.24
   3   5   4    9.32    0.22
   3   5   4    9.21    0.24
   3   5   4    9.74    0.25
   3   5   4    9.80    0.21
  -4  -5  -4    1.98    0.17
  -4  -5  -4    2.18    0.11
  -4  -5  -4    2.32    0.11
  -4  -5  -4    2.22    0.12
   4   5   4    2.17    0.11
   4   5   4    2.30    0.11
   4   5   4    2.22    0.10
  -5  -5  -4    5.97    0.28
  -5  -5  -4    6.32    0.23
  -5  -5  -4    6.10    0.22
  -5  -5  -4    6.04    0.19
   5   5   4    6.58    0.20
   5   5   4    6.32    0.20
  -6  -5  -4    3.80    0.21
  -6  -5  -4    4.46    0.28
   6   5   4    4.06    0.19
   6   5   4    4.12    0.15
   6   5   4    3.94    0.16
  -7  -5  -4    2.10    0.28
   7   5   4    2.28    0.22
   7  -6  -4    2.59    0.28
  -7   6   4    2.87    0.30
  -7   6   4    2.83    0.24
   6  -6  -4    5.72    0.32
   6  -6  -4    5.31    0.24
   6  -6  -4    5.46    0.27
  -6   6   4    5.25    0.30
  -6   6   4    5.25    0.28
  -6   6   4    4.87    0.23
   5  -6  -4    7.76    0.30
   5  -6  -4    8.01    0.27
   5  -6  -4    8.01    0.32
  -5   6   4    7.71    0.31
  -5   6   4    8.13    0.30
   4  -6  -4    3.81    0.18
   4  -6  -4    3.83    0.20
  -4   6   4    3.93    0.21
  -4   6   4    3.77    0.20
   3  -6  -4   24.09    0.56
   3  -6  -4   23.39    0.54
  -3   6   4   23.56    0.53
  -3   6   4   23.53    0.55
  -3   6   4   23.45    0.46
  -3   6   4   23.40    0.53
   2  -6  -4   10.75    0.29
   2  -6  -4   10.96    0.31
  -2   6   4   11.03    0.24
  -2   6   4   10.75    0.30
  -2   6   4   10.43    0.27
  -2   6   4   10.73    0.29
   1  -6  -4   49.57    1.01
   1  -6  -4   50.56    1.02
   1  -6  -4   49.52    0.93
  -1   6   4   51.96    1.04
  -1   6   4   50.01    1.03
   0  -6  -4   99.68    1.92
   0  -6  -4   98.67    1.91
   0  -6  -4   99.65    1.78
   0   6   4  100.21    1.92
   0   6   4   99.28    1.92
  -1  -6  -4    3.19    0.13
  -1  -6  -4    3.45    0.10
  -1  -6  -4    3.67    0.15
   1   6   4    3.50    0.14
   1   6   4    3.50    0.14
  -2  -6  -4    7.09    0.21
  -2  -6  -4    6.98    0.17
  -2  -6  -4    6.75    0.20
   2   6   4    6.94    0.21
   2   6   4    6.72    0.20
  -3  -6  -4   35.89    0.74
  -3  -6  -4   35.05    0.73
  -3  -6  -4   35.43    0.67
   3   6   4   35.75    0.65
   3   6   4   34.68    0.73
   3   6   4   34.79    0.73
  -4  -6  -4   21.41    0.48
  -4  -6  -4   21.07    0.48
  -4  -6  -4   21.20    0.55
  -4  -6  -4   21.30    0.45
   4   6   4   21.44    0.43
   4   6   4   20.80    0.47
   4   6   4   21.11    0.48
  -5  -6  -4   12.60    0.41
  -5  -6  -4   12.71    0.32
  -5  -6  -4   12.11    0.32
  -5  -6  -4   12.21    0.33
   5   6   4   12.05    0.32
   5   6   4   12.92    0.31
   5   6   4   12.68    0.32
  -6  -6  -4    3.70    0.17
  -6  -6  -4    3.94    0.27
  -6  -6  -4    3.56    0.19
  -6  -6  -4    3.46    0.20
   6   6   4    3.77    0.18
   6   6   4    3.57    0.19
   6   6   4    3.52    0.19
  -7  -6  -4    0.16    0.18
  -7  -6  -4    0.30    0.12
   7   6   4    0.05    0.12
   6  -7  -4    0.10    0.13
   6  -7  -4   -0.02    0.10
   6  -7  -4    0.25    0.15
  -6   7   4   -0.03    0.10
  -6   7   4    0.05    0.13
   5  -7  -4    1.09    0.14
   5  -7  -4    0.85    0.11
   5  -7  -4    0.95    0.15
  -5   7   4    0.91    0.15
  -5   7   4    0.89    0.14
   4  -7  -4   13.85    0.38
  -4   7   4   13.93    0.37
  -4   7   4   14.51    0.40
  -4   7   4   13.59    0.40
   3  -7  -4    1.03    0.13
   3  -7  -4    0.88    0.10
  -3   7   4    0.71    0.10
  -3   7   4    0.86    0.11
  -3   7   4    1.12    0.12
  -3   7   4    0.94    0.07
   2  -7  -4   16.62    0.42
   2  -7  -4   16.64    0.41
  -2   7   4   16.71    0.42
  -2   7   4   16.12    0.41
  -2   7   4   17.07    0.35
  -2   7   4   16.42    0.39
   1  -7  -4    4.70    0.15
   1  -7  -4    5.12    0.19
   1  -7  -4    4.94    0.18
  -1   7   4    4.94    0.18
  -1   7   4    4.98    0.19
   0  -7  -4   40.76    0.76
   0  -7  -4   42.44    0.87
   0  -7  -4   41.49    0.86
   0   7   4   41.39    0.87
   0   7   4   42.39    0.88
  -1  -7  -4   15.61    0.39
  -1  -7  -4   16.19    0.33
  -1  -7  -4   16.13    0.39
   1   7   4   15.71    0.39
   1   7   4   15.56    0.38
  -2  -7  -4   18.93    0.45
  -2  -7  -4   19.70    0.46
  -2  -7  -4   19.51    0.39
   2   7   4   19.01    0.45
   2   7   4   19.06    0.45
  -3  -7  -4   20.06    0.46
  -3  -7  -4   19.08    0.41
  -3  -7  -4   19.25    0.45
   3   7   4   19.10    0.45
   3   7   4   18.50    0.44
  -4  -7  -4   11.90    0.33
  -4  -7  -4   11.66    0.38
  -4  -7  -4   12.20    0.31
  -4  -7  -4   12.84    0.34
   4   7   4   10.92    0.29
   4   7   4   12.06    0.28
   4   7   4   12.03    0.32
   4   7   4   12.11    0.32
  -5  -7  -4    2.97    0.19
  -5  -7  -4    2.80    0.17
  -5  -7  -4    2.69    0.16
  -5  -7  -4    2.71    0.23
   5   7   4    2.87    0.18
   5   7   4    2.84    0.16
  -6  -7  -4    0.37    0.10
  -6  -7  -4    0.30    0.13
  -6  -7  -4    0.17    0.13
   6   7   4    0.56    0.09
   6   7   4    0.21    0.10
  -7  -7  -4    3.93    0.34
  -7  -7  -4    4.72    0.37
   7   7   4    4.79    0.28
   7   7   4    4.33    0.26
   7   7   4    4.32    0.23
   6  -8  -4    1.57    0.22
   6  -8  -4    1.50    0.16
   6  -8  -4    1.81    0.20
  -6   8   4    1.60    0.19
  -6   8   4    1.72    0.22
  -6   8   4    1.40    0.15
   5  -8  -4    0.69    0.11
   5  -8  -4    0.75    0.14
  -5   8   4    0.53    0.11
  -5   8   4    0.88    0.15
  -5   8   4    0.59    0.14
   4  -8  -4   25.69    0.63
   4  -8  -4   25.69    0.61
  -4   8   4   25.12    0.61
  -4   8   4   25.09    0.52
  -4   8   4   26.06    0.62
   3  -8  -4   41.09    0.88
  -3   8   4   42.00    0.90
  -3   8   4   40.96    0.88
  -3   8   4   40.57    0.85
  -3   8   4   41.02    0.80
   2  -8  -4   56.65    1.18
   2  -8  -4   58.34    1.19
  -2   8   4   56.90    1.18
  -2   8   4   58.53    1.11
  -2   8   4   58.65    1.12
  -2   8   4   57.96    1.20
   1  -8  -4    0.88    0.12
   1  -8  -4    1.09    0.12
   1  -8  -4    1.03    0.11
  -1   8   4    1.02    0.08
  -1   8   4    0.96    0.12
  -1   8   4    0.89    0.11
   0  -8  -4   18.49    0.45
   0  -8  -4   18.70    0.46
   0   8   4   18.50    0.45
   0   8   4   18.95    0.46
  -1  -8  -4   60.60    1.09
  -1  -8  -4   61.19    1.23
  -1  -8  -4   59.11    1.22
   1   8   4   61.76    1.24
   1   8   4   59.66    1.23
  -2  -8  -4    2.71    0.16
  -2  -8  -4    2.45    0.12
  -2  -8  -4    2.48    0.15
   2   8   4    2.31    0.15
   2   8   4    2.40    0.15
  -3  -8  -4   42.82    0.91
  -3  -8  -4   42.93    0.82
   3   8   4   42.17    0.90
   3   8   4   43.02    0.90
  -4  -8  -4    7.46    0.24
  -4  -8  -4    7.68    0.27
  -4  -8  -4    7.41    0.30
  -4  -8  -4    7.46    0.27
   4   8   4    7.34    0.22
   4   8   4    7.58    0.26
   4   8   4    7.22    0.26
  -5  -8  -4    7.60    0.34
  -5  -8  -4    7.71    0.29
   5   8   4    7.01    0.28
   5   8   4    7.25    0.24
   5   8   4    7.32    0.27
  -6  -8  -4    0.93    0.14
  -6  -8  -4    0.80    0.17
  -6  -8  -4    1.15    0.14
   6   8   4    1.05    0.14
   6   8   4    0.82    0.14
   6   8   4    0.85    0.12
   6  -9  -4    7.52    0.40
   6  -9  -4    7.84    0.36
  -6   9   4    6.98    0.32
  -6   9   4    7.84    0.38
  -6   9   4    7.59    0.39
   5  -9  -4    1.69    0.22
   5  -9  -4    1.48    0.18
  -5   9   4    1.83    0.21
  -5   9   4    1.67    0.16
   4  -9  -4    5.55    0.26
   4  -9  -4    5.73    0.28
  -4   9   4    5.76    0.26
  -4   9   4    5.46    0.19
  -4   9   4    5.31    0.27
   3  -9  -4    4.80    0.25
   3  -9  -4    5.08    0.23
  -3   9   4    5.06    0.25
  -3   9   4    4.55    0.21
  -3   9   4    4.86    0.17
   2  -9  -4    1.84    0.18
   2  -9  -4    2.18    0.16
  -2   9   4    2.32    0.18
  -2   9   4    2.13    0.12
   1  -9  -4   17.13    0.44
   1  -9  -4   16.79    0.44
   1  -9  -4   15.51    0.36
  -1   9   4   17.25    0.45
  -1   9   4   16.88    0.44
  -1   9   4   16.58    0.39
   0  -9  -4    6.43    0.24
   0  -9  -4    6.59    0.24
   0   9   4    6.54    0.24
   0   9   4    6.32    0.24
  -1  -9  -4    1.48    0.14
  -1  -9  -4    1.51    0.15
  -1  -9  -4    1.43    0.10
   1   9   4    1.29    0.14
   1   9   4    1.33    0.14
  -2  -9  -4   22.51    0.54
  -2  -9  -4   22.09    0.47
   2   9   4   22.11    0.54
   2   9   4   22.29    0.54
  -3  -9  -4    4.69    0.22
  -3  -9  -4    4.39    0.19
   3   9   4    4.52    0.22
   3   9   4    4.57    0.22
   4   9   4    1.29    0.18
   4   9   4    1.15    0.13
  -5  -9  -4    0.09    0.10
  -5  -9  -4    0.21    0.12
  -5  -9  -4    0.21    0.12
   5   9   4    0.13    0.12
   5   9   4    0.16    0.09
   5   9   4    0.11    0.11
  -6  -9  -4    4.40    0.32
  -6  -9  -4    5.38    0.35
  -6  -9  -4    4.95    0.30
  -6  -9  -4    4.74    0.29
   6   9   4    4.66    0.29
   6   9   4    4.68    0.31
   6   9   4    4.73    0.26
   5 -10  -4    0.16    0.13
   5 -10  -4   -0.01    0.15
  -5  10   4    0.11    0.14
  -5  10   4    0.00    0.14
  -5  10   4   -0.24    0.12
   4 -10  -4    6.37    0.32
   4 -10  -4    6.73    0.30
  -4  10   4    6.27    0.29
  -4  10   4    5.95    0.21
  -4  10   4    6.20    0.31
  -4  10   4    6.26    0.28
   3 -10  -4    1.70    0.21
   3 -10  -4    1.83    0.19
  -3  10   4    2.06    0.17
  -3  10   4    1.86    0.13
  -3  10   4    2.17    0.22
   2 -10  -4    5.59    0.25
   2 -10  -4    5.41    0.26
  -2  10   4    6.01    0.28
  -2  10   4    5.67    0.20
   1 -10  -4   18.56    0.49
  -1  10   4   19.65    0.45
  -1  10   4   18.87    0.50
  -1  10   4   19.70    0.52
   0 -10  -4   25.41    0.62
   0  10   4   25.59    0.62
   0  10   4   24.65    0.57
  -1 -10  -4   16.86    0.45
  -1 -10  -4   16.53    0.46
  -1 -10  -4   16.43    0.38
   1  10   4   16.66    0.45
  -2 -10  -4   11.89    0.37
  -2 -10  -4   11.56    0.31
   2  10   4   11.69    0.36
   2  10   4   11.32    0.36
  -3 -10  -4    1.39    0.19
  -3 -10  -4    0.94    0.11
   3  10   4    1.02    0.14
   3  10   4    1.09    0.13
  -4 -10  -4    3.75    0.24
  -4 -10  -4    4.32    0.26
   4  10   4    4.26    0.26
   4  10   4    3.83    0.26
  -5 -10  -4    6.26    0.31
  -5 -10  -4    7.48    0.36
  -5 -10  -4    6.29    0.32
  -5 -10  -4    7.20    0.35
   5  10   4    6.47    0.34
   5  10   4    6.79    0.32
  -6 -10  -4    7.77    0.39
  -6 -10  -4    8.00    0.43
   6  10   4    7.91    0.39
   5 -11  -4    2.77    0.34
   5 -11  -4    2.37    0.31
  -5  11   4    1.90    0.21
  -5  11   4    2.98    0.33
  -5  11   4    2.46    0.28
  -5  11   4    2.62    0.27
   4 -11  -4    3.75    0.31
   4 -11  -4    3.81    0.28
  -4  11   4    3.56    0.20
  -4  11   4    3.84    0.31
  -4  11   4    3.75    0.28
   3 -11  -4    0.16    0.12
   3 -11  -4    0.23    0.11
  -3  11   4    0.09    0.10
  -3  11   4   -0.13    0.09
  -3  11   4    0.20    0.14
  -3  11   4    0.17    0.08
   2 -11  -4    0.32    0.11
  -2  11   4    0.09    0.09
  -2  11   4    0.46    0.12
   1 -11  -4    3.83    0.23
   1 -11  -4    3.42    0.23
  -1  11   4    4.11    0.26
  -1  11   4    3.76    0.23
  -1  11   4    3.50    0.17
   0 -11  -4   10.27    0.35
   0 -11  -4    9.87    0.35
   0  11   4   10.11    0.36
   0  11   4    9.93    0.35
  -1 -11  -4    5.77    0.26
   1  11   4    5.86    0.27
   1  11   4    6.01    0.28
  -2 -11  -4   12.33    0.40
  -2 -11  -4   13.96    0.43
   2  11   4   14.03    0.43
   3  11   4    3.23    0.24
   3  11   4    3.49    0.25
  -4 -11  -4    1.92    0.22
  -4 -11  -4    1.87    0.23
  -4 -11  -4    2.18    0.27
   4  11   4    2.12    0.25
   4  11   4    1.84    0.20
  -5 -11  -4    3.10    0.34
  -5 -11  -4    1.98    0.20
  -5 -11  -4    2.25    0.31
  -5 -11  -4    1.91    0.20
   5  11   4    2.64    0.31
   5  11   4    2.02    0.23
   4 -12  -4    0.73    0.18
   4 -12  -4    0.93    0.19
  -4  12   4    0.68    0.19
  -4  12   4    0.69    0.15
  -4  12   4    0.48    0.14
  -4  12   4    0.76    0.16
   3 -12  -4    3.02    0.28
   3 -12  -4    3.15    0.29
  -3  12   4    3.25    0.22
  -3  12   4    3.84    0.26
  -3  12   4    2.86    0.20
   2 -12  -4    0.57    0.14
   2 -12  -4    0.64    0.14
  -2  12   4    0.74    0.13
  -2  12   4    0.58    0.15
   1 -12  -4    2.19    0.23
   1 -12  -4    2.23    0.24
  -1  12   4    2.31    0.22
  -1  12   4    2.69    0.26
   0 -12  -4    2.33    0.23
   0 -12  -4    2.96    0.25
   0  12   4    2.38    0.23
   0  12   4    2.60    0.25
  -1 -12  -4    5.83    0.31
  -1 -12  -4    5.10    0.28
   1  12   4    5.41    0.30
   1  12   4    5.22    0.30
   1  12   4    5.01    0.23
  -2 -12  -4    0.56    0.13
  -2 -12  -4    0.88    0.15
  -2 -12  -4    0.26    0.10
   2  12   4    0.85    0.15
   2  12   4    0.82    0.13
  -3 -12  -4    6.20    0.33
  -3 -12  -4    7.12    0.36
  -3 -12  -4    5.96    0.28
   3  12   4    6.51    0.34
   3  12   4    6.82    0.36
   3  12   4    5.42    0.28
  -4 -12  -4    3.08    0.30
  -4 -12  -4    2.62    0.27
   4  12   4    1.89    0.19
   4  12   4    2.34    0.30
   4  12   4    2.40    0.32
   3 -13  -4    6.16    0.39
   3 -13  -4    4.58    0.36
  -3  13   4    6.08    0.30
  -3  13   4    6.16    0.43
   2 -13  -4    6.32    0.37
   2 -13  -4    6.29    0.36
  -2  13   4    6.76    0.29
  -2  13   4    6.68    0.35
  -2  13   4    6.74    0.39
   1 -13  -4    0.92    0.16
   1 -13  -4    1.04    0.17
   1 -13  -4    0.78    0.13
  -1  13   4    1.17    0.18
  -1  13   4    1.02    0.18
  -1  13   4    0.85    0.13
   0 -13  -4    3.28    0.28
   0 -13  -4    3.43    0.30
   0 -13  -4    3.18    0.22
   0  13   4    3.47    0.23
   0  13   4    3.62    0.29
   0  13   4    3.66    0.31
  -1 -13  -4    3.58    0.31
  -1 -13  -4    2.81    0.27
  -1 -13  -4    3.74    0.23
   1  13   4    3.62    0.32
   1  13   4    3.77    0.25
   1  13   4    3.32    0.30
  -2 -13  -4    0.89    0.14
  -2 -13  -4    1.13    0.20
  -2 -13  -4    1.06    0.17
   2  13   4    0.97    0.15
   2  13   4    0.86    0.19
   2  13   4    0.82    0.17
  -3 -13  -4    0.46    0.16
  -3 -13  -4    0.70    0.20
  -3 -13  -4    0.51    0.19
   3  13   4    0.60    0.15
   3  13   4    0.30    0.20
   3  13   4    0.50    0.17
   2 -14  -4    3.03    0.37
  -2  14   4    3.78    0.43
  -2  14   4    3.38    0.28
   1 -14  -4    0.89    0.15
   1 -14  -4    0.76    0.20
   1 -14  -4    0.71    0.19
  -1  14   4    1.21    0.18
  -1  14   4    1.10    0.21
  -1  14   4    1.11    0.16
   0 -14  -4    0.07    0.17
   0 -14  -4    0.28    0.16
   0 -14  -4    0.18    0.12
   0  14   4    0.59    0.20
   0  14   4    0.27    0.13
   0  14   4    0.41    0.18
  -1 -14  -4    2.18    0.27
  -1 -14  -4    2.46    0.25
  -1 -14  -4    1.55    0.22
   1  14   4    1.57    0.17
   1  14   4    2.04    0.25
   1  14   4    1.48    0.22
  -2 -14  -4    3.30    0.41
  -2 -14  -4    2.16    0.21
   2  14   4    2.46    0.29
   0  11  -5   22.69    0.58
   0  11  -5   22.62    0.75
   0 -11   5   20.21    0.72
  -1  11  -5    3.15    0.25
  -1  11  -5    2.88    0.30
   1 -11   5    2.59    0.29
   1 -11   5    3.18    0.37
   2  10  -5    5.72    0.49
   2  10  -5    5.91    0.42
  -2 -10   5    6.25    0.43
   1  10  -5    3.68    0.36
   1  10  -5    3.24    0.39
   1  10  -5    3.28    0.32
  -1 -10   5    3.79    0.38
  -1 -10   5    3.89    0.36
  -1 -10   5    3.41    0.29
   0  10  -5    3.71    0.33
   0  10  -5    2.45    0.32
   0  10  -5    3.15    0.22
   0  10  -5    3.12    0.36
   0 -10   5    3.76    0.32
   0 -10   5    3.65    0.27
   0 -10   5    3.12    0.35
  -1  10  -5    8.55    0.42
  -1  10  -5    9.17    0.33
  -1  10  -5    8.30    0.43
  -1  10  -5    8.70    0.41
   1 -10   5    9.44    0.41
   1 -10   5    8.63    0.45
   1 -10   5    8.23    0.34
  -2  10  -5    0.54    0.18
  -2  10  -5    0.54    0.17
  -2  10  -5    0.37    0.13
  -2  10  -5    0.35    0.13
  -2  10  -5    0.48    0.19
   2 -10   5    0.24    0.14
   2 -10   5    0.45    0.13
   2 -10   5    0.32    0.18
   2 -10   5    0.35    0.14
  -3  10  -5    5.55    0.28
  -3  10  -5    5.89    0.30
  -3  10  -5    5.68    0.43
   3 -10   5    5.56    0.41
   3 -10   5    5.12    0.30
   3 -10   5    5.54    0.33
   3 -10   5    4.46    0.31
   3   9  -5    2.67    0.31
   3   9  -5    2.16    0.28
   3   9  -5    2.29    0.21
   3   9  -5    1.84    0.24
  -3  -9   5    2.07    0.26
   2   9  -5    3.07    0.29
   2   9  -5    3.09    0.33
   2   9  -5    3.84    0.38
  -2  -9   5    3.64    0.28
  -2  -9   5    2.84    0.32
  -2  -9   5    3.77    0.36
   1   9  -5    4.45    0.29
   1   9  -5    4.59    0.35
   1   9  -5    4.93    0.33
  -1  -9   5    4.72    0.27
  -1  -9   5    5.00    0.32
  -1  -9   5    4.94    0.34
   0   9  -5    3.22    0.28
   0   9  -5    2.55    0.26
   0   9  -5    3.64    0.31
   0   9  -5    3.50    0.20
   0  -9   5    3.92    0.29
   0  -9   5    3.57    0.24
   0  -9   5    2.99    0.29
  -1   9  -5    0.46    0.12
  -1   9  -5    0.63    0.12
  -1   9  -5    0.59    0.14
  -1   9  -5    0.74    0.15
   1  -9   5    0.74    0.15
   1  -9   5    0.65    0.11
   1  -9   5    0.50    0.12
   1  -9   5    0.86    0.14
  -2   9  -5    1.36    0.17
  -2   9  -5    1.41    0.18
  -2   9  -5    1.22    0.17
  -2   9  -5    1.10    0.17
  -2   9  -5    1.48    0.19
   2  -9   5    1.67    0.23
   2  -9   5    1.22    0.18
   2  -9   5    1.37    0.18
   2  -9   5    1.19    0.14
  -3   9  -5   10.01    0.32
  -3   9  -5    9.30    0.41
  -3   9  -5    9.94    0.44
  -3   9  -5    9.33    0.39
  -3   9  -5    9.53    0.35
   3  -9   5    9.28    0.33
   3  -9   5    9.69    0.34
   3  -9   5    9.28    0.41
   3  -9   5    9.72    0.37
  -4   9  -5    6.88    0.30
  -4   9  -5    6.74    0.32
  -4   9  -5    4.99    0.41
  -4   9  -5    6.47    0.34
  -4   9  -5    6.62    0.39
   4  -9   5    5.85    0.29
   4  -9   5    6.07    0.37
   4  -9   5    6.15    0.30
   4  -9   5    6.35    0.32
   4   8  -5    1.13    0.19
   4   8  -5    1.34    0.28
  -4  -8   5    1.25    0.22
  -4  -8   5    1.27    0.15
   3   8  -5    0.53    0.13
   3   8  -5    0.74    0.14
   3   8  -5    0.71    0.21
   3   8  -5    0.70    0.16
  -3  -8   5    0.69    0.15
  -3  -8   5    0.81    0.18
  -3  -8   5    0.78    0.19
   2   8  -5    6.84    0.34
   2   8  -5    5.89    0.30
   2   8  -5    6.90    0.37
   2   8  -5    6.27    0.27
  -2  -8   5    6.69    0.30
  -2  -8   5    6.42    0.36
  -2  -8   5    6.52    0.34
   1   8  -5   11.61    0.39
   1   8  -5   11.70    0.44
   1   8  -5   12.28    0.42
  -1  -8   5   11.37    0.36
  -1  -8   5   12.16    0.41
  -1  -8   5   11.67    0.44
   0   8  -5    4.59    0.27
   0   8  -5    4.72    0.29
   0  -8   5    3.77    0.26
   0  -8   5    4.60    0.26
   0  -8   5    3.94    0.22
   0  -8   5    4.89    0.21
  -1   8  -5    1.86    0.21
   1  -8   5    5.50    0.24
   1  -8   5    6.19    0.28
   1  -8   5    5.50    0.23
  -2   8  -5    2.48    0.23
  -2   8  -5    3.57    0.18
  -2   8  -5    3.40    0.24
  -2   8  -5    3.60    0.22
   2  -8   5    3.41    0.23
   2  -8   5    3.50    0.20
   2  -8   5    3.56    0.20
   2  -8   5    3.75    0.27
  -3   8  -5    7.27    0.33
  -3   8  -5    8.08    0.31
  -3   8  -5    7.82    0.32
  -3   8  -5    8.22    0.36
  -3   8  -5    7.60    0.26
   3  -8   5    7.68    0.34
   3  -8   5    7.74    0.31
   3  -8   5    7.61    0.29
   3  -8   5    7.32    0.27
  -4   8  -5    0.08    0.16
  -4   8  -5    0.36    0.13
  -4   8  -5    0.35    0.13
  -4   8  -5    0.32    0.13
  -4   8  -5    0.26    0.15
   4  -8   5    0.29    0.13
   4  -8   5    0.25    0.11
   4  -8   5    0.27    0.11
   4  -8   5    0.53    0.12
  -5   8  -5    0.70    0.15
  -5   8  -5    0.88    0.22
  -5   8  -5    0.72    0.15
  -5   8  -5    0.80    0.16
  -5   8  -5    1.05    0.18
   5  -8   5    0.76    0.15
   5  -8   5    1.04    0.17
   5  -8   5    0.84    0.14
   5  -8   5    0.60    0.14
   4   7  -5   12.33    0.47
   4   7  -5   11.48    0.52
   4   7  -5   11.83    0.39
   4   7  -5   11.47    0.41
  -4  -7   5   10.62    0.43
  -4  -7   5   11.57    0.45
  -4  -7   5   10.72    0.34
  -4  -7   5   11.04    0.48
   3   7  -5    2.97    0.23
   3   7  -5    3.25    0.28
   3   7  -5    2.73    0.21
   3   7  -5    3.24    0.32
  -3  -7   5    2.77    0.24
  -3  -7   5    3.03    0.30
  -3  -7   5    2.74    0.27
   2   7  -5   10.68    0.41
   2   7  -5   10.28    0.35
   2   7  -5    9.90    0.31
   2   7  -5   11.49    0.40
  -2  -7   5   10.30    0.40
  -2  -7   5   10.44    0.34
  -2  -7   5   10.19    0.38
   1   7  -5   23.84    0.61
   1   7  -5   25.76    0.64
   1   7  -5   24.43    0.65
  -1  -7   5   24.65    0.66
  -1  -7   5   25.09    0.64
  -1  -7   5   25.31    0.58
   0   7  -5    4.07    0.23
   0   7  -5    3.68    0.24
   0  -7   5    3.99    0.23
   0  -7   5    3.54    0.19
   0  -7   5    3.68    0.18
  -1   7  -5   18.78    0.47
  -1   7  -5   20.19    0.52
   1  -7   5   19.77    0.51
   1  -7   5   19.30    0.46
   1  -7   5   19.91    0.54
   1  -7   5   20.04    0.48
  -2   7  -5    0.69    0.09
  -2   7  -5    0.38    0.10
   2  -7   5    0.48    0.09
   2  -7   5    0.48    0.08
   2  -7   5    0.51    0.08
   2  -7   5    0.51    0.11
   3  -7   5    3.24    0.19
   3  -7   5    3.51    0.23
   3  -7   5    3.56    0.21
   3  -7   5    3.51    0.18
  -4   7  -5    1.02    0.14
   4  -7   5    2.42    0.19
   4  -7   5    2.68    0.18
   4  -7   5    2.89    0.19
   4  -7   5    2.33    0.22
  -5   7  -5    1.94    0.23
  -5   7  -5    2.22    0.25
  -5   7  -5    1.78    0.22
  -5   7  -5    1.76    0.20
   5  -7   5    2.00    0.23
   5  -7   5    1.72    0.18
   5  -7   5    1.61    0.20
  -6   7  -5    2.17    0.24
  -6   7  -5    3.04    0.39
  -6   7  -5    2.00    0.18
  -6   7  -5    2.28    0.25
   6  -7   5    1.95    0.25
   6  -7   5    2.77    0.22
   5   6  -5    1.61    0.21
   5   6  -5    0.98    0.15
   5   6  -5    1.56    0.18
   5   6  -5    1.10    0.25
  -5  -6   5    1.51    0.22
   4   6  -5    2.09    0.28
   4   6  -5    1.14    0.14
   4   6  -5    1.21    0.14
   4   6  -5    1.18    0.19
  -4  -6   5    0.62    0.14
  -4  -6   5    1.29    0.18
  -4  -6   5    1.23    0.14
  -4  -6   5    0.97    0.17
   3   6  -5    4.27    0.31
   3   6  -5    4.47    0.27
   3   6  -5    4.30    0.22
   3   6  -5    4.35    0.21
  -3  -6   5    4.47    0.17
  -3  -6   5    3.08    0.23
  -3  -6   5    4.07    0.25
   2   6  -5    1.80    0.16
   2   6  -5    1.87    0.15
   2   6  -5    2.47    0.21
  -2  -6   5    1.98    0.17
  -2  -6   5    1.95    0.20
  -2  -6   5    1.96    0.19
   1   6  -5   10.85    0.36
   1   6  -5   10.43    0.33
  -1  -6   5   11.08    0.35
  -1  -6   5   10.70    0.38
  -1  -6   5   10.64    0.31
   0   6  -5   19.34    0.50
   0   6  -5   19.39    0.49
   0   6  -5   18.84    0.52
   0  -6   5   19.82    0.48
   0  -6   5   19.92    0.54
   0  -6   5   20.24    0.51
  -1   6  -5   45.77    0.98
   1  -6   5   45.50    0.87
   1  -6   5   44.09    0.93
   1  -6   5   44.49    0.98
   1  -6   5   44.76    0.97
  -2   6  -5   27.47    0.67
  -2   6  -5   28.31    0.65
  -2   6  -5   28.28    0.67
  -2   6  -5   27.60    0.63
  -2   6  -5   28.45    0.55
   2  -6   5   26.87    0.65
   2  -6   5   27.69    0.56
  -3   6  -5    8.77    0.32
  -3   6  -5    8.97    0.29
  -3   6  -5    8.99    0.26
  -3   6  -5    9.15    0.30
   3  -6   5    8.65    0.29
   3  -6   5    9.31    0.26
   3  -6   5    9.25    0.29
   3  -6   5    8.54    0.30
  -4   6  -5   11.27    0.32
  -4   6  -5   10.71    0.32
  -4   6  -5   10.81    0.36
   4  -6   5   10.68    0.34
   4  -6   5   10.92    0.32
   4  -6   5   11.10    0.33
  -5   6  -5    0.84    0.11
  -5   6  -5    0.64    0.14
  -5   6  -5    0.94    0.14
   5  -6   5    0.86    0.12
   5  -6   5    0.73    0.10
   5  -6   5    0.89    0.12
  -6   6  -5    0.65    0.15
  -6   6  -5    0.62    0.10
  -6   6  -5    0.70    0.16
  -6   6  -5    0.61    0.18
   6  -6   5    0.60    0.14
   6  -6   5    0.50    0.10
   6  -6   5    0.67    0.12
   5   5  -5    0.19    0.12
   5   5  -5   -0.07    0.17
   5   5  -5    0.18    0.15
   5   5  -5    0.14    0.12
  -5  -5   5    0.28    0.16
  -5  -5   5    0.05    0.14
  -5  -5   5    0.10    0.10
  -5  -5   5    0.00    0.15
   4   5  -5    2.35    0.20
   4   5  -5    2.23    0.24
   4   5  -5    2.52    0.19
   4   5  -5    2.30    0.28
   3   5  -5    4.09    0.27
   3   5  -5    3.82    0.19
   3   5  -5    4.18    0.24
  -3  -5   5    4.30    0.15
  -3  -5   5    4.05    0.24
   2   5  -5    3.58    0.23
   2   5  -5    3.37    0.18
   2   5  -5    3.87    0.23
  -2  -5   5    3.87    0.19
  -2  -5   5    3.73    0.22
  -2  -5   5    3.79    0.21
   1   5  -5    3.78    0.21
   1   5  -5    3.31    0.15
   1   5  -5    3.14    0.17
   1   5  -5    3.48    0.19
  -1  -5   5    3.41    0.15
  -1  -5   5    3.42    0.20
  -1  -5   5    3.54    0.19
  -1  -5   5    3.25    0.16
   0   5  -5    0.04    0.06
   0   5  -5    0.07    0.07
   0   5  -5   -0.04    0.06
   0  -5   5    0.14    0.05
   0  -5   5    0.00    0.05
   0  -5   5    0.06    0.06
   0  -5   5    0.07    0.06
  -1   5  -5    2.28    0.16
  -1   5  -5    2.29    0.16
  -1   5  -5    2.21    0.16
   1  -5   5    2.06    0.16
   1  -5   5    2.29    0.13
   1  -5   5    2.29    0.12
   1  -5   5    2.31    0.15
  -2   5  -5   28.36    0.65
  -2   5  -5   28.64    0.55
  -2   5  -5   27.14    0.62
  -2   5  -5   28.27    0.66
  -2   5  -5   28.73    0.64
   2  -5   5   27.31    0.66
   2  -5   5   27.98    0.56
   2  -5   5   27.63    0.62
   2  -5   5   28.41    0.62
   2  -5   5   27.59    0.64
  -3   5  -5   21.10    0.55
  -3   5  -5   20.92    0.51
  -3   5  -5   20.90    0.44
  -3   5  -5   20.84    0.53
  -3   5  -5   21.03    0.49
   3  -5   5   20.95    0.50
   3  -5   5   20.65    0.51
   3  -5   5   20.95    0.44
   3  -5   5   21.05    0.49
  -4   5  -5    8.23    0.26
  -4   5  -5    8.41    0.30
  -4   5  -5    7.95    0.32
  -4   5  -5    8.30    0.25
  -4   5  -5    8.22    0.28
   4  -5   5    8.22    0.27
   4  -5   5    8.22    0.27
   4  -5   5    7.92    0.25
  -5   5  -5    8.36    0.29
  -5   5  -5    8.39    0.32
  -5   5  -5    8.26    0.27
   5  -5   5    8.34    0.25
   5  -5   5    8.23    0.26
   5  -5   5    8.21    0.29
  -6   5  -5    2.32    0.21
  -6   5  -5    2.17    0.21
   6  -5   5    2.18    0.21
   6   4  -5    0.81    0.19
   6   4  -5    0.56    0.24
  -6  -4   5    0.64    0.20
  -6  -4   5    0.61    0.18
  -6  -4   5    0.70    0.14
   5   4  -5    1.74    0.20
   5   4  -5    1.71    0.19
   5   4  -5    1.46    0.16
   5   4  -5    1.86    0.24
  -5  -4   5    1.84    0.20
  -5  -4   5    1.56    0.17
  -5  -4   5    1.70    0.20
  -5  -4   5    2.08    0.25
   4   4  -5    2.65    0.22
   4   4  -5    2.21    0.24
   4   4  -5    2.74    0.17
   4   4  -5    2.50    0.20
  -4  -4   5    2.70    0.22
  -4  -4   5    2.65    0.17
   3   4  -5   27.68    0.69
   3   4  -5   27.47    0.60
   3   4  -5   27.75    0.67
   3   4  -5   27.68    0.61
  -3  -4   5   27.45    0.58
  -3  -4   5   29.33    0.68
  -3  -4   5   27.95    0.64
   2   4  -5    5.81    0.24
   2   4  -5    6.03    0.20
   2   4  -5    6.01    0.22
   2   4  -5    6.03    0.26
  -2  -4   5    5.81    0.22
  -2  -4   5    6.30    0.20
  -2  -4   5    6.55    0.25
  -2  -4   5    5.95    0.25
   1   4  -5    6.18    0.22
   1   4  -5    6.16    0.19
   1   4  -5    6.18    0.23
   1   4  -5    6.05    0.25
  -1  -4   5    6.07    0.24
  -1  -4   5    6.29    0.21
  -1  -4   5    6.07    0.19
  -1  -4   5    6.20    0.23
   0   4  -5    7.91    0.27
   0   4  -5    7.91    0.26
   0   4  -5    7.84    0.25
   0   4  -5    8.01    0.21
   0  -4   5    7.40    0.27
   0  -4   5    8.22    0.23
   0  -4   5    8.05    0.26
   0  -4   5    7.93    0.22
  -1   4  -5   11.68    0.32
  -1   4  -5   11.74    0.33
  -1   4  -5   11.74    0.33
   1  -4   5   11.79    0.32
   1  -4   5   11.59    0.31
   1  -4   5   11.45    0.33
   1  -4   5   11.45    0.27
   1  -4   5   11.66    0.30
  -2   4  -5   35.56    0.78
  -2   4  -5   35.81    0.77
  -2   4  -5   36.10    0.76
  -2   4  -5   35.47    0.74
  -2   4  -5   36.11    0.66
   2  -4   5   35.37    0.67
   2  -4   5   36.30    0.75
   2  -4   5   34.53    0.76
   2  -4   5   35.58    0.74
   2  -4   5   34.52    0.78
  -3   4  -5   31.80    0.69
  -3   4  -5   31.73    0.69
  -3   4  -5   31.76    0.67
  -3   4  -5   31.58    0.62
  -3   4  -5   31.69    0.72
   3  -4   5   31.01    0.74
   3  -4   5   31.40    0.66
   3  -4   5   31.96    0.68
   3  -4   5   30.47    0.68
  -4   4  -5    4.16    0.23
  -4   4  -5    4.25    0.18
  -4   4  -5    4.30    0.16
  -4   4  -5    4.46    0.22
  -4   4  -5    4.18    0.18
   4  -4   5    4.20    0.19
   4  -4   5    4.27    0.18
   4  -4   5    4.50    0.17
  -5   4  -5    7.15    0.20
  -5   4  -5    6.92    0.22
  -5   4  -5    7.13    0.32
  -5   4  -5    7.09    0.26
   5  -4   5    7.00    0.26
   5  -4   5    7.35    0.22
   5  -4   5    7.27    0.21
  -6   4  -5    5.39    0.26
  -6   4  -5    5.39    0.27
   6  -4   5    5.18    0.24
  -7   4  -5    2.78    0.24
  -7   4  -5    2.71    0.24
   7  -4   5    2.40    0.23
   7  -4   5    2.48    0.25
   6   3  -5    0.51    0.12
   6   3  -5    0.18    0.19
   6   3  -5    0.58    0.16
   6   3  -5    0.13    0.15
  -6  -3   5    0.67    0.20
  -6  -3   5    0.61    0.16
  -6  -3   5    0.55    0.17
   5   3  -5    5.90    0.29
   5   3  -5    5.85    0.23
   5   3  -5    5.96    0.34
   5   3  -5    5.95    0.28
  -5  -3   5    6.18    0.30
  -5  -3   5    5.75    0.30
  -5  -3   5    6.22    0.26
   4   3  -5    0.37    0.08
   4   3  -5    0.45    0.09
   4   3  -5    0.35    0.11
   4   3  -5    0.31    0.10
  -4  -3   5    0.44    0.09
  -4  -3   5    0.40    0.10
   3   3  -5    0.47    0.08
   3   3  -5    0.45    0.09
   3   3  -5    0.49    0.11
   3   3  -5    0.45    0.08
  -3  -3   5    0.54    0.09
  -3  -3   5    0.44    0.09
  -3  -3   5    0.37    0.08
   2   3  -5    1.12    0.13
   2   3  -5    1.48    0.11
   2   3  -5    1.31    0.15
   2   3  -5    1.37    0.11
  -2  -3   5    1.35    0.14
  -2  -3   5    1.31    0.14
  -2  -3   5    1.22    0.12
  -2  -3   5    1.29    0.10
  -2  -3   5    1.49    0.09
   1   3  -5    4.48    0.19
   1   3  -5    4.60    0.20
   1   3  -5    4.46    0.15
   1   3  -5    4.61    0.17
  -1  -3   5    4.57    0.15
  -1  -3   5    4.43    0.20
  -1  -3   5    4.53    0.16
   0   3  -5   24.74    0.49
   0   3  -5   24.80    0.55
   0   3  -5   24.58    0.58
   0   3  -5   25.67    0.57
   0  -3   5   25.51    0.59
   0  -3   5   25.94    0.58
   0  -3   5   25.30    0.54
   0  -3   5   25.58    0.51
  -1   3  -5    3.00    0.15
  -1   3  -5    3.05    0.14
  -1   3  -5    2.87    0.15
   1  -3   5    2.89    0.14
   1  -3   5    2.94    0.15
   1  -3   5    2.97    0.13
   1  -3   5    3.02    0.14
   1  -3   5    2.82    0.11
  -2   3  -5   17.81    0.42
  -2   3  -5   18.42    0.42
  -2   3  -5   18.62    0.35
  -2   3  -5   17.73    0.43
  -2   3  -5   17.88    0.44
   2  -3   5   17.93    0.45
   2  -3   5   17.92    0.36
   2  -3   5   18.22    0.42
   2  -3   5   17.81    0.43
   2  -3   5   17.81    0.42
  -3   3  -5   11.40    0.30
  -3   3  -5   11.46    0.29
  -3   3  -5   11.55    0.34
  -3   3  -5   11.32    0.27
  -3   3  -5   11.61    0.32
   3  -3   5   11.40    0.29
   3  -3   5   11.44    0.31
   3  -3   5   11.79    0.36
   3  -3   5   11.15    0.30
  -4   3  -5    5.44    0.24
  -4   3  -5    5.40    0.20
  -4   3  -5    5.42    0.18
  -4   3  -5    5.45    0.22
   4  -3   5    5.46    0.22
   4  -3   5    5.50    0.18
   4  -3   5    5.86    0.17
  -5   3  -5   12.29    0.38
  -5   3  -5   12.38    0.34
   5  -3   5   12.76    0.29
   5  -3   5   12.36    0.36
   5  -3   5   12.57    0.28
  -6   3  -5   11.58    0.38
  -6   3  -5   11.95    0.36
   6  -3   5   11.68    0.37
   6  -3   5   11.98    0.36
  -7   3  -5    2.75    0.23
  -7   3  -5    2.67    0.24
   7  -3   5    2.18    0.23
   7  -3   5    2.95    0.27
   6   2  -5    5.73    0.32
   6   2  -5    5.82    0.36
   6   2  -5    5.34    0.22
   6   2  -5    5.86    0.31
  -6  -2   5    5.41    0.33
  -6  -2   5    5.31    0.37
  -6  -2   5    6.46    0.32
  -6  -2   5    6.22    0.29
   5   2  -5    4.19    0.24
   5   2  -5    4.43    0.28
   5   2  -5    4.55    0.19
   5   2  -5    4.37    0.24
  -5  -2   5    1.32    0.16
   4   2  -5    1.32    0.17
   4   2  -5    0.65    0.09
   4   2  -5    0.92    0.13
   4   2  -5    0.91    0.11
  -4  -2   5    1.28    0.16
  -4  -2   5    0.98    0.12
   3   2  -5    6.95    0.27
   3   2  -5    6.96    0.21
   3   2  -5    6.88    0.25
   3   2  -5    6.81    0.23
  -3  -2   5    7.11    0.26
  -3  -2   5    7.21    0.27
  -3  -2   5    7.49    0.25
  -3  -2   5    6.96    0.22
   2   2  -5   55.83    1.15
   2   2  -5   55.11    1.15
   2   2  -5   55.10    1.09
   2   2  -5   56.25    1.04
  -2  -2   5   56.07    1.20
  -2  -2   5   57.51    1.11
  -2  -2   5   59.68    1.07
  -2  -2   5   57.24    1.09
  -2  -2   5   58.99    1.19
   1   2  -5    4.84    0.15
   1   2  -5    4.69    0.19
   1   2  -5    4.63    0.16
  -1  -2   5    4.89    0.16
  -1  -2   5    5.03    0.13
  -1  -2   5    4.83    0.19
  -1  -2   5    4.92    0.19
  -1  -2   5    4.82    0.15
   0   2  -5   17.44    0.41
   0   2  -5   18.06    0.43
   0   2  -5   17.51    0.35
   0   2  -5   17.75    0.42
   0  -2   5   18.64    0.39
   0  -2   5   17.81    0.37
   0  -2   5   17.91    0.43
   0  -2   5   18.10    0.40
  -1   2  -5   93.25    1.79
  -1   2  -5   92.96    1.78
  -1   2  -5   90.96    1.79
   1  -2   5   93.34    1.81
   1  -2   5   94.22    1.63
   1  -2   5   94.30    1.82
   1  -2   5   94.02    1.78
   1  -2   5   92.02    1.80
  -2   2  -5    3.94    0.11
  -2   2  -5    4.09    0.15
  -2   2  -5    4.05    0.15
  -2   2  -5    3.86    0.17
  -2   2  -5    4.11    0.16
   2  -2   5    3.99    0.15
   2  -2   5    4.13    0.15
   2  -2   5    4.01    0.11
   2  -2   5    4.04    0.18
   2  -2   5    4.12    0.16
  -3   2  -5    7.24    0.23
  -3   2  -5    7.07    0.21
  -3   2  -5    7.28    0.20
  -3   2  -5    7.29    0.25
   3  -2   5    7.28    0.21
   3  -2   5    7.26    0.19
   3  -2   5    7.11    0.23
   3  -2   5    7.15    0.27
  -4   2  -5    5.94    0.19
  -4   2  -5    5.55    0.22
  -4   2  -5    5.98    0.16
  -4   2  -5    5.94    0.17
  -4   2  -5    5.99    0.24
   4  -2   5    5.97    0.22
   4  -2   5    5.99    0.16
   4  -2   5    6.05    0.18
  -5   2  -5    3.19    0.17
  -5   2  -5    2.91    0.18
   5  -2   5    3.31    0.19
  -6   2  -5   32.14    0.75
  -6   2  -5   32.11    0.71
   6  -2   5   34.16    0.75
   6  -2   5   32.43    0.70
  -7   2  -5    4.54    0.26
  -7   2  -5    4.36    0.26
   7  -2   5    4.26    0.27
   7  -2   5    4.78    0.28
   6   1  -5    3.41    0.26
   6   1  -5    3.82    0.30
   6   1  -5    4.47    0.29
  -6  -1   5    3.52    0.27
  -6  -1   5    4.05    0.26
  -6  -1   5    3.80    0.26
   5   1  -5    2.03    0.20
   5   1  -5    2.13    0.22
   5   1  -5    1.73    0.13
   5   1  -5    1.97    0.19
  -5  -1   5    1.91    0.18
  -5  -1   5    1.81    0.19
   4   1  -5   26.09    0.54
   4   1  -5   25.87    0.63
   4   1  -5   25.55    0.62
  -4  -1   5   25.34    0.58
  -4  -1   5   27.22    0.63
  -4  -1   5   26.24    0.63
   3   1  -5    6.65    0.25
   3   1  -5    6.65    0.22
   3   1  -5    6.65    0.19
   3   1  -5    6.69    0.25
  -3  -1   5    7.11    0.24
  -3  -1   5    6.88    0.22
  -3  -1   5    6.66    0.25
  -3  -1   5    6.95    0.25
   2   1  -5    2.46    0.15
   2   1  -5    2.24    0.12
   2   1  -5    2.19    0.14
   2   1  -5    2.11    0.11
  -2  -1   5    2.38    0.09
  -2  -1   5    2.14    0.14
  -2  -1   5    2.30    0.14
  -2  -1   5    2.37    0.12
  -2  -1   5    2.15    0.13
   1   1  -5    8.14    0.22
   1   1  -5    8.31    0.21
   1   1  -5    8.36    0.25
  -1  -1   5    8.12    0.22
  -1  -1   5    8.49    0.25
  -1  -1   5    8.41    0.19
  -1  -1   5    7.87    0.25
  -1  -1   5    8.33    0.21
   0   1  -5    8.50    0.25
   0   1  -5    8.38    0.19
   0   1  -5    8.49    0.24
   0   1  -5    8.19    0.23
   0  -1   5    8.41    0.22
   0  -1   5    8.37    0.25
   0  -1   5    8.48    0.19
   0  -1   5    8.05    0.20
   0  -1   5    8.34    0.24
  -1   1  -5    8.28    0.24
  -1   1  -5    8.23    0.24
  -1   1  -5    9.24    0.24
   1  -1   5    8.91    0.24
   1  -1   5    8.45    0.23
   1  -1   5    8.91    0.19
   1  -1   5    8.52    0.23
   1  -1   5    8.48    0.24
  -2   1  -5   34.83    0.74
  -2   1  -5   35.26    0.71
  -2   1  -5   34.79    0.70
  -2   1  -5   34.53    0.74
  -2   1  -5   35.33    0.62
  -2   1  -5   35.20    0.72
   2  -1   5   35.95    0.74
   2  -1   5   34.39    0.75
   2  -1   5   35.35    0.73
   2  -1   5   35.15    0.72
   2  -1   5   35.87    0.63
  -3   1  -5    0.73    0.08
  -3   1  -5    0.57    0.08
  -3   1  -5    0.59    0.09
  -3   1  -5    0.64    0.07
  -3   1  -5    0.72    0.08
   3  -1   5    0.76    0.08
   3  -1   5    0.69    0.08
   3  -1   5    0.74    0.10
   3  -1   5    0.67    0.07
  -4   1  -5    1.25    0.11
  -4   1  -5    1.12    0.06
  -4   1  -5    1.13    0.11
  -4   1  -5    1.02    0.13
   4  -1   5    1.01    0.06
   4  -1   5    0.97    0.14
   4  -1   5    1.09    0.08
   4  -1   5    1.11    0.13
  -5   1  -5    2.68    0.16
   5  -1   5    2.80    0.18
   5  -1   5    2.73    0.15
  -6   1  -5    0.50    0.12
  -6   1  -5    0.44    0.11
   6  -1   5    0.36    0.10
   6  -1   5    0.53    0.11
  -7   1  -5    0.67    0.15
  -7   1  -5    0.71    0.13
   7   0  -5    2.15    0.29
  -7   0   5    2.70    0.27
  -7   0   5    2.51    0.29
   6   0  -5    2.79    0.24
   6   0  -5    2.95    0.25
   6   0  -5    2.93    0.27
  -6   0   5    2.96    0.23
  -6   0   5    3.34    0.23
  -6   0   5    2.83    0.24
   5   0  -5    6.76    0.28
   5   0  -5    6.88    0.29
   5   0  -5    6.65    0.29
  -5   0   5    7.09    0.28
  -5   0   5    6.83    0.28
   4   0  -5   10.24    0.32
   4   0  -5   10.19    0.33
   4   0  -5    9.88    0.31
   4   0  -5    9.86    0.24
  -4   0   5    9.82    0.30
  -4   0   5   10.45    0.32
   3   0  -5   11.48    0.31
   3   0  -5   11.17    0.33
   3   0  -5   11.26    0.27
   3   0  -5   11.47    0.33
  -3   0   5   11.22    0.32
  -3   0   5   11.05    0.31
  -3   0   5   11.39    0.33
  -3   0   5   11.39    0.30
   2   0  -5   42.92    0.84
   2   0  -5   42.75    0.90
   2   0  -5   42.77    0.81
   2   0  -5   42.69    0.90
  -2   0   5   43.49    0.92
  -2   0   5   44.57    0.83
  -2   0   5   44.85    0.84
  -2   0   5   43.34    0.84
  -2   0   5   43.48    0.92
   1   0  -5   55.29    1.10
   1   0  -5   54.08    0.98
   1   0  -5   54.09    1.10
   1   0  -5   54.30    1.05
  -1   0   5   56.80    1.00
  -1   0   5   54.96    1.06
  -1   0   5   54.91    1.01
  -1   0   5   56.02    1.12
  -1   0   5   54.76    1.12
   0   0  -5   33.61    0.60
   0   0  -5   32.36    0.69
   0   0  -5   33.27    0.64
   0   0  -5   32.31    0.69
   0   0  -5   32.21    0.67
   0   0   5   32.80    0.61
   0   0   5   32.29    0.69
   0   0   5   33.13    0.70
   0   0   5   33.86    0.58
   0   0   5   33.35    0.67
  -1   0  -5  218.65    3.98
  -1   0  -5  212.50    4.02
  -1   0  -5  216.05    4.02
  -1   0  -5  217.73    4.04
  -1   0  -5  210.52    3.66
   1   0   5  218.10    4.04
   1   0   5  215.27    3.67
   1   0   5  212.58    3.99
   1   0   5  219.96    4.05
  -2   0  -5   48.90    0.92
  -2   0  -5   48.89    0.84
  -2   0  -5   47.04    0.94
  -2   0  -5   46.28    0.97
  -2   0  -5   46.82    0.96
  -2   0  -5   47.79    0.94
   2   0   5   47.34    0.96
   2   0   5   48.02    0.98
   2   0   5   48.32    0.83
   2   0   5   47.78    0.95
   2   0   5   48.29    0.94
  -3   0  -5    3.76    0.15
  -3   0  -5    3.99    0.18
  -3   0  -5    3.91    0.13
  -3   0  -5    3.87    0.12
   3   0   5    3.97    0.19
   3   0   5    3.84    0.13
   3   0   5    3.98    0.12
   3   0   5    3.98    0.16
  -4   0  -5   24.76    0.55
  -4   0  -5   25.35    0.61
  -4   0  -5   25.44    0.52
   4   0   5   26.29    0.50
   4   0   5   26.59    0.59
   4   0   5   24.74    0.63
  -5   0  -5   11.69    0.38
  -5   0  -5   11.98    0.34
  -5   0  -5   11.85    0.32
   5   0   5   12.62    0.37
   5   0   5   12.54    0.31
  -6   0  -5    8.35    0.35
  -6   0  -5    7.80    0.28
  -6   0  -5    8.34    0.30
   6   0   5    8.27    0.31
   6   0   5    8.73    0.27
  -7   0  -5    2.15    0.20
  -7   0  -5    2.29    0.20
   7   0   5    2.29    0.23
   7  -1  -5    1.69    0.18
  -7   1   5    1.65    0.21
  -7   1   5    1.62    0.18
   6  -1  -5    5.14    0.27
   6  -1  -5    4.43    0.29
   6  -1  -5    4.52    0.26
  -6   1   5    4.52    0.26
  -6   1   5    3.81    0.24
  -6   1   5    4.62    0.27
   5  -1  -5   16.13    0.45
   5  -1  -5   15.92    0.44
   5  -1  -5   15.82    0.41
   5  -1  -5   16.19    0.45
  -5   1   5   15.46    0.44
  -5   1   5   16.00    0.43
   4  -1  -5    1.49    0.12
   4  -1  -5    1.37    0.15
   4  -1  -5    1.43    0.15
   4  -1  -5    1.53    0.16
  -4   1   5    1.24    0.15
  -4   1   5    1.41    0.15
  -4   1   5    1.26    0.15
   3  -1  -5    8.72    0.21
   3  -1  -5    8.80    0.21
   3  -1  -5    9.09    0.28
   3  -1  -5    9.00    0.26
   3  -1  -5    8.96    0.28
  -3   1   5    9.20    0.28
  -3   1   5    8.91    0.27
  -3   1   5    8.62    0.26
  -3   1   5    8.93    0.28
   2  -1  -5    5.73    0.21
   2  -1  -5    5.77    0.20
   2  -1  -5    5.63    0.16
   2  -1  -5    5.95    0.18
  -2   1   5    5.82    0.19
  -2   1   5    5.67    0.18
  -2   1   5    6.00    0.14
  -2   1   5    5.57    0.20
   1  -1  -5   35.69    0.74
   1  -1  -5   34.79    0.70
   1  -1  -5   34.43    0.74
   1  -1  -5   35.19    0.66
  -1   1   5   35.44    0.75
  -1   1   5   35.73    0.70
  -1   1   5   35.99    0.67
  -1   1   5   36.08    0.66
  -1   1   5   35.20    0.75
   0  -1  -5   31.95    0.68
   0  -1  -5   33.02    0.68
   0  -1  -5   32.26    0.64
   0  -1  -5   32.30    0.66
   0  -1  -5   33.09    0.59
   0   1   5   32.50    0.69
   0   1   5   32.71    0.66
   0   1   5   33.01    0.60
   0   1   5   33.67    0.59
   0   1   5   32.74    0.69
  -1  -1  -5   61.78    1.22
  -1  -1  -5   61.05    1.22
  -1  -1  -5   64.76    1.07
  -1  -1  -5   63.65    1.23
  -1  -1  -5   63.18    1.23
   1   1   5   62.72    1.22
   1   1   5   63.40    1.23
   1   1   5   63.47    1.23
   1   1   5   62.72    1.08
  -2  -1  -5   99.34    2.00
  -2  -1  -5  106.69    1.89
  -2  -1  -5  103.99    1.96
   2   1   5  103.51    1.96
   2   1   5  103.18    1.95
   2   1   5  102.05    1.95
   2   1   5  103.45    1.99
  -3  -1  -5    9.08    0.21
  -3  -1  -5    8.73    0.24
  -3  -1  -5    8.93    0.28
  -3  -1  -5    9.24    0.21
   3   1   5    9.32    0.19
   3   1   5    9.14    0.27
   3   1   5    8.71    0.27
   3   1   5    9.06    0.21
  -4  -1  -5    0.13    0.08
  -4  -1  -5    0.05    0.05
  -4  -1  -5    0.13    0.06
   4   1   5    0.02    0.09
   4   1   5    0.16    0.05
   4   1   5    0.11    0.07
  -5  -1  -5   16.08    0.39
  -5  -1  -5   16.01    0.41
  -5  -1  -5   16.32    0.47
   5   1   5   16.92    0.37
   5   1   5   16.31    0.44
  -6  -1  -5    5.39    0.23
  -6  -1  -5    5.64    0.29
  -6  -1  -5    5.58    0.24
   6   1   5    5.95    0.27
   6   1   5    5.68    0.22
  -7  -1  -5    0.59    0.12
  -7  -1  -5    0.43    0.15
  -7  -1  -5    0.43    0.12
   7   1   5    0.58    0.15
   7   1   5    0.51    0.13
   7  -2  -5    1.59    0.18
  -7   2   5    1.82    0.24
  -7   2   5    1.37    0.20
   6  -2  -5   10.14    0.39
   6  -2  -5   10.16    0.35
   6  -2  -5   10.07    0.35
   6  -2  -5    9.18    0.40
  -6   2   5   10.45    0.35
  -6   2   5    9.59    0.37
   5  -2  -5    0.82    0.13
   5  -2  -5    0.83    0.12
   5  -2  -5    0.80    0.12
   5  -2  -5    1.43    0.17
  -5   2   5    0.79    0.13
  -5   2   5    0.71    0.11
   4  -2  -5    0.26    0.08
   4  -2  -5    0.33    0.08
   4  -2  -5    0.22    0.08
   4  -2  -5    0.15    0.08
  -4   2   5    0.19    0.08
  -4   2   5    0.22    0.09
  -4   2   5    0.21    0.07
   3  -2  -5    3.82    0.18
   3  -2  -5    4.01    0.17
   3  -2  -5    4.06    0.18
  -3   2   5    4.13    0.18
  -3   2   5    3.69    0.18
  -3   2   5    3.82    0.17
   2  -2  -5    0.16    0.06
   2  -2  -5    0.23    0.05
  -2   2   5    0.30    0.06
  -2   2   5    0.22    0.06
  -2   2   5    0.28    0.04
  -2   2   5    0.21    0.06
   1  -2  -5    7.57    0.23
   1  -2  -5    7.50    0.19
  -1   2   5    7.70    0.19
  -1   2   5    7.33    0.22
  -1   2   5    7.36    0.22
   0  -2  -5    1.81    0.10
   0  -2  -5    1.85    0.10
   0  -2  -5    1.97    0.07
   0   2   5    1.90    0.10
   0   2   5    1.74    0.10
   0   2   5    1.97    0.10
  -1  -2  -5  117.44    2.16
  -1  -2  -5  112.42    2.17
  -1  -2  -5  111.26    2.15
   1   2   5  116.30    2.18
   1   2   5  115.36    2.19
   1   2   5  115.62    2.19
  -2  -2  -5   28.01    0.56
  -2  -2  -5   26.10    0.59
  -2  -2  -5   26.64    0.55
  -2  -2  -5   28.23    0.54
   2   2   5   27.32    0.56
   2   2   5   27.65    0.59
   2   2   5   27.09    0.56
  -3  -2  -5   11.52    0.26
  -3  -2  -5   11.81    0.28
  -3  -2  -5   11.81    0.33
  -3  -2  -5   11.59    0.26
   3   2   5   11.60    0.32
   3   2   5   11.97    0.27
   3   2   5   11.70    0.26
   3   2   5   11.48    0.32
  -4  -2  -5    3.23    0.14
  -4  -2  -5    3.08    0.14
  -4  -2  -5    3.14    0.19
   4   2   5    3.34    0.11
   4   2   5    3.21    0.17
   4   2   5    2.68    0.20
  -5  -2  -5    6.90    0.24
  -5  -2  -5    6.83    0.29
  -5  -2  -5    6.83    0.23
   5   2   5    7.13    0.20
   5   2   5    7.27    0.27
  -6  -2  -5    1.81    0.21
  -6  -2  -5    1.75    0.16
  -6  -2  -5    1.96    0.16
   6   2   5    2.10    0.15
   6   2   5    1.76    0.20
  -7  -2  -5    1.92    0.19
  -7  -2  -5    2.06    0.26
   7   2   5    2.18    0.25
   7   2   5    2.01    0.21
   7  -3  -5    2.49    0.27
  -7   3   5    2.97    0.28
  -7   3   5    3.10    0.25
   6  -3  -5    1.10    0.17
   6  -3  -5    0.89    0.14
   6  -3  -5    0.74    0.13
  -6   3   5    0.88    0.16
  -6   3   5    0.89    0.13
   5  -3  -5    0.44    0.11
   5  -3  -5    0.46    0.10
   5  -3  -5    0.36    0.14
   5  -3  -5    0.27    0.11
  -5   3   5    0.51    0.12
  -5   3   5    0.49    0.11
   4  -3  -5    9.90    0.31
   4  -3  -5    9.86    0.31
   4  -3  -5    9.71    0.30
   4  -3  -5    9.78    0.30
  -4   3   5    9.35    0.30
  -4   3   5   10.04    0.31
  -4   3   5    9.54    0.29
   3  -3  -5    6.62    0.23
   3  -3  -5    6.23    0.22
   3  -3  -5    6.54    0.22
   3  -3  -5    6.49    0.20
  -3   3   5    6.50    0.22
  -3   3   5    6.70    0.23
  -3   3   5    6.32    0.22
   2  -3  -5   29.61    0.64
   2  -3  -5   29.54    0.59
   2  -3  -5   28.82    0.64
  -2   3   5   30.12    0.65
  -2   3   5   29.07    0.59
  -2   3   5   29.06    0.64
  -2   3   5   30.16    0.57
   1  -3  -5   45.99    0.84
   1  -3  -5   45.77    0.94
   1  -3  -5   45.21    0.93
  -1   3   5   45.71    0.94
  -1   3   5   46.46    0.85
  -1   3   5   45.54    0.94
  -1   3   5   47.33    0.89
   0  -3  -5   22.22    0.49
   0  -3  -5   22.76    0.43
   0  -3  -5   22.58    0.50
   0   3   5   22.33    0.48
   0   3   5   23.28    0.50
   0   3   5   22.45    0.49
  -1  -3  -5   23.40    0.50
  -1  -3  -5   23.16    0.50
   1   3   5   22.75    0.49
  -2  -3  -5    2.89    0.13
  -2  -3  -5    3.08    0.11
  -2  -3  -5    3.37    0.11
  -2  -3  -5    3.14    0.12
   2   3   5    2.92    0.11
  -3  -3  -5    1.88    0.10
  -3  -3  -5    1.90    0.13
  -3  -3  -5    1.94    0.09
  -3  -3  -5    1.85    0.09
  -3  -3  -5    1.86    0.08
   3   3   5    1.91    0.08
  -4  -3  -5    1.81    0.09
  -4  -3  -5    1.92    0.08
  -4  -3  -5    1.71    0.11
  -4  -3  -5    1.80    0.11
  -4  -3  -5    1.87    0.15
   4   3   5    1.85    0.09
   4   3   5    1.88    0.08
   4   3   5    1.93    0.08
  -5  -3  -5   31.19    0.76
  -5  -3  -5   30.94    0.66
  -5  -3  -5   30.90    0.65
   5   3   5   31.45    0.73
   5   3   5   33.13    0.62
  -6  -3  -5   10.50    0.32
  -6  -3  -5   10.40    0.40
   6   3   5   10.96    0.29
   6   3   5   10.27    0.36
  -7  -3  -5    3.66    0.22
  -7  -3  -5    3.62    0.30
   7   3   5    4.26    0.30
   7   3   5    3.70    0.22
   7  -4  -5    1.38    0.18
  -7   4   5    1.21    0.15
  -7   4   5    1.25    0.18
   6  -4  -5    3.80    0.30
   6  -4  -5    3.95    0.25
   6  -4  -5    3.56    0.22
  -6   4   5    3.81    0.25
  -6   4   5    2.67    0.20
  -6   4   5    4.00    0.25
   5  -4  -5    1.63    0.20
   5  -4  -5    1.32    0.18
   5  -4  -5    1.36    0.17
   5  -4  -5    1.40    0.16
  -5   4   5    1.28    0.15
  -5   4   5    1.31    0.18
   4  -4  -5    7.58    0.28
   4  -4  -5    8.09    0.27
   4  -4  -5    7.98    0.28
   4  -4  -5    7.99    0.28
  -4   4   5    7.81    0.28
  -4   4   5    7.98    0.28
  -4   4   5    7.83    0.26
   3  -4  -5    2.60    0.15
   3  -4  -5    2.80    0.16
   3  -4  -5    2.98    0.16
  -3   4   5    3.05    0.17
  -3   4   5    2.69    0.15
  -3   4   5    2.66    0.14
   2  -4  -5   15.46    0.39
   2  -4  -5   16.15    0.37
   2  -4  -5   15.59    0.40
  -2   4   5   15.36    0.39
  -2   4   5   16.18    0.36
  -2   4   5   16.22    0.40
  -2   4   5   16.13    0.33
   1  -4  -5    8.57    0.24
   1  -4  -5    8.61    0.25
  -1   4   5    8.73    0.21
  -1   4   5    8.46    0.24
   0  -4  -5   14.60    0.35
   0  -4  -5   14.41    0.34
   0   4   5   14.81    0.35
   0   4   5   15.15    0.36
  -1  -4  -5   30.22    0.62
  -1  -4  -5   28.46    0.61
   1   4   5   30.14    0.62
   1   4   5   28.92    0.61
  -2  -4  -5   56.01    0.96
  -2  -4  -5   54.91    1.02
  -2  -4  -5   56.17    1.09
  -2  -4  -5   54.93    1.08
   2   4   5   53.62    1.06
   2   4   5   54.69    1.07
  -3  -4  -5    4.96    0.15
  -3  -4  -5    5.14    0.20
  -3  -4  -5    4.89    0.15
  -3  -4  -5    4.87    0.13
  -3  -4  -5    4.79    0.15
   3   4   5    4.93    0.15
   3   4   5    5.06    0.11
   3   4   5    4.77    0.15
  -4  -4  -5    6.39    0.17
  -4  -4  -5    6.48    0.26
  -4  -4  -5    6.33    0.19
  -4  -4  -5    6.50    0.17
  -4  -4  -5    6.62    0.20
   4   4   5    6.39    0.18
   4   4   5    6.75    0.16
   4   4   5    6.40    0.17
  -5  -4  -5    8.66    0.26
  -5  -4  -5    9.15    0.27
  -5  -4  -5    9.18    0.34
   5   4   5    8.99    0.22
   5   4   5    9.22    0.23
  -6  -4  -5    4.50    0.29
  -6  -4  -5    4.51    0.21
   6   4   5    4.89    0.19
  -7  -4  -5    1.02    0.14
  -7  -4  -5    1.13    0.20
   7   4   5    1.11    0.13
   7   4   5    1.23    0.18
   6  -5  -5    1.07    0.19
   6  -5  -5    1.06    0.13
   6  -5  -5    1.15    0.16
  -6   5   5    1.24    0.16
  -6   5   5    0.76    0.16
  -6   5   5    0.92    0.12
   5  -5  -5    0.61    0.11
   5  -5  -5    0.60    0.12
   5  -5  -5    0.49    0.10
  -5   5   5    0.55    0.12
  -5   5   5    0.68    0.13
   4  -5  -5   18.99    0.50
   4  -5  -5   19.38    0.50
   4  -5  -5   18.81    0.47
  -4   5   5   19.32    0.50
  -4   5   5   19.32    0.49
   3  -5  -5    4.50    0.20
   3  -5  -5    4.23    0.18
   3  -5  -5    4.74    0.20
  -3   5   5    4.42    0.19
  -3   5   5    4.22    0.18
  -3   5   5    4.32    0.20
   2  -5  -5    0.41    0.07
   2  -5  -5    0.36    0.06
  -2   5   5    0.35    0.06
  -2   5   5    0.28    0.06
  -2   5   5    0.50    0.07
   1  -5  -5   10.97    0.29
  -1   5   5   10.73    0.29
  -1   5   5   11.34    0.30
   0  -5  -5   12.84    0.32
   0  -5  -5   12.41    0.31
   0   5   5   12.65    0.32
  -1  -5  -5   18.41    0.42
  -1  -5  -5   17.67    0.41
   1   5   5   17.54    0.40
   1   5   5   17.85    0.41
  -2  -5  -5    2.62    0.09
  -2  -5  -5    2.69    0.12
  -2  -5  -5    2.77    0.08
  -2  -5  -5    2.68    0.12
   2   5   5    2.77    0.12
   2   5   5    2.63    0.12
  -3  -5  -5   13.20    0.27
  -3  -5  -5   12.87    0.36
  -3  -5  -5   12.78    0.31
  -3  -5  -5   12.91    0.28
  -3  -5  -5   13.24    0.32
   3   5   5   12.89    0.31
   3   5   5   12.85    0.31
  -4  -5  -5    2.04    0.11
  -4  -5  -5    1.98    0.11
  -4  -5  -5    1.93    0.17
  -4  -5  -5    1.90    0.10
  -4  -5  -5    2.14    0.12
   4   5   5    2.30    0.09
   4   5   5    2.09    0.11
   4   5   5    2.35    0.12
  -5  -5  -5    3.15    0.13
  -5  -5  -5    3.27    0.23
  -5  -5  -5    3.25    0.16
  -5  -5  -5    2.95    0.13
  -5  -5  -5    2.94    0.15
   5   5   5    2.97    0.13
   5   5   5    3.24    0.14
   5   5   5    3.03    0.13
  -6  -5  -5    6.14    0.25
  -6  -5  -5    6.25    0.32
   6   5   5    6.08    0.21
  -7  -5  -5    2.48    0.29
   7   5   5    2.62    0.31
   7   5   5    2.57    0.21
   6  -6  -5    0.73    0.13
   6  -6  -5    0.55    0.15
   6  -6  -5    0.57    0.16
  -6   6   5    0.57    0.11
  -6   6   5    0.72    0.16
   5  -6  -5    0.81    0.13
   5  -6  -5    0.73    0.14
   5  -6  -5    0.82    0.11
  -5   6   5    0.98    0.14
  -5   6   5    0.85    0.15
   4  -6  -5    7.74    0.27
   4  -6  -5    7.78    0.29
  -4   6   5    7.81    0.29
  -4   6   5    7.93    0.29
  -4   6   5    7.49    0.26
   3  -6  -5    8.47    0.27
   3  -6  -5    8.51    0.28
  -3   6   5    8.92    0.28
  -3   6   5    8.73    0.27
   2  -6  -5    4.01    0.17
   2  -6  -5    4.07    0.18
  -2   6   5    4.38    0.19
  -2   6   5    4.12    0.16
  -2   6   5    4.04    0.17
   1  -6  -5   38.82    0.81
   1  -6  -5   38.98    0.83
  -1   6   5   37.98    0.81
  -1   6   5   39.13    0.82
   0  -6  -5    1.70    0.11
   0  -6  -5    1.99    0.12
   0   6   5    1.83    0.12
   0   6   5    1.62    0.11
  -1  -6  -5    8.13    0.24
  -1  -6  -5    8.42    0.25
   1   6   5    8.54    0.25
   1   6   5    8.28    0.24
  -2  -6  -5   50.35    1.02
  -2  -6  -5   49.88    1.02
  -2  -6  -5   52.04    0.90
   2   6   5   49.14    0.99
   2   6   5   49.77    1.00
  -3  -6  -5   12.43    0.27
  -3  -6  -5   12.60    0.27
  -3  -6  -5   12.43    0.31
  -3  -6  -5   12.89    0.32
   3   6   5   12.86    0.32
   3   6   5   12.32    0.31
  -4  -6  -5    4.02    0.15
  -4  -6  -5    4.22    0.16
  -4  -6  -5    4.30    0.22
  -4  -6  -5    4.30    0.17
   4   6   5    4.38    0.14
   4   6   5    4.21    0.16
   4   6   5    4.20    0.17
  -5  -6  -5   17.07    0.40
  -5  -6  -5   16.90    0.40
  -5  -6  -5   17.23    0.51
  -5  -6  -5   16.75    0.40
   5   6   5   16.97    0.40
   5   6   5   16.79    0.36
   5   6   5   16.17    0.39
  -6  -6  -5    1.40    0.14
  -6  -6  -5    1.43    0.13
  -6  -6  -5    1.89    0.24
  -6  -6  -5    1.44    0.13
   6   6   5    1.40    0.14
   6   6   5    1.20    0.14
   6   6   5    1.38    0.13
  -7  -6  -5    0.10    0.17
   7   6   5   -0.17    0.11
   6  -7  -5   11.87    0.39
   6  -7  -5   12.14    0.44
   6  -7  -5   11.40    0.47
  -6   7   5   12.09    0.45
  -6   7   5   11.20    0.37
  -6   7   5   11.66    0.42
   5  -7  -5    6.83    0.28
   5  -7  -5    6.56    0.31
   5  -7  -5    6.79    0.32
  -5   7   5    7.45    0.32
  -5   7   5    6.84    0.31
   4  -7  -5    0.22    0.10
   4  -7  -5    0.15    0.08
  -4   7   5    0.11    0.09
  -4   7   5    0.11    0.09
   3  -7  -5   10.20    0.31
   3  -7  -5   10.45    0.33
  -3   7   5   10.41    0.31
  -3   7   5   10.00    0.22
  -3   7   5   10.55    0.33
   2  -7  -5    1.29    0.14
   2  -7  -5    1.22    0.12
  -2   7   5    1.23    0.11
  -2   7   5    1.00    0.13
  -2   7   5    1.22    0.11
   1  -7  -5    0.14    0.07
   1  -7  -5    0.15    0.06
   1  -7  -5    0.09    0.05
  -1   7   5    0.10    0.06
  -1   7   5    0.14    0.05
   0  -7  -5    9.28    0.20
   0  -7  -5    9.39    0.27
   0  -7  -5    9.68    0.28
   0   7   5    9.53    0.28
   0   7   5    9.88    0.29
  -1  -7  -5   11.00    0.30
  -1  -7  -5   11.32    0.24
  -1  -7  -5   11.07    0.31
   1   7   5   11.04    0.30
   1   7   5   10.89    0.30
  -2  -7  -5    7.76    0.19
  -2  -7  -5    7.44    0.23
  -2  -7  -5    7.79    0.24
   2   7   5    7.52    0.23
   2   7   5    7.25    0.23
  -3  -7  -5    1.55    0.10
  -3  -7  -5    1.45    0.11
  -3  -7  -5    1.78    0.13
   3   7   5    1.38    0.12
   3   7   5    1.51    0.12
  -4  -7  -5    2.91    0.15
  -4  -7  -5    3.46    0.17
  -4  -7  -5    3.12    0.15
  -4  -7  -5    3.09    0.21
   4   7   5    3.06    0.16
   4   7   5    3.20    0.13
   4   7   5    3.25    0.17
  -5  -7  -5    9.17    0.28
  -5  -7  -5    9.18    0.28
  -5  -7  -5    8.97    0.27
  -5  -7  -5    9.18    0.37
   5   7   5    9.44    0.24
   5   7   5    8.55    0.27
  -6  -7  -5    0.40    0.13
  -6  -7  -5    0.25    0.14
   6   7   5    0.20    0.09
   6   7   5    0.31    0.09
   6   7   5    0.29    0.09
  -7  -7  -5    2.75    0.34
   7   7   5    2.40    0.20
   7   7   5    2.60    0.23
   7   7   5    1.66    0.19
   6  -8  -5    0.13    0.14
   6  -8  -5   -0.04    0.18
   6  -8  -5    0.04    0.15
  -6   8   5    0.03    0.13
  -6   8   5    0.26    0.16
  -6   8   5    0.20    0.18
   5  -8  -5    5.55    0.30
   5  -8  -5    4.92    0.26
   5  -8  -5    5.29    0.31
  -5   8   5    5.18    0.31
  -5   8   5    5.29    0.26
  -5   8   5    4.94    0.28
   4  -8  -5   19.44    0.53
   4  -8  -5   19.61    0.50
  -4   8   5   19.17    0.52
  -4   8   5   20.57    0.54
   3  -8  -5   14.86    0.45
   3  -8  -5   15.63    0.42
  -3   8   5   15.04    0.42
  -3   8   5   14.79    0.32
  -3   8   5   14.56    0.40
   2  -8  -5    2.85    0.18
   2  -8  -5    2.35    0.17
  -2   8   5    2.41    0.16
  -2   8   5    2.53    0.17
  -2   8   5    2.50    0.15
  -2   8   5    2.37    0.11
   1  -8  -5    6.00    0.22
   1  -8  -5    6.06    0.23
   1  -8  -5    5.54    0.19
  -1   8   5    6.14    0.24
  -1   8   5    5.81    0.22
   0  -8  -5   18.54    0.46
   0  -8  -5   18.34    0.45
   0   8   5   18.60    0.46
   0   8   5   18.16    0.45
  -1  -8  -5    2.21    0.15
  -1  -8  -5    2.19    0.14
  -1  -8  -5    1.96    0.10
   1   8   5    2.32    0.15
   1   8   5    1.98    0.14
  -2  -8  -5   13.48    0.30
  -2  -8  -5   13.81    0.37
  -2  -8  -5   13.41    0.36
   2   8   5   13.42    0.36
   2   8   5   13.05    0.35
  -3  -8  -5   30.39    0.68
  -3  -8  -5   30.60    0.60
   3   8   5   30.38    0.68
   3   8   5   29.90    0.67
  -4  -8  -5   13.57    0.37
  -4  -8  -5   13.00    0.33
  -4  -8  -5   12.92    0.36
  -4  -8  -5   13.56    0.42
   4   8   5   13.01    0.38
   4   8   5   13.03    0.36
  -5  -8  -5    9.62    0.39
  -5  -8  -5    8.97    0.30
  -5  -8  -5    9.89    0.31
   5   8   5    8.79    0.30
   5   8   5    9.44    0.31
   5   8   5    9.97    0.27
  -6  -8  -5    1.28    0.14
  -6  -8  -5    1.48    0.20
  -6  -8  -5    1.25    0.16
  -6  -8  -5    1.25    0.15
   6   8   5    1.26    0.14
   6   8   5    1.18    0.14
   6  -9  -5    1.59    0.23
  -6   9   5    1.54    0.25
  -6   9   5    2.01    0.27
  -6   9   5    2.00    0.24
   5  -9  -5    0.87    0.17
   5  -9  -5    0.72    0.14
  -5   9   5    0.76    0.13
  -5   9   5    1.10    0.18
   4  -9  -5    2.47    0.24
   4  -9  -5    2.28    0.21
  -4   9   5    2.64    0.23
  -4   9   5    1.83    0.18
  -4   9   5    2.23    0.20
  -4   9   5    2.04    0.12
   3  -9  -5    6.29    0.27
   3  -9  -5    6.62    0.28
  -3   9   5    6.24    0.25
  -3   9   5    6.57    0.28
  -3   9   5    6.37    0.19
   2  -9  -5   11.17    0.34
  -2   9   5   11.63    0.36
  -2   9   5   11.30    0.28
  -2   9   5   11.16    0.32
   1  -9  -5    3.01    0.19
   1  -9  -5    2.75    0.15
   1  -9  -5    2.78    0.18
  -1   9   5    2.99    0.17
  -1   9   5    3.04    0.20
   0  -9  -5   20.53    0.51
   0  -9  -5   20.10    0.51
   0   9   5   20.30    0.51
   0   9   5   21.19    0.53
  -1  -9  -5    1.87    0.11
  -1  -9  -5    1.97    0.15
  -1  -9  -5    1.78    0.16
   1   9   5    1.95    0.15
   1   9   5    1.69    0.15
  -2  -9  -5    9.86    0.31
  -2  -9  -5    9.60    0.25
   2   9   5   10.26    0.32
   2   9   5    9.93    0.31
  -3  -9  -5    9.43    0.26
  -3  -9  -5    9.57    0.32
   3   9   5    9.44    0.31
   3   9   5    9.41    0.31
  -4  -9  -5    0.63    0.10
  -4  -9  -5    0.65    0.12
  -4  -9  -5    0.67    0.12
   4   9   5    0.61    0.11
   4   9   5    0.64    0.11
  -5  -9  -5    0.59    0.15
  -5  -9  -5    0.61    0.12
  -5  -9  -5    0.80    0.12
  -5  -9  -5    0.54    0.13
   5   9   5    0.63    0.13
   5   9   5    0.55    0.12
  -6  -9  -5    3.77    0.33
  -6  -9  -5    3.15    0.27
  -6  -9  -5    3.10    0.25
   6   9   5    3.73    0.28
   6   9   5    3.78    0.27
   6   9   5    3.69    0.24
   5 -10  -5    0.98    0.19
   5 -10  -5    0.97    0.17
  -5  10   5    1.27    0.17
  -5  10   5    0.94    0.18
   4 -10  -5    0.21    0.12
   4 -10  -5    0.24    0.13
  -4  10   5    0.21    0.07
  -4  10   5    0.34    0.12
  -4  10   5    0.27    0.11
  -4  10   5    0.22    0.13
   3 -10  -5    8.90    0.35
   3 -10  -5    9.00    0.33
  -3  10   5    8.47    0.24
  -3  10   5    8.73    0.34
  -3  10   5    8.54    0.30
   2 -10  -5    1.08    0.14
   2 -10  -5    1.54    0.17
  -2  10   5    1.25    0.11
  -2  10   5    1.14    0.14
   1 -10  -5   11.26    0.35
   1 -10  -5   10.33    0.27
  -1  10   5   11.57    0.30
  -1  10   5   11.83    0.36
  -1  10   5   11.56    0.38
   0 -10  -5   33.44    0.77
   0  10   5   33.58    0.78
  -1 -10  -5    4.24    0.21
  -1 -10  -5    3.79    0.16
  -1 -10  -5    3.93    0.22
   1  10   5    3.65    0.20
  -2 -10  -5    1.13    0.12
  -2 -10  -5    1.21    0.14
   2  10   5    1.19    0.16
   2  10   5    1.30    0.16
  -3 -10  -5    1.15    0.13
  -3 -10  -5    1.36    0.13
   3  10   5    1.09    0.13
   3  10   5    1.29    0.15
  -4 -10  -5    0.54    0.13
  -4 -10  -5    0.54    0.10
  -4 -10  -5    0.55    0.11
   4  10   5    0.42    0.12
   4  10   5    0.53    0.12
  -5 -10  -5    1.56    0.20
  -5 -10  -5    1.37    0.17
  -5 -10  -5    1.77    0.23
   5  10   5    1.13    0.16
   5  10   5    1.17    0.16
  -6 -10  -5    3.48    0.34
  -6 -10  -5    2.77    0.30
  -6 -10  -5    2.58    0.33
   6  10   5    3.52    0.32
   5 -11  -5    3.44    0.38
   5 -11  -5    3.83    0.34
  -5  11   5    4.32    0.30
  -5  11   5    4.25    0.38
   4 -11  -5    1.77    0.20
   4 -11  -5    2.29    0.27
  -4  11   5    1.87    0.19
  -4  11   5    1.95    0.17
  -4  11   5    1.50    0.18
   3 -11  -5    0.30    0.13
  -3  11   5    0.75    0.15
  -3  11   5    0.53    0.11
  -3  11   5    0.53    0.09
   2 -11  -5    0.62    0.13
   2 -11  -5    0.75    0.14
  -2  11   5    0.65    0.09
  -2  11   5    0.31    0.10
  -2  11   5    0.64    0.13
   1 -11  -5    4.80    0.25
   1 -11  -5    4.05    0.25
  -1  11   5    4.26    0.24
  -1  11   5    4.31    0.20
   0 -11  -5    5.83    0.21
   0 -11  -5    5.75    0.27
   0 -11  -5    5.70    0.27
   0  11   5    5.88    0.27
   0  11   5    5.52    0.26
   0  11   5    5.76    0.21
  -1 -11  -5   24.32    0.61
  -1 -11  -5   23.45    0.65
  -1 -11  -5   24.01    0.52
   1  11   5   25.20    0.64
   1  11   5   24.20    0.62
  -2 -11  -5    2.44    0.16
  -2 -11  -5    2.26    0.22
   2  11   5    2.18    0.21
  -3 -11  -5    3.97    0.21
  -3 -11  -5    3.77    0.27
   3  11   5    3.90    0.26
   3  11   5    3.52    0.24
  -4 -11  -5    1.97    0.23
  -4 -11  -5    2.35    0.27
   4  11   5    2.27    0.24
   4  11   5    1.56    0.17
  -5 -11  -5    0.14    0.17
  -5 -11  -5    0.24    0.17
  -5 -11  -5    0.35    0.15
  -5 -11  -5    0.31    0.15
   5  11   5    0.18    0.17
   5  11   5    0.39    0.15
   4 -12  -5    2.31    0.25
   4 -12  -5    2.86    0.32
  -4  12   5    1.65    0.21
  -4  12   5    1.96    0.24
  -4  12   5    2.45    0.21
   3 -12  -5    1.13    0.18
   3 -12  -5    0.88    0.16
  -3  12   5    0.73    0.15
  -3  12   5    1.19    0.19
   2 -12  -5    0.50    0.14
   2 -12  -5    0.34    0.13
  -2  12   5    0.30    0.10
  -2  12   5    0.28    0.13
  -2  12   5    0.38    0.16
   1 -12  -5    0.92    0.15
   1 -12  -5    1.22    0.15
  -1  12   5    1.02    0.14
  -1  12   5    1.06    0.17
   0 -12  -5    0.66    0.13
   0 -12  -5    1.05    0.15
   0  12   5    0.99    0.15
   0  12   5    0.77    0.13
  -1 -12  -5    2.42    0.23
  -1 -12  -5    2.55    0.25
   1  12   5    1.85    0.17
   1  12   5    2.88    0.25
   1  12   5    2.54    0.23
  -2 -12  -5    1.68    0.19
  -2 -12  -5    1.20    0.14
   2  12   5    1.95    0.23
   2  12   5    1.24    0.15
  -3 -12  -5    4.57    0.24
  -3 -12  -5    4.39    0.28
   3  12   5    5.04    0.31
   3  12   5    4.95    0.32
  -4 -12  -5    3.91    0.35
  -4 -12  -5    3.70    0.27
  -4 -12  -5    2.64    0.29
   4  12   5    3.36    0.33
   4  12   5    3.74    0.31
   3 -13  -5    0.45    0.18
   3 -13  -5    0.64    0.19
  -3  13   5    0.40    0.13
  -3  13   5    0.55    0.20
   2 -13  -5    0.97    0.18
   2 -13  -5    0.87    0.18
  -2  13   5    0.74    0.14
  -2  13   5    0.81    0.20
  -2  13   5    0.53    0.12
   1 -13  -5    2.48    0.22
   1 -13  -5    2.66    0.30
   1 -13  -5    2.95    0.29
  -1  13   5    2.40    0.31
  -1  13   5    3.02    0.21
  -1  13   5    3.16    0.28
   0 -13  -5    0.77    0.16
   0 -13  -5    0.86    0.12
   0 -13  -5    0.92    0.17
   0  13   5    0.74    0.15
   0  13   5    1.02    0.13
   0  13   5    0.79    0.17
  -1 -13  -5    1.52    0.18
  -1 -13  -5    1.72    0.20
  -1 -13  -5    1.50    0.18
   1  13   5    1.37    0.19
   1  13   5    1.14    0.19
   1  13   5    1.61    0.20
  -2 -13  -5    0.29    0.11
  -2 -13  -5    0.35    0.17
  -2 -13  -5    0.04    0.13
   2  13   5    0.17    0.11
   2  13   5    0.45    0.18
   2  13   5    0.58    0.15
  -3 -13  -5    2.11    0.24
  -3 -13  -5    2.13    0.30
  -3 -13  -5    2.09    0.24
   3  13   5    1.79    0.22
   3  13   5    1.32    0.16
   3  13   5    1.79    0.21
   2 -14  -5    6.48    0.43
  -2  14   5    7.36    0.49
  -2  14   5    7.62    0.33
  -2  14   5    6.92    0.33
   1 -14  -5    3.66    0.27
   1 -14  -5    2.97    0.28
   1 -14  -5    3.49    0.35
  -1  14   5    3.74    0.39
  -1  14   5    3.82    0.34
  -1  14   5    3.30    0.27
   0 -14  -5    3.71    0.27
   0 -14  -5    4.12    0.37
   0 -14  -5    3.11    0.33
   0  14   5    3.67    0.27
   0  14   5    3.58    0.35
   0  14   5    4.11    0.38
  -1 -14  -5    7.16    0.43
  -1 -14  -5    6.40    0.31
  -1 -14  -5    6.23    0.38
   1  14   5    7.50    0.44
   1  14   5    7.79    0.44
   1  14   5    7.30    0.34
  -2 -14  -5    2.92    0.39
  -2 -14  -5    2.22    0.26
   2  14   5    2.03    0.24
   2  14   5    2.73    0.37
   0  10  -6    1.97    0.25
   0  10  -6    2.28    0.22
   0 -10   6    2.86    0.36
   0 -10   6    2.00    0.27
  -1  10  -6    1.48    0.17
  -1  10  -6    1.50    0.23
   1 -10   6    1.59    0.19
   1 -10   6    1.86    0.27
  -2  10  -6    0.24    0.20
  -2  10  -6    0.46    0.14
  -2  10  -6    0.10    0.15
   2 -10   6    0.36    0.22
   2 -10   6    0.14    0.15
   2   9  -6    0.62    0.20
   2   9  -6    0.52    0.25
   2   9  -6    1.19    0.22
  -2  -9   6    0.75    0.20
  -2  -9   6    0.75    0.23
   1   9  -6    4.95    0.42
   1   9  -6    4.84    0.35
   1   9  -6    5.32    0.38
  -1  -9   6    4.78    0.36
  -1  -9   6    5.60    0.40
  -1  -9   6    4.75    0.31
   0   9  -6    2.92    0.34
   0   9  -6    2.51    0.32
   0   9  -6    2.85    0.21
   0   9  -6    3.04    0.29
   0  -9   6    2.27    0.30
   0  -9   6    2.98    0.35
   0  -9   6    3.11    0.26
  -1   9  -6    0.19    0.16
  -1   9  -6    0.25    0.16
  -1   9  -6    0.16    0.11
  -1   9  -6    0.33    0.16
   1  -9   6    0.19    0.15
   1  -9   6    0.28    0.14
   1  -9   6    0.49    0.11
   1  -9   6    0.28    0.12
  -2   9  -6    2.42    0.20
  -2   9  -6    2.42    0.25
  -2   9  -6    2.35    0.31
  -2   9  -6    1.91    0.21
  -2   9  -6    2.14    0.22
   2  -9   6    2.39    0.27
   2  -9   6    2.40    0.32
   2  -9   6    2.35    0.22
   2  -9   6    2.67    0.24
  -3   9  -6    6.05    0.27
  -3   9  -6    6.10    0.37
  -3   9  -6    5.79    0.42
  -3   9  -6    5.35    0.37
  -3   9  -6    6.07    0.31
   3  -9   6    5.82    0.30
   3  -9   6    5.50    0.31
   3  -9   6    5.07    0.33
  -4   9  -6    2.20    0.28
  -4   9  -6    2.56    0.25
  -4   9  -6    2.61    0.26
  -4   9  -6    2.85    0.27
   4  -9   6    2.23    0.28
   4  -9   6    2.60    0.29
   4  -9   6    2.38    0.27
   3   8  -6    0.36    0.26
   3   8  -6    0.52    0.18
   3   8  -6    0.19    0.13
   3   8  -6    0.39    0.17
  -3  -8   6    0.26    0.22
  -3  -8   6    0.45    0.19
   2   8  -6    3.41    0.32
   2   8  -6    2.83    0.36
   2   8  -6    2.98    0.24
   2   8  -6    2.33    0.22
  -2  -8   6    2.82    0.30
  -2  -8   6    2.92    0.28
  -2  -8   6    2.52    0.35
   1   8  -6    3.32    0.32
   1   8  -6    3.41    0.30
   1   8  -6    3.13    0.27
  -1  -8   6    3.02    0.24
  -1  -8   6    3.28    0.29
  -1  -8   6    3.57    0.32
   0   8  -6    0.69    0.14
   0   8  -6    0.63    0.14
   0   8  -6    0.53    0.13
   0  -8   6    0.36    0.14
   0  -8   6    0.69    0.11
   0  -8   6    0.41    0.13
   0  -8   6    0.83    0.13
  -1   8  -6    4.36    0.30
  -1   8  -6    5.32    0.31
  -1   8  -6    5.42    0.25
   1  -8   6    5.54    0.33
   1  -8   6    5.21    0.28
   1  -8   6    5.02    0.25
   1  -8   6    5.56    0.24
  -2   8  -6    5.43    0.22
  -2   8  -6    4.53    0.32
  -2   8  -6    4.94    0.29
  -2   8  -6    5.16    0.26
   2  -8   6    5.38    0.34
   2  -8   6    5.41    0.28
   2  -8   6    5.22    0.25
   2  -8   6    4.74    0.25
  -3   8  -6    1.80    0.25
  -3   8  -6    1.50    0.19
  -3   8  -6    1.48    0.21
  -3   8  -6    1.96    0.21
  -3   8  -6    1.82    0.19
   3  -8   6    1.55    0.20
   3  -8   6    2.14    0.28
   3  -8   6    2.15    0.23
   3  -8   6    1.68    0.21
  -4   8  -6    3.02    0.25
  -4   8  -6    2.61    0.34
  -4   8  -6    3.14    0.32
  -4   8  -6    3.13    0.28
  -4   8  -6    2.87    0.24
   4  -8   6    3.04    0.25
   4  -8   6    2.89    0.31
   4  -8   6    2.55    0.24
   4  -8   6    3.15    0.25
  -5   8  -6    5.11    0.30
   4   7  -6    5.10    0.36
   4   7  -6    4.23    0.33
   4   7  -6    5.17    0.45
   4   7  -6    4.06    0.48
  -4  -7   6    5.20    0.40
   3   7  -6    2.34    0.27
   3   7  -6    2.29    0.26
   3   7  -6    2.85    0.31
   3   7  -6    2.15    0.22
  -3  -7   6    2.35    0.27
  -3  -7   6    2.62    0.32
  -3  -7   6    2.13    0.23
   2   7  -6   11.43    0.43
   2   7  -6   10.50    0.46
   2   7  -6   10.19    0.39
   2   7  -6   10.74    0.34
  -2  -7   6   10.64    0.38
  -2  -7   6   10.56    0.41
  -2  -7   6   10.36    0.44
   1   7  -6    3.02    0.28
   1   7  -6    2.71    0.23
   1   7  -6    3.19    0.26
  -1  -7   6    2.82    0.18
  -1  -7   6    2.73    0.27
  -1  -7   6    2.16    0.23
  -1  -7   6    2.66    0.20
   0   7  -6    0.48    0.11
   0   7  -6    0.79    0.13
   0   7  -6    0.59    0.14
   0  -7   6    0.53    0.09
   0  -7   6    0.59    0.13
   0  -7   6    0.59    0.10
   0  -7   6    0.47    0.12
  -1   7  -6    1.72    0.16
  -1   7  -6    1.86    0.21
   1  -7   6    2.24    0.20
   1  -7   6    1.61    0.15
   1  -7   6    1.39    0.16
   1  -7   6    2.28    0.23
  -2   7  -6    7.21    0.31
  -2   7  -6    7.04    0.28
  -2   7  -6    7.50    0.23
   2  -7   6    7.39    0.27
   2  -7   6    7.06    0.25
   2  -7   6    7.36    0.33
   2  -7   6    7.14    0.29
  -3   7  -6    0.96    0.14
  -3   7  -6    1.30    0.17
  -3   7  -6    1.02    0.14
  -3   7  -6    1.19    0.13
  -3   7  -6    1.03    0.17
   3  -7   6    0.92    0.11
   3  -7   6    0.95    0.14
   3  -7   6    1.14    0.13
   3  -7   6    0.99    0.13
  -4   7  -6    6.29    0.29
  -4   7  -6    5.45    0.34
  -4   7  -6    5.44    0.25
  -4   7  -6    5.16    0.27
  -4   7  -6    5.95    0.32
   4  -7   6    5.59    0.27
   4  -7   6    5.62    0.27
   4  -7   6    5.66    0.31
   4  -7   6    5.50    0.24
  -5   7  -6    1.35    0.23
  -5   7  -6    1.60    0.19
  -5   7  -6    1.45    0.19
  -5   7  -6    1.48    0.16
  -5   7  -6    1.71    0.18
   5  -7   6    1.33    0.15
   5  -7   6    1.47    0.15
   5  -7   6    1.27    0.16
   5  -7   6    1.50    0.18
   4   6  -6    4.00    0.34
   4   6  -6    3.01    0.25
   4   6  -6    3.30    0.38
   4   6  -6    3.05    0.28
  -4  -6   6    3.04    0.34
  -4  -6   6    3.45    0.31
  -4  -6   6    2.99    0.32
   3   6  -6    4.30    0.34
   3   6  -6    4.62    0.23
   3   6  -6    4.95    0.27
   3   6  -6    4.47    0.31
  -3  -6   6    4.60    0.27
  -3  -6   6    4.23    0.31
  -3  -6   6    4.44    0.28
   2   6  -6    9.46    0.40
   2   6  -6    9.66    0.30
   2   6  -6   10.49    0.39
   2   6  -6    9.86    0.35
  -2  -6   6   10.26    0.35
  -2  -6   6    9.65    0.40
  -2  -6   6   10.09    0.37
   1   6  -6   12.17    0.38
   1   6  -6   12.16    0.43
   1   6  -6   12.11    0.33
   1   6  -6   12.43    0.41
  -1  -6   6   11.62    0.35
  -1  -6   6   12.01    0.42
  -1  -6   6   12.29    0.39
  -1  -6   6   12.29    0.34
   0   6  -6   16.31    0.49
   0   6  -6   16.62    0.46
   0   6  -6   16.40    0.47
   0  -6   6   16.73    0.47
   0  -6   6   16.74    0.42
   0  -6   6   16.91    0.43
  -1   6  -6    4.82    0.24
   1  -6   6    4.42    0.20
   1  -6   6    4.26    0.19
   1  -6   6    4.57    0.25
   1  -6   6    4.14    0.22
   1  -6   6    4.10    0.25
  -2   6  -6   30.51    0.71
  -2   6  -6   31.19    0.59
  -2   6  -6   30.13    0.69
   2  -6   6   30.37    0.68
   2  -6   6   30.79    0.71
   2  -6   6   30.07    0.73
  -3   6  -6    0.29    0.10
  -3   6  -6   -0.10    0.10
  -3   6  -6   -0.03    0.09
  -3   6  -6    0.19    0.10
  -3   6  -6    0.20    0.10
   3  -6   6    0.20    0.10
   3  -6   6    0.16    0.08
   3  -6   6    0.15    0.08
   3  -6   6    0.07    0.08
  -4   6  -6    0.88    0.12
  -4   6  -6    1.16    0.14
  -4   6  -6    0.80    0.14
   4  -6   6    0.98    0.14
   4  -6   6    0.88    0.12
   4  -6   6    0.83    0.10
   4  -6   6    0.85    0.12
  -5   6  -6    7.52    0.31
  -5   6  -6    7.18    0.29
  -5   6  -6    7.76    0.33
  -5   6  -6    7.52    0.28
  -5   6  -6    7.17    0.40
   5  -6   6    7.64    0.27
   5  -6   6    7.06    0.30
   5  -6   6    7.38    0.31
  -6   6  -6    2.09    0.27
  -6   6  -6    2.76    0.25
  -6   6  -6    2.48    0.23
  -6   6  -6    2.90    0.25
   6  -6   6    2.46    0.19
   6  -6   6    1.95    0.26
   5   5  -6    5.08    0.39
   5   5  -6    5.16    0.33
   5   5  -6    5.52    0.32
   5   5  -6    4.46    0.43
  -5  -5   6    4.85    0.25
  -5  -5   6    5.45    0.43
   4   5  -6    4.36    0.31
   4   5  -6    4.30    0.25
   4   5  -6    5.05    0.27
   4   5  -6    4.36    0.35
  -4  -5   6    3.53    0.30
  -4  -5   6    4.90    0.22
  -4  -5   6    4.52    0.31
   3   5  -6    2.38    0.23
   3   5  -6    2.23    0.20
   3   5  -6    1.75    0.17
   3   5  -6    2.08    0.27
  -3  -5   6    2.06    0.19
  -3  -5   6    1.34    0.16
  -3  -5   6    2.01    0.22
   2   5  -6    9.12    0.34
   2   5  -6    8.83    0.31
   2   5  -6    8.77    0.37
   2   5  -6    8.80    0.27
  -2  -5   6    8.97    0.30
  -2  -5   6    9.33    0.34
  -2  -5   6    8.75    0.35
   1   5  -6   11.19    0.40
   1   5  -6   11.21    0.30
   1   5  -6   11.01    0.34
   1   5  -6   11.57    0.38
  -1  -5   6   11.53    0.33
  -1  -5   6   11.75    0.37
  -1  -5   6   11.26    0.32
   0   5  -6    5.75    0.24
   0   5  -6    6.00    0.28
   0   5  -6    5.89    0.26
   0  -5   6    6.06    0.21
   0  -5   6    6.17    0.22
   0  -5   6    6.16    0.25
   0  -5   6    6.02    0.21
   0  -5   6    5.81    0.27
  -1   5  -6   13.59    0.39
   1  -5   6   13.17    0.35
   1  -5   6   13.02    0.40
   1  -5   6   13.00    0.32
   1  -5   6   12.84    0.37
   1  -5   6   13.20    0.38
  -2   5  -6   35.09    0.65
  -2   5  -6   35.42    0.80
  -2   5  -6   35.03    0.77
  -2   5  -6   34.17    0.75
  -2   5  -6   34.90    0.79
   2  -5   6   34.01    0.80
   2  -5   6   35.42    0.68
   2  -5   6   34.33    0.79
  -3   5  -6    9.28    0.35
  -3   5  -6    9.41    0.29
  -3   5  -6    9.41    0.31
  -3   5  -6    9.58    0.32
  -3   5  -6    9.17    0.24
   3  -5   6    9.25    0.29
   3  -5   6    9.11    0.25
   3  -5   6    8.33    0.28
   3  -5   6    9.24    0.31
  -4   5  -6    1.15    0.12
  -4   5  -6    1.06    0.14
  -4   5  -6    0.86    0.14
   4  -5   6    1.08    0.12
   4  -5   6    1.19    0.14
   4  -5   6    1.20    0.13
   4  -5   6    0.98    0.12
  -5   5  -6    3.12    0.22
  -5   5  -6    2.86    0.20
  -5   5  -6    3.03    0.18
   5  -5   6    3.01    0.22
   5  -5   6    3.04    0.20
   5  -5   6    2.45    0.17
  -6   5  -6    0.24    0.13
  -6   5  -6    0.07    0.12
   6  -5   6    0.18    0.10
   6  -5   6    0.14    0.13
   5   4  -6    3.94    0.31
   5   4  -6    3.40    0.29
   5   4  -6    3.63    0.36
   5   4  -6    3.17    0.25
  -5  -4   6    3.58    0.22
  -5  -4   6    3.53    0.33
  -5  -4   6    3.47    0.31
  -5  -4   6    3.29    0.33
   4   4  -6   16.60    0.50
   4   4  -6   16.32    0.53
   4   4  -6   16.53    0.45
  -4  -4   6   15.24    0.48
  -4  -4   6   16.53    0.42
  -4  -4   6   17.13    0.50
   3   4  -6    7.95    0.32
   3   4  -6    8.36    0.29
   3   4  -6    7.98    0.35
  -3  -4   6    8.37    0.25
  -3  -4   6    8.66    0.33
  -3  -4   6    8.45    0.31
   2   4  -6    2.61    0.17
   2   4  -6    2.35    0.15
   2   4  -6    2.61    0.21
  -2  -4   6    2.54    0.20
  -2  -4   6    2.59    0.19
  -2  -4   6    2.40    0.17
  -2  -4   6    2.69    0.14
   1   4  -6    9.86    0.33
   1   4  -6   10.09    0.31
   1   4  -6   10.36    0.27
   1   4  -6   10.35    0.35
  -1  -4   6   10.71    0.35
  -1  -4   6   10.57    0.25
  -1  -4   6   10.79    0.34
  -1  -4   6   10.54    0.29
  -1  -4   6   10.61    0.30
   0   4  -6   12.05    0.35
   0   4  -6   12.06    0.37
   0   4  -6   12.38    0.29
   0   4  -6   12.24    0.36
   0  -4   6   12.32    0.37
   0  -4   6   12.20    0.35
   0  -4   6   12.03    0.31
   0  -4   6   12.26    0.32
   0  -4   6   12.35    0.31
  -1   4  -6   19.32    0.50
  -1   4  -6   19.70    0.49
  -1   4  -6   19.21    0.49
   1  -4   6   18.93    0.41
   1  -4   6   18.69    0.49
   1  -4   6   19.05    0.46
   1  -4   6   19.08    0.47
   1  -4   6   19.24    0.45
  -2   4  -6   36.21    0.80
  -2   4  -6   37.14    0.79
  -2   4  -6   35.67    0.76
  -2   4  -6   37.00    0.66
  -2   4  -6   36.20    0.81
   2  -4   6   36.79    0.70
   2  -4   6   36.05    0.81
   2  -4   6   37.05    0.78
   2  -4   6   35.83    0.77
   2  -4   6   35.91    0.81
  -3   4  -6   24.37    0.58
  -3   4  -6   25.41    0.56
  -3   4  -6   24.30    0.60
   3  -4   6   24.74    0.59
   3  -4   6   25.11    0.58
   3  -4   6   25.22    0.56
   3  -4   6   24.66    0.50
  -4   4  -6   10.20    0.33
  -4   4  -6    9.56    0.35
  -4   4  -6   10.34    0.28
  -4   4  -6   10.17    0.28
   4  -4   6   10.21    0.31
   4  -4   6   10.43    0.28
  -5   4  -6   12.66    0.40
  -5   4  -6   12.48    0.34
  -5   4  -6   11.80    0.30
   5  -4   6   12.32    0.31
   5  -4   6   12.55    0.37
  -6   4  -6    1.70    0.20
   6  -4   6    1.56    0.21
  -7   4  -6    0.54    0.15
   7  -4   6    0.49    0.16
   6   3  -6    3.67    0.44
   6   3  -6    4.07    0.36
   6   3  -6    3.77    0.28
  -6  -3   6    3.44    0.35
  -6  -3   6    3.90    0.26
   5   3  -6    1.25    0.17
   5   3  -6    1.08    0.17
   5   3  -6    1.07    0.20
   5   3  -6    1.07    0.13
  -5  -3   6    0.94    0.17
  -5  -3   6    1.06    0.16
  -5  -3   6    1.07    0.13
  -5  -3   6    0.84    0.18
   4   3  -6    3.25    0.19
   4   3  -6    3.66    0.24
   4   3  -6    3.52    0.27
   4   3  -6    3.72    0.22
  -4  -3   6    3.71    0.19
  -4  -3   6    3.62    0.25
  -4  -3   6    3.67    0.25
   3   3  -6    3.83    0.25
   3   3  -6    4.11    0.19
   3   3  -6    4.13    0.23
   3   3  -6    4.04    0.18
  -3  -3   6    4.01    0.22
  -3  -3   6    3.96    0.18
  -3  -3   6    4.12    0.24
   2   3  -6   44.54    0.86
   2   3  -6   44.78    0.92
   2   3  -6   45.01    0.98
   2   3  -6   43.98    0.98
  -2  -3   6   44.77    0.91
  -2  -3   6   46.39    0.99
  -2  -3   6   46.37    0.85
  -2  -3   6   45.10    0.91
  -2  -3   6   44.97    1.01
   1   3  -6    2.39    0.17
   1   3  -6    2.14    0.14
   1   3  -6    2.15    0.17
   1   3  -6    2.34    0.12
  -1  -3   6    2.44    0.14
  -1  -3   6    2.41    0.12
  -1  -3   6    2.32    0.17
  -1  -3   6    2.44    0.16
   0   3  -6    2.97    0.17
   0   3  -6    2.66    0.16
   0   3  -6    2.90    0.11
   0   3  -6    3.03    0.16
   0  -3   6    2.72    0.13
   0  -3   6    2.84    0.13
   0  -3   6    2.73    0.17
   0  -3   6    2.82    0.16
  -1   3  -6   12.58    0.34
  -1   3  -6   12.12    0.35
  -1   3  -6   12.18    0.35
   1  -3   6   12.28    0.28
   1  -3   6   12.62    0.33
   1  -3   6   12.57    0.33
   1  -3   6   12.27    0.34
   1  -3   6   12.04    0.35
  -2   3  -6   51.96    1.03
  -2   3  -6   49.56    1.05
  -2   3  -6   51.00    1.05
  -2   3  -6   48.99    1.00
   2  -3   6   51.09    1.05
   2  -3   6   51.05    1.04
   2  -3   6   51.39    0.92
   2  -3   6   49.67    1.06
   2  -3   6   50.47    1.03
  -3   3  -6   26.37    0.60
  -3   3  -6   26.66    0.51
  -3   3  -6   27.35    0.64
  -3   3  -6   27.08    0.58
  -3   3  -6   25.45    0.59
   3  -3   6   25.85    0.65
   3  -3   6   26.60    0.58
   3  -3   6   26.75    0.60
   3  -3   6   26.58    0.52
   3  -3   6   27.21    0.61
  -4   3  -6    5.88    0.20
  -4   3  -6    5.71    0.24
  -4   3  -6    6.07    0.21
  -4   3  -6    6.20    0.19
   4  -3   6    6.17    0.22
   4  -3   6    6.26    0.24
   4  -3   6    5.99    0.19
  -5   3  -6    2.77    0.17
  -5   3  -6    2.69    0.12
  -5   3  -6    2.53    0.14
  -5   3  -6    2.80    0.20
   5  -3   6    2.79    0.14
   5  -3   6    2.72    0.12
  -6   3  -6    2.18    0.20
  -6   3  -6    2.65    0.21
   6  -3   6    2.71    0.22
  -7   3  -6    1.98    0.22
  -7   3  -6    1.82    0.21
   7  -3   6    2.01    0.21
   7  -3   6    1.93    0.19
   6   2  -6    3.34    0.23
   6   2  -6    3.65    0.33
   6   2  -6    2.88    0.32
   6   2  -6    3.17    0.38
  -6  -2   6    2.91    0.33
  -6  -2   6    3.55    0.31
   5   2  -6    2.33    0.24
   5   2  -6    2.96    0.30
   5   2  -6    2.23    0.19
   5   2  -6    2.95    0.25
  -5  -2   6    2.68    0.25
  -5  -2   6    2.46    0.20
  -5  -2   6    2.76    0.26
   4   2  -6    0.25    0.09
   4   2  -6    0.30    0.08
   4   2  -6    0.35    0.12
   4   2  -6    0.36    0.11
  -4  -2   6    0.28    0.11
  -4  -2   6    0.30    0.10
  -4  -2   6    0.29    0.10
   3   2  -6   25.54    0.57
   3   2  -6   26.26    0.57
   3   2  -6   25.96    0.65
  -3  -2   6   26.94    0.57
  -3  -2   6   26.65    0.64
  -3  -2   6   26.28    0.61
   2   2  -6   35.00    0.77
   2   2  -6   33.79    0.68
   2   2  -6   33.70    0.72
   2   2  -6   33.75    0.78
  -2  -2   6   34.15    0.79
  -2  -2   6   35.32    0.78
  -2  -2   6   35.23    0.67
  -2  -2   6   34.78    0.71
  -2  -2   6   34.07    0.71
   1   2  -6   23.55    0.48
   1   2  -6   23.57    0.57
   1   2  -6   24.21    0.57
   1   2  -6   23.51    0.53
  -1  -2   6   23.66    0.58
  -1  -2   6   23.75    0.51
  -1  -2   6   24.25    0.46
  -1  -2   6   23.88    0.51
  -1  -2   6   23.76    0.57
   0   2  -6   41.19    0.89
   0   2  -6   41.59    0.88
   0   2  -6   41.42    0.86
   0   2  -6   41.22    0.76
   0  -2   6   42.66    0.90
   0  -2   6   42.03    0.79
   0  -2   6   41.59    0.83
   0  -2   6   42.73    0.86
  -1   2  -6    0.25    0.06
  -1   2  -6    0.26    0.06
  -1   2  -6    0.31    0.07
   1  -2   6    0.29    0.07
   1  -2   6    0.26    0.06
   1  -2   6    0.30    0.06
   1  -2   6    0.21    0.05
   1  -2   6    0.31    0.04
  -2   2  -6    9.32    0.28
  -2   2  -6   10.02    0.30
  -2   2  -6    9.83    0.27
   2  -2   6    9.90    0.29
   2  -2   6    9.79    0.30
   2  -2   6    9.85    0.28
   2  -2   6    9.76    0.22
   2  -2   6   10.29    0.27
  -3   2  -6   41.22    0.84
  -3   2  -6   40.33    0.88
  -3   2  -6   40.61    0.75
  -3   2  -6   41.27    0.83
  -3   2  -6   40.50    0.84
   3  -2   6   40.84    0.83
   3  -2   6   42.13    0.86
   3  -2   6   39.31    0.90
   3  -2   6   40.85    0.85
   3  -2   6   40.67    0.74
  -4   2  -6    5.04    0.24
  -4   2  -6    4.79    0.17
  -4   2  -6    4.58    0.21
  -4   2  -6    4.91    0.18
   4  -2   6    4.79    0.17
   4  -2   6    4.89    0.21
   4  -2   6    4.88    0.16
  -5   2  -6    8.33    0.26
  -5   2  -6    8.47    0.30
   5  -2   6    8.57    0.30
  -6   2  -6    8.11    0.32
  -6   2  -6    8.43    0.29
   6  -2   6    8.66    0.29
   6  -2   6    8.55    0.33
  -7   2  -6   -0.05    0.12
  -7   2  -6   -0.01    0.11
   7  -2   6    0.10    0.15
   6   1  -6    1.43    0.18
   6   1  -6    1.27    0.19
   6   1  -6    1.34    0.21
  -6  -1   6    1.07    0.17
  -6  -1   6    1.22    0.19
   5   1  -6    6.28    0.29
   5   1  -6    5.94    0.30
   5   1  -6    6.28    0.33
   5   1  -6    5.93    0.21
  -5  -1   6    6.12    0.30
  -5  -1   6    6.14    0.30
  -5  -1   6    6.02    0.27
   4   1  -6    0.99    0.14
   4   1  -6    0.95    0.13
   4   1  -6    1.23    0.13
   4   1  -6    0.82    0.11
  -4  -1   6    0.89    0.12
  -4  -1   6    1.18    0.15
  -4  -1   6    0.86    0.13
   3   1  -6   50.31    1.00
   3   1  -6   50.19    1.07
   3   1  -6   50.60    0.98
   3   1  -6   49.40    1.08
  -3  -1   6   49.11    0.97
  -3  -1   6   49.60    1.00
  -3  -1   6   52.28    1.08
   2   1  -6    1.34    0.15
   2   1  -6    1.23    0.13
   2   1  -6    1.23    0.11
   2   1  -6    1.09    0.10
  -2  -1   6    1.25    0.08
  -2  -1   6    1.33    0.14
  -2  -1   6    1.31    0.11
  -2  -1   6    1.19    0.14
  -2  -1   6    1.30    0.12
   1   1  -6    6.51    0.18
   1   1  -6    6.24    0.20
   1   1  -6    6.57    0.23
   1   1  -6    6.42    0.24
  -1  -1   6    6.33    0.23
  -1  -1   6    6.57    0.23
  -1  -1   6    6.71    0.17
  -1  -1   6    6.50    0.20
  -1  -1   6    6.64    0.19
   0   1  -6   48.93    0.87
   0   1  -6   48.46    0.98
   0   1  -6   48.25    1.00
   0   1  -6   47.79    1.00
   0  -1   6   49.54    0.97
   0  -1   6   49.21    0.90
   0  -1   6   49.51    0.95
   0  -1   6   48.17    1.02
   0  -1   6   48.97    1.01
  -1   1  -6   96.37    1.84
  -1   1  -6   93.28    1.83
  -1   1  -6   94.97    1.85
   1  -1   6   96.85    1.67
   1  -1   6   96.97    1.86
   1  -1   6   95.75    1.84
   1  -1   6   96.67    1.88
   1  -1   6   95.50    1.87
  -2   1  -6    5.31    0.18
  -2   1  -6    4.90    0.20
  -2   1  -6    5.25    0.18
   2  -1   6    5.21    0.17
   2  -1   6    5.25    0.19
   2  -1   6    5.19    0.13
   2  -1   6    5.15    0.19
   2  -1   6    4.93    0.20
  -3   1  -6    8.48    0.28
  -3   1  -6    8.59    0.20
  -3   1  -6    8.70    0.28
  -3   1  -6    8.41    0.25
  -3   1  -6    8.55    0.23
  -3   1  -6    8.44    0.24
   3  -1   6    8.50    0.23
   3  -1   6    8.46    0.19
   3  -1   6    8.36    0.29
   3  -1   6    8.41    0.27
   3  -1   6    8.28    0.24
  -4   1  -6    2.19    0.09
  -4   1  -6    2.09    0.11
  -4   1  -6    2.25    0.15
  -4   1  -6    2.36    0.13
   4  -1   6    2.19    0.16
   4  -1   6    2.26    0.12
   4  -1   6    2.18    0.10
  -5   1  -6    1.64    0.15
  -5   1  -6    1.71    0.16
   5  -1   6    1.62    0.18
   5  -1   6    1.68    0.13
  -6   1  -6   29.85    0.71
  -6   1  -6   30.20    0.66
   6  -1   6   30.91    0.75
   6  -1   6   31.04    0.65
  -7   1  -6    0.98    0.15
  -7   1  -6    1.09    0.16
   7  -1   6    1.09    0.17
   7  -1   6    1.24    0.16
   6   0  -6    0.42    0.16
   6   0  -6    0.91    0.18
   6   0  -6    1.00    0.17
  -6   0   6    0.96    0.17
  -6   0   6    0.76    0.16
  -6   0   6    0.74    0.15
   5   0  -6    9.00    0.34
   5   0  -6    9.09    0.34
   5   0  -6    8.92    0.35
  -5   0   6    8.98    0.32
  -5   0   6    9.13    0.34
   4   0  -6    3.16    0.20
   4   0  -6    2.50    0.13
   4   0  -6    2.89    0.21
   4   0  -6    3.12    0.19
  -4   0   6    2.61    0.20
  -4   0   6    2.91    0.20
  -4   0   6    3.02    0.19
   3   0  -6   11.58    0.29
   3   0  -6   11.59    0.32
   3   0  -6   11.59    0.35
   3   0  -6   11.64    0.36
  -3   0   6   11.66    0.33
  -3   0   6   11.72    0.36
  -3   0   6   12.10    0.36
  -3   0   6   11.69    0.31
  -3   0   6   11.90    0.27
   2   0  -6    0.94    0.12
   2   0  -6    0.71    0.09
   2   0  -6    0.90    0.09
   2   0  -6    1.00    0.09
  -2   0   6    0.98    0.12
  -2   0   6    0.88    0.11
  -2   0   6    0.88    0.12
  -2   0   6    1.02    0.07
  -2   0   6    1.01    0.10
   1   0  -6   19.64    0.48
   1   0  -6   19.29    0.44
   1   0  -6   19.67    0.40
   1   0  -6   19.24    0.47
  -1   0   6   20.11    0.40
  -1   0   6   19.98    0.43
  -1   0   6   20.42    0.49
  -1   0   6   19.97    0.43
  -1   0   6   19.76    0.49
   0   0  -6    6.20    0.20
   0   0  -6    6.46    0.22
   0   0  -6    6.97    0.22
   0   0  -6    6.56    0.16
   0   0   6    6.50    0.17
   0   0   6    6.41    0.21
   0   0   6    6.52    0.19
   0   0   6    6.47    0.22
  -1   0  -6  121.43    2.31
  -1   0  -6  121.30    2.06
  -1   0  -6  122.03    2.30
  -1   0  -6  118.67    2.29
  -1   0  -6  119.33    2.31
   1   0   6  121.90    2.30
   1   0   6  120.77    2.09
   1   0   6  122.14    2.33
   1   0   6  123.28    2.34
   1   0   6  120.93    2.32
  -2   0  -6    6.35    0.19
  -2   0  -6    5.97    0.19
  -2   0  -6    6.32    0.22
  -2   0  -6    6.17    0.21
   2   0   6    6.37    0.21
   2   0   6    6.37    0.19
   2   0   6    6.24    0.21
   2   0   6    6.20    0.20
   2   0   6    6.07    0.14
  -3   0  -6    4.83    0.18
  -3   0  -6    5.10    0.14
  -3   0  -6    5.32    0.16
  -3   0  -6    4.69    0.16
  -3   0  -6    5.09    0.21
   3   0   6    5.17    0.20
   3   0   6    5.12    0.12
   3   0   6    5.00    0.16
   3   0   6    5.18    0.16
   3   0   6    5.16    0.22
  -4   0  -6    5.64    0.24
  -4   0  -6    5.59    0.15
  -4   0  -6    5.46    0.15
  -4   0  -6    5.51    0.21
  -4   0  -6    5.75    0.18
   4   0   6    5.61    0.15
   4   0   6    5.49    0.23
   4   0   6    5.75    0.16
   4   0   6    5.76    0.16
  -5   0  -6    3.76    0.17
  -5   0  -6    3.57    0.22
   5   0   6    3.94    0.22
   5   0   6    3.92    0.16
  -6   0  -6   10.59    0.35
  -6   0  -6   10.44    0.32
  -6   0  -6   10.51    0.40
   6   0   6   11.06    0.31
  -7   0  -6    0.59    0.13
  -7   0  -6    0.56    0.13
   7   0   6    0.46    0.13
   7   0   6    0.67    0.16
   6  -1  -6    3.11    0.28
   6  -1  -6    3.15    0.31
   6  -1  -6    3.01    0.27
  -6   1   6    3.04    0.26
  -6   1   6    2.79    0.27
  -6   1   6    3.06    0.24
   5  -1  -6    4.24    0.26
   5  -1  -6    4.72    0.25
  -5   1   6    4.31    0.24
  -5   1   6    4.62    0.26
   4  -1  -6    9.23    0.32
   4  -1  -6    8.87    0.21
   4  -1  -6    8.69    0.31
  -4   1   6    9.12    0.32
  -4   1   6    8.83    0.31
  -4   1   6    8.81    0.29
   3  -1  -6    6.74    0.23
   3  -1  -6    6.57    0.19
   3  -1  -6    6.87    0.26
   3  -1  -6    6.62    0.26
  -3   1   6    6.57    0.16
  -3   1   6    6.68    0.25
  -3   1   6    6.56    0.23
  -3   1   6    6.41    0.23
  -3   1   6    6.83    0.25
   2  -1  -6    7.69    0.22
   2  -1  -6    7.35    0.25
   2  -1  -6    7.31    0.21
   2  -1  -6    7.46    0.25
  -2   1   6    7.66    0.19
  -2   1   6    7.66    0.22
  -2   1   6    7.57    0.23
  -2   1   6    7.60    0.26
  -2   1   6    7.53    0.26
   1  -1  -6   73.65    1.47
   1  -1  -6   74.38    1.47
   1  -1  -6   73.26    1.31
   1  -1  -6   73.62    1.41
  -1   1   6   73.81    1.48
  -1   1   6   74.37    1.40
  -1   1   6   73.83    1.33
   0  -1  -6  117.23    2.22
   0  -1  -6  118.19    2.22
   0  -1  -6  118.94    2.27
   0  -1  -6  116.72    2.26
   0  -1  -6  117.98    2.03
   0   1   6  119.07    2.02
   0   1   6  116.08    2.25
   0   1   6  114.70    2.19
   0   1   6  116.44    2.25
   0   1   6  117.76    2.02
  -1  -1  -6  281.98    5.13
  -1  -1  -6  277.36    5.13
  -1  -1  -6  267.64    4.66
  -1  -1  -6  271.63    5.07
  -1  -1  -6  275.49    5.15
   1   1   6  281.97    4.74
   1   1   6  279.72    5.17
   1   1   6  277.82    5.23
   1   1   6  282.36    5.23
  -2  -1  -6    8.16    0.22
  -2  -1  -6    7.87    0.22
  -2  -1  -6    7.81    0.24
   2   1   6    7.84    0.23
   2   1   6    8.05    0.24
   2   1   6    8.02    0.22
   2   1   6    7.73    0.22
  -3  -1  -6    4.44    0.13
  -3  -1  -6    4.63    0.15
  -3  -1  -6    4.53    0.19
  -3  -1  -6    4.33    0.14
  -3  -1  -6    4.52    0.16
   3   1   6    4.30    0.20
   3   1   6    4.71    0.19
   3   1   6    4.33    0.14
   3   1   6    4.59    0.15
  -4  -1  -6   22.10    0.45
  -4  -1  -6   21.63    0.50
  -4  -1  -6   21.60    0.43
  -4  -1  -6   21.75    0.56
  -4  -1  -6   21.51    0.44
   4   1   6   22.11    0.54
   4   1   6   22.93    0.42
   4   1   6   21.32    0.57
   4   1   6   22.07    0.45
   4   1   6   22.39    0.45
  -5  -1  -6   11.16    0.30
  -5  -1  -6   11.05    0.39
  -5  -1  -6   11.47    0.34
   5   1   6   11.65    0.37
   5   1   6   12.16    0.28
  -6  -1  -6    2.04    0.17
  -6  -1  -6    2.53    0.23
  -6  -1  -6    2.63    0.18
   6   1   6    2.41    0.16
  -7  -1  -6    2.14    0.20
  -7  -1  -6    1.92    0.26
  -7  -1  -6    1.87    0.19
   7   1   6    1.85    0.16
   7   1   6    2.09    0.26
   6  -2  -6    1.28    0.17
   6  -2  -6    1.06    0.18
   6  -2  -6    1.25    0.16
  -6   2   6    1.70    0.22
  -6   2   6    1.40    0.17
  -6   2   6    1.24    0.15
   5  -2  -6    4.41    0.23
   5  -2  -6    4.68    0.25
   5  -2  -6    4.52    0.26
   5  -2  -6    4.58    0.25
  -5   2   6    4.64    0.26
  -5   2   6    4.46    0.24
   4  -2  -6    1.15    0.16
   4  -2  -6    0.99    0.12
  -4   2   6    0.89    0.12
  -4   2   6    0.94    0.12
  -4   2   6    1.00    0.12
   3  -2  -6    0.96    0.09
   3  -2  -6    0.99    0.14
   3  -2  -6    0.98    0.12
  -3   2   6    1.06    0.13
  -3   2   6    0.97    0.11
  -3   2   6    1.00    0.05
  -3   2   6    1.10    0.14
   2  -2  -6    0.09    0.05
   2  -2  -6    0.05    0.06
   2  -2  -6    0.17    0.06
  -2   2   6    0.12    0.03
  -2   2   6    0.02    0.05
  -2   2   6    0.12    0.06
  -2   2   6    0.05    0.05
   1  -2  -6   54.23    0.99
   1  -2  -6   54.77    1.11
  -1   2   6   54.75    0.99
  -1   2   6   55.35    1.05
  -1   2   6   53.55    1.11
  -1   2   6   54.68    1.11
   0  -2  -6   54.53    1.05
   0  -2  -6   53.93    0.96
   0  -2  -6   54.04    1.10
   0   2   6   53.56    1.10
   0   2   6   54.25    1.10
   0   2   6   55.69    0.97
   0   2   6   55.07    1.07
  -1  -2  -6   26.23    0.57
  -1  -2  -6   25.69    0.56
  -1  -2  -6   26.19    0.56
   1   2   6   25.96    0.56
   1   2   6   25.44    0.56
   1   2   6   25.99    0.56
  -2  -2  -6   56.46    1.09
  -2  -2  -6   53.02    1.11
  -2  -2  -6   54.44    1.07
   2   2   6   54.70    1.09
   2   2   6   56.17    1.11
   2   2   6   55.31    1.10
  -3  -2  -6    0.06    0.04
  -3  -2  -6    0.09    0.06
  -3  -2  -6    0.02    0.04
  -3  -2  -6    0.10    0.05
   3   2   6    0.10    0.05
   3   2   6    0.06    0.06
   3   2   6   -0.06    0.07
   3   2   6    0.03    0.03
  -4  -2  -6    4.77    0.13
  -4  -2  -6    4.87    0.16
  -4  -2  -6    4.60    0.14
  -4  -2  -6    4.86    0.18
  -4  -2  -6    4.35    0.23
   4   2   6    4.85    0.13
   4   2   6    4.80    0.12
   4   2   6    4.34    0.24
   4   2   6    4.76    0.21
   4   2   6    4.78    0.14
  -5  -2  -6   11.04    0.32
  -5  -2  -6   11.26    0.30
  -5  -2  -6   11.19    0.39
   5   2   6   11.67    0.26
   5   2   6   11.24    0.36
  -6  -2  -6    0.76    0.11
  -6  -2  -6    0.79    0.12
  -6  -2  -6    0.71    0.14
   6   2   6    0.76    0.09
  -7  -2  -6    0.79    0.14
  -7  -2  -6    0.54    0.16
  -7  -2  -6    0.66    0.13
   7   2   6    0.57    0.16
   7   2   6    0.67    0.12
   6  -3  -6    2.72    0.30
   6  -3  -6    2.38    0.26
   6  -3  -6    2.30    0.25
  -6   3   6    2.44    0.25
  -6   3   6    2.40    0.23
  -6   3   6    2.39    0.23
   5  -3  -6    3.68    0.23
   5  -3  -6    3.25    0.26
   5  -3  -6    3.59    0.23
   5  -3  -6    3.89    0.25
  -5   3   6    3.41    0.22
  -5   3   6    3.70    0.24
   4  -3  -6    2.73    0.19
   4  -3  -6    2.37    0.19
   4  -3  -6    2.50    0.17
  -4   3   6    2.47    0.18
  -4   3   6    2.35    0.19
  -4   3   6    2.27    0.17
   3  -3  -6    1.12    0.13
   3  -3  -6    0.78    0.10
   3  -3  -6    1.01    0.13
   3  -3  -6    0.93    0.10
  -3   3   6    1.07    0.13
  -3   3   6    1.09    0.15
  -3   3   6    1.10    0.13
   2  -3  -6   24.92    0.58
   2  -3  -6   24.89    0.57
   2  -3  -6   24.79    0.52
  -2   3   6   25.32    0.58
  -2   3   6   24.90    0.57
  -2   3   6   24.20    0.52
  -2   3   6   25.63    0.50
   1  -3  -6   22.44    0.53
   1  -3  -6   23.64    0.54
   1  -3  -6   23.64    0.47
  -1   3   6   24.07    0.47
  -1   3   6   23.71    0.54
  -1   3   6   24.06    0.49
  -1   3   6   23.04    0.54
   0  -3  -6   28.74    0.63
   0  -3  -6   29.70    0.54
   0  -3  -6   28.44    0.62
   0   3   6   29.65    0.61
   0   3   6   29.11    0.63
   0   3   6   28.15    0.62
  -1  -3  -6   52.03    1.04
  -1  -3  -6   54.18    1.06
  -1  -3  -6   51.06    1.04
   1   3   6   54.15    1.06
   1   3   6   53.13    1.06
   1   3   6   52.92    1.07
  -2  -3  -6   73.07    1.42
  -2  -3  -6   74.37    1.43
   2   3   6   72.73    1.43
   2   3   6   73.05    1.41
   2   3   6   72.15    1.41
  -3  -3  -6    2.92    0.12
  -3  -3  -6    2.68    0.11
  -3  -3  -6    2.82    0.12
  -3  -3  -6    2.54    0.15
   3   3   6    2.75    0.11
   3   3   6    2.96    0.13
   3   3   6    2.86    0.16
  -4  -3  -6   60.25    1.17
  -4  -3  -6   61.88    1.16
  -4  -3  -6   61.45    1.12
  -4  -3  -6   59.93    1.17
  -4  -3  -6   59.86    1.28
   4   3   6   61.29    1.18
   4   3   6   61.69    1.17
   4   3   6   60.88    1.25
  -5  -3  -6   10.21    0.37
  -5  -3  -6   10.09    0.28
  -5  -3  -6   10.14    0.30
   5   3   6   10.59    0.23
   5   3   6   10.09    0.34
  -6  -3  -6    1.22    0.15
  -6  -3  -6    1.33    0.15
  -6  -3  -6    1.31    0.18
   6   3   6    1.62    0.22
   6   3   6    1.31    0.13
  -7  -3  -6    0.57    0.17
  -7  -3  -6    0.61    0.12
   7   3   6    0.64    0.17
   7   3   6    0.51    0.11
   6  -4  -6    0.68    0.14
   6  -4  -6    0.78    0.16
   6  -4  -6    0.68    0.17
  -6   4   6    0.87    0.16
  -6   4   6    0.65    0.13
   5  -4  -6    0.23    0.10
   5  -4  -6    0.37    0.11
   5  -4  -6    0.30    0.16
   5  -4  -6    0.21    0.11
  -5   4   6    0.42    0.11
  -5   4   6   -0.02    0.08
  -5   4   6    0.24    0.11
   4  -4  -6    7.51    0.28
   4  -4  -6    7.81    0.30
   4  -4  -6    7.71    0.28
  -4   4   6    7.86    0.29
  -4   4   6    7.72    0.30
  -4   4   6    7.68    0.27
   3  -4  -6    0.27    0.07
   3  -4  -6    0.40    0.09
   3  -4  -6    0.23    0.08
  -3   4   6    0.29    0.08
  -3   4   6    0.36    0.08
  -3   4   6    0.26    0.07
   2  -4  -6    8.85    0.27
   2  -4  -6    9.24    0.26
   2  -4  -6    8.78    0.28
  -2   4   6    9.39    0.29
  -2   4   6    8.94    0.27
  -2   4   6    8.79    0.24
  -2   4   6    9.00    0.21
   1  -4  -6    9.76    0.24
   1  -4  -6    9.66    0.29
  -1   4   6    9.31    0.27
  -1   4   6    9.76    0.24
  -1   4   6    9.54    0.28
  -1   4   6    9.41    0.23
   0  -4  -6   37.50    0.68
   0  -4  -6   36.70    0.78
   0  -4  -6   37.73    0.79
   0   4   6   36.10    0.76
   0   4   6   36.48    0.77
  -1  -4  -6   44.51    0.91
  -1  -4  -6   44.94    0.92
   1   4   6   44.93    0.91
  -2  -4  -6    8.52    0.23
  -2  -4  -6    9.05    0.26
  -2  -4  -6    9.06    0.21
  -2  -4  -6    8.73    0.25
   2   4   6    8.49    0.23
   2   4   6    9.08    0.24
  -3  -4  -6   15.48    0.35
  -3  -4  -6   15.02    0.41
  -3  -4  -6   15.03    0.34
  -3  -4  -6   15.44    0.36
   3   4   6   15.43    0.35
  -4  -4  -6   18.97    0.44
  -4  -4  -6   19.73    0.52
  -4  -4  -6   19.91    0.42
   4   4   6   19.27    0.42
   4   4   6   19.77    0.43
   4   4   6   19.99    0.36
  -5  -4  -6   38.59    0.78
  -5  -4  -6   38.71    0.76
  -5  -4  -6   38.54    0.80
  -5  -4  -6   39.34    0.92
  -5  -4  -6   38.98    0.75
   5   4   6   39.04    0.88
   5   4   6   39.52    0.78
   5   4   6   40.31    0.72
   5   4   6   39.32    0.77
  -6  -4  -6    0.91    0.12
  -6  -4  -6    0.96    0.17
   6   4   6    0.59    0.14
   6   4   6    0.89    0.09
  -7  -4  -6    0.46    0.16
  -7  -4  -6    0.48    0.12
   7   4   6    0.36    0.16
   7   4   6    0.52    0.11
   6  -5  -6    1.94    0.26
   6  -5  -6    1.53    0.20
   6  -5  -6    1.71    0.23
  -6   5   6    1.73    0.21
  -6   5   6    2.02    0.26
   5  -5  -6    7.13    0.29
   5  -5  -6    7.40    0.39
   5  -5  -6    7.47    0.32
   5  -5  -6    6.59    0.31
  -5   5   6    6.70    0.29
  -5   5   6    6.92    0.31
   4  -5  -6   10.13    0.33
   4  -5  -6    9.94    0.32
   4  -5  -6   10.03    0.34
   4  -5  -6   10.51    0.35
  -4   5   6   10.48    0.35
  -4   5   6   10.91    0.33
  -4   5   6   10.45    0.34
   3  -5  -6    1.57    0.15
   3  -5  -6    1.89    0.15
   3  -5  -6    1.76    0.16
  -3   5   6    1.96    0.17
  -3   5   6    1.88    0.14
  -3   5   6    1.88    0.14
   2  -5  -6    6.59    0.22
   2  -5  -6    6.35    0.24
   2  -5  -6    6.42    0.23
  -2   5   6    6.60    0.21
  -2   5   6    6.45    0.24
  -2   5   6    6.69    0.18
  -2   5   6    6.27    0.22
   1  -5  -6    7.91    0.24
  -1   5   6    8.17    0.25
  -1   5   6    7.90    0.21
   0  -5  -6   20.75    0.48
   0  -5  -6   20.86    0.49
   0   5   6   20.56    0.48
   0   5   6   21.22    0.49
  -1  -5  -6    1.22    0.11
  -1  -5  -6    1.31    0.10
   1   5   6    1.26    0.10
   1   5   6    1.34    0.10
  -2  -5  -6   13.63    0.29
  -2  -5  -6   13.87    0.26
  -2  -5  -6   13.38    0.33
  -2  -5  -6   13.76    0.34
   2   5   6   13.23    0.32
   2   5   6   13.51    0.34
  -3  -5  -6    0.61    0.06
  -3  -5  -6    0.62    0.07
  -3  -5  -6    0.70    0.08
  -3  -5  -6    0.65    0.07
  -3  -5  -6    0.65    0.10
   3   5   6    0.69    0.08
   3   5   6    0.56    0.07
  -4  -5  -6   10.62    0.27
  -4  -5  -6   10.71    0.24
  -4  -5  -6   10.64    0.35
  -4  -5  -6   10.57    0.27
  -4  -5  -6   10.74    0.28
   4   5   6   10.73    0.28
   4   5   6   11.05    0.22
   4   5   6   10.24    0.27
  -5  -5  -6    2.30    0.22
  -5  -5  -6    2.03    0.14
  -5  -5  -6    1.96    0.12
  -5  -5  -6    2.01    0.11
   5   5   6    1.99    0.11
   5   5   6    1.93    0.10
  -6  -5  -6    1.08    0.13
  -6  -5  -6    1.24    0.19
   6   5   6    0.88    0.11
  -7  -5  -6    1.26    0.21
   7   5   6    0.94    0.12
   7   5   6    0.71    0.19
   6  -6  -6    1.00    0.18
   6  -6  -6    0.77    0.15
   6  -6  -6    1.12    0.18
  -6   6   6    0.81    0.18
  -6   6   6    0.84    0.14
  -6   6   6    1.21    0.19
   5  -6  -6    0.35    0.12
   5  -6  -6    0.29    0.12
   5  -6  -6    0.02    0.10
  -5   6   6    0.17    0.12
  -5   6   6    0.16    0.10
  -5   6   6    0.27    0.12
   4  -6  -6    5.99    0.28
   4  -6  -6    6.15    0.25
   4  -6  -6    5.94    0.26
  -4   6   6    5.96    0.28
  -4   6   6    6.17    0.27
   3  -6  -6    2.10    0.17
   3  -6  -6    2.01    0.16
   3  -6  -6    2.52    0.17
  -3   6   6    2.11    0.15
  -3   6   6    2.32    0.18
   2  -6  -6    2.13    0.14
   2  -6  -6    2.35    0.16
  -2   6   6    2.25    0.14
  -2   6   6    2.26    0.16
  -2   6   6    2.26    0.13
   1  -6  -6   31.33    0.69
   1  -6  -6   31.45    0.70
  -1   6   6   30.94    0.68
  -1   6   6   30.91    0.69
   0  -6  -6   22.13    0.52
   0  -6  -6   23.31    0.53
   0   6   6   22.80    0.53
   0   6   6   22.16    0.51
  -1  -6  -6   13.19    0.34
  -1  -6  -6   14.26    0.36
   1   6   6   12.66    0.33
   1   6   6   14.03    0.35
  -2  -6  -6    6.66    0.22
  -2  -6  -6    6.71    0.21
  -2  -6  -6    6.31    0.16
  -2  -6  -6    6.74    0.15
   2   6   6    6.48    0.21
   2   6   6    6.55    0.21
  -3  -6  -6    0.48    0.09
  -3  -6  -6    0.57    0.07
  -3  -6  -6    0.55    0.07
  -3  -6  -6    0.55    0.07
  -3  -6  -6    0.58    0.07
   3   6   6    0.49    0.06
   3   6   6    0.55    0.07
  -4  -6  -6    4.92    0.25
  -4  -6  -6    4.75    0.19
  -4  -6  -6    4.91    0.17
  -4  -6  -6    4.80    0.16
  -4  -6  -6    4.58    0.16
   4   6   6    4.76    0.18
   4   6   6    4.49    0.17
  -5  -6  -6   12.06    0.30
  -5  -6  -6   11.76    0.30
  -5  -6  -6   12.30    0.42
  -5  -6  -6   11.98    0.33
   5   6   6   11.49    0.30
   5   6   6   11.84    0.31
   5   6   6   12.16    0.27
  -6  -6  -6    0.37    0.08
  -6  -6  -6    0.45    0.07
  -6  -6  -6    0.42    0.14
   6   6   6    0.36    0.08
   6   6   6    0.33    0.08
  -7  -6  -6    3.76    0.35
   7   6   6    4.00    0.22
   6  -7  -6    8.62    0.36
   6  -7  -6    8.29    0.44
   6  -7  -6    8.47    0.40
  -6   7   6    8.41    0.41
  -6   7   6    9.61    0.41
  -6   7   6    8.80    0.35
   5  -7  -6    3.05    0.27
   5  -7  -6    3.21    0.27
   5  -7  -6    3.23    0.24
  -5   7   6    3.41    0.28
  -5   7   6    3.21    0.22
  -5   7   6    3.52    0.25
   4  -7  -6    0.70    0.12
   4  -7  -6    0.60    0.12
   4  -7  -6    0.74    0.12
  -4   7   6    0.68    0.13
  -4   7   6    0.85    0.13
   3  -7  -6    4.11    0.20
  -3   7   6    4.02    0.11
  -3   7   6    3.99    0.20
   2  -7  -6    4.08    0.19
   2  -7  -6    4.01    0.20
  -2   7   6    3.90    0.17
  -2   7   6    3.68    0.19
  -2   7   6    4.08    0.20
   1  -7  -6   11.53    0.33
   1  -7  -6   12.19    0.35
  -1   7   6   11.43    0.32
  -1   7   6   12.04    0.34
   0  -7  -6    8.39    0.26
   0  -7  -6    8.68    0.28
   0   7   6    8.42    0.26
   0   7   6    8.71    0.27
  -1  -7  -6    1.44    0.13
  -1  -7  -6    1.47    0.12
   1   7   6    1.37    0.12
   1   7   6    1.36    0.12
  -2  -7  -6    4.72    0.13
  -2  -7  -6    4.85    0.20
  -2  -7  -6    4.59    0.18
   2   7   6    4.70    0.19
   2   7   6    4.75    0.18
  -3  -7  -6    5.89    0.17
  -3  -7  -6    5.91    0.15
  -3  -7  -6    5.93    0.22
  -3  -7  -6    5.94    0.20
   3   7   6    6.02    0.22
   3   7   6    5.94    0.21
  -4  -7  -6   23.89    0.54
  -4  -7  -6   21.78    0.59
  -4  -7  -6   22.62    0.47
   4   7   6   23.07    0.53
   4   7   6   23.62    0.54
  -5  -7  -6    8.45    0.26
  -5  -7  -6    8.66    0.36
  -5  -7  -6    8.80    0.28
  -5  -7  -6    8.74    0.27
   5   7   6    8.38    0.26
   5   7   6    8.92    0.23
  -6  -7  -6    2.31    0.21
  -6  -7  -6    2.50    0.18
  -6  -7  -6    2.66    0.29
   6   7   6    2.85    0.16
   6   7   6    2.42    0.18
  -7  -7  -6    0.52    0.19
   6  -8  -6   11.73    0.49
   6  -8  -6   11.47    0.43
  -6   8   6   11.57    0.46
  -6   8   6   10.16    0.40
  -6   8   6   11.32    0.47
   5  -8  -6    0.38    0.13
   5  -8  -6    0.17    0.15
   5  -8  -6    0.30    0.15
  -5   8   6    0.62    0.13
  -5   8   6    0.28    0.14
  -5   8   6    0.59    0.17
   4  -8  -6    0.50    0.13
   4  -8  -6    0.54    0.11
  -4   8   6    0.65    0.14
  -4   8   6    0.29    0.12
  -4   8   6    0.05    0.08
   3  -8  -6   10.00    0.33
   3  -8  -6   10.31    0.35
  -3   8   6   10.10    0.23
  -3   8   6   10.58    0.35
  -3   8   6   10.09    0.32
   2  -8  -6    3.27    0.19
   2  -8  -6    3.28    0.20
  -2   8   6    3.22    0.17
  -2   8   6    3.29    0.20
   1  -8  -6   14.31    0.40
   1  -8  -6   13.98    0.38
  -1   8   6   14.02    0.38
  -1   8   6   14.56    0.40
   0  -8  -6    2.96    0.16
   0  -8  -6    2.98    0.17
   0  -8  -6    2.89    0.11
   0   8   6    3.00    0.18
   0   8   6    2.96    0.16
  -1  -8  -6    1.78    0.13
  -1  -8  -6    1.88    0.15
  -1  -8  -6    1.76    0.09
   1   8   6    1.86    0.14
   1   8   6    1.95    0.15
  -2  -8  -6    1.18    0.08
  -2  -8  -6    1.04    0.12
  -2  -8  -6    1.01    0.11
   2   8   6    0.99    0.12
   2   8   6    1.00    0.13
  -3  -8  -6    6.69    0.19
  -3  -8  -6    6.40    0.25
   3   8   6    6.64    0.24
   3   8   6    6.57    0.24
  -4  -8  -6    0.49    0.08
  -4  -8  -6    0.44    0.08
  -4  -8  -6    0.33    0.11
  -4  -8  -6    0.50    0.10
   4   8   6    0.33    0.09
   4   8   6    0.36    0.09
  -5  -8  -6    2.31    0.18
  -5  -8  -6    2.03    0.25
  -5  -8  -6    2.26    0.20
   5   8   6    2.37    0.19
   5   8   6    2.02    0.17
  -6  -8  -6    1.83    0.17
  -6  -8  -6    1.70    0.21
  -6  -8  -6    1.53    0.18
  -6  -8  -6    1.75    0.21
   6   8   6    1.65    0.20
   6   8   6    1.60    0.15
   6   8   6    1.88    0.18
   5  -9  -6    1.04    0.18
   5  -9  -6    0.86    0.16
   5  -9  -6    0.99    0.19
  -5   9   6    0.75    0.16
  -5   9   6    0.97    0.20
  -5   9   6    0.79    0.17
   4  -9  -6    6.52    0.30
   4  -9  -6    6.65    0.32
  -4   9   6    6.29    0.29
  -4   9   6    6.25    0.29
   3  -9  -6   26.81    0.67
   3  -9  -6   26.75    0.65
  -3   9   6   26.17    0.62
  -3   9   6   27.19    0.67
  -3   9   6   26.31    0.54
   2  -9  -6    1.94    0.19
   2  -9  -6    2.03    0.18
  -2   9   6    2.10    0.19
  -2   9   6    1.62    0.14
  -2   9   6    1.87    0.11
   1  -9  -6   19.86    0.52
   1  -9  -6   19.01    0.49
  -1   9   6   19.64    0.52
   0  -9  -6    0.60    0.08
   0  -9  -6    0.50    0.09
   0  -9  -6    0.57    0.10
   0   9   6    0.47    0.10
   0   9   6    0.48    0.09
  -1  -9  -6    8.55    0.22
  -1  -9  -6    7.86    0.28
  -1  -9  -6    8.28    0.30
   1   9   6    8.33    0.28
   1   9   6    8.78    0.30
  -2  -9  -6   13.74    0.40
  -2  -9  -6   13.88    0.31
   2   9   6   14.10    0.39
   2   9   6   13.30    0.40
  -3  -9  -6   28.26    0.57
  -3  -9  -6   28.71    0.67
   3   9   6   27.78    0.65
   3   9   6   28.71    0.66
  -4  -9  -6   14.09    0.41
  -4  -9  -6   14.18    0.36
  -4  -9  -6   14.23    0.46
   4   9   6   14.11    0.40
   4   9   6   13.43    0.39
  -5  -9  -6    5.02    0.24
  -5  -9  -6    5.44    0.28
  -5  -9  -6    5.84    0.33
  -5  -9  -6    5.55    0.25
   5   9   6    4.95    0.26
   5   9   6    5.39    0.26
  -6  -9  -6    0.71    0.18
  -6  -9  -6    0.74    0.16
  -6  -9  -6    0.91    0.16
  -6  -9  -6    0.61    0.14
   6   9   6    0.47    0.15
   6   9   6    0.80    0.15
   5 -10  -6    1.78    0.19
   5 -10  -6    1.98    0.24
  -5  10   6    1.55    0.20
  -5  10   6    2.64    0.36
  -5  10   6    1.92    0.19
   4 -10  -6    2.91    0.26
   4 -10  -6    2.80    0.29
  -4  10   6    2.81    0.14
  -4  10   6    3.01    0.23
  -4  10   6    3.26    0.29
  -4  10   6    2.75    0.24
   3 -10  -6    3.38    0.26
   3 -10  -6    3.39    0.24
  -3  10   6    3.28    0.15
  -3  10   6    3.05    0.20
  -3  10   6    3.16    0.26
   2 -10  -6   17.01    0.49
   2 -10  -6   16.45    0.47
  -2  10   6   15.83    0.47
  -2  10   6   17.13    0.39
  -2  10   6   17.80    0.50
  -2  10   6   16.15    0.43
   1 -10  -6    3.23    0.22
  -1  10   6    3.02    0.20
  -1  10   6    3.40    0.23
   0 -10  -6    4.25    0.24
   0 -10  -6    4.37    0.22
   0  10   6    3.85    0.23
  -1 -10  -6    1.81    0.16
  -1 -10  -6    1.86    0.12
  -1 -10  -6    1.87    0.19
   1  10   6    1.85    0.18
   1  10   6    2.10    0.18
  -2 -10  -6    3.19    0.22
  -2 -10  -6    3.15    0.14
   2  10   6    3.37    0.21
   2  10   6    2.80    0.19
  -3 -10  -6    1.03    0.14
  -3 -10  -6    1.24    0.13
   3  10   6    1.18    0.14
   3  10   6    1.33    0.18
  -4 -10  -6    4.94    0.27
  -4 -10  -6    4.07    0.23
  -4 -10  -6    4.55    0.21
   4  10   6    5.02    0.27
   4  10   6    5.18    0.27
  -5 -10  -6    0.82    0.13
  -5 -10  -6    0.83    0.14
  -5 -10  -6    1.25    0.18
  -5 -10  -6    0.59    0.15
   5  10   6    0.87    0.16
   5  10   6    0.78    0.15
  -6 -10  -6   -0.12    0.17
  -6 -10  -6    0.40    0.18
  -6 -10  -6    0.38    0.16
   6  10   6    0.29    0.17
   4 -11  -6    4.14    0.34
  -4  11   6    3.75    0.27
  -4  11   6    3.98    0.33
  -4  11   6    3.85    0.29
  -4  11   6    3.87    0.18
   3 -11  -6    1.19    0.17
   3 -11  -6    1.07    0.15
  -3  11   6    0.74    0.13
  -3  11   6    0.94    0.13
  -3  11   6    0.93    0.17
   2 -11  -6    1.76    0.23
   2 -11  -6    1.89    0.21
  -2  11   6    1.46    0.13
  -2  11   6    1.53    0.20
  -2  11   6    1.42    0.16
   1 -11  -6    0.96    0.14
   1 -11  -6    1.20    0.14
  -1  11   6    1.20    0.16
  -1  11   6    1.14    0.14
   0 -11  -6   26.73    0.67
   0 -11  -6   27.96    0.69
   0  11   6   27.53    0.69
   0  11   6   26.69    0.67
  -1 -11  -6    0.34    0.10
  -1 -11  -6    0.31    0.12
   1  11   6    0.28    0.10
   1  11   6    0.32    0.11
   2  11   6    2.46    0.21
   2  11   6    2.19    0.21
  -3 -11  -6    2.56    0.25
  -3 -11  -6    2.04    0.16
   3  11   6    2.39    0.23
   3  11   6    2.27    0.23
  -4 -11  -6    1.30    0.18
  -4 -11  -6    1.13    0.14
  -4 -11  -6    1.25    0.15
   4  11   6    1.08    0.16
   4  11   6    1.30    0.16
  -5 -11  -6    4.58    0.31
  -5 -11  -6    4.92    0.36
  -5 -11  -6    4.71    0.34
   5  11   6    4.57    0.34
   5  11   6    5.16    0.33
   4 -12  -6    1.30    0.21
   4 -12  -6    1.33    0.24
  -4  12   6    1.31    0.14
  -4  12   6    1.11    0.17
  -4  12   6    1.58    0.24
   3 -12  -6    0.42    0.17
   3 -12  -6    0.54    0.17
  -3  12   6    0.47    0.10
  -3  12   6    0.03    0.14
  -3  12   6    0.32    0.18
   2 -12  -6    0.39    0.13
   2 -12  -6    0.57    0.15
  -2  12   6    0.72    0.16
  -2  12   6    0.29    0.12
  -2  12   6    0.49    0.09
  -2  12   6    0.44    0.11
   1 -12  -6    2.28    0.24
   1 -12  -6    2.02    0.26
  -1  12   6    2.22    0.27
  -1  12   6    1.53    0.17
   0 -12  -6    0.59    0.12
   0 -12  -6    0.32    0.13
   0  12   6    0.57    0.14
   0  12   6    0.66    0.14
  -1 -12  -6    5.01    0.30
  -1 -12  -6    4.15    0.27
   1  12   6    4.71    0.29
   1  12   6    4.67    0.28
  -2 -12  -6    0.33    0.12
  -2 -12  -6    0.82    0.15
   2  12   6    0.32    0.12
   2  12   6    0.43    0.13
  -3 -12  -6    2.47    0.24
   3  12   6    2.85    0.27
   3  12   6    2.94    0.28
  -4 -12  -6    0.60    0.18
  -4 -12  -6    0.31    0.14
  -4 -12  -6    0.49    0.13
   4  12   6    0.34    0.15
   3 -13  -6    0.92    0.21
   3 -13  -6    0.60    0.21
  -3  13   6    0.94    0.17
  -3  13   6    0.84    0.21
   2 -13  -6    2.48    0.30
   2 -13  -6    1.85    0.22
  -2  13   6    1.58    0.19
  -2  13   6    1.76    0.20
  -2  13   6    1.92    0.23
   1 -13  -6    3.36    0.30
   1 -13  -6    3.00    0.32
  -1  13   6    2.95    0.33
  -1  13   6    3.11    0.21
  -1  13   6    2.66    0.29
   0 -13  -6    0.70    0.11
   0 -13  -6    0.71    0.16
   0 -13  -6    0.62    0.17
   0  13   6    0.85    0.12
   0  13   6    0.55    0.17
   0  13   6    0.62    0.16
  -1 -13  -6    0.39    0.14
  -1 -13  -6    0.34    0.10
  -1 -13  -6    0.33    0.15
   1  13   6    0.41    0.16
   1  13   6    0.36    0.15
   1  13   6    0.14    0.10
  -2 -13  -6    9.93    0.43
  -2 -13  -6    8.32    0.37
  -2 -13  -6    8.67    0.31
   2  13   6    8.71    0.42
   2  13   6    9.61    0.41
  -3 -13  -6    0.89    0.15
  -3 -13  -6    0.59    0.15
  -3 -13  -6    0.90    0.20
   3  13   6    0.81    0.18
   3  13   6    0.88    0.18
  -4 -13  -6    1.08    0.24
   4  13   6    0.67    0.20
   4  13   6    0.58    0.22
   2 -14  -6    4.26    0.39
  -2  14   6    4.31    0.28
  -2  14   6    5.32    0.45
  -2  14   6    4.61    0.29
   1 -14  -6    0.73    0.15
   1 -14  -6    0.69    0.22
   1 -14  -6    1.15    0.21
  -1  14   6    0.77    0.22
  -1  14   6    0.71    0.13
  -1  14   6    1.14    0.20
   0 -14  -6    0.68    0.21
   0 -14  -6    0.82    0.14
   0 -14  -6    0.61    0.20
   0  14   6    0.56    0.19
   0  14   6    0.88    0.21
   0  14   6    0.98    0.15
  -1 -14  -6    0.44    0.13
  -1 -14  -6    0.40    0.16
  -1 -14  -6    0.41    0.19
   1  14   6    0.26    0.19
   1  14   6    0.52    0.13
   1  14   6    0.43    0.18
  -2 -14  -6    2.96    0.39
  -2 -14  -6    1.69    0.17
   2  14   6    2.59    0.36
   2  14   6    3.00    0.38
   1   9  -7    0.69    0.22
  -1  -9   7    0.69    0.21
  -1  -9   7    0.56    0.26
   0   9  -7    1.46    0.24
   0   9  -7    1.79    0.28
   0  -9   7    1.64    0.19
   0  -9   7    1.21    0.20
   0  -9   7    1.79    0.28
  -1   9  -7    0.45    0.20
  -1   9  -7    0.39    0.13
  -1   9  -7    0.25    0.13
   1  -9   7    0.34    0.16
   1  -9   7    0.37    0.14
   1  -9   7    0.45    0.23
   1  -9   7    0.55    0.17
  -2   9  -7    4.88    0.26
  -2   9  -7    4.25    0.38
  -2   9  -7    4.80    0.29
   2  -9   7    4.64    0.30
   2  -9   7    3.69    0.30
   2  -9   7    4.45    0.42
   2  -9   7    4.86    0.36
   2   8  -7    0.67    0.23
   2   8  -7    0.67    0.19
  -2  -8   7    0.10    0.20
  -2  -8   7    0.34    0.18
  -2  -8   7    0.41    0.18
   1   8  -7    1.70    0.22
   1   8  -7    1.52    0.21
   1   8  -7    1.49    0.25
  -1  -8   7    1.23    0.24
  -1  -8   7    1.06    0.17
  -1  -8   7    1.28    0.19
   0   8  -7    4.86    0.33
   0   8  -7    5.79    0.40
   0   8  -7    6.02    0.37
   0  -8   7    5.47    0.29
   0  -8   7    6.17    0.41
   0  -8   7    6.22    0.36
   0  -8   7    6.03    0.28
  -1   8  -7    5.96    0.39
  -1   8  -7    5.83    0.22
  -1   8  -7    6.22    0.35
  -1   8  -7    5.69    0.36
  -1   8  -7    5.82    0.27
   1  -8   7    5.52    0.37
   1  -8   7    5.77    0.33
   1  -8   7    5.94    0.28
   1  -8   7    5.64    0.28
  -2   8  -7    4.65    0.35
  -2   8  -7    4.94    0.36
  -2   8  -7    4.25    0.21
  -2   8  -7    4.49    0.26
   2  -8   7    3.71    0.25
   2  -8   7    4.25    0.35
   2  -8   7    4.15    0.29
   2  -8   7    3.72    0.25
  -3   8  -7    6.65    0.36
  -3   8  -7    5.93    0.41
  -3   8  -7    6.81    0.27
  -3   8  -7    6.63    0.41
  -3   8  -7    7.15    0.32
   3  -8   7    6.14    0.34
   3  -8   7    6.78    0.31
   3  -8   7    6.89    0.32
   3  -8   7    7.04    0.40
  -4   8  -7    2.61    0.32
  -4   8  -7    3.22    0.41
  -4   8  -7    2.98    0.26
  -4   8  -7    3.45    0.27
  -4   8  -7    3.20    0.37
   4  -8   7    3.15    0.29
   4  -8   7    3.00    0.30
   4  -8   7    3.64    0.29
   4  -8   7    3.12    0.38
   3   7  -7    1.91    0.29
   3   7  -7    2.04    0.26
   3   7  -7    2.09    0.23
  -3  -7   7    1.90    0.22
  -3  -7   7    1.72    0.23
  -3  -7   7    2.88    0.40
   2   7  -7    1.35    0.15
   2   7  -7    1.21    0.19
   2   7  -7    1.84    0.25
   2   7  -7    2.42    0.33
  -2  -7   7    1.27    0.21
  -2  -7   7    1.54    0.20
  -2  -7   7    1.34    0.18
   1   7  -7    0.26    0.14
   1   7  -7    0.73    0.17
   1   7  -7    0.34    0.15
  -1  -7   7    0.51    0.10
  -1  -7   7    0.58    0.13
  -1  -7   7    0.48    0.15
  -1  -7   7    0.43    0.16
  -1  -7   7    0.41    0.14
   0   7  -7    8.28    0.36
   0   7  -7    9.04    0.40
   0   7  -7    9.38    0.39
   0  -7   7    9.06    0.41
   0  -7   7    9.08    0.37
   0  -7   7    8.25    0.37
   0  -7   7    8.86    0.32
   0  -7   7    9.31    0.31
  -1   7  -7    2.20    0.26
   1  -7   7    4.50    0.24
   1  -7   7    4.64    0.23
   1  -7   7    4.92    0.32
   1  -7   7    4.96    0.28
  -2   7  -7   10.73    0.39
  -2   7  -7   10.40    0.36
   2  -7   7   11.12    0.35
   2  -7   7   10.03    0.37
   2  -7   7   10.28    0.32
   2  -7   7    9.95    0.42
  -3   7  -7    0.85    0.13
  -3   7  -7    0.27    0.17
  -3   7  -7    0.89    0.17
  -3   7  -7    0.62    0.14
  -3   7  -7    0.56    0.13
   3  -7   7    0.86    0.18
   3  -7   7    1.18    0.13
   3  -7   7    0.69    0.13
   3  -7   7    0.65    0.13
  -4   7  -7    0.28    0.13
  -4   7  -7    0.19    0.13
  -4   7  -7    0.02    0.17
  -4   7  -7    0.19    0.16
  -4   7  -7    0.17    0.14
   4  -7   7   -0.03    0.11
   4  -7   7   -0.03    0.15
   4  -7   7    0.18    0.12
   4  -7   7    0.11    0.12
  -5   7  -7    2.02    0.24
  -5   7  -7    1.86    0.19
  -5   7  -7    1.39    0.27
  -5   7  -7    1.34    0.21
   5  -7   7    1.59    0.20
   5  -7   7    1.46    0.17
   5  -7   7    1.64    0.18
   4   6  -7    0.22    0.18
   4   6  -7    0.25    0.25
  -4  -6   7    0.14    0.19
   3   6  -7    2.67    0.27
   3   6  -7    2.78    0.32
   3   6  -7    2.97    0.24
   3   6  -7    2.68    0.37
  -3  -6   7    3.26    0.33
  -3  -6   7    2.63    0.27
  -3  -6   7    2.71    0.30
   2   6  -7    8.89    0.36
   2   6  -7    8.71    0.43
   2   6  -7    8.63    0.30
   2   6  -7    9.55    0.41
  -2  -6   7    9.48    0.38
  -2  -6   7    9.50    0.36
  -2  -6   7    9.03    0.41
   1   6  -7   15.09    0.40
   1   6  -7   15.72    0.50
   1   6  -7   15.33    0.47
   1   6  -7   15.36    0.52
  -1  -6   7   15.80    0.42
  -1  -6   7   15.03    0.51
  -1  -6   7   15.42    0.44
  -1  -6   7   14.66    0.39
  -1  -6   7   15.35    0.47
   0   6  -7   23.23    0.66
   0   6  -7   24.95    0.63
   0   6  -7   24.96    0.67
   0  -6   7   24.68    0.63
   0  -6   7   24.32    0.67
   0  -6   7   25.66    0.59
   0  -6   7   24.65    0.57
   0  -6   7   23.29    0.58
  -1   6  -7   15.08    0.46
   1  -6   7   13.94    0.45
   1  -6   7   14.67    0.40
   1  -6   7   14.53    0.43
   1  -6   7   14.39    0.38
   1  -6   7   14.36    0.47
   2  -6   7    5.30    0.24
   2  -6   7    5.17    0.21
   2  -6   7    5.33    0.29
   2  -6   7    5.22    0.25
  -3   6  -7    4.19    0.28
  -3   6  -7    5.10    0.26
  -3   6  -7    4.91    0.25
  -3   6  -7    4.78    0.20
  -3   6  -7    4.68    0.30
   3  -6   7    5.08    0.25
   3  -6   7    4.73    0.29
   3  -6   7    4.98    0.25
   3  -6   7    5.22    0.22
  -4   6  -7    1.25    0.15
  -4   6  -7    1.31    0.17
  -4   6  -7    1.44    0.20
  -4   6  -7    1.48    0.18
  -4   6  -7    1.51    0.17
   4  -6   7    1.37    0.14
   4  -6   7    1.51    0.18
   4  -6   7    1.33    0.17
   4  -6   7    1.45    0.16
  -5   6  -7    8.88    0.32
  -5   6  -7    8.76    0.31
  -5   6  -7    8.32    0.47
  -5   6  -7    8.28    0.36
  -5   6  -7    8.69    0.36
   5  -6   7    8.17    0.30
   5  -6   7    8.57    0.35
   5  -6   7    8.89    0.36
   5  -6   7    9.21    0.31
   4   5  -7    5.01    0.43
   4   5  -7    4.29    0.27
   4   5  -7    4.74    0.31
   4   5  -7    5.45    0.37
  -4  -5   7    5.16    0.34
  -4  -5   7    5.18    0.36
  -4  -5   7    4.68    0.39
   3   5  -7    0.89    0.16
   3   5  -7    1.01    0.17
   3   5  -7    0.95    0.15
   3   5  -7    0.82    0.12
  -3  -5   7    0.97    0.17
  -3  -5   7    0.71    0.15
  -3  -5   7    1.00    0.16
   2   5  -7    8.00    0.32
   2   5  -7    8.30    0.36
   2   5  -7    7.95    0.27
   2   5  -7    7.82    0.37
  -2  -5   7    8.52    0.32
  -2  -5   7    7.95    0.37
  -2  -5   7    8.12    0.27
  -2  -5   7    8.23    0.34
   1   5  -7   20.36    0.56
   1   5  -7   20.30    0.54
   1   5  -7   20.25    0.46
   1   5  -7   19.55    0.58
  -1  -5   7   20.43    0.49
  -1  -5   7   20.20    0.50
  -1  -5   7   20.48    0.55
  -1  -5   7   19.17    0.45
  -1  -5   7   19.82    0.58
   0   5  -7    0.03    0.09
   0   5  -7    0.14    0.09
   0   5  -7    0.00    0.09
   0  -5   7   -0.03    0.07
   0  -5   7    0.11    0.07
   0  -5   7    0.22    0.10
   0  -5   7    0.03    0.08
   0  -5   7   -0.05    0.11
  -1   5  -7    1.76    0.20
   1  -5   7    1.97    0.15
   1  -5   7    1.95    0.15
   1  -5   7    1.82    0.17
   1  -5   7    1.99    0.20
   1  -5   7    2.03    0.22
  -2   5  -7    7.43    0.27
  -2   5  -7    7.99    0.30
   2  -5   7    7.26    0.35
   2  -5   7    7.16    0.31
   2  -5   7    7.67    0.27
   2  -5   7    7.62    0.28
   2  -5   7    7.59    0.24
  -3   5  -7    0.35    0.10
  -3   5  -7   -0.13    0.09
  -3   5  -7    0.38    0.10
   3  -5   7    0.43    0.10
   3  -5   7    0.30    0.11
   3  -5   7    0.31    0.07
   3  -5   7    0.27    0.09
  -4   5  -7    2.19    0.20
  -4   5  -7    2.34    0.18
  -4   5  -7    2.23    0.17
   4  -5   7    2.45    0.21
   4  -5   7    2.51    0.18
   4  -5   7    2.14    0.20
  -5   5  -7    6.41    0.30
  -5   5  -7    5.97    0.25
  -5   5  -7    6.16    0.24
  -5   5  -7    5.78    0.37
   5  -5   7    5.84    0.29
   5  -5   7    6.30    0.24
   5  -5   7    5.27    0.23
   5  -5   7    5.64    0.27
  -6   5  -7    0.50    0.10
  -6   5  -7    0.60    0.15
  -6   5  -7    0.56    0.13
   6  -5   7    0.52    0.15
   6  -5   7    0.71    0.11
   6  -5   7    0.60    0.13
   5   4  -7    2.55    0.30
   5   4  -7    3.87    0.47
   5   4  -7    2.90    0.33
   5   4  -7    4.07    0.37
  -5  -4   7    2.87    0.22
  -5  -4   7    2.58    0.36
   4   4  -7    2.19    0.21
   4   4  -7    2.29    0.24
   4   4  -7    2.79    0.23
   4   4  -7    2.87    0.34
  -4  -4   7    2.73    0.19
  -4  -4   7    2.35    0.29
  -4  -4   7    3.08    0.28
  -4  -4   7    2.76    0.30
   3   4  -7    3.51    0.23
   3   4  -7    3.63    0.26
   3   4  -7    3.35    0.20
   3   4  -7    3.39    0.30
  -3  -4   7    3.38    0.24
  -3  -4   7    3.07    0.27
  -3  -4   7    3.42    0.17
   2   4  -7    2.91    0.17
   2   4  -7    3.07    0.24
   2   4  -7    3.22    0.23
   2   4  -7    2.99    0.20
  -2  -4   7    3.57    0.22
  -2  -4   7    3.46    0.24
  -2  -4   7    3.24    0.17
  -2  -4   7    3.37    0.25
   1   4  -7   28.33    0.66
   1   4  -7   28.04    0.69
   1   4  -7   27.53    0.70
   1   4  -7   27.64    0.58
  -1  -4   7   28.97    0.70
  -1  -4   7   28.61    0.63
  -1  -4   7   27.94    0.72
   0   4  -7   10.80    0.35
   0   4  -7   10.81    0.28
   0   4  -7   11.01    0.35
   0   4  -7   10.83    0.37
   0  -4   7   11.55    0.31
   0  -4   7   10.92    0.37
   0  -4   7   10.71    0.35
   0  -4   7   11.10    0.30
   0  -4   7   11.32    0.31
  -1   4  -7   30.78    0.74
  -1   4  -7   30.01    0.70
   1  -4   7   29.59    0.67
   1  -4   7   29.32    0.67
   1  -4   7   29.51    0.71
   1  -4   7   29.92    0.60
   1  -4   7   29.33    0.70
  -2   4  -7   38.82    0.84
  -2   4  -7   38.08    0.86
   2  -4   7   37.84    0.86
   2  -4   7   38.75    0.74
   2  -4   7   38.13    0.86
  -3   4  -7    4.25    0.20
  -3   4  -7    4.01    0.21
  -3   4  -7    4.10    0.22
   3  -4   7    4.10    0.22
   3  -4   7    3.87    0.16
   3  -4   7    3.87    0.20
   3  -4   7    4.16    0.21
  -4   4  -7   13.32    0.32
  -4   4  -7   13.48    0.36
  -4   4  -7   13.47    0.41
   4  -4   7   13.33    0.36
   4  -4   7   13.63    0.40
   4  -4   7   12.94    0.38
   4  -4   7   12.84    0.31
  -5   4  -7    4.63    0.21
  -5   4  -7    4.26    0.25
   5  -4   7    4.74    0.20
   5  -4   7    4.43    0.22
   5  -4   7    4.60    0.25
   5  -4   7    4.18    0.19
  -6   4  -7    0.69    0.14
  -6   4  -7    0.45    0.15
   6  -4   7    0.38    0.14
   5   3  -7    0.95    0.16
   5   3  -7    0.61    0.18
   5   3  -7    0.70    0.17
   5   3  -7    0.42    0.21
  -5  -3   7    0.85    0.18
  -5  -3   7    0.89    0.19
  -5  -3   7    0.72    0.14
  -5  -3   7    0.37    0.18
   4   3  -7    1.16    0.16
   4   3  -7    1.33    0.15
   4   3  -7    1.25    0.14
  -4  -3   7    1.25    0.18
  -4  -3   7    1.24    0.18
  -4  -3   7    1.42    0.16
   3   3  -7   26.43    0.62
   3   3  -7   26.85    0.70
   3   3  -7   26.33    0.59
   3   3  -7   26.33    0.68
  -3  -3   7   27.61    0.69
  -3  -3   7   26.23    0.64
  -3  -3   7   26.89    0.57
   2   3  -7    6.75    0.30
   2   3  -7    6.90    0.26
   2   3  -7    6.77    0.25
  -2  -3   7    6.65    0.26
  -2  -3   7    7.12    0.23
  -2  -3   7    7.13    0.20
  -2  -3   7    7.45    0.29
  -2  -3   7    7.13    0.31
   1   3  -7    5.07    0.25
   1   3  -7    4.60    0.17
   1   3  -7    5.20    0.22
   1   3  -7    4.93    0.25
  -1  -3   7    5.13    0.24
  -1  -3   7    5.02    0.25
  -1  -3   7    4.92    0.19
  -1  -3   7    4.84    0.20
   0   3  -7   10.06    0.32
   0   3  -7   10.47    0.33
   0   3  -7    9.92    0.25
   0   3  -7    9.96    0.34
   0  -3   7   10.34    0.28
   0  -3   7   10.51    0.33
   0  -3   7   10.01    0.27
   0  -3   7   10.45    0.29
   0  -3   7   10.25    0.34
  -1   3  -7   20.10    0.50
  -1   3  -7   20.25    0.52
  -1   3  -7   20.48    0.51
   1  -3   7   20.83    0.49
   1  -3   7   20.67    0.51
   1  -3   7   20.12    0.49
   1  -3   7   20.52    0.53
   1  -3   7   20.38    0.44
  -2   3  -7   77.54    1.56
  -2   3  -7   76.62    1.59
  -2   3  -7   78.17    1.55
   2  -3   7   77.92    1.53
   2  -3   7   77.70    1.38
   2  -3   7   77.28    1.56
   2  -3   7   74.31    1.56
   2  -3   7   78.69    1.54
  -3   3  -7   22.97    0.53
  -3   3  -7   22.23    0.58
  -3   3  -7   22.39    0.55
   3  -3   7   22.09    0.55
   3  -3   7   22.63    0.45
   3  -3   7   22.16    0.52
   3  -3   7   22.09    0.54
  -4   3  -7   12.99    0.33
  -4   3  -7   12.79    0.30
  -4   3  -7   12.57    0.38
   4  -3   7   12.90    0.30
   4  -3   7   13.04    0.36
   4  -3   7   13.29    0.34
   4  -3   7   13.06    0.39
  -5   3  -7    1.23    0.15
  -5   3  -7    1.40    0.12
  -5   3  -7    1.27    0.16
  -5   3  -7    1.09    0.14
   5  -3   7    1.53    0.15
   5  -3   7    1.39    0.12
   5  -3   7    1.50    0.19
  -6   3  -7    6.05    0.30
  -6   3  -7    6.03    0.26
   6  -3   7    6.18    0.31
  -7   3  -7    1.49    0.20
   5   2  -7    4.46    0.31
   5   2  -7    4.42    0.29
   5   2  -7    4.61    0.25
   5   2  -7    3.90    0.37
  -5  -2   7    4.67    0.25
  -5  -2   7    4.51    0.32
  -5  -2   7    4.08    0.33
  -5  -2   7    4.26    0.31
   4   2  -7   -0.04    0.10
   4   2  -7    0.10    0.10
   4   2  -7   -0.11    0.14
   4   2  -7    0.19    0.12
  -4  -2   7    0.18    0.12
  -4  -2   7    0.10    0.09
  -4  -2   7    0.08    0.11
  -4  -2   7    0.28    0.11
   3   2  -7    9.30    0.30
   3   2  -7    9.46    0.36
   3   2  -7    9.31    0.34
   3   2  -7    9.49    0.30
  -3  -2   7    9.23    0.34
  -3  -2   7    9.30    0.32
  -3  -2   7    9.30    0.27
   2   2  -7   15.77    0.41
   2   2  -7   15.81    0.46
   2   2  -7   15.99    0.38
   2   2  -7   16.28    0.46
  -2  -2   7   15.49    0.36
  -2  -2   7   16.29    0.46
  -2  -2   7   16.76    0.38
  -2  -2   7   16.44    0.42
   1   2  -7   11.48    0.37
   1   2  -7   11.85    0.33
   1   2  -7   12.01    0.36
   1   2  -7   11.27    0.29
  -1  -2   7   11.50    0.30
  -1  -2   7   11.84    0.31
  -1  -2   7   11.71    0.35
  -1  -2   7   11.10    0.36
   0   2  -7    4.97    0.15
   0   2  -7    4.96    0.22
   0   2  -7    4.64    0.22
   0   2  -7    4.87    0.20
   0  -2   7    4.80    0.15
   0  -2   7    4.66    0.21
   0  -2   7    4.84    0.17
   0  -2   7    4.66    0.22
   0  -2   7    5.05    0.18
  -1   2  -7   33.46    0.74
  -1   2  -7   33.44    0.74
  -1   2  -7   32.45    0.74
   1  -2   7   33.12    0.64
   1  -2   7   34.10    0.74
   1  -2   7   33.58    0.76
   1  -2   7   33.24    0.71
   1  -2   7   33.38    0.72
  -2   2  -7   13.45    0.36
  -2   2  -7   13.28    0.37
  -2   2  -7   13.70    0.39
   2  -2   7   13.27    0.37
   2  -2   7   13.64    0.29
   2  -2   7   13.46    0.38
   2  -2   7   13.49    0.36
   2  -2   7   13.58    0.36
  -3   2  -7    0.35    0.08
  -3   2  -7    0.22    0.09
  -3   2  -7    0.39    0.08
  -3   2  -7    0.30    0.07
   3  -2   7    0.22    0.08
   3  -2   7    0.31    0.05
   3  -2   7    0.38    0.07
   3  -2   7    0.33    0.13
   3  -2   7    0.46    0.08
  -4   2  -7    8.32    0.22
  -4   2  -7    8.44    0.29
  -4   2  -7    8.45    0.24
  -4   2  -7    8.18    0.32
  -4   2  -7    8.10    0.25
   4  -2   7    8.49    0.24
   4  -2   7    8.09    0.21
   4  -2   7    8.27    0.26
   4  -2   7    8.20    0.30
  -5   2  -7   12.54    0.39
  -5   2  -7   13.04    0.33
  -5   2  -7   12.81    0.29
   5  -2   7   13.39    0.41
   5  -2   7   13.23    0.31
   5  -2   7   13.41    0.33
  -6   2  -7    5.23    0.24
  -6   2  -7    5.49    0.28
   6  -2   7    5.01    0.29
   6  -2   7    5.50    0.25
  -7   2  -7    3.26    0.24
  -7   2  -7    3.00    0.25
   7  -2   7    2.71    0.27
   7  -2   7    3.16    0.30
   6   1  -7    0.49    0.18
   6   1  -7    0.41    0.23
  -6  -1   7    0.21    0.18
  -6  -1   7    0.54    0.16
  -6  -1   7    0.37    0.20
   5   1  -7    0.06    0.17
   5   1  -7    0.16    0.10
   5   1  -7    0.15    0.13
   5   1  -7    0.64    0.15
  -5  -1   7    0.28    0.15
  -5  -1   7    0.11    0.14
  -5  -1   7    0.41    0.13
  -5  -1   7    0.32    0.15
   4   1  -7   13.92    0.44
   4   1  -7   13.97    0.40
   4   1  -7   13.24    0.36
   4   1  -7   13.23    0.46
  -4  -1   7   13.11    0.42
  -4  -1   7   13.48    0.38
  -4  -1   7   14.18    0.44
   3   1  -7   16.44    0.47
   3   1  -7   15.78    0.48
   3   1  -7   15.98    0.40
  -3  -1   7   16.22    0.44
  -3  -1   7   16.36    0.40
  -3  -1   7   16.42    0.37
  -3  -1   7   16.80    0.47
   2   1  -7   18.69    0.42
   2   1  -7   18.34    0.44
   2   1  -7   18.31    0.50
   2   1  -7   18.57    0.49
  -2  -1   7   18.08    0.50
  -2  -1   7   18.50    0.40
  -2  -1   7   18.75    0.41
  -2  -1   7   18.54    0.45
  -2  -1   7   19.14    0.50
   1   1  -7   22.13    0.54
   1   1  -7   21.70    0.45
   1   1  -7   21.89    0.51
  -1  -1   7   22.33    0.43
  -1  -1   7   22.25    0.49
  -1  -1   7   22.92    0.55
  -1  -1   7   21.71    0.56
  -1  -1   7   21.71    0.48
   0   1  -7   40.16    0.89
   0   1  -7   41.12    0.87
   0   1  -7   41.74    0.89
   0   1  -7   41.50    0.76
   0  -1   7   41.31    0.81
   0  -1   7   40.99    0.85
   0  -1   7   42.33    0.90
   0  -1   7   41.91    0.91
   0  -1   7   41.96    0.79
  -1   1  -7    8.13    0.26
  -1   1  -7    8.06    0.27
  -1   1  -7    8.11    0.27
   1  -1   7    8.39    0.25
   1  -1   7    8.20    0.20
   1  -1   7    8.33    0.27
   1  -1   7    8.17    0.26
   1  -1   7    7.90    0.23
  -2   1  -7   39.70    0.84
  -2   1  -7   39.34    0.86
  -2   1  -7   39.94    0.84
   2  -1   7   40.60    0.85
   2  -1   7   40.36    0.86
   2  -1   7   40.82    0.85
   2  -1   7   39.91    0.86
   2  -1   7   40.27    0.73
  -3   1  -7   14.74    0.36
  -3   1  -7   15.17    0.42
  -3   1  -7   14.94    0.29
  -3   1  -7   14.71    0.38
  -3   1  -7   14.56    0.37
   3  -1   7   14.62    0.42
   3  -1   7   15.10    0.36
   3  -1   7   15.51    0.40
   3  -1   7   14.51    0.38
   3  -1   7   14.81    0.30
  -4   1  -7    2.51    0.14
  -4   1  -7    2.87    0.13
   4  -1   7    2.80    0.13
   4  -1   7    2.56    0.10
   4  -1   7    2.58    0.19
   4  -1   7    2.60    0.14
  -5   1  -7   49.40    0.96
  -5   1  -7   50.90    1.06
   5  -1   7   50.57    0.94
   5  -1   7   50.21    1.09
  -6   1  -7    8.19    0.32
  -6   1  -7    8.11    0.28
   6  -1   7    8.05    0.27
   6  -1   7    8.63    0.34
  -7   1  -7    0.44    0.14
  -7   1  -7    0.41    0.14
   7  -1   7    0.38    0.16
   7  -1   7    0.48    0.15
   6   0  -7    0.89    0.21
   6   0  -7    0.76    0.21
   6   0  -7    0.91    0.19
  -6   0   7    0.87    0.19
  -6   0   7    0.85    0.19
   5   0  -7    6.15    0.35
   5   0  -7    5.77    0.20
   5   0  -7    6.68    0.31
   5   0  -7    6.28    0.33
  -5   0   7    5.25    0.31
  -5   0   7    6.16    0.32
  -5   0   7    6.03    0.28
   4   0  -7    4.12    0.27
   4   0  -7    4.14    0.22
   4   0  -7    3.76    0.24
   4   0  -7    3.74    0.17
  -4   0   7    3.71    0.21
  -4   0   7    4.39    0.26
  -4   0   7    3.60    0.24
   3   0  -7    3.34    0.18
   3   0  -7    3.12    0.16
   3   0  -7    3.23    0.23
  -3   0   7    3.22    0.12
  -3   0   7    3.11    0.21
  -3   0   7    3.12    0.17
   2   0  -7    8.93    0.26
   2   0  -7    9.01    0.31
   2   0  -7    8.99    0.26
   2   0  -7    8.67    0.31
  -2   0   7    8.89    0.31
  -2   0   7    9.03    0.27
  -2   0   7    8.89    0.30
  -2   0   7    8.85    0.24
  -2   0   7    8.86    0.23
   1   0  -7   21.28    0.49
   1   0  -7   21.21    0.53
   1   0  -7   21.18    0.44
   1   0  -7   21.73    0.53
  -1   0   7   21.50    0.47
  -1   0   7   21.98    0.53
  -1   0   7   21.23    0.43
  -1   0   7   21.33    0.46
  -1   0   7   21.12    0.53
   0   0  -7    3.09    0.17
   0   0  -7    3.31    0.16
   0   0  -7    3.28    0.17
   0   0  -7    3.20    0.11
   0   0   7    3.27    0.14
   0   0   7    3.27    0.13
   0   0   7    3.33    0.17
   0   0   7    3.30    0.17
  -1   0  -7    3.28    0.13
  -1   0  -7    3.28    0.16
  -1   0  -7    3.44    0.10
  -1   0  -7    3.28    0.17
  -1   0  -7    3.43    0.17
   1   0   7    3.33    0.11
   1   0   7    3.39    0.15
   1   0   7    3.23    0.16
   1   0   7    3.47    0.14
   1   0   7    3.14    0.16
  -2   0  -7    5.81    0.20
  -2   0  -7    5.55    0.22
  -2   0  -7    5.35    0.20
   2   0   7    5.55    0.20
   2   0   7    5.29    0.13
   2   0   7    5.59    0.21
   2   0   7    5.22    0.20
   2   0   7    5.43    0.19
  -3   0  -7    3.94    0.19
  -3   0  -7    4.09    0.17
  -3   0  -7    3.86    0.16
  -3   0  -7    3.94    0.16
   3   0   7    3.87    0.16
   3   0   7    3.98    0.19
   3   0   7    3.92    0.15
   3   0   7    4.03    0.10
   3   0   7    4.08    0.23
  -4   0  -7    5.83    0.26
  -4   0  -7    5.90    0.22
  -4   0  -7    5.85    0.17
  -4   0  -7    5.59    0.18
   4   0   7    5.98    0.25
   4   0   7    5.97    0.18
   4   0   7    5.73    0.19
  -5   0  -7   30.06    0.75
  -5   0  -7   30.11    0.62
  -5   0  -7   30.37    0.69
   5   0   7   31.42    0.61
  -6   0  -7    5.31    0.30
  -6   0  -7    4.72    0.22
  -6   0  -7    5.22    0.25
   6   0   7    5.26    0.21
   6   0   7    5.24    0.29
  -7   0  -7    5.38    0.28
  -7   0  -7    5.41    0.26
   7   0   7    5.43    0.27
   7   0   7    4.68    0.34
   6  -1  -7    4.01    0.33
   6  -1  -7    3.44    0.34
   6  -1  -7    2.73    0.32
  -6   1   7    3.92    0.32
  -6   1   7    3.33    0.32
   5  -1  -7    0.00    0.12
   5  -1  -7   -0.01    0.14
   5  -1  -7    0.01    0.12
  -5   1   7    0.19    0.12
  -5   1   7    0.08    0.12
  -5   1   7    0.04    0.11
   4  -1  -7    3.64    0.23
   4  -1  -7    3.83    0.25
   4  -1  -7    3.55    0.24
   4  -1  -7    3.61    0.15
  -4   1   7    3.47    0.24
  -4   1   7    3.82    0.21
   3  -1  -7    0.07    0.07
   3  -1  -7   -0.01    0.06
   3  -1  -7    0.06    0.08
   3  -1  -7   -0.04    0.09
  -3   1   7    0.03    0.08
  -3   1   7    0.07    0.08
  -3   1   7    0.02    0.08
  -3   1   7    0.07    0.04
   2  -1  -7   25.80    0.55
   2  -1  -7   26.13    0.62
   2  -1  -7   25.49    0.62
   2  -1  -7   25.46    0.54
  -2   1   7   25.68    0.62
  -2   1   7   26.00    0.53
  -2   1   7   26.00    0.62
  -2   1   7   26.11    0.56
  -2   1   7   25.19    0.53
   1  -1  -7   43.96    0.95
   1  -1  -7   43.77    0.90
   1  -1  -7   44.87    0.83
   1  -1  -7   44.27    0.95
  -1   1   7   44.18    0.84
  -1   1   7   43.06    0.94
  -1   1   7   43.74    0.82
  -1   1   7   44.71    0.94
  -1   1   7   44.58    0.88
   0  -1  -7  178.58    3.35
   0  -1  -7  179.33    3.06
   0  -1  -7  177.47    3.34
   0  -1  -7  179.02    3.40
   0  -1  -7  178.83    3.40
   0   1   7  181.28    3.10
   0   1   7  177.31    3.42
   0   1   7  180.66    3.35
   0   1   7  181.08    3.10
   0   1   7  180.42    3.43
  -1  -1  -7   36.65    0.77
  -1  -1  -7   35.39    0.77
  -1  -1  -7   35.73    0.77
  -1  -1  -7   36.29    0.64
  -1  -1  -7   35.93    0.75
   1   1   7   37.23    0.79
   1   1   7   36.46    0.79
   1   1   7   36.70    0.77
   1   1   7   36.58    0.66
  -2  -1  -7    2.09    0.13
  -2  -1  -7    1.80    0.12
   2   1   7    1.96    0.13
   2   1   7    1.99    0.12
   2   1   7    2.08    0.14
   2   1   7    1.91    0.12
  -3  -1  -7   54.92    1.09
  -3  -1  -7   53.83    1.08
  -3  -1  -7   54.13    1.15
  -3  -1  -7   55.59    1.07
   3   1   7   55.54    1.10
   3   1   7   56.39    1.14
   3   1   7   54.49    1.15
   3   1   7   54.31    1.10
  -4  -1  -7   11.94    0.38
  -4  -1  -7   11.89    0.28
  -4  -1  -7   12.48    0.34
  -4  -1  -7   11.82    0.28
   4   1   7   12.20    0.29
   4   1   7   12.66    0.37
  -5  -1  -7    1.85    0.20
  -5  -1  -7    1.78    0.13
   5   1   7    2.30    0.21
   5   1   7    2.03    0.11
  -6  -1  -7    8.82    0.32
  -6  -1  -7    9.56    0.38
  -6  -1  -7    8.65    0.28
   6   1   7    9.76    0.37
   6   1   7    9.23    0.26
  -7  -1  -7    2.61    0.22
  -7  -1  -7    2.37    0.20
  -7  -1  -7    2.04    0.28
   7   1   7    2.28    0.21
   7   1   7    2.91    0.31
   6  -2  -7    0.45    0.17
   6  -2  -7    0.22    0.17
   6  -2  -7    0.27    0.16
  -6   2   7    0.33    0.17
  -6   2   7    0.16    0.15
   5  -2  -7    1.04    0.12
   5  -2  -7    0.68    0.15
   5  -2  -7    1.00    0.14
   5  -2  -7    0.87    0.15
  -5   2   7    0.81    0.16
  -5   2   7    0.86    0.13
  -5   2   7    1.23    0.16
   4  -2  -7    3.76    0.23
   4  -2  -7    3.73    0.23
   4  -2  -7    4.02    0.23
  -4   2   7    3.84    0.24
  -4   2   7    3.65    0.21
   3  -2  -7    0.20    0.07
   3  -2  -7    0.08    0.08
  -3   2   7    0.14    0.07
  -3   2   7    0.16    0.04
  -3   2   7    0.04    0.08
   2  -2  -7   15.00    0.42
   2  -2  -7   14.75    0.41
   2  -2  -7   15.02    0.36
  -2   2   7   14.40    0.41
  -2   2   7   15.30    0.42
  -2   2   7   15.07    0.33
  -2   2   7   14.86    0.35
   1  -2  -7   12.90    0.32
   1  -2  -7   12.90    0.30
   1  -2  -7   12.47    0.36
   1  -2  -7   13.06    0.37
   1  -2  -7   13.02    0.27
  -1   2   7   12.81    0.29
  -1   2   7   12.98    0.31
  -1   2   7   12.18    0.35
  -1   2   7   13.38    0.37
   0  -2  -7   25.42    0.48
   0  -2  -7   25.26    0.58
   0  -2  -7   25.05    0.52
   0  -2  -7   25.31    0.58
   0   2   7   25.93    0.55
   0   2   7   24.85    0.58
   0   2   7   25.43    0.48
   0   2   7   25.13    0.49
   0   2   7   25.76    0.59
  -1  -2  -7  165.05    3.12
  -1  -2  -7  162.46    3.11
  -1  -2  -7  164.46    2.78
   1   2   7  163.71    3.10
   1   2   7  163.65    3.06
   1   2   7  162.47    3.10
  -2  -2  -7    2.01    0.13
  -2  -2  -7    1.97    0.11
   2   2   7    2.17    0.14
   2   2   7    2.03    0.12
   2   2   7    1.93    0.12
  -3  -2  -7   13.64    0.33
  -3  -2  -7   14.09    0.34
  -3  -2  -7   13.47    0.39
  -3  -2  -7   14.05    0.34
   3   2   7   13.90    0.34
   3   2   7   13.64    0.33
   3   2   7   13.77    0.38
  -4  -2  -7   15.10    0.45
  -4  -2  -7   15.18    0.34
  -4  -2  -7   15.47    0.34
  -4  -2  -7   15.08    0.38
   4   2   7   15.26    0.35
   4   2   7   15.07    0.43
  -5  -2  -7    1.97    0.15
  -5  -2  -7    1.75    0.21
  -5  -2  -7    1.92    0.13
   5   2   7    2.04    0.20
  -6  -2  -7    0.65    0.11
  -6  -2  -7    0.85    0.17
  -6  -2  -7    0.87    0.13
   6   2   7    0.99    0.15
   6   2   7    1.08    0.12
  -7  -2  -7    2.00    0.28
  -7  -2  -7    1.98    0.18
  -7  -2  -7    2.01    0.20
   7   2   7    1.95    0.18
   7   2   7    2.21    0.30
   6  -3  -7    1.21    0.19
   6  -3  -7    1.46    0.20
   6  -3  -7    1.52    0.22
  -6   3   7    1.74    0.20
  -6   3   7    1.39    0.18
   5  -3  -7    0.60    0.14
   5  -3  -7    0.64    0.14
   5  -3  -7    0.59    0.13
   5  -3  -7    0.66    0.14
  -5   3   7    0.79    0.14
  -5   3   7    0.83    0.15
  -5   3   7    0.67    0.14
   4  -3  -7    2.05    0.21
   4  -3  -7    2.29    0.16
   4  -3  -7    2.37    0.20
   4  -3  -7    2.66    0.20
  -4   3   7    1.99    0.18
  -4   3   7    2.35    0.21
   3  -3  -7    7.80    0.29
   3  -3  -7    8.50    0.31
   3  -3  -7    8.75    0.28
  -3   3   7    8.42    0.19
  -3   3   7    9.36    0.32
  -3   3   7    7.81    0.27
   2  -3  -7    6.78    0.22
   2  -3  -7    6.43    0.25
   2  -3  -7    6.62    0.24
  -2   3   7    6.98    0.26
  -2   3   7    6.65    0.21
  -2   3   7    6.71    0.25
  -2   3   7    6.67    0.18
   1  -3  -7    8.06    0.22
   1  -3  -7    8.13    0.27
   1  -3  -7    7.82    0.26
  -1   3   7    7.94    0.27
  -1   3   7    8.29    0.22
  -1   3   7    8.06    0.26
  -1   3   7    8.03    0.21
   0  -3  -7    8.16    0.19
   0  -3  -7    8.03    0.25
   0   3   7    8.02    0.25
   0   3   7    8.28    0.24
  -1  -3  -7   37.02    0.77
  -1  -3  -7   37.58    0.79
  -1  -3  -7   37.13    0.78
   1   3   7   37.20    0.80
   1   3   7   37.97    0.80
   1   3   7   38.45    0.80
  -2  -3  -7    4.76    0.19
  -2  -3  -7    4.91    0.18
  -2  -3  -7    4.67    0.17
   2   3   7    4.91    0.17
   2   3   7    5.00    0.18
   2   3   7    4.73    0.20
  -3  -3  -7    4.20    0.16
  -3  -3  -7    4.33    0.17
  -3  -3  -7    4.05    0.15
  -3  -3  -7    4.51    0.20
   3   3   7    4.06    0.20
   3   3   7    4.43    0.17
   3   3   7    4.22    0.15
  -4  -3  -7   32.69    0.69
  -4  -3  -7   33.33    0.78
  -4  -3  -7   33.39    0.67
   4   3   7   33.36    0.77
   4   3   7   34.53    0.69
   4   3   7   33.02    0.68
  -5  -3  -7    0.26    0.11
  -5  -3  -7    0.54    0.11
  -5  -3  -7    0.42    0.08
  -6  -3  -7    1.57    0.18
  -6  -3  -7    1.89    0.17
  -6  -3  -7    1.75    0.15
   6   3   7    2.00    0.24
   6   3   7    1.79    0.12
  -7  -3  -7    1.36    0.22
  -7  -3  -7    1.68    0.18
  -7  -3  -7    1.68    0.20
   7   3   7    1.44    0.21
   7   3   7    1.36    0.16
   6  -4  -7    4.44    0.33
   6  -4  -7    4.99    0.33
   6  -4  -7    5.07    0.36
  -6   4   7    4.15    0.33
  -6   4   7    4.61    0.30
  -6   4   7    4.46    0.30
   5  -4  -7    0.27    0.13
   5  -4  -7    0.21    0.12
   5  -4  -7    0.17    0.16
   5  -4  -7    0.09    0.12
  -5   4   7    0.25    0.12
  -5   4   7    0.30    0.11
  -5   4   7    0.25    0.12
   4  -4  -7    0.41    0.11
   4  -4  -7    0.44    0.12
   4  -4  -7    0.50    0.12
   4  -4  -7    0.43    0.10
  -4   4   7    0.61    0.13
  -4   4   7    0.50    0.11
   3  -4  -7    2.05    0.18
   3  -4  -7    2.20    0.16
   3  -4  -7    2.05    0.18
  -3   4   7    2.06    0.16
  -3   4   7    2.03    0.19
   2  -4  -7    0.63    0.10
   2  -4  -7    0.60    0.09
   2  -4  -7    0.62    0.09
  -2   4   7    0.73    0.09
  -2   4   7    0.61    0.11
  -2   4   7    0.66    0.09
  -2   4   7    0.80    0.08
   1  -4  -7    9.45    0.30
   1  -4  -7    9.75    0.25
   1  -4  -7    9.39    0.29
  -1   4   7    9.88    0.30
  -1   4   7    9.61    0.29
  -1   4   7    9.48    0.24
  -1   4   7    9.68    0.25
   0  -4  -7    2.93    0.14
   0  -4  -7    2.95    0.11
   0  -4  -7    3.05    0.16
   0   4   7    2.96    0.14
   0   4   7    3.26    0.16
   0   4   7    3.03    0.15
  -1  -4  -7    8.29    0.25
  -1  -4  -7    8.78    0.27
  -1  -4  -7    8.63    0.18
   1   4   7    8.57    0.26
   1   4   7    8.77    0.27
   1   4   7    8.94    0.26
  -2  -4  -7    8.27    0.26
  -2  -4  -7    8.16    0.23
  -2  -4  -7    8.15    0.25
   2   4   7    7.93    0.24
   2   4   7    8.08    0.23
   2   4   7    8.03    0.26
  -3  -4  -7   10.65    0.29
  -3  -4  -7   10.58    0.27
  -3  -4  -7   10.09    0.32
  -3  -4  -7   10.59    0.27
   3   4   7   10.44    0.28
   3   4   7   10.54    0.32
   3   4   7   10.31    0.27
  -4  -4  -7   94.34    1.80
  -4  -4  -7   92.36    1.75
  -4  -4  -7   94.06    1.78
  -4  -4  -7   93.64    1.91
   4   4   7   93.06    1.79
   4   4   7   94.47    1.87
   4   4   7   94.38    1.80
  -5  -4  -7    4.70    0.20
  -5  -4  -7    4.71    0.14
  -5  -4  -7    4.97    0.27
  -5  -4  -7    4.77    0.15
   5   4   7    4.80    0.16
   5   4   7    4.48    0.27
   5   4   7    4.63    0.14
  -6  -4  -7   -0.06    0.11
  -6  -4  -7   -0.10    0.08
  -6  -4  -7    0.06    0.08
   6   4   7    0.00    0.12
   6   4   7   -0.07    0.06
  -7  -4  -7    3.06    0.21
  -7  -4  -7    2.92    0.21
  -7  -4  -7    3.21    0.32
   7   4   7    3.20    0.18
   7   4   7    3.37    0.35
   6  -5  -7    0.92    0.19
   6  -5  -7    0.62    0.17
   6  -5  -7    0.87    0.18
  -6   5   7    0.65    0.17
  -6   5   7    0.43    0.17
  -6   5   7    0.55    0.15
   5  -5  -7    1.93    0.24
   5  -5  -7    2.33    0.23
   5  -5  -7    2.26    0.26
   5  -5  -7    2.21    0.23
  -5   5   7    2.51    0.22
  -5   5   7    2.15    0.22
  -5   5   7    2.53    0.26
   4  -5  -7    0.58    0.13
   4  -5  -7    0.25    0.12
   4  -5  -7    0.37    0.11
   4  -5  -7    0.37    0.10
  -4   5   7    0.31    0.12
  -4   5   7    0.50    0.12
   3  -5  -7    8.39    0.28
   3  -5  -7    8.22    0.30
   3  -5  -7    8.60    0.31
  -3   5   7    8.31    0.28
  -3   5   7    8.71    0.32
   2  -5  -7    4.86    0.19
   2  -5  -7    4.70    0.21
   2  -5  -7    4.72    0.22
  -2   5   7    4.84    0.18
  -2   5   7    5.11    0.15
  -2   5   7    4.64    0.20
  -2   5   7    4.81    0.23
   1  -5  -7    2.03    0.15
   1  -5  -7    2.21    0.15
   1  -5  -7    2.07    0.12
  -1   5   7    2.07    0.11
  -1   5   7    2.18    0.16
  -1   5   7    2.16    0.12
  -1   5   7    2.08    0.14
   0  -5  -7   27.95    0.64
   0  -5  -7   27.25    0.62
   0   5   7   26.71    0.61
   0   5   7   27.97    0.63
  -1  -5  -7    2.87    0.14
  -1  -5  -7    2.97    0.16
   1   5   7    3.00    0.14
  -2  -5  -7    1.83    0.13
  -2  -5  -7    1.79    0.13
  -2  -5  -7    1.82    0.11
   2   5   7    1.83    0.12
   2   5   7    1.82    0.12
  -3  -5  -7    5.62    0.20
  -3  -5  -7    5.57    0.19
  -3  -5  -7    5.61    0.17
  -3  -5  -7    5.71    0.23
   3   5   7    5.79    0.19
   3   5   7    5.65    0.20
  -4  -5  -7   18.01    0.41
  -4  -5  -7   18.34    0.43
  -4  -5  -7   17.55    0.40
  -4  -5  -7   17.64    0.50
   4   5   7   17.16    0.39
  -5  -5  -7    5.49    0.17
  -5  -5  -7    5.55    0.19
  -5  -5  -7    5.66    0.29
  -5  -5  -7    5.18    0.20
   5   5   7    5.89    0.14
   5   5   7    5.61    0.20
   5   5   7    5.64    0.18
  -6  -5  -7    0.12    0.13
   6   5   7    0.29    0.06
   6   5   7   -0.02    0.14
  -7  -5  -7    2.70    0.32
   7   5   7    2.14    0.25
   7   5   7    2.25    0.17
   6  -6  -7    4.69    0.32
   6  -6  -7    5.27    0.37
   6  -6  -7    5.72    0.40
  -6   6   7    5.79    0.37
  -6   6   7    5.58    0.34
  -6   6   7    4.70    0.32
   5  -6  -7    5.42    0.31
   5  -6  -7    5.09    0.31
   5  -6  -7    5.20    0.28
  -5   6   7    5.40    0.29
  -5   6   7    5.74    0.33
  -5   6   7    5.37    0.28
   4  -6  -7    5.40    0.28
   4  -6  -7    5.49    0.27
   4  -6  -7    5.65    0.27
  -4   6   7    5.44    0.29
  -4   6   7    5.23    0.26
   3  -6  -7    9.26    0.31
   3  -6  -7    8.94    0.30
  -3   6   7    9.35    0.30
  -3   6   7    9.54    0.34
   2  -6  -7    1.44    0.15
   2  -6  -7    1.34    0.14
   2  -6  -7    1.25    0.15
  -2   6   7    1.31    0.14
  -2   6   7    1.16    0.09
  -2   6   7    1.28    0.12
  -2   6   7    1.41    0.17
   1  -6  -7    4.07    0.19
   1  -6  -7    4.08    0.20
  -1   6   7    4.04    0.18
  -1   6   7    3.98    0.15
   0  -6  -7    2.62    0.16
   0   6   7    2.55    0.15
   0   6   7    2.85    0.16
  -1  -6  -7    0.25    0.06
  -1  -6  -7    0.30    0.07
   1   6   7    0.26    0.06
   1   6   7    0.19    0.05
  -2  -6  -7    0.69    0.10
  -2  -6  -7    0.88    0.07
  -2  -6  -7    0.71    0.09
  -2  -6  -7    0.77    0.05
   2   6   7    0.66    0.08
   2   6   7    0.56    0.07
  -3  -6  -7    0.59    0.07
  -3  -6  -7    0.80    0.11
  -3  -6  -7    0.65    0.06
  -3  -6  -7    0.65    0.07
  -3  -6  -7    0.63    0.09
   3   6   7    0.60    0.08
   3   6   7    0.67    0.08
  -4  -6  -7    4.73    0.17
  -4  -6  -7    4.71    0.20
  -4  -6  -7    4.69    0.18
  -4  -6  -7    4.66    0.25
  -4  -6  -7    4.85    0.14
   4   6   7    4.82    0.18
   4   6   7    4.99    0.19
  -5  -6  -7    7.06    0.33
  -5  -6  -7    6.97    0.23
  -5  -6  -7    7.00    0.21
  -5  -6  -7    7.21    0.26
   5   6   7    6.69    0.21
  -6  -6  -7    0.07    0.13
  -6  -6  -7    0.07    0.06
  -6  -6  -7    0.09    0.08
   6   6   7    0.06    0.08
   6   6   7    0.11    0.07
   6   6   7    0.09    0.07
  -7  -6  -7    4.68    0.38
   7   6   7    4.97    0.21
   7   6   7    4.20    0.39
   6  -7  -7    1.33    0.20
   6  -7  -7    1.47    0.24
  -6   7   7    1.20    0.21
  -6   7   7    1.10    0.18
  -6   7   7    1.35    0.23
   5  -7  -7    0.95    0.17
   5  -7  -7    1.11    0.18
   5  -7  -7    0.91    0.15
  -5   7   7    0.97    0.16
  -5   7   7    1.18    0.19
  -5   7   7    1.09    0.15
   4  -7  -7   14.42    0.44
   4  -7  -7   14.68    0.44
   4  -7  -7   15.50    0.48
  -4   7   7   14.65    0.44
  -4   7   7   15.32    0.47
   3  -7  -7    3.62    0.23
   3  -7  -7    3.28    0.20
  -3   7   7    3.47    0.19
  -3   7   7    3.51    0.23
  -3   7   7    3.56    0.12
   2  -7  -7    4.05    0.22
   2  -7  -7    3.93    0.20
  -2   7   7    4.04    0.18
   1  -7  -7    3.94    0.21
   1  -7  -7    4.08    0.19
  -1   7   7    4.09    0.20
  -1   7   7    3.93    0.19
   0  -7  -7    7.56    0.25
   0  -7  -7    7.65    0.27
   0   7   7    7.47    0.26
   0   7   7    7.67    0.26
  -1  -7  -7    0.69    0.09
  -1  -7  -7    0.70    0.09
   1   7   7    0.68    0.09
   1   7   7    0.62    0.08
  -2  -7  -7    5.66    0.22
  -2  -7  -7    5.38    0.14
  -2  -7  -7    5.08    0.14
  -2  -7  -7    5.33    0.20
   2   7   7    5.27    0.20
   2   7   7    5.43    0.21
  -3  -7  -7    4.54    0.19
  -3  -7  -7    4.56    0.21
  -3  -7  -7    4.49    0.14
  -3  -7  -7    4.38    0.23
  -3  -7  -7    4.69    0.14
   3   7   7    4.46    0.19
   3   7   7    4.38    0.18
  -4  -7  -7    0.33    0.06
  -4  -7  -7    0.48    0.09
  -4  -7  -7    0.39    0.10
  -4  -7  -7    0.40    0.08
  -4  -7  -7    0.37    0.07
   4   7   7    0.28    0.08
   4   7   7    0.42    0.08
  -5  -7  -7    9.65    0.31
  -5  -7  -7    9.71    0.28
  -5  -7  -7    9.58    0.26
  -5  -7  -7   10.54    0.40
   5   7   7    9.29    0.28
   5   7   7    9.61    0.30
  -6  -7  -7    0.46    0.16
  -6  -7  -7    0.24    0.10
   6   7   7    0.32    0.10
  -7  -7  -7    1.12    0.21
   7   7   7    1.52    0.19
   5  -8  -7    0.81    0.18
   5  -8  -7    0.59    0.16
   5  -8  -7    0.87    0.18
  -5   8   7    0.91    0.18
  -5   8   7    0.80    0.14
   4  -8  -7    0.68    0.15
   4  -8  -7    0.65    0.13
   4  -8  -7    0.64    0.14
  -4   8   7    0.52    0.15
  -4   8   7    0.47    0.12
  -4   8   7    0.49    0.12
   3  -8  -7    5.99    0.30
   3  -8  -7    6.35    0.27
  -3   8   7    6.02    0.16
  -3   8   7    6.12    0.25
   2  -8  -7    0.11    0.07
  -2   8   7    0.12    0.07
  -2   8   7    0.20    0.08
  -2   8   7    0.25    0.09
   1  -8  -7   35.15    0.80
   1  -8  -7   34.26    0.78
  -1   8   7   33.85    0.77
  -1   8   7   35.38    0.79
   0  -8  -7    5.16    0.22
   0  -8  -7    5.20    0.24
   0   8   7    5.42    0.23
   0   8   7    5.21    0.22
  -1  -8  -7    1.88    0.14
  -1  -8  -7    1.70    0.16
   1   8   7    1.73    0.15
   1   8   7    1.77    0.15
  -2  -8  -7   19.29    0.49
  -2  -8  -7   19.57    0.38
  -2  -8  -7   18.35    0.49
   2   8   7   18.48    0.47
   2   8   7   19.15    0.48
  -3  -8  -7    7.85    0.28
  -3  -8  -7    6.90    0.25
  -3  -8  -7    7.67    0.20
   3   8   7    7.58    0.28
   3   8   7    7.46    0.26
  -4  -8  -7    1.55    0.17
  -4  -8  -7    1.53    0.12
  -4  -8  -7    1.37    0.19
   4   8   7    1.50    0.16
   4   8   7    1.51    0.15
  -5  -8  -7    0.87    0.11
  -5  -8  -7    0.74    0.12
  -5  -8  -7    0.86    0.17
   5   8   7    0.93    0.12
   5   8   7    0.82    0.11
  -6  -8  -7    2.35    0.23
  -6  -8  -7    1.88    0.22
  -6  -8  -7    2.55    0.31
  -6  -8  -7    2.55    0.19
   6   8   7    2.06    0.21
   6   8   7    2.27    0.21
   5  -9  -7    2.08    0.24
   5  -9  -7    2.78    0.31
   5  -9  -7    2.12    0.23
  -5   9   7    3.02    0.36
  -5   9   7    3.03    0.28
  -5   9   7    2.59    0.26
   4  -9  -7    3.88    0.28
   4  -9  -7    4.01    0.30
  -4   9   7    4.26    0.31
  -4   9   7    3.78    0.26
  -4   9   7    3.83    0.25
   3  -9  -7    2.93    0.22
   3  -9  -7    2.47    0.24
  -3   9   7    2.67    0.19
  -3   9   7    2.44    0.11
  -3   9   7    2.35    0.23
   2  -9  -7    6.81    0.28
   2  -9  -7    6.08    0.29
  -2   9   7    6.36    0.26
  -2   9   7    6.88    0.29
  -2   9   7    6.55    0.25
   1  -9  -7    2.37    0.20
   1  -9  -7    2.33    0.18
  -1   9   7    2.31    0.17
  -1   9   7    2.40    0.19
   0  -9  -7    2.13    0.18
   0  -9  -7    1.82    0.12
   0  -9  -7    2.15    0.19
   0   9   7    2.08    0.17
   0   9   7    2.18    0.18
  -1  -9  -7    3.30    0.19
  -1  -9  -7    3.42    0.13
  -1  -9  -7    3.58    0.22
   1   9   7    3.47    0.20
   1   9   7    3.74    0.20
  -2  -9  -7   21.01    0.54
  -2  -9  -7   20.37    0.42
   2   9   7   19.30    0.49
  -3  -9  -7    9.04    0.24
  -3  -9  -7    9.32    0.33
   3   9   7    8.91    0.30
   3   9   7    9.02    0.31
  -4  -9  -7    0.57    0.13
  -4  -9  -7    0.71    0.09
  -4  -9  -7    0.53    0.12
   4   9   7    0.70    0.11
   4   9   7    0.72    0.11
  -5  -9  -7    9.94    0.36
  -5  -9  -7   10.16    0.44
  -5  -9  -7    9.34    0.31
  -5  -9  -7    8.98    0.32
   5   9   7    9.41    0.34
   5   9   7    9.94    0.35
  -6  -9  -7    2.76    0.32
  -6  -9  -7    2.55    0.26
  -6  -9  -7    2.15    0.23
  -6  -9  -7    2.64    0.25
   6   9   7    2.27    0.24
   6   9   7    2.35    0.25
   5 -10  -7    0.46    0.19
   5 -10  -7    0.64    0.19
   5 -10  -7    1.18    0.24
  -5  10   7    0.85    0.23
  -5  10   7    0.53    0.17
   4 -10  -7    8.36    0.38
   4 -10  -7    8.14    0.40
  -4  10   7    8.28    0.36
   3 -10  -7   18.58    0.56
  -3  10   7   18.01    0.40
  -3  10   7   17.66    0.49
  -3  10   7   18.31    0.54
   2 -10  -7    6.63    0.32
  -2  10   7    6.27    0.28
  -2  10   7    5.95    0.31
  -2  10   7    6.27    0.25
  -2  10   7    6.36    0.20
   1 -10  -7    0.04    0.10
   1 -10  -7    0.08    0.08
  -1  10   7    0.15    0.09
  -1  10   7    0.24    0.10
   0 -10  -7    6.88    0.30
   0 -10  -7    6.44    0.27
   0  10   7    6.47    0.27
  -1 -10  -7    6.02    0.19
  -1 -10  -7    6.31    0.25
  -1 -10  -7    6.29    0.29
   1  10   7    5.99    0.27
   1  10   7    6.13    0.26
  -2 -10  -7    9.90    0.36
  -2 -10  -7    9.46    0.25
   2  10   7    9.25    0.33
   2  10   7    9.39    0.32
  -3 -10  -7   12.92    0.32
  -3 -10  -7   13.70    0.43
   3  10   7   13.17    0.41
   3  10   7   12.68    0.39
  -4 -10  -7    0.78    0.11
  -4 -10  -7    0.78    0.15
  -4 -10  -7    0.75    0.13
  -4 -10  -7    0.89    0.15
   4  10   7    0.57    0.12
   4  10   7    0.65    0.13
  -5 -10  -7    1.00    0.14
  -5 -10  -7    1.20    0.18
  -5 -10  -7    1.13    0.14
  -5 -10  -7    1.23    0.19
   5  10   7    0.98    0.16
   5  10   7    1.25    0.16
  -6 -10  -7    0.43    0.19
  -6 -10  -7    0.54    0.15
  -6 -10  -7    0.59    0.18
   6  10   7    0.54    0.17
   4 -11  -7    2.79    0.31
   4 -11  -7    3.05    0.35
  -4  11   7    2.05    0.28
  -4  11   7    2.56    0.16
  -4  11   7    2.70    0.25
   3 -11  -7    1.89    0.21
   3 -11  -7    1.85    0.25
  -3  11   7    2.04    0.15
  -3  11   7    2.63    0.30
  -3  11   7    2.02    0.19
   2 -11  -7    6.04    0.32
   2 -11  -7    5.56    0.30
  -2  11   7    5.63    0.25
  -2  11   7    6.60    0.33
  -2  11   7    6.21    0.21
  -2  11   7    6.08    0.29
   1 -11  -7   15.49    0.49
   1 -11  -7   14.66    0.45
  -1  11   7   15.44    0.49
  -1  11   7   15.02    0.45
   0 -11  -7    8.81    0.36
   0 -11  -7    8.70    0.33
   0  11   7    8.09    0.32
   0  11   7    8.43    0.34
  -1 -11  -7    6.48    0.28
  -1 -11  -7    7.26    0.23
   1  11   7    7.04    0.30
   1  11   7    6.59    0.31
  -2 -11  -7    3.12    0.16
  -2 -11  -7    2.84    0.26
   2  11   7    2.79    0.23
  -3 -11  -7    0.53    0.09
  -3 -11  -7    0.40    0.15
   3  11   7    0.62    0.13
   3  11   7    0.26    0.11
  -4 -11  -7    0.91    0.17
  -4 -11  -7    0.61    0.13
   4  11   7    0.61    0.15
   4  11   7    0.75    0.15
  -5 -11  -7    1.72    0.23
  -5 -11  -7    1.57    0.21
  -5 -11  -7    1.67    0.19
  -5 -11  -7    1.55    0.18
   5  11   7    1.54    0.21
   5  11   7    1.37    0.20
   4 -12  -7    0.53    0.19
  -4  12   7    0.34    0.11
  -4  12   7    0.17    0.14
  -4  12   7    0.33    0.21
   3 -12  -7    0.55    0.17
   3 -12  -7    0.52    0.18
  -3  12   7    0.41    0.15
  -3  12   7    0.75    0.15
  -3  12   7    0.58    0.10
  -3  12   7    0.21    0.17
   2 -12  -7    2.50    0.27
   2 -12  -7    2.25    0.29
  -2  12   7    2.43    0.20
  -2  12   7    2.55    0.29
  -2  12   7    2.06    0.16
  -2  12   7    2.20    0.25
   1 -12  -7   -0.01    0.12
   1 -12  -7    0.12    0.14
  -1  12   7    0.00    0.13
  -1  12   7    0.29    0.12
   0 -12  -7    1.04    0.18
   0 -12  -7    0.98    0.14
   0  12   7    1.10    0.16
   0  12   7    0.94    0.15
  -1 -12  -7    7.11    0.32
  -1 -12  -7    7.84    0.37
   1  12   7    7.57    0.35
   1  12   7    7.41    0.34
  -2 -12  -7    1.23    0.15
  -2 -12  -7    0.99    0.17
  -2 -12  -7    0.98    0.15
   2  12   7    1.09    0.16
   2  12   7    0.98    0.15
  -3 -12  -7    2.37    0.24
  -3 -12  -7    2.55    0.32
   3  12   7    3.44    0.29
   3  12   7    3.26    0.28
  -4 -12  -7    6.15    0.39
  -4 -12  -7    6.03    0.33
   4  12   7    6.17    0.37
   3 -13  -7    1.12    0.23
  -3  13   7    1.01    0.14
  -3  13   7    0.67    0.24
  -3  13   7    1.10    0.17
   2 -13  -7    5.35    0.40
   2 -13  -7    5.79    0.38
  -2  13   7    5.17    0.38
  -2  13   7    4.93    0.35
   1 -13  -7    0.21    0.15
   1 -13  -7    0.35    0.16
  -1  13   7    0.02    0.15
  -1  13   7    0.47    0.17
  -1  13   7    0.06    0.10
   0 -13  -7    5.78    0.25
   0 -13  -7    5.57    0.38
   0 -13  -7    5.66    0.33
   0  13   7    5.53    0.26
   0  13   7    5.90    0.37
   0  13   7    5.56    0.33
  -1 -13  -7    5.04    0.36
  -1 -13  -7    4.76    0.32
  -1 -13  -7    5.00    0.24
   1  13   7    4.99    0.35
   1  13   7    5.11    0.34
  -2 -13  -7    1.76    0.23
  -2 -13  -7    1.58    0.19
  -2 -13  -7    1.79    0.20
   2  13   7    1.60    0.20
   2  13   7    1.95    0.22
  -3 -13  -7    4.02    0.24
  -3 -13  -7    3.24    0.38
  -3 -13  -7    3.14    0.30
   3  13   7    3.75    0.34
   3  13   7    3.84    0.34
   4  13   7    6.44    0.45
  -2  14   7    0.25    0.22
  -2  14   7    0.28    0.14
  -2  14   7    0.46    0.14
   1 -14  -7    1.98    0.24
   1 -14  -7    2.32    0.28
  -1  14   7    2.29    0.26
  -1  14   7    1.66    0.22
  -1  14   7    1.51    0.16
   0 -14  -7    0.25    0.12
   0 -14  -7    0.22    0.19
   0 -14  -7    0.23    0.20
   0  14   7    0.29    0.13
   0  14   7    0.47    0.21
   0  14   7    0.25    0.18
  -1 -14  -7   -0.40    0.19
  -1 -14  -7    0.32    0.12
  -1 -14  -7    0.22    0.18
   1  14   7    0.06    0.13
   1  14   7    0.06    0.20
   1  14   7    0.37    0.18
  -2 -14  -7    3.38    0.41
  -2 -14  -7    3.87    0.27
   2  14   7    3.76    0.41
   2  14   7    3.75    0.38
   1   8  -8    2.00    0.26
   1   8  -8    1.57    0.30
  -1  -8   8    1.41    0.23
  -1  -8   8    1.33    0.27
  -1  -8   8    1.47    0.24
   0   8  -8    5.88    0.46
   0   8  -8    7.69    0.44
   0   8  -8    6.49    0.45
   0  -8   8    7.25    0.33
   0  -8   8    6.08    0.36
   0  -8   8    6.46    0.48
   0  -8   8    7.21    0.41
  -1   8  -8    4.95    0.39
  -1   8  -8    3.94    0.40
  -1   8  -8    4.79    0.27
  -1   8  -8    4.96    0.42
   1  -8   8    3.85    0.31
   1  -8   8    4.19    0.28
   1  -8   8    4.21    0.43
   1  -8   8    3.72    0.33
  -2   8  -8    4.71    0.38
  -2   8  -8    5.63    0.30
   2  -8   8    5.24    0.35
   2  -8   8    5.59    0.44
   2  -8   8    4.68    0.30
   2  -8   8    5.14    0.32
  -3   8  -8    0.22    0.19
  -3   8  -8    0.54    0.15
   3  -8   8    0.45    0.16
   3  -8   8    0.51    0.23
   2   7  -8    1.05    0.27
   2   7  -8    1.28    0.17
   2   7  -8    1.38    0.23
   2   7  -8    1.10    0.21
  -2  -7   8    1.60    0.24
  -2  -7   8    1.88    0.28
  -2  -7   8    1.36    0.21
   1   7  -8    1.87    0.22
   1   7  -8    1.48    0.24
   1   7  -8    1.95    0.23
  -1  -7   8    1.72    0.20
  -1  -7   8    1.52    0.20
  -1  -7   8    1.67    0.23
  -1  -7   8    2.36    0.22
   0   7  -8    0.77    0.17
   0   7  -8    0.58    0.18
   0   7  -8    0.44    0.18
   0  -7   8    0.53    0.15
   0  -7   8    0.60    0.20
   0  -7   8    0.59    0.12
   0  -7   8    0.51    0.14
  -1   7  -8    2.63    0.32
  -1   7  -8    2.61    0.30
  -1   7  -8    1.90    0.23
   1  -7   8    1.81    0.23
   1  -7   8    1.93    0.20
   1  -7   8    1.91    0.21
   1  -7   8    2.26    0.31
  -2   7  -8    2.54    0.22
  -2   7  -8    2.39    0.32
  -2   7  -8    2.71    0.31
   2  -7   8    2.70    0.33
   2  -7   8    2.88    0.23
   2  -7   8    2.71    0.24
   2  -7   8    2.84    0.26
  -3   7  -8    5.06    0.40
  -3   7  -8    5.29    0.29
  -3   7  -8    5.13    0.37
  -3   7  -8    5.36    0.34
   3  -7   8    5.02    0.30
   3  -7   8    5.46    0.38
   3  -7   8    5.50    0.32
   3  -7   8    5.27    0.28
  -4   7  -8    2.30    0.22
  -4   7  -8    2.52    0.26
  -4   7  -8    2.51    0.25
  -4   7  -8    2.82    0.31
   4  -7   8    3.67    0.27
   4  -7   8    3.06    0.30
   4  -7   8    2.51    0.29
   4  -7   8    2.56    0.27
   3   6  -8    2.90    0.28
   3   6  -8    2.86    0.26
   3   6  -8    2.62    0.28
   3   6  -8    2.94    0.33
  -3  -6   8    3.37    0.36
  -3  -6   8    2.88    0.28
   2   6  -8    3.14    0.30
   2   6  -8    2.64    0.22
   2   6  -8    3.33    0.35
   2   6  -8    2.69    0.36
  -2  -6   8    3.60    0.31
  -2  -6   8    2.84    0.36
  -2  -6   8    3.07    0.30
   1   6  -8    3.89    0.22
   1   6  -8    4.34    0.30
   1   6  -8    3.76    0.33
   1   6  -8    3.98    0.35
  -1  -6   8    3.96    0.34
  -1  -6   8    4.09    0.29
  -1  -6   8    4.03    0.28
  -1  -6   8    4.11    0.22
  -1  -6   8    3.92    0.22
   0   6  -8    7.29    0.38
   0   6  -8    6.62    0.36
   0   6  -8    6.65    0.34
   0  -6   8    6.61    0.32
   0  -6   8    7.02    0.37
   0  -6   8    6.85    0.33
   0  -6   8    7.16    0.28
   0  -6   8    6.77    0.29
  -1   6  -8    1.08    0.17
   1  -6   8    4.46    0.23
   1  -6   8    4.43    0.26
   1  -6   8    4.32    0.23
   1  -6   8    4.24    0.31
   1  -6   8    3.84    0.34
  -2   6  -8    6.29    0.34
   2  -6   8   13.81    0.38
   2  -6   8   13.79    0.41
   2  -6   8   13.93    0.48
   2  -6   8   13.48    0.43
  -3   6  -8    4.19    0.28
  -3   6  -8    4.10    0.30
  -3   6  -8    3.35    0.33
  -3   6  -8    3.97    0.25
   3  -6   8    4.22    0.26
   3  -6   8    3.80    0.30
   3  -6   8    3.65    0.25
   3  -6   8    3.74    0.22
  -4   6  -8    5.83    0.30
  -4   6  -8    5.50    0.34
  -4   6  -8    5.41    0.30
  -4   6  -8    6.05    0.42
   4  -6   8    5.99    0.27
   4  -6   8    5.69    0.34
   4  -6   8    5.74    0.29
   4  -6   8    5.58    0.30
  -5   6  -8    0.94    0.26
  -5   6  -8    0.97    0.17
  -5   6  -8    1.37    0.21
   5  -6   8    0.86    0.18
   5  -6   8    1.02    0.15
   5  -6   8    1.09    0.15
   4   5  -8    4.89    0.38
   4   5  -8    4.69    0.50
  -4  -5   8    4.47    0.41
   3   5  -8   11.47    0.43
   3   5  -8   10.80    0.37
   3   5  -8   10.64    0.51
   3   5  -8   11.25    0.47
  -3  -5   8   11.61    0.47
  -3  -5   8   11.51    0.50
  -3  -5   8   11.06    0.44
   2   5  -8    6.09    0.32
   2   5  -8    5.02    0.35
   2   5  -8    5.62    0.37
   2   5  -8    5.69    0.26
  -2  -5   8    5.93    0.30
  -2  -5   8    5.71    0.33
  -2  -5   8    5.75    0.24
  -2  -5   8    5.08    0.35
   1   5  -8    1.41    0.16
   1   5  -8    1.48    0.19
   1   5  -8    1.50    0.19
   1   5  -8    1.75    0.23
  -1  -5   8    1.76    0.20
  -1  -5   8    1.30    0.16
  -1  -5   8    1.80    0.23
  -1  -5   8    1.43    0.17
   0   5  -8   13.29    0.47
   0   5  -8   13.21    0.46
   0   5  -8   13.59    0.44
   0  -5   8   13.32    0.38
   0  -5   8   12.80    0.38
   0  -5   8   13.83    0.38
   0  -5   8   13.28    0.46
   0  -5   8   13.53    0.43
  -1   5  -8   17.85    0.49
  -1   5  -8   13.25    0.46
   1  -5   8   17.78    0.50
   1  -5   8   18.33    0.47
   1  -5   8   18.36    0.54
   1  -5   8   17.81    0.44
   1  -5   8   16.96    0.49
  -2   5  -8    2.61    0.19
  -2   5  -8    3.11    0.24
   2  -5   8    2.91    0.25
   2  -5   8    2.59    0.19
   2  -5   8    2.63    0.20
  -3   5  -8    3.54    0.29
  -3   5  -8    4.90    0.26
  -3   5  -8    3.83    0.27
  -3   5  -8    4.48    0.24
   3  -5   8    4.09    0.24
   3  -5   8    4.53    0.24
   3  -5   8    4.78    0.29
  -4   5  -8    6.62    0.30
  -4   5  -8    6.11    0.32
  -4   5  -8    6.19    0.28
  -4   5  -8    5.45    0.37
   4  -5   8    6.07    0.29
   4  -5   8    6.39    0.32
   4  -5   8    5.89    0.27
   4  -5   8    6.62    0.24
  -5   5  -8    0.95    0.22
  -5   5  -8    0.59    0.15
  -5   5  -8    0.83    0.14
  -5   5  -8    0.59    0.13
  -5   5  -8    0.83    0.16
   5  -5   8    0.53    0.15
   5  -5   8    0.49    0.15
   5  -5   8    0.50    0.12
   5  -5   8    0.52    0.12
   4   4  -8   -0.02    0.14
   4   4  -8   -0.22    0.17
   4   4  -8    0.13    0.15
   4   4  -8    0.18    0.22
  -4  -4   8    0.03    0.11
  -4  -4   8   -0.13    0.17
  -4  -4   8    0.14    0.17
  -4  -4   8    0.24    0.19
   3   4  -8   12.22    0.50
   3   4  -8   12.57    0.42
   3   4  -8   12.13    0.45
   3   4  -8   11.74    0.37
  -3  -4   8   11.84    0.43
  -3  -4   8   12.88    0.46
  -3  -4   8   11.89    0.48
   2   4  -8   20.93    0.49
   2   4  -8   21.75    0.57
   2   4  -8   20.48    0.63
   2   4  -8   21.09    0.60
  -2  -4   8   22.20    0.65
  -2  -4   8   21.56    0.56
  -2  -4   8   22.54    0.53
  -2  -4   8   22.30    0.62
   1   4  -8    0.77    0.12
   1   4  -8    0.67    0.14
   1   4  -8    0.86    0.10
   1   4  -8    0.98    0.16
  -1  -4   8    0.74    0.12
  -1  -4   8    0.80    0.15
  -1  -4   8    1.03    0.13
  -1  -4   8    0.85    0.12
   0   4  -8    7.17    0.30
   0   4  -8    7.39    0.23
   0   4  -8    6.88    0.32
   0  -4   8    6.78    0.23
   0  -4   8    7.08    0.25
   0  -4   8    6.83    0.30
  -1   4  -8   11.07    0.37
  -1   4  -8   11.00    0.37
   1  -4   8   10.84    0.35
   1  -4   8   11.13    0.31
   1  -4   8   10.77    0.39
   1  -4   8   11.23    0.33
   1  -4   8   11.00    0.36
  -2   4  -8    0.46    0.11
  -2   4  -8    0.45    0.09
   2  -4   8    0.63    0.09
   2  -4   8    0.46    0.16
   2  -4   8    0.51    0.10
   2  -4   8    0.37    0.11
   2  -4   8    0.58    0.10
   3  -4   8    8.59    0.29
   3  -4   8    8.64    0.33
   3  -4   8    8.76    0.31
   3  -4   8    8.53    0.25
  -4   4  -8   15.32    0.53
  -4   4  -8   17.04    0.43
  -4   4  -8   16.07    0.47
   4  -4   8   16.54    0.44
   4  -4   8   16.99    0.48
   4  -4   8   16.48    0.39
   4  -4   8   16.48    0.47
  -5   4  -8    3.78    0.21
  -5   4  -8    3.99    0.21
  -5   4  -8    4.12    0.26
  -5   4  -8    4.56    0.35
   5  -4   8    3.97    0.21
   5  -4   8    3.94    0.20
   5  -4   8    3.74    0.24
   5  -4   8    4.11    0.27
  -6   4  -8   -0.02    0.10
  -6   4  -8    0.18    0.14
   6  -4   8    0.06    0.11
   6  -4   8   -0.01    0.09
   6  -4   8   -0.04    0.15
   6  -4   8    0.11    0.12
   5   3  -8   12.14    0.61
   5   3  -8   12.08    0.44
  -5  -3   8   12.42    0.52
  -5  -3   8   11.83    0.38
   4   3  -8    4.57    0.28
   4   3  -8    4.33    0.29
   4   3  -8    4.31    0.33
   4   3  -8    4.69    0.40
  -4  -3   8    4.65    0.34
  -4  -3   8    3.36    0.33
  -4  -3   8    4.60    0.22
  -4  -3   8    4.34    0.33
   3   3  -8   13.03    0.45
   3   3  -8   13.04    0.48
   3   3  -8   12.52    0.40
   3   3  -8   12.53    0.37
  -3  -3   8   12.79    0.33
  -3  -3   8   13.02    0.45
  -3  -3   8   11.95    0.42
  -3  -3   8   12.98    0.47
   2   3  -8    0.03    0.11
   2   3  -8    0.22    0.10
   2   3  -8    0.33    0.14
   2   3  -8    0.13    0.07
  -2  -3   8    0.28    0.11
  -2  -3   8    0.21    0.07
  -2  -3   8    0.32    0.12
  -2  -3   8    0.04    0.10
   1   3  -8   33.34    0.84
   1   3  -8   33.52    0.77
   1   3  -8   33.25    0.82
   1   3  -8   33.11    0.67
  -1  -3   8   32.68    0.81
  -1  -3   8   33.30    0.71
   0   3  -8   21.80    0.59
   0   3  -8   22.32    0.56
   0   3  -8   22.17    0.58
   0   3  -8   22.32    0.47
   0  -3   8   21.25    0.48
   0  -3   8   21.98    0.49
   0  -3   8   22.31    0.59
   0  -3   8   21.63    0.52
  -1   3  -8   55.23    1.17
  -1   3  -8   55.91    1.18
   1  -3   8   55.84    1.20
   1  -3   8   54.77    1.13
   1  -3   8   55.23    1.04
  -2   3  -8   23.34    0.59
  -2   3  -8   23.50    0.57
   2  -3   8   23.83    0.56
   2  -3   8   23.01    0.59
   2  -3   8   21.83    0.57
   2  -3   8   23.68    0.48
   2  -3   8   22.32    0.57
  -3   3  -8    0.52    0.10
  -3   3  -8    0.49    0.10
   3  -3   8    0.75    0.12
   3  -3   8    0.58    0.10
   3  -3   8    0.71    0.08
   3  -3   8    0.65    0.10
  -4   3  -8    6.86    0.24
  -4   3  -8    6.60    0.19
  -4   3  -8    6.22    0.27
   4  -3   8    7.07    0.29
   4  -3   8    6.25    0.20
   4  -3   8    6.70    0.27
   4  -3   8    6.46    0.24
  -5   3  -8   18.97    0.53
  -5   3  -8   18.50    0.42
   5  -3   8   19.10    0.47
   5  -3   8   20.07    0.54
   5  -3   8   18.22    0.41
   5  -3   8   19.14    0.45
  -6   3  -8    2.76    0.21
  -6   3  -8    3.00    0.24
   6  -3   8    2.85    0.28
   6  -3   8    2.35    0.19
   5   2  -8    0.44    0.17
   5   2  -8    0.78    0.19
   5   2  -8    0.06    0.14
   5   2  -8    0.44    0.22
  -5  -2   8    0.21    0.20
  -5  -2   8    0.41    0.19
  -5  -2   8    0.50    0.14
   4   2  -8    0.42    0.13
   4   2  -8    0.76    0.14
   4   2  -8    0.57    0.15
   4   2  -8    0.43    0.17
  -4  -2   8    0.57    0.12
  -4  -2   8    0.24    0.14
  -4  -2   8    0.52    0.16
   3   2  -8    6.05    0.34
   3   2  -8    6.05    0.31
   3   2  -8    5.99    0.26
   3   2  -8    5.74    0.25
  -3  -2   8    5.08    0.30
  -3  -2   8    6.01    0.22
  -3  -2   8    6.16    0.21
  -3  -2   8    5.78    0.29
  -3  -2   8    5.92    0.31
   2   2  -8    4.64    0.26
   2   2  -8    4.54    0.23
  -2  -2   8    4.47    0.23
  -2  -2   8    4.07    0.26
  -2  -2   8    4.67    0.26
  -2  -2   8    4.61    0.18
  -2  -2   8    4.47    0.16
   1   2  -8   30.97    0.74
   1   2  -8   29.87    0.61
   1   2  -8   30.78    0.70
  -1  -2   8   29.86    0.76
  -1  -2   8   30.67    0.66
  -1  -2   8   30.66    0.73
  -1  -2   8   30.77    0.65
   0   2  -8   10.44    0.33
   0   2  -8   10.34    0.34
   0   2  -8    9.43    0.37
   0   2  -8   10.11    0.25
   0  -2   8   10.51    0.34
   0  -2   8   10.42    0.29
   0  -2   8   10.13    0.25
   0  -2   8   10.75    0.30
   0  -2   8   10.81    0.36
  -1   2  -8   30.67    0.72
  -1   2  -8   30.98    0.71
   1  -2   8   30.80    0.61
   1  -2   8   30.55    0.73
   1  -2   8   30.67    0.67
   1  -2   8   31.44    0.71
   1  -2   8   31.23    0.69
  -2   2  -8    0.29    0.09
   2  -2   8    0.38    0.06
   2  -2   8    0.31    0.11
   2  -2   8    0.35    0.08
   2  -2   8    0.39    0.10
   2  -2   8    0.30    0.08
  -3   2  -8   25.76    0.61
  -3   2  -8   27.09    0.60
  -3   2  -8   26.19    0.66
   3  -2   8   26.43    0.60
   3  -2   8   26.53    0.62
   3  -2   8   25.89    0.51
   3  -2   8   25.23    0.63
  -4   2  -8    2.61    0.18
  -4   2  -8    2.60    0.16
  -4   2  -8    2.35    0.19
   4  -2   8    2.49    0.18
   4  -2   8    2.83    0.15
   4  -2   8    2.55    0.12
   4  -2   8    2.49    0.21
  -5   2  -8    2.62    0.21
  -5   2  -8    2.52    0.14
  -5   2  -8    2.51    0.16
   5  -2   8    2.53    0.24
   5  -2   8    2.28    0.13
   5  -2   8    2.58    0.17
   5  -2   8    2.40    0.14
  -6   2  -8    0.27    0.12
  -6   2  -8    0.19    0.10
   6  -2   8    0.02    0.11
   6  -2   8    0.28    0.15
   5   1  -8    1.44    0.15
   5   1  -8    1.44    0.20
   5   1  -8    1.37    0.19
  -5  -1   8    1.31    0.21
  -5  -1   8    1.50    0.22
  -5  -1   8    1.51    0.18
  -5  -1   8    1.50    0.21
   4   1  -8    0.90    0.12
   4   1  -8    0.96    0.17
   4   1  -8    0.62    0.18
   4   1  -8    1.07    0.15
  -4  -1   8    0.87    0.16
  -4  -1   8    1.28    0.16
  -4  -1   8    0.96    0.14
   3   1  -8    0.38    0.12
   3   1  -8    0.34    0.09
   3   1  -8    0.28    0.13
   3   1  -8    0.25    0.10
  -3  -1   8    0.58    0.12
  -3  -1   8    0.42    0.11
  -3  -1   8    0.49    0.07
  -3  -1   8    0.55    0.10
   2   1  -8   18.85    0.44
   2   1  -8   18.10    0.46
   2   1  -8   18.82    0.53
  -2  -1   8   19.17    0.52
  -2  -1   8   18.74    0.43
  -2  -1   8   18.41    0.40
  -2  -1   8   17.61    0.48
  -2  -1   8   18.16    0.52
   1   1  -8    4.21    0.23
   1   1  -8    4.44    0.17
   1   1  -8    4.38    0.23
   1   1  -8    4.17    0.20
  -1  -1   8    4.03    0.23
  -1  -1   8    4.34    0.14
  -1  -1   8    4.20    0.17
  -1  -1   8    3.98    0.19
  -1  -1   8    4.24    0.22
   0   1  -8   33.86    0.79
   0   1  -8   35.10    0.66
   0   1  -8   34.71    0.76
   0   1  -8   34.54    0.78
   0  -1   8   34.74    0.70
   0  -1   8   35.98    0.80
   0  -1   8   35.93    0.75
   0  -1   8   34.72    0.81
  -1   1  -8    7.32    0.27
  -1   1  -8    7.29    0.27
  -1   1  -8    7.11    0.27
   1  -1   8    7.27    0.24
   1  -1   8    7.24    0.27
   1  -1   8    7.49    0.20
   1  -1   8    7.18    0.26
   1  -1   8    7.07    0.22
  -2   1  -8   19.81    0.50
  -2   1  -8   19.73    0.52
  -2   1  -8   20.60    0.50
   2  -1   8   19.66    0.40
   2  -1   8   20.14    0.49
   2  -1   8   19.99    0.51
   2  -1   8   20.35    0.50
   2  -1   8   20.20    0.50
  -3   1  -8    7.31    0.26
  -3   1  -8    7.77    0.25
  -3   1  -8    7.77    0.26
  -3   1  -8    7.41    0.30
   3  -1   8    7.40    0.26
   3  -1   8    7.43    0.32
   3  -1   8    7.65    0.18
   3  -1   8    7.79    0.28
   3  -1   8    7.71    0.25
  -4   1  -8   72.02    1.44
  -4   1  -8   73.84    1.45
  -4   1  -8   72.45    1.30
  -4   1  -8   73.98    1.43
   4  -1   8   72.78    1.28
   4  -1   8   73.13    1.43
   4  -1   8   71.00    1.44
   4  -1   8   74.88    1.50
  -5   1  -8    9.27    0.33
  -5   1  -8    8.91    0.25
  -5   1  -8    9.00    0.24
  -5   1  -8    8.80    0.23
   5  -1   8    9.24    0.35
   5  -1   8    9.24    0.25
   5  -1   8    8.97    0.25
   5  -1   8    9.09    0.24
   5  -1   8    8.58    0.22
  -6   1  -8    0.32    0.11
  -6   1  -8    0.37    0.11
   6  -1   8    0.41    0.14
   6  -1   8    0.31    0.11
  -7   1  -8    7.70    0.35
  -7   1  -8    7.40    0.29
   7  -1   8    7.66    0.31
   7  -1   8    7.43    0.40
   5   0  -8    2.54    0.25
   5   0  -8    3.27    0.30
   5   0  -8    2.95    0.32
   5   0  -8    2.93    0.19
  -5   0   8    2.81    0.23
  -5   0   8    2.71    0.32
  -5   0   8    2.43    0.31
   4   0  -8   17.36    0.54
   4   0  -8   16.74    0.52
   4   0  -8   16.80    0.47
   4   0  -8   16.78    0.42
  -4   0   8   17.20    0.45
  -4   0   8   16.84    0.51
  -4   0   8   16.56    0.49
   3   0  -8    5.77    0.24
   3   0  -8    5.92    0.28
   3   0  -8    5.80    0.22
   3   0  -8    5.80    0.29
  -3   0   8    5.66    0.18
  -3   0   8    5.89    0.29
  -3   0   8    5.70    0.22
  -3   0   8    6.16    0.27
   2   0  -8    2.75    0.16
   2   0  -8    2.54    0.17
   2   0  -8    2.95    0.21
   2   0  -8    2.89    0.22
  -2   0   8    2.84    0.13
  -2   0   8    2.77    0.18
  -2   0   8    2.83    0.21
  -2   0   8    2.93    0.15
   1   0  -8   21.18    0.51
   1   0  -8   20.94    0.55
   1   0  -8   21.51    0.45
   1   0  -8   21.58    0.55
  -1   0   8   20.85    0.47
  -1   0   8   21.31    0.55
  -1   0   8   21.44    0.54
  -1   0   8   21.49    0.48
   0   0  -8   14.57    0.42
   0   0  -8   15.07    0.40
   0   0  -8   15.78    0.33
   0   0  -8   15.42    0.42
   0   0   8   15.43    0.42
   0   0   8   15.57    0.38
   0   0   8   15.60    0.43
   0   0   8   15.08    0.35
  -1   0  -8    1.71    0.15
  -1   0  -8    1.77    0.08
  -1   0  -8    1.87    0.15
  -1   0  -8    1.81    0.15
   1   0   8    1.74    0.15
   1   0   8    1.67    0.14
   1   0   8    1.85    0.10
   1   0   8    1.95    0.14
  -2   0  -8   22.16    0.52
  -2   0  -8   22.59    0.55
  -2   0  -8   21.85    0.52
  -2   0  -8   21.71    0.53
   2   0   8   21.18    0.52
   2   0   8   22.39    0.54
   2   0   8   22.22    0.53
   2   0   8   21.92    0.42
   2   0   8   22.62    0.53
  -3   0  -8    4.01    0.19
  -3   0  -8    4.43    0.19
  -3   0  -8    4.48    0.21
  -3   0  -8    4.42    0.18
   3   0   8    4.56    0.18
   3   0   8    4.35    0.11
   3   0   8    4.23    0.19
   3   0   8    4.26    0.25
   3   0   8    4.45    0.22
  -4   0  -8   56.95    1.24
  -4   0  -8   58.47    1.04
  -4   0  -8   58.43    1.15
  -4   0  -8   58.07    1.15
   4   0   8   58.39    1.15
   4   0   8   57.33    1.15
  -5   0  -8   17.03    0.39
  -5   0  -8   17.60    0.47
  -5   0  -8   17.26    0.37
  -5   0  -8   17.60    0.37
  -5   0  -8   17.76    0.53
   5   0   8   17.94    0.39
   5   0   8   18.25    0.51
   5   0   8   17.82    0.35
   5   0   8   18.26    0.39
   5   0   8   18.42    0.38
  -6   0  -8    7.89    0.26
  -6   0  -8    8.24    0.33
   6   0   8    8.54    0.25
   6   0   8    8.41    0.37
  -7   0  -8    3.45    0.25
  -7   0  -8    2.83    0.21
   7   0   8    2.96    0.22
   7   0   8    3.06    0.34
   6  -1  -8    2.01    0.25
   6  -1  -8    1.28    0.24
   6  -1  -8    1.15    0.24
  -6   1   8    1.68    0.20
  -6   1   8    1.40    0.24
   5  -1  -8    3.62    0.32
   5  -1  -8    3.76    0.29
   5  -1  -8    3.81    0.30
  -5   1   8    3.89    0.32
  -5   1   8    3.96    0.33
  -5   1   8    3.69    0.24
   4  -1  -8    1.35    0.14
   4  -1  -8    1.06    0.16
   4  -1  -8    0.99    0.17
   4  -1  -8    0.97    0.14
  -4   1   8    1.13    0.14
  -4   1   8    1.19    0.16
   3  -1  -8   12.49    0.33
   3  -1  -8   12.61    0.41
   3  -1  -8   12.90    0.42
  -3   1   8   13.06    0.41
  -3   1   8   12.27    0.34
  -3   1   8   12.78    0.29
  -3   1   8   12.62    0.38
   2  -1  -8   57.81    1.15
   2  -1  -8   57.06    1.09
   2  -1  -8   57.96    1.23
   2  -1  -8   58.21    1.23
  -2   1   8   58.69    1.13
  -2   1   8   56.60    1.09
  -2   1   8   59.64    1.24
  -2   1   8   57.45    1.24
  -2   1   8   58.31    1.12
   1  -1  -8   17.17    0.43
   1  -1  -8   17.26    0.38
   1  -1  -8   16.91    0.47
   1  -1  -8   17.01    0.46
  -1   1   8   16.68    0.39
  -1   1   8   16.44    0.46
  -1   1   8   16.77    0.39
  -1   1   8   17.41    0.46
  -1   1   8   16.81    0.36
   0  -1  -8    5.12    0.21
   0  -1  -8    5.14    0.15
   0  -1  -8    5.47    0.22
   0  -1  -8    5.23    0.15
   0  -1  -8    5.26    0.22
   0   1   8    5.55    0.20
   0   1   8    5.24    0.17
   0   1   8    5.19    0.14
   0   1   8    5.43    0.22
   0   1   8    5.33    0.23
  -1  -1  -8    9.96    0.31
  -1  -1  -8   10.57    0.28
  -1  -1  -8   10.26    0.31
  -1  -1  -8   10.38    0.21
  -1  -1  -8   10.68    0.32
   1   1   8   10.36    0.23
   1   1   8   10.25    0.32
   1   1   8   10.66    0.31
   1   1   8   10.30    0.30
  -2  -1  -8    3.67    0.17
  -2  -1  -8    4.08    0.19
  -2  -1  -8    3.80    0.18
   2   1   8    3.89    0.19
   2   1   8    3.81    0.18
   2   1   8    3.75    0.18
  -3  -1  -8   13.83    0.39
  -3  -1  -8   13.34    0.35
  -3  -1  -8   13.69    0.35
  -3  -1  -8   13.43    0.35
   3   1   8   13.64    0.35
   3   1   8   13.47    0.35
   3   1   8   13.32    0.40
   3   1   8   13.81    0.39
  -4  -1  -8   22.20    0.59
  -4  -1  -8   23.04    0.50
  -4  -1  -8   23.15    0.54
  -4  -1  -8   22.33    0.50
   4   1   8   22.97    0.50
   4   1   8   22.67    0.58
   4   1   8   22.67    0.50
  -5  -1  -8    4.91    0.23
  -5  -1  -8    4.82    0.18
  -5  -1  -8    4.52    0.14
  -5  -1  -8    5.20    0.28
   5   1   8    4.71    0.15
   5   1   8    4.86    0.15
   5   1   8    5.05    0.27
  -6  -1  -8   12.38    0.40
  -6  -1  -8   12.43    0.45
  -6  -1  -8   12.29    0.34
   6   1   8   12.22    0.44
  -7  -1  -8    3.01    0.32
  -7  -1  -8    3.42    0.24
  -7  -1  -8    3.18    0.22
   7   1   8    2.95    0.20
   7   1   8    2.94    0.34
   6  -2  -8    3.81    0.39
   6  -2  -8    3.80    0.37
  -6   2   8    3.71    0.36
  -6   2   8    3.86    0.29
  -6   2   8    3.76    0.37
   5  -2  -8    0.01    0.15
   5  -2  -8   -0.10    0.13
   5  -2  -8    0.16    0.14
  -5   2   8    0.03    0.13
  -5   2   8    0.03    0.15
  -5   2   8    0.01    0.11
   4  -2  -8    8.24    0.34
   4  -2  -8    8.41    0.32
   4  -2  -8    7.99    0.34
  -4   2   8    8.12    0.34
  -4   2   8    7.31    0.29
   3  -2  -8    1.08    0.14
   3  -2  -8    1.26    0.15
  -3   2   8    1.82    0.20
  -3   2   8    1.28    0.08
  -3   2   8    1.16    0.14
   2  -2  -8   13.32    0.41
   2  -2  -8   13.89    0.42
   2  -2  -8   13.67    0.35
  -2   2   8   13.42    0.40
  -2   2   8   13.09    0.33
  -2   2   8   13.99    0.32
  -2   2   8   13.66    0.41
   1  -2  -8   41.96    0.80
   1  -2  -8   41.44    0.92
   1  -2  -8   42.82    0.94
   1  -2  -8   43.38    0.88
  -1   2   8   43.08    0.86
  -1   2   8   44.78    0.94
  -1   2   8   41.86    0.80
  -1   2   8   41.74    0.82
  -1   2   8   42.43    0.94
   0  -2  -8   44.31    0.79
   0  -2  -8   44.12    0.94
   0  -2  -8   42.04    0.86
   0  -2  -8   42.84    0.93
   0   2   8   43.24    0.94
   0   2   8   42.92    0.80
   0   2   8   43.81    0.89
   0   2   8   44.30    0.94
   0   2   8   43.05    0.79
  -1  -2  -8    0.75    0.09
  -1  -2  -8    0.71    0.09
  -1  -2  -8    0.86    0.05
   1   2   8    1.04    0.06
   1   2   8    0.98    0.12
   1   2   8    1.06    0.12
   1   2   8    0.84    0.12
  -2  -2  -8   35.04    0.76
  -2  -2  -8   35.18    0.76
  -2  -2  -8   34.57    0.75
   2   2   8   34.02    0.75
   2   2   8   35.14    0.76
   2   2   8   35.19    0.77
  -3  -2  -8    3.59    0.16
  -3  -2  -8    3.40    0.20
  -3  -2  -8    3.55    0.16
  -3  -2  -8    3.38    0.16
   3   2   8    3.68    0.17
   3   2   8    3.50    0.20
   3   2   8    3.34    0.16
  -4  -2  -8   31.63    0.69
  -4  -2  -8   31.58    0.77
  -4  -2  -8   31.98    0.66
  -4  -2  -8   32.78    0.67
   4   2   8   32.62    0.68
   4   2   8   32.55    0.68
   4   2   8   32.94    0.76
  -5  -2  -8   10.93    0.34
  -5  -2  -8   10.90    0.24
  -5  -2  -8   10.65    0.25
  -5  -2  -8   10.71    0.40
  -5  -2  -8   10.82    0.28
   5   2   8   11.13    0.25
   5   2   8   10.72    0.26
   5   2   8   11.21    0.38
  -6  -2  -8    6.20    0.23
  -6  -2  -8    6.02    0.34
  -6  -2  -8    6.38    0.27
   6   2   8    6.77    0.34
  -7  -2  -8    0.02    0.11
  -7  -2  -8    0.01    0.14
  -7  -2  -8    0.01    0.10
   7   2   8    0.23    0.18
   6  -3  -8    3.50    0.38
   6  -3  -8    3.63    0.38
  -6   3   8    3.27    0.28
  -6   3   8    3.40    0.38
  -6   3   8    3.19    0.33
   5  -3  -8    3.04    0.29
   5  -3  -8    3.40    0.29
   5  -3  -8    3.30    0.30
   5  -3  -8    2.90    0.21
  -5   3   8    3.00    0.27
  -5   3   8    3.34    0.24
  -5   3   8    3.35    0.30
   4  -3  -8    6.35    0.29
   4  -3  -8    6.05    0.31
   4  -3  -8    5.83    0.28
  -4   3   8    5.82    0.26
  -4   3   8    6.27    0.31
   3  -3  -8    0.62    0.12
   3  -3  -8    0.61    0.11
   3  -3  -8    0.64    0.12
  -3   3   8    0.68    0.07
  -3   3   8    0.69    0.11
  -3   3   8    0.83    0.13
   2  -3  -8   12.70    0.39
   2  -3  -8   12.68    0.40
   2  -3  -8   12.62    0.34
  -2   3   8   13.34    0.39
  -2   3   8   12.50    0.33
  -2   3   8   12.59    0.39
  -2   3   8   12.68    0.30
   1  -3  -8   32.90    0.65
   1  -3  -8   32.63    0.74
  -1   3   8   32.65    0.75
  -1   3   8   32.49    0.64
  -1   3   8   32.80    0.75
  -1   3   8   33.27    0.69
   0  -3  -8   29.64    0.67
   0  -3  -8   28.30    0.61
   0  -3  -8   30.00    0.68
   0  -3  -8   30.42    0.56
   0   3   8   30.27    0.65
   0   3   8   29.81    0.69
   0   3   8   29.38    0.68
   0   3   8   30.36    0.57
  -1  -3  -8   28.45    0.50
  -1  -3  -8   26.98    0.62
  -1  -3  -8   28.36    0.64
  -1  -3  -8   27.14    0.61
   1   3   8   27.35    0.64
   1   3   8   28.18    0.63
   1   3   8   28.53    0.63
  -2  -3  -8   18.22    0.45
  -2  -3  -8   18.10    0.44
  -2  -3  -8   18.04    0.45
   2   3   8   17.74    0.44
   2   3   8   18.43    0.46
   2   3   8   18.43    0.45
  -3  -3  -8   47.72    0.94
  -3  -3  -8   46.08    1.02
  -3  -3  -8   47.34    0.96
  -3  -3  -8   47.95    0.97
   3   3   8   48.45    0.98
   3   3   8   46.35    0.96
   3   3   8   47.33    1.01
  -4  -3  -8    9.28    0.25
  -4  -3  -8    9.62    0.29
  -4  -3  -8    9.86    0.27
  -4  -3  -8   10.24    0.36
   4   3   8   10.46    0.28
   4   3   8   10.21    0.35
   4   3   8    9.48    0.26
  -5  -3  -8    1.91    0.16
  -5  -3  -8    2.15    0.23
  -5  -3  -8    2.06    0.11
  -5  -3  -8    2.06    0.10
   5   3   8    2.13    0.11
   5   3   8    1.80    0.12
   5   3   8    2.35    0.22
  -6  -3  -8    1.57    0.17
  -6  -3  -8    1.48    0.15
  -6  -3  -8    1.59    0.20
   6   3   8    1.42    0.19
  -7  -3  -8    2.80    0.20
  -7  -3  -8    2.90    0.22
  -7  -3  -8    2.33    0.31
   7   3   8    3.10    0.35
   6  -4  -8    0.66    0.21
   6  -4  -8    0.49    0.20
  -6   4   8    0.39    0.15
  -6   4   8    0.42    0.17
  -6   4   8    0.20    0.20
   5  -4  -8    1.02    0.18
   5  -4  -8    0.88    0.19
   5  -4  -8    0.81    0.16
   5  -4  -8    0.85    0.17
  -5   4   8    0.79    0.17
  -5   4   8    1.02    0.16
  -5   4   8    0.93    0.17
   4  -4  -8    0.08    0.11
   4  -4  -8    0.09    0.12
   4  -4  -8    0.18    0.11
   4  -4  -8    0.13    0.11
  -4   4   8    0.12    0.12
  -4   4   8    0.14    0.11
  -4   4   8    0.03    0.09
   3  -4  -8    8.34    0.31
   3  -4  -8    7.97    0.32
   3  -4  -8    8.33    0.30
  -3   4   8    8.64    0.33
  -3   4   8    7.79    0.28
  -3   4   8    8.16    0.19
   2  -4  -8   11.66    0.37
   2  -4  -8   12.09    0.33
  -2   4   8   11.66    0.28
  -2   4   8   11.07    0.35
  -2   4   8   11.56    0.37
  -2   4   8   11.30    0.30
   1  -4  -8   21.00    0.53
   1  -4  -8   20.81    0.54
   1  -4  -8   21.80    0.46
  -1   4   8   21.30    0.47
  -1   4   8   21.22    0.53
  -1   4   8   20.69    0.52
  -1   4   8   20.40    0.44
   0  -4  -8    1.55    0.09
   0  -4  -8    1.57    0.15
   0   4   8    1.60    0.09
   0   4   8    1.47    0.13
   0   4   8    1.76    0.14
   0   4   8    1.42    0.13
  -1  -4  -8    3.87    0.18
  -1  -4  -8    4.25    0.20
  -1  -4  -8    4.23    0.11
   1   4   8    4.30    0.19
   1   4   8    4.23    0.19
   1   4   8    3.86    0.18
  -2  -4  -8    2.25    0.13
  -2  -4  -8    2.43    0.16
  -2  -4  -8    2.45    0.15
   2   4   8    2.58    0.14
   2   4   8    2.53    0.16
   2   4   8    2.39    0.15
  -3  -4  -8   93.93    1.82
  -3  -4  -8   92.71    1.83
  -3  -4  -8   94.22    1.90
  -3  -4  -8   95.29    1.76
   3   4   8   94.41    1.82
   3   4   8   92.41    1.81
   3   4   8   93.91    1.85
  -4  -4  -8   14.91    0.35
  -4  -4  -8   15.33    0.38
  -4  -4  -8   14.89    0.45
  -4  -4  -8   14.86    0.37
   4   4   8   14.67    0.45
   4   4   8   15.09    0.37
   4   4   8   14.86    0.35
  -5  -4  -8    2.12    0.24
  -5  -4  -8    2.27    0.11
  -5  -4  -8    2.21    0.16
  -5  -4  -8    2.20    0.13
   5   4   8    2.08    0.22
   5   4   8    2.15    0.14
   5   4   8    2.07    0.11
  -6  -4  -8    0.14    0.13
  -6  -4  -8    0.12    0.10
   6   4   8    0.24    0.14
  -7  -4  -8    1.00    0.19
  -7  -4  -8    0.97    0.15
   7   4   8    0.95    0.22
   6  -5  -8    1.36    0.23
   6  -5  -8    0.79    0.20
  -6   5   8    0.94    0.22
  -6   5   8    1.00    0.18
  -6   5   8    0.72    0.18
   5  -5  -8    2.20    0.29
   5  -5  -8    2.34    0.27
   5  -5  -8    2.34    0.28
  -5   5   8    2.85    0.30
  -5   5   8    2.30    0.24
  -5   5   8    2.05    0.24
   4  -5  -8   14.77    0.43
   4  -5  -8   15.58    0.47
   4  -5  -8   15.53    0.45
   4  -5  -8   15.10    0.48
  -4   5   8   14.95    0.44
  -4   5   8   15.31    0.48
   3  -5  -8    7.01    0.29
   3  -5  -8    7.06    0.31
   3  -5  -8    7.17    0.27
  -3   5   8    6.93    0.31
  -3   5   8    6.68    0.26
   2  -5  -8   10.43    0.31
   2  -5  -8   10.76    0.34
   2  -5  -8   10.62    0.36
  -2   5   8   10.19    0.29
  -2   5   8   10.76    0.35
  -2   5   8    9.52    0.32
  -2   5   8   10.70    0.26
   1  -5  -8   13.01    0.32
   1  -5  -8   12.76    0.37
   1  -5  -8   12.73    0.39
  -1   5   8   12.58    0.37
  -1   5   8   13.05    0.33
  -1   5   8   13.34    0.39
  -1   5   8   12.74    0.31
   0  -5  -8   16.62    0.43
   0  -5  -8   16.76    0.45
   0  -5  -8   16.55    0.35
   0   5   8   16.66    0.41
   0   5   8   16.24    0.43
   0   5   8   16.14    0.44
  -1  -5  -8    2.66    0.17
  -1  -5  -8    2.57    0.15
  -1  -5  -8    2.50    0.09
   1   5   8    2.53    0.16
   1   5   8    2.49    0.16
   1   5   8    2.36    0.15
  -2  -5  -8    1.15    0.11
  -2  -5  -8    1.24    0.13
  -2  -5  -8    1.23    0.13
   2   5   8    1.30    0.13
   2   5   8    1.15    0.14
   2   5   8    1.29    0.12
  -3  -5  -8   70.87    1.45
  -3  -5  -8   68.52    1.39
  -3  -5  -8   69.56    1.31
  -3  -5  -8   68.83    1.37
   3   5   8   69.85    1.39
   3   5   8   69.24    1.42
   3   5   8   69.88    1.38
  -4  -5  -8   33.84    0.71
  -4  -5  -8   33.93    0.74
  -4  -5  -8   34.98    0.72
  -4  -5  -8   34.42    0.82
   4   5   8   34.55    0.74
   4   5   8   34.57    0.72
  -5  -5  -8    1.13    0.13
  -5  -5  -8    1.73    0.21
  -5  -5  -8    1.65    0.14
  -5  -5  -8    1.62    0.11
   5   5   8    1.55    0.14
   5   5   8    1.38    0.17
  -6  -5  -8    1.82    0.17
  -6  -5  -8    1.67    0.22
   6   5   8    1.64    0.20
  -7  -5  -8    2.32    0.20
  -7  -5  -8    1.89    0.24
   7   5   8    2.52    0.27
   6  -6  -8    1.09    0.21
   6  -6  -8    0.94    0.23
   6  -6  -8    1.26    0.25
  -6   6   8    1.07    0.23
  -6   6   8    0.81    0.18
   5  -6  -8    2.56    0.28
   5  -6  -8    2.59    0.31
   5  -6  -8    3.22    0.31
  -5   6   8    2.48    0.24
  -5   6   8    2.92    0.33
  -5   6   8    2.16    0.26
   4  -6  -8   13.10    0.43
   4  -6  -8   14.66    0.45
   4  -6  -8   13.62    0.43
   4  -6  -8   14.37    0.47
  -4   6   8   14.50    0.48
  -4   6   8   13.93    0.43
   3  -6  -8    9.11    0.33
   3  -6  -8    8.30    0.34
  -3   6   8    9.20    0.35
  -3   6   8    8.92    0.30
   2  -6  -8    4.13    0.20
   2  -6  -8    4.24    0.24
   2  -6  -8    4.55    0.23
  -2   6   8    4.33    0.24
  -2   6   8    4.21    0.18
  -2   6   8    4.37    0.16
   1  -6  -8   22.54    0.56
   1  -6  -8   23.25    0.58
   1  -6  -8   23.16    0.50
  -1   6   8   22.25    0.48
  -1   6   8   23.40    0.58
  -1   6   8   22.87    0.51
  -1   6   8   22.85    0.56
   0  -6  -8   16.86    0.45
   0  -6  -8   16.26    0.43
   0   6   8   16.54    0.45
   0   6   8   16.61    0.43
  -1  -6  -8   14.86    0.39
  -1  -6  -8   15.23    0.41
   1   6   8   14.50    0.38
  -2  -6  -8    3.35    0.19
  -2  -6  -8    3.25    0.16
   2   6   8    3.42    0.17
   2   6   8    3.30    0.17
  -3  -6  -8    4.75    0.23
  -3  -6  -8    4.75    0.18
  -3  -6  -8    4.53    0.21
  -3  -6  -8    4.44    0.16
   3   6   8    4.53    0.19
  -4  -6  -8   10.71    0.30
  -4  -6  -8   10.76    0.39
  -4  -6  -8   11.20    0.32
  -4  -6  -8   10.63    0.28
   4   6   8   10.29    0.29
  -5  -6  -8    0.85    0.11
  -5  -6  -8    0.91    0.16
  -5  -6  -8    0.85    0.11
  -5  -6  -8    0.80    0.10
   5   6   8    0.86    0.12
   5   6   8    0.83    0.11
  -6  -6  -8    4.99    0.34
  -6  -6  -8    4.78    0.19
   6   6   8    4.85    0.35
   6   6   8    4.78    0.18
   6   6   8    4.54    0.20
  -7  -6  -8    7.30    0.44
   7   6   8    6.43    0.45
   5  -7  -8    5.43    0.33
   5  -7  -8    5.48    0.36
   5  -7  -8    5.48    0.36
  -5   7   8    5.11    0.31
  -5   7   8    4.94    0.38
   4  -7  -8    3.22    0.25
   4  -7  -8    2.23    0.27
   4  -7  -8    2.84    0.25
  -4   7   8    2.98    0.29
  -4   7   8    3.08    0.23
   3  -7  -8    0.31    0.10
   3  -7  -8    0.36    0.11
   3  -7  -8    0.36    0.10
  -3   7   8    0.40    0.12
  -3   7   8    0.39    0.06
  -3   7   8    0.44    0.10
   2  -7  -8    6.82    0.27
   2  -7  -8    6.73    0.25
  -2   7   8    6.27    0.23
  -2   7   8    6.80    0.30
  -2   7   8    6.04    0.25
  -2   7   8    6.42    0.21
   1  -7  -8   14.56    0.43
   1  -7  -8   13.98    0.40
  -1   7   8   14.04    0.40
  -1   7   8   14.18    0.35
   0  -7  -8   37.08    0.82
   0  -7  -8   38.01    0.85
   0   7   8   37.73    0.83
   0   7   8   38.00    0.85
  -1  -7  -8    3.38    0.18
  -1  -7  -8    3.32    0.20
   1   7   8    3.25    0.18
   1   7   8    3.40    0.18
  -2  -7  -8   17.50    0.44
  -2  -7  -8   17.26    0.37
  -2  -7  -8   17.93    0.46
  -2  -7  -8   17.53    0.33
   2   7   8   17.73    0.45
   2   7   8   17.21    0.44
  -3  -7  -8   27.42    0.63
  -3  -7  -8   25.36    0.53
  -3  -7  -8   26.52    0.66
   3   7   8   26.13    0.59
   3   7   8   25.96    0.61
  -4  -7  -8    0.45    0.08
  -4  -7  -8    0.42    0.12
  -4  -7  -8    0.53    0.08
  -4  -7  -8    0.42    0.10
   4   7   8    0.38    0.09
  -5  -7  -8    7.84    0.36
  -5  -7  -8    7.37    0.24
  -5  -7  -8    7.45    0.28
   5   7   8    7.64    0.25
  -6  -7  -8    6.75    0.26
  -6  -7  -8    7.46    0.39
   6   7   8    6.90    0.25
   6   7   8    7.04    0.27
   5  -8  -8    2.54    0.33
   5  -8  -8    2.15    0.30
   5  -8  -8    3.05    0.35
  -5   8   8    2.11    0.25
  -5   8   8    2.36    0.26
  -5   8   8    2.49    0.25
   4  -8  -8    5.00    0.29
   4  -8  -8    4.94    0.32
   4  -8  -8    4.74    0.31
  -4   8   8    4.25    0.26
  -4   8   8    5.01    0.34
  -4   8   8    4.98    0.27
   3  -8  -8   12.50    0.44
   3  -8  -8   12.44    0.39
   3  -8  -8   12.06    0.40
  -3   8   8   13.12    0.31
  -3   8   8   13.42    0.45
  -3   8   8   12.38    0.27
  -3   8   8   12.54    0.38
   2  -8  -8    5.98    0.29
   2  -8  -8    5.92    0.26
  -2   8   8    5.88    0.26
  -2   8   8    5.93    0.23
   1  -8  -8   34.56    0.81
   1  -8  -8   33.88    0.78
  -1   8   8   34.78    0.81
   0  -8  -8    2.67    0.18
   0  -8  -8    2.68    0.20
   0   8   8    2.31    0.17
   0   8   8    2.71    0.18
  -1  -8  -8    4.08    0.22
   1   8   8    4.25    0.21
   1   8   8    4.22    0.20
  -2  -8  -8    1.16    0.13
  -2  -8  -8    0.91    0.07
  -2  -8  -8    1.07    0.08
   2   8   8    1.15    0.14
   2   8   8    0.92    0.12
  -3  -8  -8   15.10    0.32
  -3  -8  -8   15.96    0.44
  -3  -8  -8   14.96    0.32
  -3  -8  -8   15.47    0.42
   3   8   8   15.24    0.42
   3   8   8   15.30    0.41
  -4  -8  -8    7.58    0.33
  -4  -8  -8    7.62    0.29
  -4  -8  -8    7.49    0.20
  -4  -8  -8    7.51    0.21
   4   8   8    7.49    0.28
   4   8   8    7.51    0.27
  -5  -8  -8    1.59    0.15
  -5  -8  -8    1.57    0.20
  -5  -8  -8    1.73    0.21
   5   8   8    2.02    0.19
   5   8   8    1.51    0.17
  -6  -8  -8    1.17    0.13
  -6  -8  -8    1.13    0.21
   6   8   8    0.92    0.12
   5  -9  -8    2.51    0.26
   5  -9  -8    2.48    0.33
   5  -9  -8    2.34    0.26
  -5   9   8    3.09    0.39
  -5   9   8    2.56    0.27
  -5   9   8    2.13    0.21
   4  -9  -8    3.74    0.31
   4  -9  -8    3.58    0.31
  -4   9   8    3.60    0.33
  -4   9   8    3.51    0.24
  -4   9   8    3.70    0.26
   3  -9  -8    0.84    0.14
  -3   9   8    0.68    0.09
  -3   9   8    1.00    0.09
  -3   9   8    0.78    0.16
  -3   9   8    0.79    0.13
   2  -9  -8   21.81    0.60
  -2   9   8   22.15    0.60
  -2   9   8   21.41    0.56
  -2   9   8   20.68    0.51
  -1   9   8    1.87    0.18
  -1   9   8    2.15    0.19
   0  -9  -8    7.07    0.30
   0  -9  -8    6.95    0.27
   0   9   8    6.86    0.28
   0   9   8    7.12    0.29
  -1  -9  -8    6.28    0.28
  -1  -9  -8    6.43    0.25
   1   9   8    6.41    0.26
  -2  -9  -8    4.51    0.24
  -2  -9  -8    4.42    0.15
   2   9   8    4.31    0.22
   2   9   8    4.19    0.22
  -3  -9  -8    8.51    0.33
  -3  -9  -8    8.52    0.22
   3   9   8    8.05    0.29
   3   9   8    8.59    0.31
  -4  -9  -8    0.26    0.13
  -4  -9  -8    0.18    0.12
  -4  -9  -8    0.25    0.08
  -4  -9  -8    0.04    0.08
   4   9   8    0.23    0.10
   4   9   8    0.31    0.10
  -5  -9  -8    6.10    0.37
  -5  -9  -8    6.21    0.24
  -5  -9  -8    5.36    0.25
  -5  -9  -8    6.40    0.31
   5   9   8    5.37    0.28
   5   9   8    5.48    0.27
  -6  -9  -8    2.82    0.29
  -6  -9  -8    2.84    0.23
  -6  -9  -8    3.85    0.36
   6   9   8    3.63    0.27
   6   9   8    2.74    0.25
   4 -10  -8    6.95    0.41
   4 -10  -8    7.51    0.39
   4 -10  -8    7.45    0.39
  -4  10   8    7.12    0.35
  -4  10   8    7.18    0.36
   3 -10  -8    2.85    0.29
   3 -10  -8    2.61    0.26
  -3  10   8    2.43    0.13
  -3  10   8    2.72    0.22
   2 -10  -8    0.84    0.15
   2 -10  -8    0.88    0.14
  -2  10   8    1.07    0.13
  -2  10   8    0.87    0.12
   1 -10  -8    0.60    0.14
   1 -10  -8    0.58    0.12
  -1  10   8    0.71    0.13
  -1  10   8    0.67    0.12
   0 -10  -8    1.39    0.18
   0 -10  -8    1.24    0.15
   0  10   8    1.45    0.18
   0  10   8    1.14    0.14
  -1 -10  -8    0.65    0.13
  -1 -10  -8    0.63    0.10
  -1 -10  -8    0.56    0.07
   1  10   8    0.63    0.11
   1  10   8    0.66    0.12
  -2 -10  -8   29.25    0.58
  -2 -10  -8   29.56    0.72
   2  10   8   28.62    0.69
   2  10   8   29.45    0.71
  -3 -10  -8    8.67    0.24
  -3 -10  -8    9.28    0.36
   3  10   8    8.54    0.32
   3  10   8    8.96    0.33
  -4 -10  -8    0.50    0.10
  -4 -10  -8    0.38    0.11
  -4 -10  -8    0.38    0.14
  -4 -10  -8    0.43    0.14
   4  10   8    0.58    0.13
   4  10   8    0.35    0.12
  -5 -10  -8    0.68    0.13
  -5 -10  -8    0.93    0.20
  -5 -10  -8    0.57    0.12
  -5 -10  -8    0.81    0.18
   5  10   8    0.78    0.15
   5  10   8    1.07    0.15
   4 -11  -8    1.33    0.22
   4 -11  -8    1.97    0.26
  -4  11   8    1.13    0.18
  -4  11   8    1.65    0.26
   3 -11  -8    1.37    0.19
   3 -11  -8    1.59    0.21
  -3  11   8    1.53    0.14
  -3  11   8    1.29    0.18
  -3  11   8    1.67    0.21
   2 -11  -8    0.79    0.15
   2 -11  -8    0.75    0.16
  -2  11   8    0.71    0.15
  -2  11   8    0.67    0.09
  -2  11   8    0.58    0.13
  -2  11   8    0.52    0.14
   1 -11  -8    9.85    0.40
   1 -11  -8    9.63    0.37
  -1  11   8   10.16    0.38
  -1  11   8    9.90    0.40
   0 -11  -8   19.90    0.56
   0 -11  -8   20.81    0.59
   0  11   8   20.49    0.57
   0  11   8   19.95    0.56
  -1 -11  -8    4.26    0.18
  -1 -11  -8    4.23    0.24
   1  11   8    4.59    0.27
   1  11   8    3.49    0.24
  -2 -11  -8    7.14    0.35
  -2 -11  -8    7.16    0.22
   2  11   8    6.45    0.31
  -3 -11  -8    4.84    0.31
  -3 -11  -8    4.70    0.20
   3  11   8    4.43    0.28
   3  11   8    4.62    0.28
  -4 -11  -8    2.64    0.20
  -4 -11  -8    2.92    0.32
  -4 -11  -8    2.05    0.24
  -4 -11  -8    2.36    0.29
   4  11   8    2.19    0.25
   4  11   8    2.97    0.27
  -5 -11  -8    2.52    0.34
  -5 -11  -8    1.35    0.18
  -5 -11  -8    1.26    0.17
  -5 -11  -8    1.67    0.22
   5  11   8    1.45    0.19
   5  11   8    1.64    0.20
   3 -12  -8    0.46    0.20
   3 -12  -8    0.62    0.19
  -3  12   8    0.50    0.10
  -3  12   8    0.18    0.16
  -3  12   8    0.80    0.20
  -3  12   8    0.70    0.15
   2 -12  -8    0.21    0.15
   2 -12  -8    0.02    0.16
  -2  12   8   -0.16    0.12
  -2  12   8    0.11    0.09
  -2  12   8   -0.01    0.14
   1 -12  -8    0.77    0.18
   1 -12  -8    0.64    0.14
  -1  12   8    0.70    0.16
  -1  12   8    0.61    0.14
   0 -12  -8    1.63    0.20
   0 -12  -8    1.98    0.23
   0  12   8    1.62    0.19
   0  12   8    1.41    0.17
  -1 -12  -8    1.84    0.15
  -1 -12  -8    1.90    0.23
  -1 -12  -8    2.23    0.29
   1  12   8    2.12    0.26
   1  12   8    1.78    0.18
  -2 -12  -8    2.96    0.18
  -2 -12  -8    3.10    0.26
  -2 -12  -8    2.29    0.30
   2  12   8    2.91    0.27
   2  12   8    2.85    0.28
  -3 -12  -8    0.98    0.12
  -3 -12  -8    1.04    0.16
   3  12   8    0.96    0.17
   3  12   8    0.83    0.16
  -4 -12  -8    0.40    0.13
  -4 -12  -8    0.61    0.20
  -4 -12  -8    0.38    0.15
   4  12   8    0.66    0.19
   4  12   8    0.61    0.18
   3 -13  -8    0.34    0.24
   3 -13  -8    0.27    0.20
  -3  13   8    0.48    0.15
  -3  13   8    0.43    0.12
  -3  13   8    0.44    0.22
   2 -13  -8    0.91    0.21
   2 -13  -8    0.70    0.18
  -2  13   8    0.53    0.21
  -2  13   8    0.92    0.18
  -2  13   8    0.67    0.14
   1 -13  -8   -0.08    0.15
   1 -13  -8    0.05    0.17
  -1  13   8    0.18    0.15
  -1  13   8    0.12    0.11
  -1  13   8    0.05    0.16
   0 -13  -8    2.66    0.35
   0 -13  -8    2.24    0.20
   0 -13  -8    2.53    0.30
   0  13   8    2.86    0.32
   0  13   8    2.28    0.30
  -1 -13  -8    6.35    0.35
  -1 -13  -8    6.89    0.41
  -1 -13  -8    4.82    0.24
   1  13   8    6.49    0.37
   1  13   8    7.30    0.40
  -2 -13  -8    1.32    0.23
  -2 -13  -8    1.36    0.19
   2  13   8    1.60    0.21
   2  13   8    1.42    0.20
  -3 -13  -8    3.79    0.33
  -3 -13  -8    4.20    0.41
   3  13   8    4.00    0.35
   3  13   8    4.23    0.36
   1 -14  -8    0.17    0.21
   1 -14  -8    0.26    0.20
  -1  14   8    0.12    0.13
  -1  14   8    0.32    0.21
  -1  14   8    0.12    0.21
   0 -14  -8    2.43    0.23
   0 -14  -8    2.93    0.35
   0 -14  -8    2.36    0.29
   0  14   8    1.75    0.18
   0  14   8    1.68    0.23
  -1 -14  -8    2.24    0.28
  -1 -14  -8    2.16    0.22
  -1 -14  -8    2.30    0.24
   1  14   8    2.78    0.36
   1  14   8    2.31    0.26
  -2 -14  -8    0.92    0.25
  -2 -14  -8    0.74    0.15
   2  14   8    0.91    0.22
   1   7  -9    1.21    0.24
  -1  -7   9    1.26    0.16
  -1  -7   9    1.27    0.24
  -1  -7   9    1.18    0.21
  -1  -7   9    1.09    0.24
   0   7  -9    0.88    0.22
   0   7  -9    0.44    0.24
   0   7  -9    0.57    0.21
   0  -7   9    0.41    0.14
   0  -7   9    0.40    0.24
   0  -7   9    0.34    0.18
   0  -7   9    0.25    0.18
  -1   7  -9    3.77    0.38
  -1   7  -9    3.39    0.38
  -1   7  -9    3.15    0.36
   1  -7   9    2.79    0.29
   1  -7   9    2.81    0.32
   1  -7   9    3.00    0.27
   1  -7   9    3.59    0.42
  -2   7  -9    1.79    0.22
  -2   7  -9    1.73    0.22
   2  -7   9    1.76    0.27
   2  -7   9    1.96    0.19
   2  -7   9    1.49    0.18
   2  -7   9    1.93    0.21
  -3   7  -9    0.45    0.15
  -3   7  -9    0.30    0.19
   3  -7   9    0.96    0.17
   3  -7   9    0.60    0.24
   2   6  -9    0.18    0.14
   2   6  -9    0.06    0.20
   2   6  -9   -0.13    0.25
   2   6  -9    0.22    0.21
  -2  -6   9    0.17    0.23
  -2  -6   9    0.32    0.19
  -2  -6   9    0.48    0.19
   1   6  -9    1.42    0.22
   1   6  -9    1.17    0.21
   1   6  -9    1.58    0.23
  -1  -6   9    1.60    0.21
  -1  -6   9    1.83    0.26
  -1  -6   9    1.46    0.15
  -1  -6   9    1.19    0.18
   0   6  -9    2.44    0.31
   0   6  -9    2.23    0.24
   0   6  -9    2.16    0.24
   0  -6   9    1.80    0.22
   0  -6   9    2.28    0.27
   0  -6   9    2.44    0.23
   0  -6   9    2.58    0.28
  -1   6  -9   13.32    0.49
  -1   6  -9   14.34    0.51
  -1   6  -9   12.93    0.52
   1  -6   9   13.90    0.54
   1  -6   9   13.98    0.43
   1  -6   9   13.40    0.46
   1  -6   9   13.10    0.41
  -2   6  -9    1.49    0.17
  -2   6  -9    1.61    0.20
  -2   6  -9    1.46    0.22
  -2   6  -9    2.16    0.29
   2  -6   9    1.94    0.23
   2  -6   9    1.72    0.18
   2  -6   9    1.54    0.16
   2  -6   9    1.96    0.25
  -3   6  -9    5.81    0.35
  -3   6  -9    4.82    0.40
  -3   6  -9    5.21    0.37
  -3   6  -9    5.36    0.28
   3  -6   9    5.36    0.33
   3  -6   9    5.36    0.31
   3  -6   9    5.64    0.39
   3  -6   9    5.47    0.28
  -4   6  -9    0.64    0.21
  -4   6  -9    0.56    0.17
  -4   6  -9    0.08    0.26
  -4   6  -9    0.47    0.15
   4  -6   9    0.42    0.14
   4  -6   9    0.59    0.16
   4  -6   9    0.49    0.17
   4  -6   9    0.37    0.22
   3   5  -9    1.65    0.30
   3   5  -9    1.93    0.27
   3   5  -9    2.00    0.25
   3   5  -9    1.55    0.19
  -3  -5   9    1.35    0.24
  -3  -5   9    1.84    0.25
   2   5  -9    5.37    0.37
   2   5  -9    5.04    0.27
   2   5  -9    4.44    0.39
   2   5  -9    4.66    0.42
  -2  -5   9    4.74    0.32
  -2  -5   9    5.61    0.37
  -2  -5   9    5.18    0.26
  -2  -5   9    5.05    0.42
   1   5  -9    1.88    0.22
   1   5  -9    1.84    0.19
   1   5  -9    1.62    0.23
   1   5  -9    1.86    0.21
  -1  -5   9    1.88    0.23
  -1  -5   9    1.81    0.19
  -1  -5   9    2.11    0.27
  -1  -5   9    1.91    0.24
   0   5  -9    4.57    0.33
   0   5  -9    4.43    0.31
   0   5  -9    4.37    0.32
   0  -5   9    4.40    0.26
   0  -5   9    4.54    0.33
   0  -5   9    4.31    0.23
   0  -5   9    4.20    0.25
   0  -5   9    4.53    0.30
  -1   5  -9    0.27    0.15
  -1   5  -9    1.08    0.16
   1  -5   9    1.49    0.18
   1  -5   9    1.32    0.18
   1  -5   9    1.13    0.16
   1  -5   9    1.21    0.14
   1  -5   9    1.26    0.20
  -2   5  -9    8.45    0.37
  -2   5  -9    6.53    0.35
  -2   5  -9    7.89    0.30
   2  -5   9    8.21    0.29
   2  -5   9    8.43    0.32
   2  -5   9    8.38    0.33
   2  -5   9    8.23    0.39
  -3   5  -9    2.24    0.26
  -3   5  -9    1.95    0.23
  -3   5  -9    1.61    0.20
  -3   5  -9    1.54    0.20
   3  -5   9    1.75    0.20
   3  -5   9    1.87    0.19
   3  -5   9    2.04    0.22
   3  -5   9    1.76    0.17
  -4   5  -9    7.52    0.33
  -4   5  -9    6.83    0.37
  -4   5  -9    7.13    0.33
  -4   5  -9    7.23    0.46
   4  -5   9    7.49    0.38
   4  -5   9    7.18    0.28
   4  -5   9    7.58    0.32
   4  -5   9    7.54    0.35
  -5   5  -9    4.03    0.47
  -5   5  -9    3.73    0.35
  -5   5  -9    3.85    0.28
   5  -5   9    4.54    0.27
   5  -5   9    3.88    0.27
   5  -5   9    3.81    0.33
   3   4  -9    5.38    0.38
   3   4  -9    5.67    0.35
   3   4  -9    5.02    0.29
   3   4  -9    5.78    0.44
  -3  -4   9    5.22    0.36
  -3  -4   9    4.93    0.42
  -3  -4   9    5.77    0.38
   2   4  -9    1.41    0.22
   2   4  -9    1.06    0.17
   2   4  -9    1.05    0.19
   2   4  -9    1.04    0.12
  -2  -4   9    1.19    0.19
  -2  -4   9    1.15    0.12
  -2  -4   9    1.07    0.16
  -2  -4   9    1.06    0.19
   1   4  -9    3.52    0.27
   1   4  -9    3.00    0.19
   1   4  -9    2.94    0.28
   1   4  -9    2.80    0.30
  -1  -4   9    3.44    0.20
  -1  -4   9    3.89    0.32
  -1  -4   9    3.60    0.25
  -1  -4   9    3.31    0.27
   0   4  -9    1.77    0.24
   0   4  -9    1.65    0.20
   0   4  -9    2.06    0.23
   0  -4   9    1.57    0.22
   0  -4   9    2.18    0.18
   0  -4   9    1.85    0.26
   0  -4   9    2.01    0.17
   0  -4   9    1.85    0.19
  -1   4  -9    6.51    0.31
  -1   4  -9    6.18    0.31
   1  -4   9    6.92    0.31
   1  -4   9    6.70    0.26
   1  -4   9    5.95    0.30
   1  -4   9    6.47    0.34
   2  -4   9    2.02    0.26
   2  -4   9    2.33    0.20
   2  -4   9    2.07    0.17
   2  -4   9    1.84    0.20
  -3   4  -9    9.16    0.34
  -3   4  -9    9.93    0.35
  -3   4  -9    9.11    0.38
   3  -4   9    9.40    0.38
   3  -4   9    9.47    0.28
   3  -4   9    9.35    0.33
   3  -4   9    9.27    0.34
  -4   4  -9    0.38    0.12
  -4   4  -9    0.61    0.19
  -4   4  -9    0.48    0.14
  -4   4  -9    0.29    0.12
   4  -4   9    0.50    0.15
   4  -4   9    0.36    0.11
   4  -4   9    0.44    0.10
   4  -4   9    0.33    0.12
  -5   4  -9    1.31    0.14
  -5   4  -9    1.44    0.18
  -5   4  -9    1.46    0.25
  -5   4  -9    1.43    0.19
   5  -4   9    1.36    0.17
   5  -4   9    1.50    0.15
   5  -4   9    1.10    0.18
   4   3  -9    6.50    0.36
   4   3  -9    4.98    0.47
   4   3  -9    5.81    0.42
   4   3  -9    6.14    0.35
  -4  -3   9    6.27    0.26
  -4  -3   9    6.18    0.41
  -4  -3   9    5.93    0.42
   3   3  -9    0.17    0.11
   3   3  -9   -0.06    0.15
   3   3  -9    0.21    0.19
   3   3  -9    0.02    0.13
  -3  -3   9    0.19    0.10
  -3  -3   9    0.17    0.15
  -3  -3   9   -0.12    0.15
  -3  -3   9    0.18    0.16
   2   3  -9    7.22    0.32
   2   3  -9    7.09    0.38
   2   3  -9    6.67    0.26
   2   3  -9    6.97    0.36
  -2  -3   9    7.22    0.38
  -2  -3   9    6.93    0.26
  -2  -3   9    8.14    0.37
  -2  -3   9    6.94    0.32
   1   3  -9    0.93    0.15
   1   3  -9    1.10    0.14
   1   3  -9    0.80    0.13
   1   3  -9    0.78    0.15
  -1  -3   9    0.81    0.12
  -1  -3   9    0.94    0.11
  -1  -3   9    0.90    0.14
  -1  -3   9    1.07    0.16
   0   3  -9    8.20    0.34
   0   3  -9    7.18    0.31
   0   3  -9    8.03    0.24
   0   3  -9    7.10    0.33
   0  -3   9    7.45    0.34
   0  -3   9    7.64    0.32
   0  -3   9    7.76    0.28
   0  -3   9    8.17    0.28
  -1   3  -9    6.05    0.28
  -1   3  -9    5.58    0.28
   1  -3   9    5.96    0.22
   1  -3   9    5.68    0.27
   1  -3   9    6.06    0.24
   1  -3   9    5.99    0.30
   1  -3   9    5.89    0.26
   2  -3   9    2.01    0.18
   2  -3   9    2.07    0.18
   2  -3   9    1.82    0.26
   2  -3   9    2.16    0.15
   2  -3   9    2.36    0.22
   3  -3   9    5.81    0.29
   3  -3   9    5.95    0.27
   3  -3   9    5.88    0.21
   3  -3   9    6.02    0.25
  -4   3  -9   15.86    0.47
  -4   3  -9   15.99    0.43
  -4   3  -9   15.36    0.53
   4  -3   9   15.67    0.36
   4  -3   9   15.24    0.45
   4  -3   9   15.84    0.47
   4  -3   9   15.48    0.42
  -5   3  -9    0.06    0.12
  -5   3  -9    0.06    0.12
  -5   3  -9    0.08    0.10
  -5   3  -9    0.19    0.09
   5  -3   9    0.10    0.12
   5  -3   9    0.15    0.09
   5  -3   9    0.25    0.09
   5  -3   9    0.05    0.13
  -6   3  -9    1.57    0.15
  -6   3  -9    1.36    0.19
   6  -3   9    1.03    0.19
   6  -3   9    1.37    0.16
   6  -3   9    1.19    0.13
   4   2  -9   11.76    0.41
   4   2  -9   12.15    0.50
   4   2  -9   11.79    0.55
   4   2  -9   12.27    0.42
  -4  -2   9   12.51    0.49
  -4  -2   9   11.94    0.51
  -4  -2   9   11.47    0.48
  -4  -2   9   12.11    0.36
   3   2  -9    8.05    0.30
   3   2  -9    7.50    0.32
   3   2  -9    7.33    0.42
   3   2  -9    8.45    0.39
  -3  -2   9    8.19    0.26
  -3  -2   9    8.50    0.27
  -3  -2   9    8.01    0.38
  -3  -2   9    7.48    0.35
  -3  -2   9    8.00    0.39
   2   2  -9   22.55    0.65
   2   2  -9   22.84    0.63
   2   2  -9   22.25    0.58
   2   2  -9   22.77    0.52
  -2  -2   9   23.61    0.55
  -2  -2   9   23.86    0.64
  -2  -2   9   22.65    0.57
  -2  -2   9   22.44    0.65
  -2  -2   9   22.65    0.47
   1   2  -9    3.39    0.25
   1   2  -9    2.78    0.16
   1   2  -9    2.62    0.21
   1   2  -9    3.08    0.25
  -1  -2   9    2.75    0.26
  -1  -2   9    2.85    0.19
  -1  -2   9    2.85    0.24
   0   2  -9    9.16    0.33
   0   2  -9    9.00    0.35
   0   2  -9    9.20    0.35
   0   2  -9    8.80    0.24
   0  -2   9    9.39    0.36
   0  -2   9    9.46    0.35
   0  -2   9    9.57    0.29
  -1   2  -9    0.60    0.12
  -1   2  -9    0.40    0.11
   1  -2   9    0.36    0.12
   1  -2   9    0.49    0.08
   1  -2   9    0.33    0.10
   1  -2   9    0.59    0.10
   1  -2   9    0.56    0.11
  -2   2  -9    8.64    0.31
   2  -2   9    8.34    0.23
   2  -2   9    8.50    0.30
   2  -2   9    8.25    0.32
   2  -2   9    8.34    0.33
   2  -2   9    8.84    0.30
  -3   2  -9   11.25    0.36
  -3   2  -9   11.52    0.35
   3  -2   9   11.74    0.35
   3  -2   9   12.12    0.38
   3  -2   9   11.84    0.28
   3  -2   9   11.59    0.38
  -4   2  -9    3.40    0.20
  -4   2  -9    3.63    0.22
   4  -2   9    3.64    0.24
   4  -2   9    3.76    0.20
   4  -2   9    3.84    0.23
   4  -2   9    3.56    0.15
  -5   2  -9    0.58    0.10
  -5   2  -9    0.44    0.13
   5  -2   9    0.64    0.15
   5  -2   9    0.46    0.09
   5  -2   9    0.33    0.10
   5  -2   9    0.55    0.08
  -6   2  -9    2.01    0.19
  -6   2  -9    2.38    0.23
   6  -2   9    2.08    0.17
   6  -2   9    2.32    0.30
   6  -2   9    1.81    0.21
   5   1  -9   -0.02    0.16
   5   1  -9   -0.05    0.25
  -5  -1   9    0.30    0.21
  -5  -1   9    0.17    0.13
   4   1  -9    2.40    0.24
   4   1  -9    2.66    0.35
   4   1  -9    2.14    0.24
   4   1  -9    2.41    0.24
  -4  -1   9    2.57    0.20
  -4  -1   9    2.60    0.32
  -4  -1   9    2.25    0.23
  -4  -1   9    2.44    0.32
   3   1  -9    3.21    0.31
   3   1  -9    2.67    0.21
   3   1  -9    2.90    0.22
   3   1  -9    2.55    0.27
  -3  -1   9    3.16    0.16
  -3  -1   9    3.15    0.18
  -3  -1   9    3.02    0.26
  -3  -1   9    3.29    0.28
  -3  -1   9    3.35    0.29
   2   1  -9    1.95    0.24
   2   1  -9    2.15    0.17
   2   1  -9    1.68    0.23
   2   1  -9    2.06    0.19
  -2  -1   9    2.28    0.20
  -2  -1   9    2.15    0.23
  -2  -1   9    2.13    0.15
  -2  -1   9    2.06    0.14
   1   1  -9   15.10    0.46
   1   1  -9   14.70    0.35
   1   1  -9   14.47    0.46
   1   1  -9   14.26    0.41
  -1  -1   9   15.04    0.38
  -1  -1   9   14.46    0.46
  -1  -1   9   14.85    0.30
  -1  -1   9   14.49    0.39
   0   1  -9    3.42    0.14
   0   1  -9    3.42    0.23
   0   1  -9    3.09    0.22
   0   1  -9    3.26    0.22
   0  -1   9    3.24    0.17
   0  -1   9    3.04    0.22
   0  -1   9    3.22    0.22
   0  -1   9    2.99    0.16
  -1   1  -9    9.33    0.34
  -1   1  -9    9.33    0.33
   1  -1   9    9.48    0.25
   1  -1   9    9.45    0.27
   1  -1   9    9.54    0.30
   1  -1   9    9.37    0.34
   1  -1   9    9.38    0.34
  -2   1  -9    0.99    0.12
  -2   1  -9    1.23    0.17
   2  -1   9    1.03    0.14
   2  -1   9    1.10    0.10
   2  -1   9    1.27    0.17
  -3   1  -9    9.86    0.33
  -3   1  -9   10.08    0.32
  -3   1  -9   10.00    0.31
   3  -1   9   10.01    0.33
   3  -1   9    9.98    0.23
   3  -1   9   10.12    0.34
  -4   1  -9    1.33    0.13
  -4   1  -9    1.54    0.15
  -4   1  -9    1.69    0.18
   4  -1   9    1.47    0.10
   4  -1   9    1.58    0.20
   4  -1   9    1.46    0.15
   4  -1   9    1.56    0.18
  -5   1  -9    3.02    0.22
  -5   1  -9    2.20    0.14
  -5   1  -9    2.76    0.16
  -5   1  -9    2.66    0.14
   5  -1   9    2.93    0.27
   5  -1   9    2.98    0.13
   5  -1   9    3.06    0.16
  -6   1  -9   11.70    0.41
  -6   1  -9   11.06    0.31
   6  -1   9   11.36    0.44
   6  -1   9   10.70    0.30
   6  -1   9   10.81    0.26
   5   0  -9    5.68    0.26
   5   0  -9    5.54    0.44
   5   0  -9    5.56    0.41
   5   0  -9    5.18    0.36
  -5   0   9    5.38    0.43
  -5   0   9    5.71    0.44
  -5   0   9    5.76    0.29
   4   0  -9    3.88    0.27
   4   0  -9    4.55    0.36
   4   0  -9    4.04    0.32
   4   0  -9    4.30    0.25
  -4   0   9    2.90    0.29
  -4   0   9    3.50    0.30
  -4   0   9    4.48    0.24
   3   0  -9    1.88    0.18
   3   0  -9    2.07    0.24
   3   0  -9    2.07    0.20
   3   0  -9    1.85    0.25
  -3   0   9    1.79    0.24
  -3   0   9    2.11    0.17
  -3   0   9    1.75    0.18
  -3   0   9    2.02    0.13
  -3   0   9    2.09    0.22
   2   0  -9    7.52    0.28
   2   0  -9    7.90    0.33
   2   0  -9    7.26    0.25
  -2   0   9    7.77    0.33
  -2   0   9    8.19    0.33
  -2   0   9    7.81    0.24
  -2   0   9    7.43    0.23
  -2   0   9    7.29    0.30
   1   0  -9   31.83    0.64
   1   0  -9   31.32    0.72
   1   0  -9   31.82    0.77
  -1   0   9   32.36    0.69
  -1   0   9   30.88    0.78
  -1   0   9   31.66    0.67
  -1   0   9   32.01    0.76
   0   0  -9    8.84    0.35
   0   0  -9    9.16    0.33
   0   0  -9    8.87    0.31
   0   0  -9    9.38    0.23
   0   0   9    8.77    0.33
   0   0   9    9.36    0.32
   0   0   9    9.64    0.26
   0   0   9    9.29    0.28
  -1   0  -9   26.72    0.51
  -1   0  -9   26.41    0.64
  -1   0  -9   27.02    0.65
   1   0   9   26.32    0.65
   1   0   9   27.07    0.62
   1   0   9   26.39    0.53
   1   0   9   26.79    0.64
  -2   0  -9    0.51    0.10
  -2   0  -9    0.44    0.09
   2   0   9    0.49    0.09
   2   0   9    0.67    0.08
   2   0   9    0.51    0.10
   2   0   9    0.56    0.11
   2   0   9    0.35    0.08
  -3   0  -9    1.62    0.16
  -3   0  -9    1.74    0.17
   3   0   9    1.64    0.18
   3   0   9    1.70    0.17
   3   0   9    1.96    0.24
   3   0   9    1.60    0.15
  -4   0  -9    5.90    0.22
  -4   0  -9    6.20    0.26
  -4   0  -9    6.07    0.28
   4   0   9    5.90    0.24
   4   0   9    5.90    0.29
   4   0   9    6.08    0.22
  -5   0  -9    1.51    0.18
  -5   0  -9    1.39    0.13
  -5   0  -9    1.64    0.12
  -5   0  -9    1.65    0.18
   5   0   9    1.71    0.15
   5   0   9    1.48    0.18
   5   0   9    1.82    0.13
  -6   0  -9    4.25    0.20
  -6   0  -9    4.52    0.26
   6   0   9    4.46    0.33
   5  -1  -9    0.42    0.19
   5  -1  -9    0.36    0.18
   5  -1  -9    0.61    0.18
  -5   1   9    0.44    0.14
  -5   1   9    0.45    0.19
  -5   1   9    0.79    0.19
   4  -1  -9   11.80    0.44
   4  -1  -9   11.48    0.39
  -4   1   9   11.72    0.37
  -4   1   9   11.54    0.45
   3  -1  -9    7.16    0.36
   3  -1  -9    6.96    0.27
   3  -1  -9    6.71    0.26
   3  -1  -9    6.79    0.33
  -3   1   9    6.77    0.20
  -3   1   9    6.82    0.33
  -3   1   9    6.12    0.29
  -3   1   9    6.66    0.25
   2  -1  -9    3.27    0.18
   2  -1  -9    2.93    0.24
   2  -1  -9    3.29    0.25
   2  -1  -9    3.28    0.19
  -2   1   9    2.99    0.16
  -2   1   9    3.01    0.23
  -2   1   9    3.34    0.20
  -2   1   9    3.17    0.15
  -2   1   9    3.24    0.23
   1  -1  -9   20.16    0.50
   1  -1  -9   19.85    0.54
   1  -1  -9   20.29    0.44
   1  -1  -9   19.71    0.54
  -1   1   9   20.43    0.42
  -1   1   9   19.89    0.55
  -1   1   9   20.52    0.47
  -1   1   9   19.97    0.47
  -1   1   9   20.71    0.55
   0  -1  -9   13.91    0.42
   0  -1  -9   14.25    0.31
   0  -1  -9   13.44    0.39
   0  -1  -9   13.99    0.41
   0   1   9   14.20    0.41
   0   1   9   13.75    0.42
   0   1   9   13.92    0.33
   0   1   9   14.05    0.37
  -1  -1  -9    4.57    0.22
  -1  -1  -9    4.18    0.22
  -1  -1  -9    4.36    0.22
  -1  -1  -9    4.34    0.17
  -1  -1  -9    4.37    0.12
   1   1   9    4.40    0.15
   1   1   9    4.29    0.20
   1   1   9    4.40    0.22
   1   1   9    4.37    0.21
  -2  -1  -9    2.29    0.17
  -2  -1  -9    2.18    0.16
  -2  -1  -9    2.25    0.17
   2   1   9    2.35    0.17
   2   1   9    2.34    0.18
   2   1   9    2.19    0.16
  -3  -1  -9   18.47    0.49
  -3  -1  -9   18.32    0.45
  -3  -1  -9   18.30    0.46
  -3  -1  -9   17.73    0.45
   3   1   9   18.49    0.45
   3   1   9   17.26    0.49
   3   1   9   18.38    0.46
  -4  -1  -9    0.95    0.12
  -4  -1  -9    0.59    0.12
  -4  -1  -9    0.67    0.11
  -4  -1  -9    0.56    0.09
   4   1   9    0.59    0.09
   4   1   9    0.49    0.09
   4   1   9    0.51    0.12
  -5  -1  -9    0.75    0.14
  -5  -1  -9    0.87    0.11
  -5  -1  -9    0.79    0.08
  -5  -1  -9    0.77    0.13
   5   1   9    0.77    0.15
   5   1   9    0.67    0.08
   5   1   9    0.79    0.08
  -6  -1  -9    6.21    0.23
  -6  -1  -9    6.48    0.29
  -6  -1  -9    6.01    0.34
   6   1   9    6.00    0.35
  -7  -1  -9    3.08    0.25
  -7  -1  -9    2.66    0.20
   7   1   9    3.22    0.39
   5  -2  -9    5.13    0.35
   5  -2  -9    5.70    0.38
  -5   2   9    5.81    0.29
  -5   2   9    5.00    0.36
  -5   2   9    5.34    0.39
   4  -2  -9    0.66    0.16
   4  -2  -9    0.64    0.14
   4  -2  -9    0.33    0.16
  -4   2   9    0.55    0.13
  -4   2   9    0.62    0.16
   3  -2  -9    2.77    0.24
   3  -2  -9    2.82    0.20
  -3   2   9    2.90    0.25
  -3   2   9    2.85    0.12
  -3   2   9    2.77    0.19
   2  -2  -9   34.58    0.72
   2  -2  -9   35.62    0.83
  -2   2   9   34.93    0.84
  -2   2   9   35.39    0.72
  -2   2   9   34.66    0.71
  -2   2   9   36.47    0.84
   1  -2  -9   35.10    0.70
   1  -2  -9   36.34    0.83
  -1   2   9   35.28    0.83
  -1   2   9   35.45    0.69
  -1   2   9   36.39    0.76
  -1   2   9   36.90    0.84
   0  -2  -9    1.50    0.09
   0  -2  -9    1.48    0.11
   0  -2  -9    1.27    0.16
   0  -2  -9    1.37    0.16
   0   2   9    1.51    0.16
   0   2   9    1.58    0.10
   0   2   9    1.57    0.12
   0   2   9    1.36    0.16
   0   2   9    1.47    0.14
  -1  -2  -9    6.18    0.26
  -1  -2  -9    5.95    0.21
  -1  -2  -9    6.26    0.15
   1   2   9    6.53    0.26
   1   2   9    6.44    0.25
   1   2   9    6.59    0.25
  -2  -2  -9    0.83    0.11
  -2  -2  -9    0.78    0.10
  -2  -2  -9    0.91    0.11
   2   2   9    0.93    0.13
   2   2   9    0.87    0.11
   2   2   9    0.71    0.10
  -3  -2  -9   10.40    0.30
  -3  -2  -9   10.67    0.32
  -3  -2  -9   10.76    0.31
  -3  -2  -9   10.77    0.35
   3   2   9   11.14    0.32
   3   2   9   10.88    0.35
   3   2   9   10.62    0.31
  -4  -2  -9   26.18    0.58
  -4  -2  -9   26.05    0.57
  -4  -2  -9   25.90    0.67
   4   2   9   25.60    0.57
   4   2   9   26.03    0.58
   4   2   9   26.46    0.66
  -5  -2  -9   11.29    0.41
  -5  -2  -9   10.81    0.28
  -5  -2  -9   11.87    0.36
  -5  -2  -9   11.09    0.27
   5   2   9   11.23    0.29
   5   2   9   11.48    0.29
   5   2   9   12.01    0.41
  -6  -2  -9    0.39    0.16
  -6  -2  -9    0.17    0.11
   6   2   9    0.26    0.15
  -7  -2  -9    2.65    0.20
  -7  -2  -9    2.93    0.25
  -7  -2  -9    3.16    0.31
   7   2   9    3.00    0.39
   5  -3  -9    0.69    0.16
   5  -3  -9    0.72    0.19
   5  -3  -9    0.99    0.19
  -5   3   9    0.64    0.15
  -5   3   9    0.63    0.18
  -5   3   9    0.64    0.19
   4  -3  -9    0.60    0.15
   4  -3  -9    0.62    0.14
   4  -3  -9    0.94    0.15
  -4   3   9    0.89    0.14
  -4   3   9    0.93    0.17
   3  -3  -9    2.60    0.20
   3  -3  -9    2.72    0.23
   3  -3  -9    2.87    0.24
  -3   3   9    2.71    0.12
  -3   3   9    2.97    0.19
  -3   3   9    2.98    0.25
   2  -3  -9   31.10    0.79
   2  -3  -9   30.44    0.65
   2  -3  -9   30.26    0.74
  -2   3   9   30.38    0.74
  -2   3   9   30.16    0.64
  -2   3   9   31.24    0.75
  -2   3   9   30.96    0.64
   1  -3  -9    3.10    0.21
   1  -3  -9    2.84    0.15
   1  -3  -9    3.00    0.12
   1  -3  -9    2.89    0.20
  -1   3   9    3.13    0.16
  -1   3   9    3.25    0.15
  -1   3   9    3.08    0.21
  -1   3   9    2.87    0.20
   0  -3  -9   24.78    0.55
   0  -3  -9   25.90    0.62
   0  -3  -9   26.04    0.63
   0  -3  -9   25.67    0.50
   0   3   9   26.05    0.63
   0   3   9   26.21    0.64
   0   3   9   26.29    0.51
   0   3   9   26.15    0.59
  -1  -3  -9   15.54    0.29
  -1  -3  -9   14.78    0.41
  -1  -3  -9   15.41    0.43
   1   3   9   15.19    0.42
   1   3   9   15.76    0.41
   1   3   9   15.05    0.42
  -2  -3  -9   11.87    0.35
  -2  -3  -9   12.51    0.35
  -2  -3  -9   12.68    0.37
   2   3   9   12.57    0.36
   2   3   9   12.59    0.36
   2   3   9   12.49    0.37
  -3  -3  -9    6.67    0.27
  -3  -3  -9    6.78    0.23
  -3  -3  -9    6.53    0.25
  -3  -3  -9    6.72    0.23
   3   3   9    6.86    0.28
   3   3   9    6.95    0.25
   3   3   9    6.25    0.23
  -4  -3  -9    0.73    0.13
  -4  -3  -9    0.97    0.13
  -4  -3  -9    0.81    0.09
  -4  -3  -9    0.81    0.10
   4   3   9    1.06    0.12
   4   3   9    0.85    0.12
   4   3   9    0.89    0.10
  -5  -3  -9    1.36    0.12
  -5  -3  -9    1.67    0.11
  -5  -3  -9    1.77    0.16
  -5  -3  -9    1.65    0.22
   5   3   9    1.49    0.13
   5   3   9    2.01    0.24
   5   3   9    1.65    0.12
  -6  -3  -9    0.36    0.11
  -6  -3  -9    0.26    0.13
   6   3   9    0.42    0.15
  -7  -3  -9    2.19    0.23
  -7  -3  -9    1.79    0.23
   7   3   9    2.33    0.26
   5  -4  -9    6.43    0.38
   5  -4  -9    5.90    0.38
   5  -4  -9    6.60    0.40
  -5   4   9    5.85    0.36
  -5   4   9    5.89    0.30
  -5   4   9    6.20    0.39
   4  -4  -9    8.47    0.38
   4  -4  -9    8.85    0.38
   4  -4  -9    8.85    0.36
  -4   4   9    8.83    0.33
  -4   4   9    9.02    0.39
   3  -4  -9    6.21    0.27
   3  -4  -9    6.15    0.31
   3  -4  -9    6.42    0.30
  -3   4   9    6.02    0.31
  -3   4   9    5.55    0.24
  -3   4   9    6.12    0.16
   2  -4  -9   37.38    0.87
   2  -4  -9   38.59    0.77
   2  -4  -9   37.63    0.93
  -2   4   9   37.43    0.76
  -2   4   9   36.32    0.76
  -2   4   9   37.53    0.86
  -2   4   9   38.05    0.88
   1  -4  -9   18.71    0.42
   1  -4  -9   18.92    0.50
  -1   4   9   18.44    0.50
  -1   4   9   18.35    0.41
  -1   4   9   18.59    0.51
  -1   4   9   18.86    0.44
   0  -4  -9    6.13    0.20
   0  -4  -9    6.24    0.27
   0  -4  -9    6.35    0.25
   0  -4  -9    6.51    0.18
   0   4   9    6.35    0.26
   0   4   9    6.28    0.18
   0   4   9    6.49    0.26
   0   4   9    6.45    0.23
  -1  -4  -9   11.88    0.24
  -1  -4  -9   11.41    0.34
  -1  -4  -9   11.54    0.32
  -1  -4  -9   11.82    0.36
   1   4   9   11.78    0.36
   1   4   9   11.66    0.35
   1   4   9   11.53    0.35
  -2  -4  -9  109.73    2.16
  -2  -4  -9  110.02    2.17
  -2  -4  -9  110.19    2.14
   2   4   9  109.34    2.14
   2   4   9  109.48    2.16
   2   4   9  111.54    2.15
  -3  -4  -9   10.29    0.30
  -3  -4  -9   10.35    0.32
  -3  -4  -9   10.19    0.34
  -3  -4  -9   10.21    0.28
   3   4   9   10.47    0.32
   3   4   9   10.46    0.30
   3   4   9   10.07    0.35
  -4  -4  -9    3.22    0.18
  -4  -4  -9    3.33    0.23
  -4  -4  -9    3.39    0.18
  -4  -4  -9    3.18    0.15
   4   4   9    3.27    0.23
   4   4   9    2.84    0.17
   4   4   9    3.16    0.16
  -5  -4  -9    0.05    0.12
  -5  -4  -9    0.02    0.06
  -5  -4  -9    0.04    0.07
   5   4   9    0.07    0.07
   5   4   9    0.08    0.12
   5   4   9    0.05    0.07
  -6  -4  -9    3.74    0.22
  -6  -4  -9    4.05    0.32
   6   4   9    4.19    0.34
  -7  -4  -9    0.34    0.14
  -7  -4  -9    0.48    0.18
   7   4   9    0.77    0.22
   5  -5  -9    2.60    0.32
   5  -5  -9    1.85    0.21
   5  -5  -9    2.01    0.24
  -5   5   9    1.74    0.20
  -5   5   9    2.17    0.24
  -5   5   9    1.69    0.20
   4  -5  -9    4.79    0.32
   4  -5  -9    4.49    0.31
   4  -5  -9    4.28    0.27
   4  -5  -9    5.10    0.29
  -4   5   9    4.41    0.25
  -4   5   9    5.42    0.33
   3  -5  -9   14.65    0.42
   3  -5  -9   14.18    0.46
   3  -5  -9   14.37    0.45
  -3   5   9   14.49    0.47
  -3   5   9   13.65    0.40
  -3   5   9   14.56    0.31
   2  -5  -9   21.16    0.56
   2  -5  -9   21.22    0.50
  -2   5   9   21.02    0.49
  -2   5   9   21.25    0.47
  -2   5   9   21.04    0.56
  -2   5   9   21.09    0.58
   1  -5  -9   16.07    0.38
   1  -5  -9   15.69    0.46
   1  -5  -9   15.35    0.44
  -1   5   9   16.03    0.46
  -1   5   9   15.74    0.37
  -1   5   9   16.24    0.45
  -1   5   9   15.94    0.40
   0  -5  -9   22.23    0.56
   0  -5  -9   23.13    0.47
   0  -5  -9   23.47    0.59
   0   5   9   22.93    0.47
   0   5   9   22.84    0.58
   0   5   9   23.27    0.54
   0   5   9   22.33    0.56
  -1  -5  -9    4.77    0.23
  -1  -5  -9    4.73    0.21
  -1  -5  -9    4.86    0.20
  -1  -5  -9    4.96    0.13
   1   5   9    4.86    0.22
   1   5   9    4.77    0.22
   1   5   9    4.63    0.22
  -2  -5  -9    1.39    0.14
  -2  -5  -9    1.77    0.15
  -2  -5  -9    1.57    0.16
   2   5   9    1.58    0.16
   2   5   9    1.58    0.15
   2   5   9    1.20    0.15
  -3  -5  -9   30.67    0.68
  -3  -5  -9   30.64    0.64
  -3  -5  -9   31.31    0.70
  -3  -5  -9   30.68    0.74
   3   5   9   31.01    0.67
   3   5   9   30.16    0.69
   3   5   9   29.87    0.73
  -4  -5  -9    3.29    0.24
  -4  -5  -9    3.35    0.17
  -4  -5  -9    3.43    0.19
   4   5   9    3.56    0.20
   4   5   9    3.38    0.17
   4   5   9    3.46    0.24
  -5  -5  -9    0.38    0.13
  -5  -5  -9    0.44    0.10
   5   5   9    0.39    0.13
   5   5   9    0.32    0.09
   5   5   9    0.37    0.07
  -6  -5  -9    0.97    0.17
  -6  -5  -9    1.30    0.17
   6   5   9    1.34    0.20
  -7  -5  -9    3.49    0.38
  -7  -5  -9    4.07    0.25
   7   5   9    4.01    0.43
   5  -6  -9    6.69    0.43
   5  -6  -9    7.23    0.39
   5  -6  -9    7.19    0.42
  -5   6   9    7.68    0.39
  -5   6   9    7.62    0.43
   4  -6  -9    0.62    0.17
   4  -6  -9    0.46    0.14
   4  -6  -9    0.43    0.15
   4  -6  -9    0.69    0.16
  -4   6   9    0.55    0.17
  -4   6   9    0.55    0.13
   3  -6  -9   12.39    0.38
   3  -6  -9   12.08    0.43
   3  -6  -9   12.08    0.41
  -3   6   9   11.86    0.36
  -3   6   9   12.05    0.27
  -3   6   9   12.41    0.43
   2  -6  -9   22.44    0.53
   2  -6  -9   22.01    0.58
   2  -6  -9   22.43    0.61
  -2   6   9   23.20    0.61
  -2   6   9   21.99    0.52
  -2   6   9   22.83    0.50
  -2   6   9   21.81    0.58
   1  -6  -9   53.02    1.15
   1  -6  -9   52.84    1.13
   1  -6  -9   52.60    1.00
  -1   6   9   54.66    1.16
  -1   6   9   53.21    1.07
  -1   6   9   52.28    1.13
  -1   6   9   51.44    1.01
   0  -6  -9   11.35    0.37
   0  -6  -9   10.80    0.27
   0  -6  -9   10.58    0.34
   0   6   9   10.77    0.35
   0   6   9   10.71    0.32
   0   6   9   10.86    0.34
  -1  -6  -9   50.73    1.09
  -1  -6  -9   51.19    0.91
  -1  -6  -9   49.53    1.06
   1   6   9   51.02    1.07
   1   6   9   51.59    1.07
   1   6   9   50.18    1.09
  -2  -6  -9   13.34    0.39
  -2  -6  -9   12.87    0.38
   2   6   9   13.07    0.36
   2   6   9   12.71    0.38
   2   6   9   12.80    0.39
  -3  -6  -9   22.47    0.59
  -3  -6  -9   23.24    0.56
  -3  -6  -9   22.46    0.49
  -3  -6  -9   21.62    0.53
   3   6   9   22.72    0.56
   3   6   9   22.59    0.53
  -4  -6  -9   12.08    0.42
  -4  -6  -9   11.62    0.32
  -4  -6  -9   12.05    0.36
  -4  -6  -9   11.47    0.31
   4   6   9   12.28    0.41
   4   6   9   12.08    0.33
  -5  -6  -9   17.16    0.43
  -5  -6  -9   17.50    0.41
  -5  -6  -9   17.08    0.44
  -5  -6  -9   17.18    0.55
   5   6   9   16.53    0.40
   5   6   9   16.93    0.43
   5   6   9   15.74    0.52
  -6  -6  -9    0.76    0.18
  -6  -6  -9    0.87    0.13
  -6  -6  -9    0.79    0.10
  -6  -6  -9    0.87    0.09
   6   6   9    0.69    0.19
   6   6   9    0.63    0.09
   5  -7  -9    3.29    0.38
   5  -7  -9    3.92    0.38
  -5   7   9    4.29    0.30
  -5   7   9    3.48    0.32
  -5   7   9    4.28    0.41
   4  -7  -9   -0.04    0.14
   4  -7  -9    0.01    0.14
  -4   7   9   -0.17    0.12
  -4   7   9   -0.11    0.15
  -4   7   9    0.08    0.11
   3  -7  -9    6.56    0.31
   3  -7  -9    6.75    0.30
   3  -7  -9    6.51    0.34
  -3   7   9    7.06    0.35
  -3   7   9    6.59    0.19
  -3   7   9    6.37    0.27
   2  -7  -9   23.28    0.60
   2  -7  -9   23.12    0.55
   2  -7  -9   23.40    0.63
  -2   7   9   23.40    0.63
  -2   7   9   23.52    0.52
  -2   7   9   22.20    0.53
  -2   7   9   22.79    0.59
   1  -7  -9   11.87    0.38
   1  -7  -9   11.48    0.32
   1  -7  -9   11.66    0.40
  -1   7   9   11.85    0.39
  -1   7   9   11.53    0.31
  -1   7   9   11.67    0.33
   0  -7  -9   16.04    0.47
   0  -7  -9   15.53    0.36
   0   7   9   15.43    0.45
   0   7   9   14.76    0.42
  -1  -7  -9    3.43    0.22
   1   7   9    3.21    0.19
  -2  -7  -9   24.96    0.61
   2   7   9   24.52    0.58
  -3  -7  -9   22.92    0.56
  -3  -7  -9   21.11    0.46
  -3  -7  -9   21.30    0.58
  -3  -7  -9   22.00    0.52
   3   7   9   22.10    0.53
  -4  -7  -9    4.17    0.28
  -4  -7  -9    4.23    0.24
  -4  -7  -9    3.99    0.17
   4   7   9    3.87    0.23
   4   7   9    3.90    0.20
  -5  -7  -9    4.00    0.19
  -5  -7  -9    4.45    0.30
  -5  -7  -9    4.48    0.24
   5   7   9    4.16    0.24
   5   7   9    4.14    0.20
  -6  -7  -9    3.20    0.21
  -6  -7  -9    3.47    0.20
  -6  -7  -9    3.94    0.34
   6   7   9    3.20    0.20
   6   7   9    2.61    0.35
   6   7   9    3.88    0.23
   5  -8  -9    3.92    0.39
   5  -8  -9    3.69    0.35
   5  -8  -9    3.04    0.39
  -5   8   9    3.37    0.30
  -5   8   9    3.55    0.42
   4  -8  -9    5.44    0.33
   4  -8  -9    5.63    0.37
   4  -8  -9    5.22    0.33
  -4   8   9    5.32    0.30
  -4   8   9    6.13    0.38
  -4   8   9    5.28    0.31
   3  -8  -9    8.82    0.37
   3  -8  -9    9.05    0.35
   3  -8  -9    9.13    0.39
  -3   8   9    9.04    0.33
  -3   8   9    9.24    0.24
  -3   8   9    9.43    0.40
   2  -8  -9   23.89    0.57
   2  -8  -9   23.61    0.65
   2  -8  -9   24.18    0.64
  -2   8   9   23.40    0.60
  -2   8   9   23.55    0.53
  -2   8   9   22.35    0.54
  -2   8   9   23.64    0.64
   1  -8  -9   12.67    0.40
  -1   8   9   12.25    0.39
  -1   8   9   12.53    0.34
  -1   8   9   13.14    0.43
   0  -8  -9    4.41    0.26
   0  -8  -9    4.14    0.22
   0   8   9    4.04    0.24
   0   8   9    4.40    0.23
  -1  -8  -9    9.48    0.35
  -1  -8  -9    9.31    0.31
   1   8   9    9.07    0.31
  -2  -8  -9   34.22    0.68
  -2  -8  -9   35.22    0.64
  -2  -8  -9   35.77    0.82
   2   8   9   34.89    0.79
   2   8   9   35.15    0.80
  -3  -8  -9   11.22    0.37
  -3  -8  -9   11.44    0.39
  -3  -8  -9   10.21    0.26
   3   8   9   11.01    0.34
   3   8   9   11.22    0.36
  -4  -8  -9    7.00    0.30
  -4  -8  -9    7.23    0.34
  -4  -8  -9    6.87    0.21
   4   8   9    7.10    0.29
   4   8   9    6.64    0.27
  -5  -8  -9    1.77    0.15
  -5  -8  -9    1.29    0.17
  -5  -8  -9    1.93    0.26
  -5  -8  -9    1.70    0.24
   5   8   9    1.67    0.18
  -6  -8  -9    6.09    0.41
  -6  -8  -9    5.60    0.24
   6   8   9    5.18    0.29
   6   8   9    5.55    0.25
   4  -9  -9    2.92    0.30
   4  -9  -9    3.04    0.35
   4  -9  -9    2.75    0.31
  -4   9   9    2.37    0.26
   3  -9  -9    2.56    0.25
   3  -9  -9    3.40    0.30
   3  -9  -9    2.86    0.27
  -3   9   9    2.80    0.12
  -3   9   9    3.11    0.22
  -3   9   9    3.13    0.17
   2  -9  -9   14.05    0.48
   2  -9  -9   13.19    0.43
  -2   9   9   13.10    0.42
  -2   9   9   12.97    0.38
   1  -9  -9    4.95    0.29
   1  -9  -9    4.84    0.25
  -1   9   9    4.65    0.25
  -1   9   9    5.06    0.28
   0  -9  -9    0.71    0.11
   0  -9  -9    0.59    0.14
   0   9   9    0.32    0.11
   0   9   9    0.68    0.11
  -1  -9  -9    7.82    0.29
  -1  -9  -9    8.08    0.33
   1   9   9    7.69    0.30
   1   9   9    7.84    0.31
  -2  -9  -9   18.49    0.38
  -2  -9  -9   18.78    0.53
   2   9   9   18.70    0.51
   2   9   9   18.80    0.50
  -3  -9  -9   17.57    0.36
  -3  -9  -9   18.00    0.51
   3   9   9   17.31    0.47
   3   9   9   17.66    0.49
  -4  -9  -9    3.36    0.27
  -4  -9  -9    3.36    0.26
  -4  -9  -9    2.97    0.21
  -4  -9  -9    2.76    0.14
   4   9   9    3.08    0.22
   4   9   9    3.57    0.24
  -5  -9  -9    2.49    0.28
  -5  -9  -9    2.45    0.32
  -5  -9  -9    2.20    0.21
   5   9   9    2.92    0.25
   5   9   9    2.75    0.23
  -6  -9  -9    0.62    0.20
  -6  -9  -9    0.50    0.13
   4 -10  -9    1.94    0.22
   4 -10  -9    1.92    0.24
   4 -10  -9    1.66    0.24
  -4  10   9    2.21    0.25
  -4  10   9    1.72    0.26
  -4  10   9    1.55    0.19
   3 -10  -9   12.07    0.45
   3 -10  -9   12.26    0.48
  -3  10   9   12.34    0.34
  -3  10   9   12.33    0.30
  -3  10   9   13.85    0.52
  -3  10   9   12.69    0.41
  -3  10   9   12.38    0.44
   2 -10  -9    6.24    0.32
  -2  10   9    6.16    0.26
  -2  10   9    6.80    0.31
   1 -10  -9    3.03    0.28
   1 -10  -9    3.00    0.24
  -1  10   9    2.95    0.24
  -1  10   9    3.22    0.26
   0 -10  -9    2.95    0.23
   0 -10  -9    3.12    0.26
   0  10   9    3.10    0.24
   0  10   9    2.87    0.22
  -1 -10  -9    6.19    0.28
  -1 -10  -9    6.34    0.32
  -1 -10  -9    5.98    0.19
   1  10   9    5.94    0.31
   1  10   9    6.18    0.29
  -2 -10  -9   16.39    0.50
  -2 -10  -9   15.81    0.35
   2  10   9   15.81    0.48
   2  10   9   16.27    0.46
  -3 -10  -9    7.55    0.31
  -3 -10  -9    8.87    0.24
  -3 -10  -9    9.25    0.37
   3  10   9    8.62    0.34
   3  10   9    8.18    0.32
  -4 -10  -9    0.24    0.11
  -4 -10  -9    0.05    0.08
  -4 -10  -9   -0.10    0.12
  -4 -10  -9   -0.04    0.14
   4  10   9   -0.18    0.11
   4  10   9    0.00    0.12
  -5 -10  -9    1.57    0.24
  -5 -10  -9    1.60    0.20
  -5 -10  -9    1.62    0.21
  -5 -10  -9    1.25    0.15
   5  10   9    1.30    0.18
   5  10   9    1.49    0.17
   4 -11  -9    0.53    0.21
   4 -11  -9    0.55    0.22
  -4  11   9    0.25    0.24
  -4  11   9    0.47    0.16
   3 -11  -9    2.57    0.34
   3 -11  -9    2.35    0.27
  -3  11   9    2.04    0.14
  -3  11   9    2.67    0.30
  -3  11   9    1.89    0.24
   2 -11  -9    0.36    0.15
   2 -11  -9    0.08    0.16
  -2  11   9    0.14    0.09
  -2  11   9    0.29    0.14
  -2  11   9    0.34    0.15
   1 -11  -9    1.88    0.26
   1 -11  -9    2.13    0.28
  -1  11   9    2.08    0.26
  -1  11   9    1.89    0.20
   0 -11  -9    1.27    0.16
   0 -11  -9    1.39    0.19
   0  11   9    1.23    0.17
   0  11   9    1.23    0.16
  -1 -11  -9   17.83    0.41
  -1 -11  -9   17.98    0.52
  -1 -11  -9   19.15    0.57
   1  11   9   18.54    0.55
   1  11   9   18.21    0.53
  -2 -11  -9   18.09    0.55
  -2 -11  -9   17.69    0.40
   2  11   9   17.17    0.51
   2  11   9   17.86    0.53
  -3 -11  -9    3.19    0.17
  -3 -11  -9    2.98    0.24
  -3 -11  -9    3.36    0.31
   3  11   9    3.08    0.26
   3  11   9    3.45    0.26
  -4 -11  -9    1.96    0.25
  -4 -11  -9    1.87    0.22
  -4 -11  -9    1.55    0.14
  -4 -11  -9    1.69    0.22
   4  11   9    1.45    0.18
   4  11   9    1.61    0.19
  -5 -11  -9    0.10    0.17
  -5 -11  -9    0.01    0.20
  -5 -11  -9   -0.01    0.15
  -5 -11  -9    0.29    0.14
   5  11   9    0.19    0.17
   5  11   9   -0.25    0.17
   3 -12  -9    4.75    0.42
   3 -12  -9    3.34    0.38
  -3  12   9    4.09    0.28
  -3  12   9    3.83    0.20
   2 -12  -9    1.71    0.22
   2 -12  -9    1.94    0.24
  -2  12   9    2.38    0.30
  -2  12   9    1.64    0.17
  -2  12   9    2.33    0.32
   1 -12  -9    1.37    0.19
   1 -12  -9    1.27    0.21
  -1  12   9    0.97    0.17
  -1  12   9    1.42    0.20
   0 -12  -9   18.02    0.58
   0 -12  -9   17.34    0.54
   0  12   9   18.05    0.58
   0  12   9   18.22    0.55
  -1 -12  -9   16.78    0.51
  -1 -12  -9   16.41    0.40
  -1 -12  -9   16.70    0.56
   1  12   9   16.34    0.52
   1  12   9   16.72    0.53
  -2 -12  -9   10.79    0.41
  -2 -12  -9   11.37    0.46
   2  12   9   11.20    0.42
   2  12   9   10.80    0.42
  -3 -12  -9    1.38    0.17
  -3 -12  -9    0.90    0.11
   3  12   9    0.81    0.16
   3  12   9    0.76    0.17
  -4 -12  -9    2.23    0.30
  -4 -12  -9    3.26    0.24
  -4 -12  -9    3.20    0.38
  -4 -12  -9    3.54    0.36
   4  12   9    3.44    0.33
   2 -13  -9    0.19    0.17
   2 -13  -9    0.48    0.21
  -2  13   9    0.29    0.13
  -2  13   9    0.80    0.21
   1 -13  -9    0.44    0.17
   1 -13  -9   -0.03    0.20
  -1  13   9    0.22    0.19
  -1  13   9    0.34    0.11
  -1  13   9    0.10    0.17
   0 -13  -9    2.42    0.30
   0 -13  -9    2.19    0.25
   0  13   9    2.34    0.31
   0  13   9    2.67    0.33
  -1 -13  -9    6.10    0.41
  -1 -13  -9    6.36    0.36
   1  13   9    6.10    0.38
   1  13   9    6.70    0.38
  -2 -13  -9   12.18    0.52
  -2 -13  -9   10.95    0.44
   2  13   9   12.17    0.49
   2  13   9   11.70    0.49
  -3 -13  -9    0.81    0.23
   3  13   9    0.80    0.20
   3  13   9    0.55    0.20
   1 -14  -9    2.51    0.28
   1 -14  -9    2.45    0.31
  -1  14   9    1.72    0.27
  -1  14   9    2.44    0.25
   0 -14  -9    0.02    0.13
   0 -14  -9    0.23    0.19
   0 -14  -9   -0.19    0.21
   0  14   9    0.36    0.20
   0  14   9   -0.05    0.20
  -1 -14  -9    0.54    0.23
  -1 -14  -9    0.38    0.13
   1  14   9    0.57    0.21
   1  14   9    0.51    0.20
  -2 -14  -9    4.01    0.27
  -2 -14  -9    4.67    0.48
   2  14   9    5.16    0.43
   2  14   9    3.36    0.41
   1   6 -10    0.44    0.25
  -1  -6  10    0.50    0.22
  -1  -6  10    0.47    0.15
  -1  -6  10    0.53    0.20
  -1  -6  10    0.57    0.28
   0   6 -10    1.94    0.26
   0   6 -10    1.91    0.28
   0  -6  10    2.18    0.29
   0  -6  10    2.32    0.24
   0  -6  10    2.32    0.25
   0  -6  10    2.14    0.20
  -1   6 -10    5.69    0.45
  -1   6 -10    6.92    0.44
   1  -6  10    6.22    0.32
   1  -6  10    6.20    0.37
   1  -6  10    6.41    0.48
   1  -6  10    6.27    0.35
  -2   6 -10    3.98    0.37
  -2   6 -10    3.21    0.25
   2  -6  10    2.91    0.29
   2  -6  10    3.49    0.44
   2  -6  10    3.93    0.31
   2  -6  10    2.85    0.32
  -3   6 -10    0.00    0.18
  -3   6 -10   -0.07    0.12
   3  -6  10    0.14    0.24
   3  -6  10    0.22    0.16
   2   5 -10    0.56    0.16
   2   5 -10    0.34    0.26
   2   5 -10    0.47    0.22
   2   5 -10    0.30    0.23
  -2  -5  10    0.53    0.14
  -2  -5  10    0.30    0.20
  -2  -5  10    0.79    0.27
  -2  -5  10    0.46    0.21
   1   5 -10    0.29    0.19
   1   5 -10    0.23    0.13
   1   5 -10    0.09    0.20
   1   5 -10    0.19    0.21
  -1  -5  10    0.00    0.12
  -1  -5  10    0.32    0.16
  -1  -5  10    0.17    0.21
  -1  -5  10    0.28    0.18
   0   5 -10    3.26    0.36
   0   5 -10    3.15    0.37
   0   5 -10    2.50    0.34
   0  -5  10    3.34    0.25
   0  -5  10    3.49    0.40
   0  -5  10    3.47    0.32
   0  -5  10    3.20    0.29
  -1   5 -10    4.64    0.39
  -1   5 -10    4.52    0.34
  -1   5 -10    4.75    0.37
   1  -5  10    5.23    0.29
   1  -5  10    4.47    0.31
   1  -5  10    5.06    0.41
   1  -5  10    5.13    0.28
  -2   5 -10    0.81    0.19
  -2   5 -10    0.48    0.13
  -2   5 -10    0.55    0.19
   2  -5  10    0.57    0.14
   2  -5  10    0.35    0.13
   2  -5  10    0.34    0.13
   2  -5  10    0.58    0.21
  -3   5 -10   27.50    0.77
  -3   5 -10   27.70    0.71
  -3   5 -10   26.89    0.81
  -3   5 -10   29.32    0.74
   3  -5  10   28.06    0.78
   3  -5  10   27.63    0.71
   3  -5  10   28.37    0.73
   3  -5  10   27.17    0.63
  -4   5 -10    0.48    0.20
  -4   5 -10    0.51    0.17
  -4   5 -10    0.32    0.15
   4  -5  10    0.64    0.15
   4  -5  10    0.69    0.16
   4  -5  10    0.53    0.18
   4  -5  10    0.57    0.23
   3   4 -10    5.01    0.32
   3   4 -10    4.51    0.40
   3   4 -10    4.69    0.55
  -3  -4  10    5.23    0.44
   2   4 -10    0.10    0.17
   2   4 -10    0.30    0.19
   2   4 -10    0.61    0.23
   2   4 -10    0.43    0.14
  -2  -4  10    0.10    0.19
  -2  -4  10   -0.03    0.16
  -2  -4  10    0.29    0.11
  -2  -4  10    0.47    0.23
   1   4 -10    0.12    0.15
   1   4 -10    0.16    0.18
   1   4 -10    0.02    0.10
   1   4 -10    0.00    0.15
  -1  -4  10   -0.09    0.13
  -1  -4  10    0.11    0.10
  -1  -4  10    0.14    0.16
  -1  -4  10    0.33    0.19
   0   4 -10    3.90    0.31
   0   4 -10    3.60    0.34
   0   4 -10    3.76    0.30
   0  -4  10    4.31    0.30
   0  -4  10    4.30    0.36
   0  -4  10    3.80    0.26
   0  -4  10    4.03    0.24
  -1   4 -10   -0.23    0.13
  -1   4 -10   -0.07    0.13
  -1   4 -10   -0.01    0.13
   1  -4  10    0.09    0.11
   1  -4  10    0.13    0.17
   1  -4  10    0.06    0.10
   1  -4  10    0.18    0.16
   1  -4  10   -0.10    0.12
  -2   4 -10    3.25    0.30
  -2   4 -10    3.32    0.30
  -2   4 -10    3.12    0.32
   2  -4  10    3.20    0.24
   2  -4  10    3.39    0.25
   2  -4  10    3.16    0.21
   2  -4  10    3.36    0.31
  -3   4 -10    0.39    0.15
  -3   4 -10    0.30    0.17
  -3   4 -10    0.39    0.16
  -3   4 -10    0.26    0.11
   3  -4  10    0.28    0.12
   3  -4  10    0.28    0.13
   3  -4  10    0.54    0.17
  -4   4 -10    4.32    0.41
  -4   4 -10    4.11    0.35
  -4   4 -10    4.12    0.30
  -4   4 -10    3.84    0.27
   4  -4  10    4.02    0.31
   4  -4  10    3.33    0.28
   4  -4  10    3.40    0.32
  -5   4 -10    1.40    0.21
  -5   4 -10    1.51    0.19
   5  -4  10    1.40    0.22
   5  -4  10    1.47    0.17
   3   3 -10    9.19    0.46
   3   3 -10    8.03    0.55
   3   3 -10    7.47    0.34
   3   3 -10    8.42    0.40
  -3  -3  10    9.15    0.47
  -3  -3  10    9.20    0.48
  -3  -3  10    9.35    0.46
   2   3 -10    1.93    0.20
   2   3 -10    2.47    0.32
   2   3 -10    1.83    0.20
   2   3 -10    2.12    0.26
  -2  -3  10    2.45    0.30
  -2  -3  10    1.94    0.19
  -2  -3  10    2.08    0.23
  -2  -3  10    2.30    0.28
   1   3 -10    0.33    0.10
   1   3 -10    0.52    0.15
   1   3 -10    0.31    0.14
   1   3 -10    0.57    0.17
  -1  -3  10    0.58    0.16
  -1  -3  10    0.29    0.17
  -1  -3  10    0.16    0.12
  -1  -3  10    0.34    0.10
   0   3 -10    2.55    0.17
   0   3 -10    2.88    0.28
   0   3 -10    2.57    0.28
   0   3 -10    1.97    0.25
   0  -3  10    2.58    0.25
   0  -3  10    2.41    0.20
   0  -3  10    2.95    0.29
   0  -3  10    2.45    0.21
  -1   3 -10    0.08    0.13
  -1   3 -10    0.28    0.12
  -1   3 -10    0.33    0.13
   1  -3  10    0.25    0.10
   1  -3  10    0.10    0.12
   1  -3  10    0.20    0.10
   1  -3  10    0.25    0.14
  -2   3 -10    1.26    0.18
  -2   3 -10    1.27    0.17
   2  -3  10    2.72    0.23
   2  -3  10    3.06    0.19
   2  -3  10    3.21    0.28
   2  -3  10    2.67    0.22
   2  -3  10    3.23    0.33
  -3   3 -10    5.78    0.32
  -3   3 -10    5.70    0.27
  -3   3 -10    5.99    0.30
   3  -3  10    6.03    0.29
   3  -3  10    5.69    0.28
   3  -3  10    5.57    0.33
   3  -3  10    6.06    0.22
  -4   3 -10    1.45    0.18
  -4   3 -10    1.91    0.23
  -4   3 -10    1.26    0.16
  -4   3 -10    1.72    0.23
   4  -3  10    1.53    0.17
   4  -3  10    1.58    0.18
   4  -3  10    1.66    0.19
   4  -3  10    1.42    0.15
  -5   3 -10   -0.07    0.12
  -5   3 -10    0.06    0.15
  -5   3 -10   -0.06    0.12
   5  -3  10   -0.20    0.15
   5  -3  10    0.18    0.16
   5  -3  10    0.18    0.11
   5  -3  10    0.03    0.10
   4   2 -10    0.25    0.28
   4   2 -10    0.40    0.19
   4   2 -10    0.54    0.17
  -4  -2  10    0.48    0.13
  -4  -2  10    0.57    0.22
   3   2 -10    0.91    0.16
   3   2 -10    0.92    0.24
   3   2 -10    0.86    0.20
   3   2 -10    0.81    0.17
  -3  -2  10    0.97    0.20
  -3  -2  10    0.98    0.13
  -3  -2  10    0.93    0.20
  -3  -2  10    1.29    0.18
  -3  -2  10    0.91    0.22
   2   2 -10    0.97    0.18
   2   2 -10    0.92    0.20
   2   2 -10    0.75    0.12
   2   2 -10    0.97    0.15
  -2  -2  10    0.67    0.17
  -2  -2  10    1.02    0.18
  -2  -2  10    1.16    0.16
  -2  -2  10    0.82    0.16
   1   2 -10    5.76    0.22
   1   2 -10    5.32    0.29
   1   2 -10    5.76    0.36
   1   2 -10    5.53    0.33
  -1  -2  10    5.76    0.24
  -1  -2  10    5.25    0.33
  -1  -2  10    5.30    0.27
  -1  -2  10    5.48    0.32
   0   2 -10    4.67    0.30
   0   2 -10    4.94    0.19
   0   2 -10    5.11    0.28
   0  -2  10    4.70    0.23
   0  -2  10    4.68    0.22
   0  -2  10    4.90    0.28
   0  -2  10    4.25    0.29
  -1   2 -10    5.46    0.30
  -1   2 -10    5.61    0.30
   1  -2  10    5.30    0.24
   1  -2  10    5.35    0.31
   1  -2  10    5.84    0.22
   1  -2  10    5.62    0.25
   1  -2  10    5.71    0.28
  -2   2 -10    0.68    0.13
  -2   2 -10    0.55    0.14
   2  -2  10    0.65    0.11
   2  -2  10    0.72    0.11
   2  -2  10    0.84    0.17
   2  -2  10    0.92    0.15
   2  -2  10    0.75    0.10
  -3   2 -10    0.81    0.13
   3  -2  10    2.56    0.22
   3  -2  10    2.38    0.15
   3  -2  10    2.59    0.24
   3  -2  10    2.39    0.20
  -4   2 -10    1.02    0.19
  -4   2 -10    0.73    0.13
  -4   2 -10    0.56    0.13
  -4   2 -10    0.63    0.13
   4  -2  10    0.71    0.12
   4  -2  10    0.81    0.15
   4  -2  10    0.69    0.15
   4  -2  10    0.85    0.09
  -5   2 -10    2.89    0.20
  -5   2 -10    2.78    0.24
   5  -2  10    2.65    0.29
   5  -2  10    2.83    0.21
   5  -2  10    2.44    0.16
   5  -2  10    2.40    0.24
  -6   2 -10    2.21    0.25
   4   1 -10    6.99    0.45
   4   1 -10    5.79    0.50
   4   1 -10    6.17    0.35
  -4  -1  10    5.05    0.44
  -4  -1  10    6.55    0.28
  -4  -1  10    6.35    0.42
  -4  -1  10    6.44    0.44
   3   1 -10    4.99    0.40
   3   1 -10    5.25    0.36
   3   1 -10    4.77    0.27
   3   1 -10    4.98    0.30
  -3  -1  10    5.14    0.22
  -3  -1  10    4.61    0.33
  -3  -1  10    5.14    0.36
  -3  -1  10    5.30    0.22
  -3  -1  10    4.50    0.35
   2   1 -10   21.53    0.65
   2   1 -10   21.03    0.62
   2   1 -10   21.18    0.57
   2   1 -10   21.37    0.51
  -2  -1  10   21.07    0.45
  -2  -1  10   19.84    0.62
  -2  -1  10   22.05    0.62
  -2  -1  10   21.40    0.56
   1   1 -10    2.14    0.22
   1   1 -10    1.62    0.18
   1   1 -10    1.46    0.15
   1   1 -10    1.58    0.18
  -1  -1  10    1.55    0.18
  -1  -1  10    1.93    0.23
  -1  -1  10    1.58    0.19
   0   1 -10    5.73    0.30
   0   1 -10    5.78    0.29
   0   1 -10    5.35    0.19
   0   1 -10    5.52    0.29
   0  -1  10    5.40    0.23
   0  -1  10    5.93    0.29
   0  -1  10    5.81    0.24
  -1   1 -10    0.31    0.11
  -1   1 -10    0.20    0.11
   1  -1  10    0.33    0.10
   1  -1  10    0.33    0.08
   1  -1  10    0.25    0.09
   1  -1  10    0.22    0.11
  -2   1 -10    0.15    0.10
  -2   1 -10    0.29    0.11
   2  -1  10    0.09    0.10
   2  -1  10    0.19    0.09
   2  -1  10    0.13    0.07
   2  -1  10    0.05    0.14
   2  -1  10    0.12    0.09
  -3   1 -10    0.30    0.10
  -3   1 -10    0.20    0.10
  -3   1 -10    0.39    0.12
   3  -1  10    0.30    0.10
   3  -1  10    0.36    0.11
   3  -1  10    0.36    0.12
   3  -1  10    0.35    0.07
  -4   1 -10    4.66    0.23
  -4   1 -10    4.91    0.25
   4  -1  10    5.21    0.27
   4  -1  10    4.96    0.23
   4  -1  10    5.17    0.28
  -5   1 -10    0.10    0.12
  -5   1 -10   -0.09    0.09
   5  -1  10    0.07    0.11
   5  -1  10    0.11    0.09
   5  -1  10    0.37    0.14
  -6   1 -10    0.13    0.13
   6  -1  10    0.44    0.19
   4   0 -10   -0.08    0.18
   4   0 -10    0.13    0.15
   4   0 -10   -0.01    0.20
   4   0 -10    0.17    0.14
  -4   0  10    0.56    0.18
  -4   0  10    0.19    0.13
  -4   0  10    0.28    0.19
  -4   0  10   -0.28    0.18
   3   0 -10    0.04    0.14
   3   0 -10    0.03    0.11
   3   0 -10    0.42    0.15
   3   0 -10    0.12    0.18
  -3   0  10    0.15    0.15
  -3   0  10    0.28    0.12
  -3   0  10    0.23    0.08
  -3   0  10    0.30    0.14
  -3   0  10    0.18    0.16
   2   0 -10    8.35    0.38
   2   0 -10    8.29    0.37
   2   0 -10    8.04    0.28
   2   0 -10    7.75    0.32
  -2   0  10    8.10    0.37
  -2   0  10    7.29    0.36
  -2   0  10    8.03    0.32
  -2   0  10    8.34    0.26
  -2   0  10    7.97    0.24
   1   0 -10    3.58    0.17
   1   0 -10    3.58    0.26
   1   0 -10    3.48    0.27
  -1   0  10    3.46    0.26
  -1   0  10    3.71    0.27
  -1   0  10    3.69    0.21
  -1   0  10    3.53    0.18
   0   0 -10    2.71    0.13
   0   0 -10    2.74    0.23
   0   0 -10    2.58    0.22
   0   0 -10    2.52    0.22
   0   0  10    2.39    0.21
   0   0  10    2.56    0.17
   0   0  10    2.52    0.16
   0   0  10    2.71    0.24
  -1   0 -10    9.97    0.24
  -1   0 -10    9.99    0.36
  -1   0 -10   10.52    0.36
   1   0  10    9.93    0.35
   1   0  10   10.01    0.27
   1   0  10   10.10    0.37
  -2   0 -10    1.69    0.20
  -2   0 -10    1.98    0.20
   2   0  10    1.84    0.18
   2   0  10    2.06    0.18
   2   0  10    1.98    0.21
   2   0  10    1.80    0.12
  -3   0 -10    4.02    0.21
  -3   0 -10    4.10    0.23
   3   0  10    4.30    0.25
   3   0  10    4.43    0.22
   3   0  10    4.23    0.25
  -4   0 -10    0.34    0.10
  -4   0 -10    0.39    0.10
   4   0  10    0.45    0.13
   4   0  10    0.39    0.11
   4   0  10    0.53    0.10
  -5   0 -10   -0.03    0.11
   5   0  10    0.03    0.09
   5   0  10    0.18    0.09
   5   0  10    0.33    0.14
  -6   0 -10    1.13    0.17
   6   0  10    1.46    0.21
   5  -1 -10    3.20    0.45
  -5   1  10    4.68    0.45
  -5   1  10    4.06    0.27
   4  -1 -10    4.65    0.36
   4  -1 -10    4.58    0.30
  -4   1  10    4.51    0.26
  -4   1  10    4.12    0.36
  -4   1  10    4.48    0.35
   3  -1 -10    2.08    0.21
   3  -1 -10    2.08    0.27
   3  -1 -10    2.19    0.21
   3  -1 -10    1.86    0.21
  -3   1  10    1.99    0.26
  -3   1  10    1.98    0.14
  -3   1  10    1.88    0.18
  -3   1  10    2.24    0.27
   2  -1 -10    0.14    0.10
   2  -1 -10    0.07    0.13
   2  -1 -10    0.01    0.12
  -2   1  10    0.19    0.09
  -2   1  10   -0.04    0.11
  -2   1  10    0.18    0.07
  -2   1  10    0.42    0.11
  -2   1  10   -0.04    0.11
   1  -1 -10    1.26    0.13
   1  -1 -10    1.46    0.19
   1  -1 -10    1.07    0.16
  -1   1  10    1.44    0.16
  -1   1  10    1.35    0.12
  -1   1  10    1.15    0.15
  -1   1  10    1.31    0.14
  -1   1  10    1.13    0.16
   0  -1 -10   12.38    0.29
   0  -1 -10   12.16    0.40
   0  -1 -10   12.40    0.41
   0  -1 -10   12.64    0.39
   0   1  10   12.81    0.36
   0   1  10   12.88    0.42
   0   1  10   12.47    0.33
  -1  -1 -10    6.05    0.28
  -1  -1 -10    6.32    0.29
  -1  -1 -10    6.14    0.16
  -1  -1 -10    6.11    0.21
   1   1  10    6.22    0.28
   1   1  10    6.03    0.19
   1   1  10    6.29    0.25
  -2  -1 -10    6.27    0.24
  -2  -1 -10    6.38    0.28
  -2  -1 -10    6.11    0.26
   2   1  10    6.17    0.16
   2   1  10    6.23    0.27
   2   1  10    5.96    0.26
   2   1  10    5.84    0.26
  -3  -1 -10    2.44    0.18
  -3  -1 -10    2.59    0.17
  -3  -1 -10    2.90    0.19
  -3  -1 -10    2.85    0.20
   3   1  10    2.68    0.19
   3   1  10    2.38    0.20
   3   1  10    2.58    0.21
  -4  -1 -10   10.62    0.34
  -4  -1 -10   11.13    0.33
  -4  -1 -10   11.05    0.39
   4   1  10   10.97    0.33
   4   1  10   11.43    0.40
   4   1  10   10.84    0.34
  -5  -1 -10    1.28    0.16
  -5  -1 -10    1.15    0.16
  -5  -1 -10    1.56    0.16
   5   1  10    1.29    0.15
   5   1  10    1.30    0.18
  -6  -1 -10    4.63    0.34
  -6  -1 -10    5.61    0.29
   6   1  10    5.54    0.38
   5  -2 -10    0.35    0.21
   5  -2 -10   -0.14    0.21
  -5   2  10    0.01    0.13
  -5   2  10    0.23    0.22
   4  -2 -10    8.69    0.36
   4  -2 -10    8.88    0.43
   4  -2 -10    8.30    0.42
  -4   2  10    9.08    0.43
  -4   2  10    8.99    0.33
  -4   2  10    9.36    0.43
   3  -2 -10    7.26    0.36
   3  -2 -10    6.82    0.29
  -3   2  10    6.76    0.35
  -3   2  10    6.99    0.27
  -3   2  10    7.02    0.37
  -3   2  10    7.10    0.21
   2  -2 -10   12.14    0.44
   2  -2 -10   12.86    0.35
  -2   2  10   11.87    0.43
  -2   2  10   12.65    0.32
  -2   2  10   12.04    0.33
   1  -2 -10   21.35    0.59
   1  -2 -10   22.32    0.60
   1  -2 -10   21.74    0.48
  -1   2  10   21.15    0.59
  -1   2  10   21.85    0.51
  -1   2  10   21.69    0.46
  -1   2  10   22.71    0.61
   0  -2 -10    3.81    0.24
   0  -2 -10    3.82    0.23
   0  -2 -10    3.93    0.15
   0  -2 -10    3.86    0.15
   0   2  10    3.95    0.24
   0   2  10    3.90    0.23
   0   2  10    3.91    0.14
   0   2  10    4.01    0.20
  -1  -2 -10    1.28    0.07
  -1  -2 -10    0.91    0.12
   1   2  10    1.18    0.16
   1   2  10    1.15    0.16
   1   2  10    1.38    0.18
  -2  -2 -10    0.62    0.11
  -2  -2 -10    0.59    0.10
  -2  -2 -10    0.70    0.12
   2   2  10    0.67    0.11
   2   2  10    0.65    0.11
  -3  -2 -10   11.32    0.37
  -3  -2 -10   10.69    0.33
  -3  -2 -10   11.10    0.35
   3   2  10   10.99    0.34
   3   2  10   10.70    0.37
  -4  -2 -10    2.07    0.16
  -4  -2 -10    2.36    0.22
  -4  -2 -10    2.44    0.18
  -4  -2 -10    2.32    0.18
   4   2  10    2.13    0.17
   4   2  10    2.27    0.23
  -5  -2 -10    2.44    0.26
  -5  -2 -10    2.06    0.15
  -5  -2 -10    3.00    0.21
  -5  -2 -10    2.70    0.16
   5   2  10    2.86    0.28
  -6  -2 -10    0.27    0.13
  -6  -2 -10    0.51    0.17
   6   2  10    0.50    0.17
   5  -3 -10    1.77    0.24
   5  -3 -10    3.25    0.41
   5  -3 -10    2.03    0.27
  -5   3  10    2.52    0.28
  -5   3  10    2.44    0.25
   4  -3 -10    2.69    0.32
   4  -3 -10    2.48    0.28
   4  -3 -10    2.51    0.30
  -4   3  10    3.16    0.31
  -4   3  10    2.55    0.23
  -4   3  10    2.41    0.34
   3  -3 -10    1.92    0.22
   3  -3 -10    2.20    0.25
   3  -3 -10    2.22    0.27
  -3   3  10    2.30    0.19
  -3   3  10    2.39    0.13
  -3   3  10    1.91    0.26
   2  -3 -10    7.74    0.35
   2  -3 -10    7.34    0.26
   2  -3 -10    7.15    0.32
  -2   3  10    7.23    0.25
  -2   3  10    7.45    0.33
  -2   3  10    7.68    0.23
  -2   3  10    7.49    0.33
   1  -3 -10   19.35    0.54
   1  -3 -10   18.62    0.42
   1  -3 -10   17.51    0.53
  -1   3  10   19.45    0.47
  -1   3  10   19.68    0.55
  -1   3  10   18.94    0.43
   0  -3 -10    3.66    0.14
   0  -3 -10    3.48    0.15
   0  -3 -10    3.52    0.24
   0  -3 -10    3.66    0.22
   0   3  10    3.81    0.20
   0   3  10    3.62    0.15
   0   3  10    3.71    0.23
   0   3  10    3.88    0.23
  -1  -3 -10   12.44    0.36
  -1  -3 -10   13.44    0.41
  -1  -3 -10   12.99    0.26
   1   3  10   12.91    0.40
   1   3  10   13.22    0.38
   1   3  10   12.76    0.27
   1   3  10   13.01    0.40
  -2  -3 -10    8.92    0.32
  -2  -3 -10    8.90    0.30
  -2  -3 -10    8.88    0.30
   2   3  10    9.28    0.32
   2   3  10    9.30    0.32
   2   3  10    9.03    0.31
  -3  -3 -10    9.41    0.30
  -3  -3 -10    9.47    0.29
  -3  -3 -10    9.44    0.34
  -3  -3 -10    9.81    0.32
   3   3  10    9.73    0.31
   3   3  10    9.79    0.35
  -4  -3 -10    7.78    0.26
  -4  -3 -10    7.69    0.33
  -4  -3 -10    7.68    0.28
   4   3  10    8.12    0.34
   4   3  10    7.57    0.26
  -5  -3 -10    5.40    0.32
  -5  -3 -10    5.15    0.25
  -5  -3 -10    4.91    0.19
   5   3  10    5.67    0.34
  -6  -3 -10    0.82    0.18
  -6  -3 -10    0.82    0.14
   6   3  10    0.97    0.19
   5  -4 -10    3.41    0.36
   5  -4 -10    2.79    0.29
   5  -4 -10    3.22    0.39
  -5   4  10    2.92    0.39
   4  -4 -10    0.34    0.15
   4  -4 -10    0.40    0.16
   4  -4 -10    0.54    0.18
  -4   4  10    0.33    0.15
  -4   4  10    0.47    0.14
   3  -4 -10   19.98    0.58
   3  -4 -10   19.30    0.51
   3  -4 -10   19.91    0.60
  -3   4  10   19.27    0.49
  -3   4  10   19.72    0.60
  -3   4  10   19.67    0.42
   2  -4 -10    1.57    0.17
   2  -4 -10    1.60    0.20
   2  -4 -10    1.47    0.17
  -2   4  10    1.89    0.23
  -2   4  10    1.68    0.16
  -2   4  10    1.60    0.21
  -2   4  10    1.58    0.13
   1  -4 -10   20.43    0.57
   1  -4 -10   19.91    0.45
   1  -4 -10   20.93    0.46
  -1   4  10   20.46    0.49
  -1   4  10   21.08    0.57
  -1   4  10   19.82    0.45
   0  -4 -10   45.30    0.94
   0  -4 -10   45.97    0.85
   0  -4 -10   46.87    1.03
   0   4  10   46.61    0.97
   0   4  10   46.16    1.02
   0   4  10   44.98    0.86
   0   4  10   46.45    1.03
  -1  -4 -10   53.30    1.17
  -1  -4 -10   54.32    1.13
  -1  -4 -10   55.78    0.96
   1   4  10   54.70    1.14
   1   4  10   54.01    1.16
   1   4  10   55.35    1.18
  -2  -4 -10   12.75    0.37
  -2  -4 -10   13.10    0.38
  -2  -4 -10   13.29    0.40
   2   4  10   13.11    0.39
   2   4  10   13.40    0.40
   2   4  10   13.37    0.40
  -3  -4 -10    6.92    0.28
  -3  -4 -10    7.02    0.29
  -3  -4 -10    6.16    0.24
  -3  -4 -10    6.51    0.23
   3   4  10    6.43    0.30
   3   4  10    6.50    0.25
  -4  -4 -10    1.40    0.17
  -4  -4 -10    1.42    0.15
  -4  -4 -10    1.53    0.17
  -4  -4 -10    1.69    0.15
   4   4  10    1.35    0.16
   4   4  10    1.56    0.15
  -5  -4 -10    1.09    0.14
  -5  -4 -10    1.01    0.13
  -5  -4 -10    0.93    0.18
   5   4  10    0.96    0.13
   5   4  10    0.85    0.17
  -6  -4 -10   10.90    0.37
  -6  -4 -10   10.56    0.47
   6   4  10   11.26    0.47
   5  -5 -10    0.48    0.23
   5  -5 -10    0.91    0.22
   5  -5 -10    0.31    0.22
  -5   5  10    0.73    0.22
   4  -5 -10    0.22    0.15
   4  -5 -10    0.13    0.15
   4  -5 -10    0.04    0.16
   4  -5 -10    0.07    0.16
  -4   5  10    0.10    0.12
  -4   5  10    0.30    0.15
   3  -5 -10    4.40    0.29
   3  -5 -10    4.48    0.32
   3  -5 -10    4.66    0.26
  -3   5  10    4.52    0.16
  -3   5  10    4.74    0.33
  -3   5  10    4.41    0.23
   2  -5 -10   15.09    0.47
   2  -5 -10   14.96    0.41
   2  -5 -10   15.71    0.50
  -2   5  10   15.19    0.49
  -2   5  10   15.19    0.47
  -2   5  10   15.74    0.38
  -2   5  10   14.96    0.39
   1  -5 -10   14.50    0.36
   1  -5 -10   14.66    0.47
  -1   5  10   14.33    0.46
  -1   5  10   14.14    0.35
  -1   5  10   14.35    0.44
  -1   5  10   14.70    0.38
   0  -5 -10    7.19    0.29
   0  -5 -10    7.42    0.31
   0  -5 -10    7.37    0.21
   0  -5 -10    7.53    0.24
   0   5  10    7.43    0.27
   0   5  10    7.27    0.21
   0   5  10    7.35    0.30
   0   5  10    7.27    0.30
  -1  -5 -10   13.47    0.28
  -1  -5 -10   13.39    0.37
   1   5  10   13.60    0.40
   1   5  10   13.53    0.40
   1   5  10   13.23    0.41
  -2  -5 -10    5.28    0.23
  -2  -5 -10    5.11    0.24
  -2  -5 -10    5.69    0.26
   2   5  10    4.61    0.26
   2   5  10    5.06    0.23
   2   5  10    5.61    0.26
  -3  -5 -10    0.80    0.13
  -3  -5 -10    0.83    0.12
  -3  -5 -10    0.93    0.12
  -3  -5 -10    0.69    0.11
   3   5  10    0.68    0.10
   3   5  10    0.69    0.12
  -4  -5 -10    8.28    0.35
  -4  -5 -10    8.45    0.27
  -4  -5 -10    8.35    0.30
   4   5  10    7.95    0.27
   4   5  10    8.69    0.36
   4   5  10    8.28    0.30
  -5  -5 -10    6.29    0.34
  -5  -5 -10    5.82    0.25
   5   5  10    6.14    0.35
   5   5  10    5.89    0.22
   5   5  10    6.13    0.25
  -6  -5 -10    4.05    0.23
  -6  -5 -10    4.01    0.34
   6   5  10    3.81    0.17
   6   5  10    4.15    0.37
   5  -6 -10    1.16    0.24
   5  -6 -10    1.08    0.23
  -5   6  10    0.98    0.18
  -5   6  10    1.02    0.24
   4  -6 -10    4.40    0.32
   4  -6 -10    3.96    0.34
   4  -6 -10    4.04    0.36
  -4   6  10    4.12    0.27
  -4   6  10    3.56    0.31
   3  -6 -10    9.41    0.36
   3  -6 -10    9.61    0.40
   3  -6 -10    9.67    0.39
  -3   6  10    9.15    0.33
  -3   6  10    9.55    0.24
   2  -6 -10    6.16    0.26
   2  -6 -10    6.10    0.31
   2  -6 -10    6.66    0.34
  -2   6  10    6.34    0.22
  -2   6  10    6.75    0.30
  -2   6  10    6.04    0.34
  -2   6  10    6.24    0.24
   1  -6 -10    2.61    0.21
   1  -6 -10    2.62    0.17
  -1   6  10    2.79    0.23
  -1   6  10    2.67    0.16
  -1   6  10    2.87    0.17
  -1   6  10    2.36    0.21
   0  -6 -10   18.97    0.54
   0  -6 -10   19.57    0.52
   0  -6 -10   19.64    0.42
   0   6  10   19.16    0.55
   0   6  10   19.24    0.52
   0   6  10   19.11    0.42
   0   6  10   19.65    0.50
  -1  -6 -10   24.07    0.62
  -1  -6 -10   24.28    0.47
  -1  -6 -10   24.86    0.59
   1   6  10   24.06    0.60
   1   6  10   24.46    0.60
  -2  -6 -10    7.37    0.30
  -2  -6 -10    7.52    0.28
   2   6  10    7.23    0.32
   2   6  10    7.04    0.27
  -3  -6 -10   15.83    0.39
  -3  -6 -10   16.45    0.49
  -3  -6 -10   16.41    0.46
   3   6  10   16.07    0.48
   3   6  10   16.25    0.43
   3   6  10   16.32    0.46
  -4  -6 -10    8.40    0.27
  -4  -6 -10    8.66    0.32
  -4  -6 -10    8.73    0.36
   4   6  10    8.71    0.28
   4   6  10    7.85    0.35
   4   6  10    8.71    0.31
  -5  -6 -10    9.57    0.31
  -5  -6 -10    9.54    0.33
  -5  -6 -10    9.93    0.42
   5   6  10    9.41    0.41
   5   6  10    9.77    0.33
   5   6  10    8.94    0.28
  -6  -6 -10    1.00    0.22
  -6  -6 -10    1.10    0.12
  -6  -6 -10    1.08    0.14
   6   6  10    1.03    0.11
   6   6  10    0.90    0.21
   6   6  10    1.56    0.19
   5  -7 -10    1.88    0.26
  -5   7  10    1.84    0.28
  -5   7  10    1.37    0.21
   4  -7 -10    3.29    0.32
   4  -7 -10    2.64    0.30
   4  -7 -10    2.89    0.32
  -4   7  10    3.06    0.31
  -4   7  10    2.89    0.24
  -4   7  10    2.79    0.35
   3  -7 -10   27.30    0.66
   3  -7 -10   26.19    0.71
   3  -7 -10   27.61    0.75
  -3   7  10   21.57    0.64
  -3   7  10   26.76    0.52
  -3   7  10   26.20    0.74
  -3   7  10   25.08    0.61
   2  -7 -10   15.04    0.43
   2  -7 -10   15.53    0.51
   2  -7 -10   15.93    0.48
  -2   7  10   15.41    0.47
  -2   7  10   15.70    0.39
  -2   7  10   15.26    0.41
   1  -7 -10    0.71    0.14
   1  -7 -10    0.79    0.11
   1  -7 -10    0.64    0.12
  -1   7  10    0.92    0.11
  -1   7  10    0.77    0.11
  -1   7  10    0.89    0.13
   0  -7 -10   14.58    0.43
   0  -7 -10   15.22    0.35
   0   7  10   13.96    0.48
   0   7  10   15.13    0.44
   0   7  10   15.15    0.42
  -1  -7 -10    1.49    0.11
  -1  -7 -10    1.63    0.20
   1   7  10    1.36    0.14
   1   7  10    1.17    0.13
   1   7  10    1.28    0.15
  -2  -7 -10    5.64    0.26
  -2  -7 -10    5.69    0.28
   2   7  10    5.33    0.25
   2   7  10    5.69    0.27
   2   7  10    5.96    0.28
  -3  -7 -10   19.19    0.52
  -3  -7 -10   18.26    0.43
  -3  -7 -10   19.54    0.55
   3   7  10   17.78    0.47
   3   7  10   18.15    0.50
   3   7  10   18.81    0.53
  -4  -7 -10   17.24    0.53
  -4  -7 -10   16.92    0.48
  -4  -7 -10   16.20    0.40
   4   7  10   16.41    0.47
   4   7  10   16.63    0.53
   4   7  10   17.13    0.44
  -5  -7 -10    0.49    0.10
  -5  -7 -10    0.54    0.16
  -5  -7 -10    0.80    0.12
  -5  -7 -10    0.70    0.14
   5   7  10    0.28    0.16
   5   7  10    0.55    0.13
   5   7  10    0.59    0.11
  -6  -7 -10    1.99    0.25
  -6  -7 -10    1.50    0.17
  -6  -7 -10    2.02    0.19
  -6  -7 -10    2.28    0.22
   6   7  10    1.80    0.20
   6   7  10    1.85    0.17
   6   7  10    1.63    0.24
   4  -8 -10    2.55    0.33
   4  -8 -10    3.10    0.33
   4  -8 -10    3.37    0.38
  -4   8  10    2.92    0.31
  -4   8  10    2.85    0.38
  -4   8  10    2.63    0.25
   3  -8 -10    6.40    0.34
   3  -8 -10    6.72    0.33
   3  -8 -10    6.89    0.38
  -3   8  10    6.83    0.29
  -3   8  10    6.59    0.34
  -3   8  10    6.67    0.21
  -3   8  10    6.65    0.38
   2  -8 -10    6.86    0.32
   2  -8 -10    6.58    0.30
   2  -8 -10    6.71    0.36
  -2   8  10    7.06    0.36
  -2   8  10    6.81    0.27
  -2   8  10    7.11    0.32
  -2   8  10    6.81    0.25
   1  -8 -10    9.20    0.37
   1  -8 -10    8.72    0.34
   1  -8 -10    8.97    0.29
  -1   8  10    8.77    0.30
  -1   8  10    8.55    0.27
  -1   8  10    9.19    0.38
  -1   8  10    9.19    0.35
   0  -8 -10   11.11    0.31
   0  -8 -10   10.92    0.37
   0  -8 -10   11.24    0.41
   0   8  10   11.32    0.40
   0   8  10   10.89    0.35
   0   8  10   11.14    0.38
  -1  -8 -10    5.91    0.30
   1   8  10    5.37    0.27
   1   8  10    5.40    0.26
  -2  -8 -10   21.20    0.58
   2   8  10   19.42    0.51
  -3  -8 -10    9.24    0.26
  -3  -8 -10   10.03    0.38
  -3  -8 -10    9.85    0.37
   3   8  10    9.42    0.32
  -4  -8 -10   11.85    0.40
  -4  -8 -10   11.78    0.46
  -4  -8 -10   11.40    0.31
   4   8  10   11.33    0.36
   4   8  10   11.04    0.38
  -5  -8 -10    4.46    0.30
  -5  -8 -10    4.44    0.20
  -5  -8 -10    4.53    0.24
  -5  -8 -10    5.11    0.34
   5   8  10    5.28    0.35
   5   8  10    4.54    0.28
   5   8  10    4.21    0.24
  -6  -8 -10    6.79    0.27
  -6  -8 -10    7.19    0.43
  -6  -8 -10    5.95    0.27
   6   8  10    5.44    0.46
   6   8  10    6.29    0.32
   4  -9 -10    2.87    0.36
   4  -9 -10    3.35    0.40
   4  -9 -10    3.53    0.34
  -4   9  10    3.10    0.27
  -4   9  10    3.78    0.43
  -4   9  10    2.92    0.34
   3  -9 -10    7.21    0.35
   3  -9 -10    7.18    0.36
   3  -9 -10    6.89    0.40
  -3   9  10    7.78    0.32
  -3   9  10    7.54    0.24
  -3   9  10    7.34    0.42
  -3   9  10    6.83    0.36
   2  -9 -10    4.73    0.28
   2  -9 -10    5.06    0.29
   2  -9 -10    5.32    0.33
  -2   9  10    5.08    0.30
  -2   9  10    4.87    0.35
  -2   9  10    4.73    0.23
  -2   9  10    5.29    0.24
   1  -9 -10    2.50    0.22
   1  -9 -10    2.83    0.21
   1  -9 -10    2.38    0.27
  -1   9  10    2.15    0.16
  -1   9  10    2.36    0.20
  -1   9  10    2.23    0.23
  -1   9  10    2.60    0.27
   0  -9 -10    9.04    0.34
   0  -9 -10    8.77    0.38
   0   9  10    9.39    0.35
  -1  -9 -10    8.90    0.37
  -1  -9 -10    9.11    0.33
   1   9  10    9.16    0.35
   1   9  10    9.02    0.36
  -2  -9 -10    4.86    0.16
  -2  -9 -10    4.95    0.15
  -2  -9 -10    5.04    0.29
   2   9  10    5.05    0.27
   2   9  10    4.58    0.25
  -3  -9 -10    0.60    0.08
  -3  -9 -10    0.41    0.11
  -3  -9 -10    0.49    0.13
  -3  -9 -10    0.46    0.14
   3   9  10    0.54    0.13
   3   9  10    0.69    0.13
  -4  -9 -10    1.79    0.14
  -4  -9 -10    2.24    0.27
  -4  -9 -10    2.66    0.29
  -4  -9 -10    2.28    0.21
   4   9  10    1.69    0.21
   4   9  10    1.93    0.23
  -5  -9 -10    1.21    0.19
  -5  -9 -10    1.30    0.15
  -5  -9 -10    1.18    0.20
   5   9  10    0.94    0.15
   4 -10 -10    5.18    0.41
   4 -10 -10    5.96    0.44
  -4  10  10    5.31    0.49
  -4  10  10    5.62    0.33
   3 -10 -10    6.21    0.37
   3 -10 -10    6.40    0.41
   3 -10 -10    5.73    0.38
  -3  10  10    6.07    0.32
  -3  10  10    5.61    0.18
  -3  10  10    6.02    0.24
  -3  10  10    5.15    0.34
  -3  10  10    6.26    0.44
   2 -10 -10    2.34    0.26
   2 -10 -10    1.86    0.21
   2 -10 -10    2.26    0.26
  -2  10  10    2.28    0.32
  -2  10  10    2.39    0.19
  -2  10  10    1.49    0.17
  -2  10  10    1.88    0.21
   1 -10 -10    0.46    0.14
   1 -10 -10    0.69    0.15
  -1  10  10    0.64    0.14
  -1  10  10    0.82    0.13
   0 -10 -10    0.46    0.12
   0 -10 -10    0.27    0.15
   0  10  10    0.43    0.12
   0  10  10    0.52    0.13
  -1 -10 -10    1.12    0.14
   1  10  10    1.05    0.14
   1  10  10    1.26    0.16
  -2 -10 -10   25.01    0.67
  -2 -10 -10   23.92    0.48
   2  10  10   24.72    0.65
   2  10  10   24.05    0.63
  -3 -10 -10    0.92    0.14
  -3 -10 -10    1.30    0.18
  -3 -10 -10    1.09    0.12
   3  10  10    0.88    0.14
  -4 -10 -10    0.34    0.17
  -4 -10 -10    0.34    0.15
  -4 -10 -10    0.37    0.13
   4  10  10    0.36    0.13
   4  10  10    0.45    0.14
  -5 -10 -10    3.42    0.36
  -5 -10 -10    2.75    0.27
  -5 -10 -10    2.76    0.37
   5  10  10    3.09    0.29
   5  10  10    2.75    0.31
   3 -11 -10    2.15    0.26
   3 -11 -10    2.93    0.35
   3 -11 -10    2.11    0.28
  -3  11  10    2.42    0.28
  -3  11  10    2.24    0.22
  -3  11  10    2.25    0.24
  -3  11  10    2.25    0.16
  -3  11  10    1.58    0.21
   2 -11 -10    0.09    0.17
   2 -11 -10    0.39    0.16
  -2  11  10    0.03    0.10
  -2  11  10    0.34    0.14
   1 -11 -10    1.55    0.22
   1 -11 -10    1.64    0.19
  -1  11  10    1.51    0.18
  -1  11  10    1.58    0.20
   0 -11 -10    4.17    0.29
   0 -11 -10    4.65    0.35
   0  11  10    4.49    0.30
   0  11  10    4.40    0.31
  -1 -11 -10   16.55    0.55
  -1 -11 -10   16.28    0.50
  -1 -11 -10   16.15    0.37
   1  11  10   16.19    0.51
   1  11  10   16.57    0.52
  -2 -11 -10    8.85    0.25
   2  11  10    8.33    0.36
   2  11  10    8.34    0.37
  -3 -11 -10    2.75    0.25
  -3 -11 -10    3.25    0.17
  -3 -11 -10    2.78    0.33
   3  11  10    3.36    0.28
   3  11  10    3.29    0.29
  -4 -11 -10    0.59    0.11
  -4 -11 -10    0.78    0.21
  -4 -11 -10    0.57    0.19
  -4 -11 -10    0.79    0.15
   4  11  10    0.52    0.16
   4  11  10    0.71    0.17
   3 -12 -10    3.13    0.36
   3 -12 -10    2.66    0.28
  -3  12  10    2.80    0.27
  -3  12  10    3.83    0.50
   2 -12 -10    3.16    0.39
   2 -12 -10    2.21    0.25
  -2  12  10    2.12    0.19
  -2  12  10    2.27    0.26
  -2  12  10    2.55    0.23
  -2  12  10    2.91    0.34
   1 -12 -10    1.95    0.22
   1 -12 -10    2.15    0.24
  -1  12  10    2.16    0.23
  -1  12  10    2.95    0.33
   0 -12 -10    3.75    0.31
   0 -12 -10    4.37    0.37
   0  12  10    4.38    0.34
   0  12  10    3.82    0.33
  -1 -12 -10    9.02    0.40
  -1 -12 -10    9.87    0.46
  -1 -12 -10    9.33    0.28
   1  12  10    9.23    0.42
   1  12  10    9.40    0.40
  -2 -12 -10    4.34    0.31
  -2 -12 -10    4.62    0.20
  -2 -12 -10    4.22    0.38
   2  12  10    3.95    0.32
   2  12  10    3.51    0.32
  -3 -12 -10    6.38    0.35
  -3 -12 -10    6.51    0.45
  -3 -12 -10    6.29    0.24
   3  12  10    5.48    0.36
   3  12  10    5.93    0.37
  -4 -12 -10    0.51    0.19
  -4 -12 -10    0.54    0.24
  -4 -12 -10    0.44    0.14
   4  12  10    0.21    0.19
   2 -13 -10    1.83    0.27
  -2  13  10    2.31    0.23
  -2  13  10    2.13    0.29
   1 -13 -10    1.31    0.22
  -1  13  10    2.68    0.36
  -1  13  10    1.52    0.22
   0 -13 -10    0.53    0.18
   0 -13 -10    1.10    0.24
   0  13  10    0.77    0.21
   0  13  10    0.90    0.19
  -1 -13 -10   15.77    0.60
  -1 -13 -10   14.89    0.53
   1  13  10   14.55    0.54
   1  13  10   14.48    0.55
  -2 -13 -10    2.51    0.27
  -2 -13 -10    2.80    0.32
   2  13  10    2.07    0.24
   2  13  10    2.65    0.33
  -3 -13 -10    0.05    0.12
  -3 -13 -10    0.18    0.22
   3  13  10   -0.35    0.19
   0 -14 -10    0.45    0.26
   0  14  10    0.11    0.22
   0  14  10    0.83    0.21
  -1 -14 -10    1.36    0.26
   1  14  10    1.42    0.26
   0   5 -11    3.50    0.44
   0  -5  11    3.32    0.29
   0  -5  11    3.65    0.49
   0  -5  11    3.10    0.35
  -1   5 -11    1.64    0.26
   1  -5  11    3.41    0.45
   1  -5  11    2.47    0.28
   1  -5  11    2.36    0.23
  -2   5 -11    7.55    0.46
  -2   5 -11    6.90    0.32
   2  -5  11    7.78    0.51
   2  -5  11    7.38    0.37
   1   4 -11    1.56    0.17
   1   4 -11    1.27    0.22
   1   4 -11    1.62    0.25
   1   4 -11    1.56    0.24
  -1  -4  11    1.54    0.17
  -1  -4  11    1.32    0.22
  -1  -4  11    1.44    0.21
  -1  -4  11    1.95    0.29
   0   4 -11   -0.17    0.18
   0   4 -11    0.14    0.20
   0   4 -11   -0.21    0.17
   0  -4  11   -0.23    0.15
   0  -4  11   -0.01    0.17
   0  -4  11    0.02    0.12
   0  -4  11    0.08    0.22
  -1   4 -11    0.11    0.17
  -1   4 -11    0.24    0.19
  -1   4 -11    0.59    0.20
   1  -4  11    0.19    0.15
   1  -4  11   -0.02    0.14
   1  -4  11    0.18    0.20
   1  -4  11    0.09    0.13
  -2   4 -11    1.62    0.23
  -2   4 -11    1.89    0.24
   2  -4  11    1.81    0.25
   2  -4  11    1.63    0.17
   2  -4  11    1.75    0.19
   2  -4  11    2.01    0.25
  -3   4 -11    6.67    0.41
  -3   4 -11    7.04    0.44
  -3   4 -11    7.32    0.33
   3  -4  11    6.23    0.44
   3  -4  11    6.82    0.30
   3  -4  11    6.95    0.36
   3  -4  11    7.46    0.36
  -4   4 -11    6.84    0.34
  -4   4 -11    6.62    0.43
  -4   4 -11    7.80    0.40
   4  -4  11    6.70    0.37
   2   3 -11    4.21    0.27
   2   3 -11    3.47    0.49
   2   3 -11    4.30    0.41
   2   3 -11    3.39    0.38
  -2  -3  11    4.83    0.43
  -2  -3  11    3.41    0.36
  -2  -3  11    3.89    0.26
  -2  -3  11    3.99    0.40
   1   3 -11    1.36    0.14
   1   3 -11    0.91    0.19
   1   3 -11    1.27    0.21
   1   3 -11    1.36    0.24
  -1  -3  11    0.64    0.21
  -1  -3  11    1.26    0.20
  -1  -3  11    1.37    0.22
  -1  -3  11    1.33    0.15
   0   3 -11    2.54    0.31
   0   3 -11    2.31    0.24
   0   3 -11    1.95    0.24
   0  -3  11    1.88    0.24
   0  -3  11    2.68    0.36
   0  -3  11    2.54    0.30
   0  -3  11    2.16    0.22
  -1   3 -11    0.14    0.16
  -1   3 -11    0.11    0.16
  -1   3 -11   -0.05    0.17
   1  -3  11    0.00    0.17
   1  -3  11    0.16    0.11
   1  -3  11    0.11    0.12
   1  -3  11    0.15    0.12
  -2   3 -11    0.81    0.18
  -2   3 -11    0.60    0.17
  -2   3 -11    0.56    0.19
   2  -3  11    0.34    0.14
   2  -3  11    0.59    0.13
   2  -3  11    0.88    0.13
  -3   3 -11    1.81    0.24
  -3   3 -11    1.72    0.21
  -3   3 -11    1.57    0.21
  -3   3 -11    1.83    0.20
   3  -3  11    1.85    0.20
   3  -3  11    2.06    0.23
   3  -3  11    2.16    0.25
   3  -3  11    1.84    0.25
  -4   3 -11    1.20    0.17
  -4   3 -11    1.26    0.25
  -4   3 -11    1.61    0.22
  -4   3 -11    1.58    0.19
   4  -3  11    1.47    0.14
   4  -3  11    1.76    0.20
   4  -3  11    1.44    0.17
   4  -3  11    1.56    0.22
   3   2 -11    2.73    0.27
   3   2 -11    2.68    0.33
   3   2 -11    3.20    0.44
   3   2 -11    2.38    0.28
  -3  -2  11    3.13    0.42
  -3  -2  11    2.98    0.20
  -3  -2  11    3.34    0.25
  -3  -2  11    2.60    0.28
   2   2 -11   11.56    0.52
   2   2 -11   10.41    0.52
   2   2 -11   10.32    0.35
   2   2 -11   11.21    0.46
  -2  -2  11    9.65    0.51
  -2  -2  11   10.83    0.44
  -2  -2  11   11.05    0.35
  -2  -2  11   10.97    0.49
   1   2 -11    2.54    0.32
   1   2 -11    2.18    0.19
   1   2 -11    2.02    0.24
   1   2 -11    2.20    0.30
  -1  -2  11    2.32    0.26
  -1  -2  11    2.18    0.30
  -1  -2  11    2.41    0.33
  -1  -2  11    1.96    0.20
   0   2 -11    0.23    0.16
   0   2 -11    0.26    0.16
   0   2 -11    0.35    0.16
   0  -2  11    0.14    0.15
   0  -2  11    0.26    0.14
   0  -2  11    0.31    0.11
   0  -2  11    0.27    0.12
  -1   2 -11    0.93    0.18
  -1   2 -11    0.06    0.14
   1  -2  11    1.09    0.16
   1  -2  11    1.34    0.19
   1  -2  11    1.22    0.14
   1  -2  11    0.99    0.13
  -2   2 -11    0.38    0.14
  -2   2 -11    0.86    0.16
  -2   2 -11    0.80    0.18
   2  -2  11    0.91    0.21
   2  -2  11    0.70    0.13
   2  -2  11    0.86    0.15
   2  -2  11    0.78    0.17
   2  -2  11    0.84    0.11
  -3   2 -11    1.56    0.20
  -3   2 -11    1.53    0.19
  -3   2 -11    1.16    0.20
  -3   2 -11    1.28    0.16
   3  -2  11    1.91    0.17
   3  -2  11    1.63    0.20
   3  -2  11    1.28    0.16
   3  -2  11    1.48    0.17
  -4   2 -11    1.57    0.23
  -4   2 -11    1.50    0.19
  -4   2 -11    1.37    0.17
  -4   2 -11    1.62    0.18
   4  -2  11    1.66    0.20
   4  -2  11    1.56    0.20
   4  -2  11    1.44    0.12
   4  -2  11    1.59    0.22
  -5   2 -11    4.34    0.28
  -5   2 -11    4.85    0.30
   5  -2  11    5.32    0.38
   5  -2  11    4.32    0.28
   3   1 -11    1.66    0.23
   3   1 -11    2.41    0.29
   3   1 -11    2.09    0.26
   3   1 -11    1.83    0.22
  -3  -1  11    1.93    0.20
  -3  -1  11    2.40    0.26
  -3  -1  11    2.22    0.19
  -3  -1  11    1.76    0.24
  -3  -1  11    2.09    0.27
   2   1 -11    2.11    0.23
   2   1 -11    1.58    0.23
   2   1 -11    1.84    0.21
   2   1 -11    1.71    0.20
  -2  -1  11    1.83    0.23
  -2  -1  11    1.79    0.15
  -2  -1  11    1.58    0.19
  -2  -1  11    1.95    0.19
  -2  -1  11    1.99    0.22
   1   1 -11    2.45    0.30
   1   1 -11    2.50    0.32
   1   1 -11    2.44    0.27
   1   1 -11    2.49    0.18
  -1  -1  11    2.74    0.29
  -1  -1  11    2.54    0.32
  -1  -1  11    2.38    0.24
  -1  -1  11    2.52    0.19
   0   1 -11    2.81    0.27
   0   1 -11    1.92    0.15
   0   1 -11    2.02    0.27
   0   1 -11    1.95    0.20
   0  -1  11    2.46    0.25
   0  -1  11    2.58    0.29
   0  -1  11    2.30    0.20
   0  -1  11    2.09    0.20
  -1   1 -11    5.29    0.32
  -1   1 -11    6.09    0.33
   1  -1  11    5.52    0.26
   1  -1  11    5.25    0.29
   1  -1  11    5.22    0.23
  -2   1 -11    7.35    0.36
  -2   1 -11    7.98    0.35
   2  -1  11    7.42    0.24
   2  -1  11    7.71    0.36
   2  -1  11    7.82    0.33
   2  -1  11    8.09    0.32
  -3   1 -11    0.28    0.09
  -3   1 -11    0.20    0.14
  -3   1 -11    0.30    0.13
  -3   1 -11    0.38    0.13
   3  -1  11    0.13    0.11
   3  -1  11    0.25    0.08
   3  -1  11    0.21    0.14
   3  -1  11    0.36    0.13
  -4   1 -11    0.08    0.13
  -4   1 -11    0.02    0.12
  -4   1 -11    0.16    0.11
   4  -1  11   -0.04    0.14
   4  -1  11    0.10    0.14
   4  -1  11    0.02    0.11
  -5   1 -11    0.61    0.15
  -5   1 -11    0.38    0.14
  -5   1 -11    0.61    0.13
   5  -1  11    0.16    0.17
   5  -1  11    0.54    0.15
   5  -1  11    0.46    0.12
   4   0 -11    2.34    0.23
   4   0 -11    2.33    0.33
  -4   0  11    2.66    0.24
  -4   0  11    2.52    0.29
   3   0 -11    2.91    0.27
   3   0 -11    3.01    0.30
   3   0 -11    2.86    0.29
   3   0 -11    2.58    0.35
  -3   0  11    3.08    0.35
  -3   0  11    2.74    0.25
  -3   0  11    2.63    0.36
  -3   0  11    3.08    0.21
   2   0 -11    2.69    0.27
   2   0 -11    3.10    0.22
   2   0 -11    2.50    0.31
   2   0 -11    3.02    0.34
  -2   0  11    2.68    0.19
  -2   0  11    2.73    0.25
  -2   0  11    2.90    0.30
  -2   0  11    2.82    0.17
  -2   0  11    3.27    0.28
   1   0 -11    4.00    0.30
   1   0 -11    3.80    0.28
   1   0 -11    3.83    0.20
   1   0 -11    3.74    0.32
  -1   0  11    4.07    0.21
  -1   0  11    3.69    0.25
  -1   0  11    4.34    0.32
  -1   0  11    3.65    0.29
   0   0 -11    7.92    0.35
   0   0 -11    8.12    0.35
   0   0 -11    7.75    0.23
   0   0  11    8.29    0.30
   0   0  11    8.37    0.37
   0   0  11    8.30    0.29
   0   0  11    7.99    0.35
  -1   0 -11    0.29    0.13
  -1   0 -11    0.01    0.12
   1   0  11    0.13    0.10
   1   0  11    0.10    0.08
   1   0  11    0.10    0.10
   1   0  11    0.03    0.12
  -2   0 -11    0.94    0.14
  -2   0 -11    1.09    0.15
   2   0  11    1.18    0.13
   2   0  11    1.05    0.14
   2   0  11    0.94    0.12
   2   0  11    0.98    0.16
  -3   0 -11    0.94    0.13
  -3   0 -11    0.95    0.14
   3   0  11    1.09    0.16
   3   0  11    0.99    0.14
   3   0  11    1.01    0.14
  -4   0 -11    4.23    0.24
  -4   0 -11    4.39    0.25
   4   0  11    4.36    0.27
   4   0  11    4.20    0.23
   4   0  11    4.33    0.29
  -5   0 -11    0.66    0.16
  -5   0 -11    0.65    0.12
  -5   0 -11    0.68    0.13
   5   0  11    0.69    0.18
   5   0  11    0.58    0.13
   5   0  11    0.79    0.12
  -6   0 -11    1.54    0.20
   6   0  11    1.97    0.26
   4  -1 -11    0.68    0.19
   4  -1 -11    0.65    0.23
  -4   1  11    0.48    0.14
  -4   1  11    0.41    0.22
   3  -1 -11    1.27    0.15
   3  -1 -11    1.32    0.20
   3  -1 -11    1.03    0.22
   3  -1 -11    1.28    0.16
  -3   1  11    1.05    0.20
  -3   1  11    1.54    0.19
  -3   1  11    1.18    0.21
  -3   1  11    1.26    0.15
   2  -1 -11   10.98    0.34
   2  -1 -11   10.53    0.45
   2  -1 -11   11.40    0.46
  -2   1  11   11.23    0.45
  -2   1  11   10.92    0.38
  -2   1  11   10.89    0.31
  -2   1  11   11.53    0.45
  -2   1  11   11.22    0.32
   1  -1 -11    8.52    0.39
   1  -1 -11    9.24    0.35
   1  -1 -11    9.08    0.27
   1  -1 -11    9.03    0.40
  -1   1  11    8.71    0.39
  -1   1  11    8.44    0.31
  -1   1  11    8.80    0.24
  -1   1  11    8.87    0.37
  -1   1  11    8.90    0.31
   0  -1 -11    0.24    0.13
   0  -1 -11    0.22    0.12
   0  -1 -11    0.15    0.06
   0  -1 -11    0.20    0.11
   0   1  11    0.40    0.09
   0   1  11    0.24    0.13
   0   1  11    0.29    0.11
   0   1  11    0.13    0.09
  -1  -1 -11    5.34    0.30
  -1  -1 -11    5.76    0.29
  -1  -1 -11    5.77    0.16
   1   1  11    5.81    0.28
   1   1  11    5.79    0.20
   1   1  11    5.74    0.26
   1   1  11    5.92    0.30
  -2  -1 -11    0.33    0.12
  -2  -1 -11    0.00    0.09
  -2  -1 -11    0.07    0.09
   2   1  11    0.18    0.10
   2   1  11    0.32    0.09
   2   1  11    0.39    0.06
   2   1  11    0.19    0.12
  -3  -1 -11    4.62    0.25
  -3  -1 -11    4.33    0.22
  -3  -1 -11    4.36    0.25
   3   1  11    4.23    0.26
   3   1  11    4.64    0.24
   3   1  11    4.42    0.27
  -4  -1 -11   12.42    0.39
  -4  -1 -11   12.20    0.38
  -4  -1 -11   12.58    0.43
   4   1  11   11.98    0.37
   4   1  11   11.94    0.44
   4   1  11   12.26    0.39
  -5  -1 -11    0.22    0.12
  -5  -1 -11   -0.10    0.10
  -5  -1 -11   -0.06    0.10
  -5  -1 -11    0.09    0.15
   5   1  11    0.04    0.10
   5   1  11    0.15    0.11
   5   1  11    0.21    0.16
  -6  -1 -11    0.56    0.15
   6   1  11    0.69    0.22
   4  -2 -11    1.77    0.21
   4  -2 -11    1.83    0.25
   4  -2 -11    1.57    0.25
  -4   2  11    1.38    0.24
  -4   2  11    1.58    0.25
  -4   2  11    1.64    0.18
   3  -2 -11    0.00    0.16
   3  -2 -11    0.26    0.12
   3  -2 -11    0.11    0.16
  -3   2  11    0.05    0.11
  -3   2  11    0.19    0.08
  -3   2  11   -0.11    0.16
  -3   2  11    0.28    0.16
   2  -2 -11    7.77    0.29
   2  -2 -11    8.05    0.39
  -2   2  11    8.17    0.26
  -2   2  11    8.48    0.38
  -2   2  11    7.65    0.37
  -2   2  11    7.87    0.26
   1  -2 -11   15.57    0.38
   1  -2 -11   15.76    0.51
  -1   2  11   15.24    0.36
  -1   2  11   16.05    0.42
  -1   2  11   16.28    0.51
  -1   2  11   15.52    0.51
   0  -2 -11    0.93    0.16
   0  -2 -11    0.85    0.11
   0  -2 -11    0.96    0.11
   0   2  11    0.92    0.14
   0   2  11    0.83    0.11
  -1  -2 -11    5.92    0.30
  -1  -2 -11    6.01    0.16
   1   2  11    6.18    0.29
   1   2  11    6.09    0.27
   1   2  11    6.39    0.29
  -2  -2 -11    7.23    0.27
  -2  -2 -11    7.26    0.32
   2   2  11    7.04    0.29
   2   2  11    6.99    0.31
   2   2  11    7.27    0.30
  -3  -2 -11    0.79    0.11
  -3  -2 -11    0.77    0.14
  -3  -2 -11    0.91    0.14
   3   2  11    0.82    0.13
   3   2  11    0.82    0.13
   3   2  11    0.66    0.11
  -4  -2 -11    3.65    0.27
  -4  -2 -11    4.17    0.23
  -4  -2 -11    4.19    0.23
   4   2  11    3.91    0.29
   4   2  11    3.76    0.23
   4   2  11    4.00    0.24
  -5  -2 -11    0.67    0.12
  -5  -2 -11    0.59    0.13
  -5  -2 -11    0.76    0.16
   5   2  11    0.72    0.11
   5   2  11    0.67    0.17
   5   2  11    0.67    0.11
  -6  -2 -11    1.43    0.20
  -6  -2 -11    1.21    0.18
   6   2  11    1.16    0.23
   4  -3 -11    2.88    0.37
   4  -3 -11    3.03    0.32
   4  -3 -11    3.06    0.39
  -4   3  11    3.79    0.38
  -4   3  11    3.31    0.25
  -4   3  11    3.68    0.38
   3  -3 -11   14.04    0.43
   3  -3 -11   14.42    0.52
   3  -3 -11   14.28    0.51
  -3   3  11   13.85    0.51
  -3   3  11   14.92    0.35
  -3   3  11   14.49    0.53
  -3   3  11   14.32    0.41
   2  -3 -11    4.16    0.31
   2  -3 -11    4.32    0.30
  -2   3  11    4.06    0.21
  -2   3  11    4.37    0.30
  -2   3  11    4.62    0.31
  -2   3  11    4.21    0.19
   1  -3 -11    4.95    0.20
   1  -3 -11    4.68    0.30
   1  -3 -11    4.23    0.27
  -1   3  11    4.80    0.29
  -1   3  11    4.78    0.20
  -1   3  11    4.83    0.22
  -1   3  11    4.58    0.29
   0  -3 -11    0.42    0.08
   0  -3 -11    0.34    0.10
   0  -3 -11    0.43    0.07
   0  -3 -11    0.37    0.14
   0   3  11    0.44    0.08
   0   3  11    0.34    0.12
   0   3  11    0.37    0.09
  -1  -3 -11    5.12    0.23
  -1  -3 -11    4.80    0.28
  -1  -3 -11    4.79    0.13
   1   3  11    4.72    0.26
   1   3  11    4.93    0.26
  -2  -3 -11    2.46    0.22
  -2  -3 -11    2.28    0.20
   2   3  11    2.66    0.22
   2   3  11    2.75    0.21
   2   3  11    2.33    0.20
  -3  -3 -11    8.22    0.28
  -3  -3 -11    8.50    0.33
  -3  -3 -11    8.57    0.33
   3   3  11    8.04    0.31
   3   3  11    8.49    0.31
   3   3  11    8.18    0.34
  -4  -3 -11    4.78    0.25
  -4  -3 -11    4.17    0.28
  -4  -3 -11    4.62    0.23
   4   3  11    4.84    0.24
   4   3  11    4.15    0.24
   4   3  11    5.38    0.30
  -5  -3 -11    0.97    0.15
  -5  -3 -11    0.69    0.16
  -5  -3 -11    0.89    0.12
   5   3  11    0.87    0.18
   5   3  11    1.05    0.12
   5   3  11    0.90    0.12
  -6  -3 -11    1.83    0.21
  -6  -3 -11    1.69    0.22
   6   3  11    1.64    0.24
   4  -4 -11    2.01    0.25
   4  -4 -11    2.50    0.27
   4  -4 -11    2.06    0.23
  -4   4  11    1.65    0.23
  -4   4  11    2.25    0.25
  -4   4  11    2.11    0.23
   3  -4 -11    3.04    0.30
   3  -4 -11    2.32    0.25
   3  -4 -11    1.95    0.23
  -3   4  11    2.09    0.24
  -3   4  11    2.68    0.21
  -3   4  11    2.21    0.14
  -3   4  11    2.12    0.29
   2  -4 -11    3.74    0.31
   2  -4 -11    3.70    0.27
  -2   4  11    3.95    0.19
  -2   4  11    3.70    0.29
  -2   4  11    3.61    0.20
  -2   4  11    4.17    0.30
   1  -4 -11   17.61    0.54
   1  -4 -11   16.21    0.38
   1  -4 -11   16.93    0.40
   1  -4 -11   16.54    0.50
  -1   4  11   16.95    0.52
  -1   4  11   17.00    0.41
  -1   4  11   17.51    0.44
  -1   4  11   16.96    0.52
   0  -4 -11    5.93    0.27
   0  -4 -11    5.63    0.21
   0  -4 -11    6.17    0.19
   0  -4 -11    6.01    0.31
   0   4  11    6.17    0.26
   0   4  11    5.92    0.20
   0   4  11    6.58    0.31
   0   4  11    6.25    0.32
  -1  -4 -11    1.63    0.17
  -1  -4 -11    1.60    0.18
  -1  -4 -11    1.52    0.08
   1   4  11    1.70    0.21
   1   4  11    1.75    0.21
   1   4  11    1.71    0.11
   1   4  11    1.45    0.20
  -2  -4 -11   22.26    0.58
  -2  -4 -11   21.14    0.55
   2   4  11   21.81    0.58
   2   4  11   21.76    0.58
   2   4  11   20.83    0.56
  -3  -4 -11   11.36    0.39
  -3  -4 -11   11.11    0.38
   3   4  11   11.02    0.36
   3   4  11   10.68    0.37
   3   4  11   11.29    0.40
  -4  -4 -11    1.78    0.24
  -4  -4 -11    1.47    0.15
  -4  -4 -11    1.79    0.17
   4   4  11    1.65    0.19
   4   4  11    2.01    0.25
   4   4  11    1.87    0.19
  -5  -4 -11    2.19    0.20
  -5  -4 -11    2.40    0.27
  -5  -4 -11    2.30    0.20
   5   4  11    2.14    0.18
   5   4  11    2.16    0.20
   5   4  11    2.53    0.30
  -6  -4 -11    3.49    0.33
  -6  -4 -11    3.51    0.24
   6   4  11    3.72    0.40
   6   4  11    3.21    0.18
   6   4  11    3.08    0.18
   4  -5 -11    1.21    0.24
   4  -5 -11    0.63    0.19
   4  -5 -11    0.37    0.21
  -4   5  11    0.86    0.16
  -4   5  11    0.58    0.18
  -4   5  11    0.89    0.22
   3  -5 -11    0.64    0.17
   3  -5 -11    0.75    0.18
   3  -5 -11    0.57    0.15
  -3   5  11    0.72    0.19
  -3   5  11    0.74    0.14
  -3   5  11    0.72    0.08
  -3   5  11    0.84    0.16
   2  -5 -11   10.15    0.40
   2  -5 -11   10.21    0.44
  -2   5  11   10.64    0.43
  -2   5  11   10.36    0.30
  -2   5  11    9.97    0.40
  -2   5  11   10.02    0.32
   1  -5 -11    7.48    0.35
   1  -5 -11    7.59    0.25
   1  -5 -11    7.35    0.33
   1  -5 -11    7.68    0.24
  -1   5  11    7.65    0.34
  -1   5  11    7.74    0.25
  -1   5  11    7.91    0.35
  -1   5  11    7.99    0.28
   0  -5 -11    8.12    0.35
   0  -5 -11    8.04    0.23
   0  -5 -11    7.49    0.31
   0  -5 -11    8.27    0.26
   0   5  11    8.13    0.30
   0   5  11    7.77    0.34
   0   5  11    7.73    0.23
  -1  -5 -11    7.18    0.17
  -1  -5 -11    7.21    0.33
  -1  -5 -11    7.06    0.27
   1   5  11    6.77    0.31
   1   5  11    6.83    0.29
   1   5  11    7.02    0.30
  -2  -5 -11   10.83    0.36
  -2  -5 -11   10.94    0.39
   2   5  11   10.65    0.37
   2   5  11   10.59    0.36
   2   5  11   10.52    0.38
  -3  -5 -11   12.51    0.41
  -3  -5 -11   11.83    0.34
  -3  -5 -11   11.95    0.40
   3   5  11   12.28    0.38
   3   5  11   11.80    0.42
   3   5  11   12.07    0.40
  -4  -5 -11    1.21    0.15
  -4  -5 -11    1.28    0.18
   4   5  11    0.96    0.14
   4   5  11    1.07    0.17
   4   5  11    1.11    0.13
  -5  -5 -11    8.72    0.42
  -5  -5 -11    8.12    0.31
  -5  -5 -11    8.59    0.31
   5   5  11    8.10    0.42
   5   5  11    8.46    0.31
   5   5  11    8.19    0.28
  -6  -5 -11    2.78    0.18
  -6  -5 -11    3.30    0.24
  -6  -5 -11    2.83    0.32
   6   5  11    2.95    0.20
   6   5  11    3.17    0.19
   6   5  11    3.56    0.39
   4  -6 -11    5.69    0.38
   4  -6 -11    4.10    0.42
   4  -6 -11    4.37    0.39
  -4   6  11    4.98    0.43
  -4   6  11    4.78    0.28
  -4   6  11    5.05    0.36
   3  -6 -11    9.33    0.37
   3  -6 -11    8.44    0.41
   3  -6 -11    9.15    0.43
  -3   6  11    9.49    0.45
  -3   6  11    8.90    0.33
  -3   6  11    8.99    0.24
  -3   6  11    8.70    0.39
   2  -6 -11    7.88    0.36
   2  -6 -11    7.81    0.38
  -2   6  11    8.27    0.27
  -2   6  11    7.87    0.29
  -2   6  11    7.97    0.40
  -2   6  11    7.83    0.35
   1  -6 -11   -0.06    0.12
   1  -6 -11    0.07    0.09
   1  -6 -11   -0.15    0.11
  -1   6  11   -0.05    0.11
  -1   6  11    0.10    0.09
  -1   6  11    0.09    0.11
  -1   6  11    0.14    0.09
   0  -6 -11    5.33    0.27
   0  -6 -11    5.72    0.31
   0  -6 -11    5.40    0.20
   0   6  11    5.08    0.28
   0   6  11    5.66    0.30
   0   6  11    5.39    0.20
   0   6  11    5.49    0.25
  -1  -6 -11    0.94    0.09
  -1  -6 -11    0.88    0.12
  -1  -6 -11    0.73    0.15
   1   6  11    0.78    0.12
   1   6  11    0.84    0.12
  -2  -6 -11   10.28    0.36
  -2  -6 -11   10.64    0.38
   2   6  11   10.49    0.35
   2   6  11   10.27    0.38
   2   6  11   10.55    0.37
  -3  -6 -11    3.22    0.25
  -3  -6 -11    2.93    0.24
  -3  -6 -11    3.04    0.17
   3   6  11    3.09    0.26
   3   6  11    2.96    0.24
   3   6  11    3.21    0.21
  -4  -6 -11    5.75    0.24
  -4  -6 -11    6.21    0.34
  -4  -6 -11    5.74    0.29
   4   6  11    5.72    0.28
   4   6  11    5.44    0.25
   4   6  11    5.73    0.33
  -5  -6 -11    5.23    0.28
  -5  -6 -11    5.05    0.35
  -5  -6 -11    4.86    0.23
  -5  -6 -11    5.43    0.24
   5   6  11    5.02    0.24
   5   6  11    5.39    0.37
   5   6  11    5.01    0.28
  -6  -6 -11    4.74    0.25
  -6  -6 -11    5.71    0.27
  -6  -6 -11    4.88    0.22
  -6  -6 -11    5.57    0.42
   6   6  11    5.48    0.24
   6   6  11    5.46    0.46
   6   6  11    5.37    0.27
   4  -7 -11    1.12    0.21
   4  -7 -11    1.12    0.23
   4  -7 -11    0.72    0.21
  -4   7  11    0.84    0.17
  -4   7  11    1.36    0.23
  -4   7  11    0.74    0.24
   3  -7 -11    4.01    0.34
   3  -7 -11    4.43    0.31
   3  -7 -11    4.01    0.34
  -3   7  11    3.90    0.16
  -3   7  11    3.54    0.36
  -3   7  11    3.49    0.24
  -3   7  11    3.92    0.32
   2  -7 -11    9.18    0.33
   2  -7 -11    9.86    0.43
   2  -7 -11    8.99    0.39
  -2   7  11    9.18    0.38
  -2   7  11    9.06    0.29
  -2   7  11    9.32    0.42
  -2   7  11    8.94    0.31
   1  -7 -11    2.36    0.26
   1  -7 -11    2.44    0.24
   1  -7 -11    2.52    0.19
  -1   7  11    2.68    0.26
  -1   7  11    2.29    0.16
  -1   7  11    2.64    0.19
  -1   7  11    2.32    0.24
   0  -7 -11   13.70    0.44
   0  -7 -11   14.01    0.34
   0   7  11   14.35    0.47
   0   7  11   13.93    0.45
   0   7  11   14.10    0.42
   0   7  11   13.93    0.35
  -1  -7 -11   10.06    0.33
  -1  -7 -11    9.45    0.38
  -1  -7 -11    9.56    0.24
   1   7  11    9.27    0.35
   1   7  11    9.47    0.36
  -2  -7 -11   13.03    0.44
  -2  -7 -11   13.57    0.42
   2   7  11   13.23    0.41
   2   7  11   13.41    0.43
   2   7  11   12.57    0.42
  -3  -7 -11   17.05    0.42
  -3  -7 -11   17.67    0.52
  -3  -7 -11   18.09    0.54
   3   7  11   16.84    0.49
   3   7  11   16.52    0.47
   3   7  11   16.29    0.51
  -4  -7 -11    4.89    0.22
  -4  -7 -11    4.14    0.23
  -4  -7 -11    5.45    0.32
  -4  -7 -11    4.84    0.29
   4   7  11    5.10    0.28
   4   7  11    5.00    0.25
   4   7  11    4.54    0.32
  -5  -7 -11    1.14    0.20
  -5  -7 -11    1.02    0.16
  -5  -7 -11    1.13    0.15
   5   7  11    1.20    0.17
   5   7  11    1.39    0.21
   5   7  11    1.04    0.13
  -6  -7 -11    8.61    0.32
  -6  -7 -11    7.97    0.30
  -6  -7 -11    9.07    0.48
   6   7  11    8.78    0.36
   4  -8 -11    2.31    0.27
   4  -8 -11    2.44    0.25
  -4   8  11    2.60    0.27
  -4   8  11    2.80    0.32
   3  -8 -11    4.01    0.37
   3  -8 -11    3.16    0.30
   3  -8 -11    2.85    0.34
  -3   8  11    3.60    0.25
  -3   8  11    3.41    0.17
  -3   8  11    3.10    0.37
  -3   8  11    2.37    0.30
   2  -8 -11    0.33    0.13
   2  -8 -11    0.41    0.16
   2  -8 -11    0.47    0.16
  -2   8  11    0.41    0.15
  -2   8  11    0.61    0.16
  -2   8  11    0.46    0.13
  -2   8  11    0.57    0.11
   1  -8 -11    2.96    0.29
   1  -8 -11    2.41    0.26
   1  -8 -11    2.65    0.21
  -1   8  11    3.12    0.22
  -1   8  11    2.45    0.28
  -1   8  11    2.21    0.25
  -1   8  11    2.85    0.18
   0  -8 -11    0.93    0.18
   0  -8 -11    0.83    0.11
   0  -8 -11    0.58    0.12
   0   8  11    0.67    0.15
   0   8  11    0.83    0.14
   0   8  11    1.01    0.13
  -1  -8 -11    5.05    0.31
  -1  -8 -11    4.02    0.24
  -1  -8 -11    5.10    0.18
   1   8  11    5.02    0.29
   1   8  11    4.81    0.28
  -2  -8 -11    3.15    0.24
  -2  -8 -11    3.05    0.27
   2   8  11    2.68    0.25
   2   8  11    2.77    0.23
   2   8  11    3.06    0.24
  -3  -8 -11    4.18    0.24
  -3  -8 -11    4.78    0.20
  -3  -8 -11    5.69    0.31
  -3  -8 -11    5.14    0.30
   3   8  11    4.72    0.29
   3   8  11    4.71    0.26
   3   8  11    5.16    0.32
  -4  -8 -11    0.07    0.10
  -4  -8 -11    0.40    0.16
  -4  -8 -11    0.24    0.15
  -4  -8 -11    0.30    0.10
   4   8  11    0.07    0.15
   4   8  11    0.29    0.12
   4   8  11    0.00    0.12
  -5  -8 -11    4.73    0.26
  -5  -8 -11    5.17    0.33
  -5  -8 -11    5.35    0.23
  -5  -8 -11    5.37    0.37
   5   8  11    4.89    0.32
   5   8  11    4.75    0.39
   5   8  11    4.82    0.27
   4  -9 -11    2.99    0.40
  -4   9  11    3.93    0.49
   3  -9 -11    4.52    0.35
   3  -9 -11    4.65    0.35
   3  -9 -11    4.31    0.40
  -3   9  11    6.00    0.43
  -3   9  11    4.70    0.21
  -3   9  11    4.65    0.34
  -3   9  11    5.10    0.28
   2  -9 -11    2.07    0.22
   2  -9 -11    2.50    0.25
   2  -9 -11    1.54    0.21
  -2   9  11    2.20    0.24
  -2   9  11    2.35    0.20
  -2   9  11    2.28    0.21
  -2   9  11    2.02    0.28
   1  -9 -11    0.60    0.13
   1  -9 -11    0.48    0.14
   1  -9 -11    0.54    0.14
  -1   9  11    0.68    0.17
  -1   9  11    0.41    0.11
  -1   9  11    0.76    0.15
  -1   9  11    0.51    0.13
   0  -9 -11    2.31    0.22
   0  -9 -11    2.44    0.28
   0  -9 -11    2.32    0.19
   0   9  11    2.48    0.27
   0   9  11    2.35    0.25
  -1  -9 -11   32.18    0.63
  -1  -9 -11   30.09    0.75
   1   9  11   31.12    0.76
   1   9  11   31.56    0.79
  -2  -9 -11    3.62    0.16
  -2  -9 -11    4.24    0.31
  -2  -9 -11    3.60    0.15
   2   9  11    3.80    0.27
   2   9  11    3.97    0.26
  -3  -9 -11    5.80    0.20
  -3  -9 -11    6.31    0.29
  -3  -9 -11    6.28    0.35
  -3  -9 -11    6.21    0.34
   3   9  11    6.50    0.31
   3   9  11    6.21    0.33
  -4  -9 -11    0.89    0.14
  -4  -9 -11    0.95    0.19
  -4  -9 -11    1.17    0.12
  -4  -9 -11    0.96    0.19
   4   9  11    1.11    0.17
   4   9  11    0.90    0.15
  -5  -9 -11    1.10    0.21
  -5  -9 -11    1.30    0.17
  -5  -9 -11    1.12    0.21
  -5  -9 -11    1.31    0.16
   5   9  11    0.94    0.16
   5   9  11    1.16    0.19
   5   9  11    1.22    0.24
   3 -10 -11    1.00    0.22
   3 -10 -11    1.18    0.21
   3 -10 -11    0.99    0.24
  -3  10  11    1.27    0.19
  -3  10  11    1.38    0.19
  -3  10  11    0.92    0.24
  -3  10  11    0.96    0.19
   2 -10 -11    5.62    0.33
   2 -10 -11    6.36    0.42
   2 -10 -11    6.30    0.36
  -2  10  11    5.23    0.34
  -2  10  11    6.34    0.29
  -2  10  11    6.18    0.43
  -2  10  11    6.03    0.28
   1 -10 -11    6.25    0.34
   1 -10 -11    6.49    0.30
   1 -10 -11    6.31    0.40
  -1  10  11    5.59    0.33
  -1  10  11    6.03    0.30
  -1  10  11    6.38    0.38
  -1  10  11    5.70    0.25
   0 -10 -11    3.60    0.33
   0 -10 -11    3.43    0.27
   0  10  11    3.17    0.27
   0  10  11    3.37    0.31
  -1 -10 -11    0.31    0.16
  -1 -10 -11    0.66    0.14
   1  10  11    0.77    0.15
  -2 -10 -11    0.76    0.09
  -2 -10 -11    0.91    0.10
  -2 -10 -11    0.51    0.15
   2  10  11    0.85    0.14
   2  10  11    0.61    0.15
  -3 -10 -11    2.84    0.25
  -3 -10 -11    3.29    0.33
  -3 -10 -11    3.07    0.30
   3  10  11    3.09    0.28
  -4 -10 -11    0.85    0.18
  -4 -10 -11    0.71    0.15
  -4 -10 -11    0.47    0.20
   4  10  11    0.58    0.16
  -5 -10 -11    3.88    0.40
  -5 -10 -11    4.49    0.31
  -5 -10 -11    4.57    0.42
   5  10  11    4.49    0.37
   3 -11 -11    0.97    0.27
   3 -11 -11    1.40    0.25
   3 -11 -11    0.95    0.24
  -3  11  11    1.17    0.11
  -3  11  11    0.89    0.29
  -3  11  11    1.96    0.23
  -3  11  11    1.16    0.19
   2 -11 -11    0.27    0.18
   2 -11 -11    0.59    0.23
   2 -11 -11    0.32    0.19
  -2  11  11    0.17    0.15
  -2  11  11    0.41    0.22
  -2  11  11    0.45    0.17
   1 -11 -11    0.25    0.19
   1 -11 -11    0.30    0.17
  -1  11  11    0.23    0.19
  -1  11  11    0.09    0.10
  -1  11  11    0.50    0.17
   0 -11 -11    8.74    0.39
   0 -11 -11    8.82    0.45
   0  11  11    8.27    0.38
  -1 -11 -11    2.60    0.33
  -1 -11 -11    2.89    0.27
  -1 -11 -11    2.68    0.16
   1  11  11    3.44    0.30
   1  11  11    3.15    0.30
  -2 -11 -11    0.23    0.13
  -2 -11 -11    1.04    0.13
  -2 -11 -11    0.58    0.20
   2  11  11    0.60    0.16
   2  11  11    0.55    0.15
  -3 -11 -11    1.08    0.18
  -3 -11 -11    0.87    0.22
  -3 -11 -11    0.75    0.09
  -3 -11 -11    0.78    0.15
   3  11  11    0.72    0.17
   3  11  11    0.97    0.18
  -4 -11 -11    2.76    0.29
  -4 -11 -11    2.31    0.27
  -4 -11 -11    2.57    0.35
   4  11  11    2.40    0.32
   4  11  11    2.57    0.34
   2 -12 -11    2.27    0.31
   2 -12 -11    2.24    0.28
  -2  12  11    2.50    0.23
  -2  12  11    2.44    0.31
   1 -12 -11    6.12    0.46
   1 -12 -11    6.50    0.42
  -1  12  11    5.80    0.40
  -1  12  11    5.70    0.30
   0 -12 -11    9.08    0.43
   0 -12 -11   10.10    0.51
   0  12  11    9.48    0.45
   0  12  11   10.23    0.48
  -1 -12 -11    4.12    0.33
  -1 -12 -11    3.91    0.41
   1  12  11    4.45    0.36
   1  12  11    4.88    0.35
  -2 -12 -11    8.54    0.48
  -2 -12 -11    7.62    0.38
  -2 -12 -11    8.19    0.25
   2  12  11    8.03    0.42
   2  12  11    7.89    0.41
  -3 -12 -11    1.45    0.26
  -3 -12 -11    1.56    0.18
   3  12  11    2.36    0.32
   3  12  11    1.59    0.21
   1 -13 -11    3.51    0.41
   1 -13 -11    4.06    0.48
  -1  13  11    3.81    0.46
  -1  13  11    3.84    0.26
   0 -13 -11    0.28    0.23
   0 -13 -11    0.33    0.20
   0  13  11    0.48    0.20
   0  13  11    0.28    0.20
  -1 -13 -11    5.22    0.48
   1  13  11    3.75    0.39
   1  13  11    5.00    0.41
  -2 -13 -11    7.88    0.53
  -2 -13 -11    8.35    0.29
   2  13  11    8.68    0.46
  -1   4 -12    0.51    0.24
   1  -4  12    0.16    0.27
   1  -4  12    0.67    0.20
  -2   4 -12    2.80    0.25
   2  -4  12    2.89    0.34
   1   3 -12    0.33    0.24
   1   3 -12    0.77    0.24
   1   3 -12    0.26    0.15
  -1  -3  12    0.14    0.21
  -1  -3  12    0.62    0.15
  -1  -3  12    0.34    0.26
  -1  -3  12    0.44    0.23
   0   3 -12    7.03    0.45
   0   3 -12    6.25    0.49
   0   3 -12    7.17    0.48
   0  -3  12    7.12    0.50
   0  -3  12    6.81    0.38
   0  -3  12    7.29    0.43
   0  -3  12    6.83    0.34
  -1   3 -12    0.06    0.20
  -1   3 -12   -0.50    0.19
  -1   3 -12    0.07    0.20
   1  -3  12    0.28    0.21
   1  -3  12   -0.02    0.16
   1  -3  12    0.17    0.14
   1  -3  12   -0.10    0.14
  -2   3 -12    2.26    0.26
  -2   3 -12    2.05    0.26
  -2   3 -12    1.77    0.26
   2  -3  12    2.54    0.26
   2  -3  12    2.32    0.31
   2  -3  12    2.58    0.28
   2  -3  12    2.46    0.28
  -3   3 -12    5.75    0.41
  -3   3 -12    5.38    0.30
   3  -3  12    5.37    0.29
   3  -3  12    5.59    0.36
   3  -3  12    5.12    0.45
   2   2 -12    1.37    0.31
   2   2 -12    2.19    0.30
   2   2 -12    1.47    0.26
   2   2 -12    1.53    0.18
  -2  -2  12    1.92    0.27
  -2  -2  12    1.57    0.17
  -2  -2  12    1.67    0.27
   1   2 -12    0.54    0.22
   1   2 -12    0.80    0.22
   1   2 -12    0.35    0.13
   1   2 -12    0.58    0.23
  -1  -2  12    0.46    0.19
  -1  -2  12    0.05    0.18
  -1  -2  12    0.39    0.13
  -1  -2  12    0.37    0.25
   0   2 -12    0.22    0.20
   0   2 -12    0.55    0.11
   0   2 -12    0.77    0.21
   0   2 -12    0.65    0.21
   0  -2  12    0.57    0.18
   0  -2  12    0.20    0.20
   0  -2  12    0.63    0.14
   0  -2  12    0.49    0.16
  -1   2 -12    0.03    0.18
  -1   2 -12    0.25    0.19
  -1   2 -12    0.37    0.19
   1  -2  12    0.29    0.14
   1  -2  12    0.10    0.19
   1  -2  12    0.37    0.16
   1  -2  12    0.29    0.14
  -2   2 -12    2.11    0.24
  -2   2 -12    2.16    0.24
  -2   2 -12    1.96    0.23
   2  -2  12    2.02    0.22
   2  -2  12    1.99    0.24
   2  -2  12    2.70    0.26
   2  -2  12    2.62    0.29
  -3   2 -12   13.99    0.52
  -3   2 -12   14.22    0.57
  -3   2 -12   13.54    0.49
  -3   2 -12   13.74    0.45
   3  -2  12   13.71    0.48
   3  -2  12   13.80    0.38
   3  -2  12   14.50    0.49
   3  -2  12   14.22    0.55
  -4   2 -12    0.90    0.17
  -4   2 -12    0.53    0.20
  -4   2 -12    0.84    0.19
   4  -2  12    0.93    0.17
   4  -2  12    0.93    0.23
   4  -2  12    0.77    0.12
   2   1 -12    2.79    0.26
   2   1 -12    3.55    0.42
   2   1 -12    3.34    0.40
   2   1 -12    3.96    0.46
  -2  -1  12    3.49    0.40
  -2  -1  12    3.09    0.37
  -2  -1  12    3.90    0.25
  -2  -1  12    3.87    0.45
   1   1 -12    1.87    0.19
   1   1 -12    1.59    0.24
   1   1 -12    1.89    0.25
   1   1 -12    1.87    0.24
  -1  -1  12    1.83    0.22
  -1  -1  12    2.24    0.26
  -1  -1  12    1.41    0.21
  -1  -1  12    1.65    0.20
   0   1 -12    4.71    0.37
   0   1 -12    4.22    0.37
   0   1 -12    4.66    0.36
   0  -1  12    5.16    0.39
   0  -1  12    4.30    0.28
   0  -1  12    4.66    0.34
   0  -1  12    4.80    0.27
  -1   1 -12   15.75    0.54
  -1   1 -12   13.41    0.52
  -1   1 -12   15.63    0.53
   1  -1  12   15.86    0.48
   1  -1  12   15.87    0.53
   1  -1  12   16.67    0.57
   1  -1  12   15.62    0.42
  -2   1 -12    0.89    0.19
  -2   1 -12    0.91    0.17
  -2   1 -12    0.98    0.18
   2  -1  12    0.96    0.19
   2  -1  12    0.67    0.12
   2  -1  12    0.51    0.14
   2  -1  12    0.92    0.16
  -3   1 -12    0.03    0.10
  -3   1 -12    0.12    0.16
  -3   1 -12   -0.09    0.15
  -3   1 -12    0.14    0.18
   3  -1  12    0.14    0.14
   3  -1  12    0.13    0.13
   3  -1  12    0.07    0.18
   3  -1  12    0.03    0.09
  -4   1 -12    0.50    0.17
  -4   1 -12    0.49    0.13
   4  -1  12    0.66    0.18
   4  -1  12    0.49    0.16
   4  -1  12    0.35    0.18
   3   0 -12    1.43    0.22
   3   0 -12    1.30    0.20
   3   0 -12    1.05    0.29
   3   0 -12    0.57    0.27
  -3   0  12    1.27    0.16
  -3   0  12    1.19    0.25
  -3   0  12    0.91    0.14
  -3   0  12    1.34    0.25
   2   0 -12    1.82    0.26
   2   0 -12    1.83    0.25
   2   0 -12    2.14    0.24
   2   0 -12    2.57    0.33
  -2   0  12    1.79    0.17
  -2   0  12    2.19    0.25
  -2   0  12    2.06    0.27
  -2   0  12    2.75    0.32
  -2   0  12    1.91    0.20
   1   0 -12    3.79    0.35
   1   0 -12    3.29    0.20
   1   0 -12    2.84    0.36
   1   0 -12    3.93    0.32
  -1   0  12    3.46    0.38
  -1   0  12    3.60    0.23
  -1   0  12    3.85    0.34
  -1   0  12    3.58    0.29
   0   0 -12    0.26    0.16
   0   0 -12    0.10    0.16
   0   0 -12    0.70    0.17
   0   0 -12    0.21    0.09
   0   0  12    0.23    0.12
   0   0  12    0.27    0.17
   0   0  12    0.42    0.15
   0   0  12    0.39    0.11
  -1   0 -12    0.62    0.17
  -1   0 -12    0.05    0.14
   1   0  12    0.32    0.13
   1   0  12    0.28    0.16
   1   0  12    0.53    0.13
   1   0  12    0.52    0.12
  -2   0 -12    0.58    0.15
  -2   0 -12    0.39    0.16
  -2   0 -12    0.65    0.15
   2   0  12    0.72    0.10
   2   0  12    0.42    0.17
   2   0  12    0.60    0.13
   2   0  12    0.68    0.14
  -3   0 -12    4.53    0.25
  -3   0 -12    4.63    0.31
   3   0  12    4.49    0.33
   3   0  12    4.88    0.30
   3   0  12    4.54    0.30
  -4   0 -12    2.04    0.26
  -4   0 -12    2.13    0.26
  -4   0 -12    2.05    0.21
   4   0  12    2.14    0.29
   4   0  12    2.49    0.29
   4   0  12    2.23    0.24
  -5   0 -12    0.61    0.15
  -5   0 -12    0.84    0.17
  -5   0 -12    0.88    0.16
   5   0  12    0.89    0.15
   5   0  12    0.83    0.22
   3  -1 -12    4.53    0.43
   3  -1 -12    3.88    0.31
  -3   1  12    4.25    0.25
  -3   1  12    4.20    0.43
  -3   1  12    4.24    0.45
  -3   1  12    4.19    0.23
   2  -1 -12    4.53    0.38
   2  -1 -12    4.05    0.31
   2  -1 -12    3.88    0.39
   2  -1 -12    3.89    0.25
  -2   1  12    3.79    0.22
  -2   1  12    3.83    0.36
  -2   1  12    3.96    0.21
  -2   1  12    3.68    0.38
   1  -1 -12    2.92    0.28
   1  -1 -12    2.24    0.23
   1  -1 -12    2.45    0.33
  -1   1  12    3.07    0.33
  -1   1  12    3.34    0.31
  -1   1  12    2.54    0.25
  -1   1  12    2.79    0.21
   0  -1 -12    0.03    0.07
   0  -1 -12    0.17    0.14
   0  -1 -12    0.07    0.13
   0  -1 -12    0.26    0.16
   0   1  12    0.10    0.14
   0   1  12    0.19    0.11
   0   1  12    0.18    0.12
   0   1  12    0.10    0.10
  -1  -1 -12    0.11    0.06
  -1  -1 -12    0.06    0.14
  -1  -1 -12   -0.04    0.13
   1   1  12    0.02    0.11
   1   1  12    0.09    0.12
   1   1  12    0.22    0.15
   1   1  12    0.12    0.09
  -2  -1 -12    6.58    0.33
   2   1  12    5.92    0.34
   2   1  12    6.59    0.31
   2   1  12    6.09    0.32
  -3  -1 -12    4.88    0.30
  -3  -1 -12    4.90    0.29
  -3  -1 -12    5.22    0.25
   3   1  12    5.18    0.32
   3   1  12    5.65    0.31
   3   1  12    5.67    0.30
  -4  -1 -12    0.49    0.12
  -4  -1 -12    0.72    0.15
  -4  -1 -12    0.77    0.14
   4   1  12    0.51    0.13
   4   1  12    0.53    0.15
   4   1  12    0.65    0.15
  -5  -1 -12    3.89    0.26
  -5  -1 -12    3.17    0.26
  -5  -1 -12    3.21    0.25
   5   1  12    3.44    0.25
   5   1  12    4.44    0.37
   5   1  12    3.25    0.27
   3  -2 -12    1.15    0.19
   3  -2 -12    0.92    0.23
   3  -2 -12    0.98    0.24
  -3   2  12    1.13    0.15
  -3   2  12    1.27    0.17
  -3   2  12    1.40    0.22
  -3   2  12    1.42    0.24
   2  -2 -12    0.23    0.11
   2  -2 -12    0.28    0.18
  -2   2  12    0.10    0.15
  -2   2  12    0.18    0.11
  -2   2  12   -0.22    0.17
   1  -2 -12    0.43    0.10
   1  -2 -12    0.00    0.17
  -1   2  12    0.21    0.15
  -1   2  12    0.33    0.10
  -1   2  12    0.38    0.10
  -1   2  12    0.49    0.17
   0  -2 -12    0.59    0.09
   0  -2 -12    0.76    0.17
   0   2  12    0.79    0.13
   0   2  12    0.73    0.16
   0   2  12    0.65    0.15
  -1  -2 -12    2.57    0.18
  -1  -2 -12    2.46    0.12
  -1  -2 -12    2.54    0.27
   1   2  12    2.24    0.29
   1   2  12    2.88    0.23
   1   2  12    2.23    0.24
  -2  -2 -12    1.42    0.19
  -2  -2 -12    1.52    0.19
   2   2  12    1.33    0.17
   2   2  12    1.25    0.16
   2   2  12    1.20    0.16
  -3  -2 -12    4.59    0.23
  -3  -2 -12    4.77    0.29
  -3  -2 -12    4.32    0.26
  -3  -2 -12    4.71    0.27
   3   2  12    4.69    0.29
   3   2  12    4.77    0.30
   3   2  12    4.68    0.27
  -4  -2 -12    0.31    0.14
  -4  -2 -12    0.20    0.12
  -4  -2 -12    0.31    0.11
  -4  -2 -12    0.23    0.13
   4   2  12    0.32    0.12
   4   2  12    0.27    0.14
   4   2  12    0.28    0.15
  -5  -2 -12    0.95    0.14
  -5  -2 -12    1.14    0.19
  -5  -2 -12    1.01    0.16
  -5  -2 -12    1.13    0.15
   5   2  12    1.18    0.21
   5   2  12    1.04    0.15
   5   2  12    1.00    0.15
   3  -3 -12    4.31    0.41
   3  -3 -12    4.23    0.38
   3  -3 -12    4.78    0.31
  -3   3  12    3.97    0.39
  -3   3  12    4.51    0.26
  -3   3  12    4.57    0.20
  -3   3  12    4.34    0.40
   2  -3 -12    7.55    0.40
   2  -3 -12    7.63    0.30
   2  -3 -12    8.16    0.43
  -2   3  12    7.31    0.28
  -2   3  12    7.69    0.42
  -2   3  12    7.43    0.40
  -2   3  12    7.55    0.27
   1  -3 -12    6.42    0.24
   1  -3 -12    6.72    0.37
   1  -3 -12    5.88    0.34
  -1   3  12    6.59    0.36
  -1   3  12    5.98    0.23
  -1   3  12    6.37    0.37
   0  -3 -12    5.10    0.20
   0  -3 -12    5.25    0.30
   0  -3 -12    5.24    0.19
   0  -3 -12    5.62    0.34
   0   3  12    5.28    0.31
   0   3  12    4.72    0.31
   0   3  12    5.01    0.26
  -1  -3 -12    0.71    0.11
  -1  -3 -12    0.72    0.16
  -1  -3 -12    0.71    0.09
   1   3  12    0.54    0.14
   1   3  12    0.64    0.13
   1   3  12    0.54    0.13
  -2  -3 -12    2.83    0.23
  -2  -3 -12    3.43    0.28
   2   3  12    3.39    0.25
   2   3  12    3.07    0.26
   2   3  12    3.49    0.27
  -3  -3 -12    0.91    0.14
  -3  -3 -12    1.04    0.16
  -3  -3 -12    1.30    0.16
  -3  -3 -12    0.85    0.15
   3   3  12    1.06    0.15
   3   3  12    1.26    0.16
   3   3  12    1.10    0.16
  -4  -3 -12    3.16    0.26
  -4  -3 -12    3.09    0.21
  -4  -3 -12    2.33    0.24
  -4  -3 -12    3.05    0.27
   4   3  12    3.08    0.25
   4   3  12    2.93    0.29
   4   3  12    2.79    0.23
  -5  -3 -12    0.48    0.13
  -5  -3 -12    0.72    0.15
  -5  -3 -12    0.34    0.17
  -5  -3 -12    0.59    0.13
   5   3  12    0.46    0.14
   5   3  12    0.61    0.20
   5   3  12    0.78    0.14
   4  -4 -12    0.29    0.21
   4  -4 -12    0.51    0.25
   4  -4 -12    0.67    0.27
  -4   4  12    0.85    0.17
  -4   4  12    0.61    0.26
   3  -4 -12    3.75    0.38
   3  -4 -12    3.05    0.28
   3  -4 -12    3.10    0.37
  -3   4  12    3.95    0.38
  -3   4  12    3.26    0.18
  -3   4  12    3.33    0.24
  -3   4  12    3.83    0.38
   2  -4 -12    0.22    0.17
   2  -4 -12    0.05    0.11
   2  -4 -12    0.44    0.17
  -2   4  12    0.08    0.13
  -2   4  12    0.33    0.16
  -2   4  12    0.31    0.12
  -2   4  12    0.31    0.10
   1  -4 -12    3.82    0.33
   1  -4 -12    3.86    0.20
   1  -4 -12    3.95    0.28
  -1   4  12    3.67    0.20
  -1   4  12    3.64    0.30
  -1   4  12    3.85    0.22
  -1   4  12    4.16    0.32
   0  -4 -12    0.77    0.17
   0  -4 -12    0.79    0.15
   0  -4 -12    0.80    0.09
   0   4  12    0.81    0.14
   0   4  12    0.77    0.15
   0   4  12    1.00    0.11
   0   4  12    0.96    0.16
  -1  -4 -12    2.13    0.26
  -1  -4 -12    1.72    0.09
  -1  -4 -12    2.15    0.19
   1   4  12    2.44    0.26
   1   4  12    1.89    0.22
   1   4  12    2.16    0.24
   1   4  12    1.97    0.14
   2   4  12    8.69    0.36
   2   4  12    9.56    0.37
   2   4  12    8.99    0.36
  -3  -4 -12    5.80    0.25
  -3  -4 -12    5.82    0.31
  -3  -4 -12    5.91    0.31
   3   4  12    6.09    0.32
   3   4  12    5.90    0.30
   3   4  12    5.71    0.29
  -4  -4 -12    2.29    0.20
  -4  -4 -12    2.27    0.25
  -4  -4 -12    1.75    0.21
  -4  -4 -12    1.96    0.26
   4   4  12    2.32    0.24
   4   4  12    2.52    0.23
   4   4  12    2.32    0.28
  -5  -4 -12    1.44    0.16
  -5  -4 -12    1.36    0.14
  -5  -4 -12    1.30    0.20
  -5  -4 -12    1.52    0.17
   5   4  12    1.44    0.16
   5   4  12    1.59    0.21
   5   4  12    1.52    0.21
   4  -5 -12    2.57    0.29
   4  -5 -12    2.14    0.29
  -4   5  12    2.57    0.32
  -4   5  12    2.21    0.25
   3  -5 -12    0.38    0.21
   3  -5 -12    0.46    0.17
   3  -5 -12    0.18    0.19
  -3   5  12    0.29    0.18
  -3   5  12    0.25    0.15
  -3   5  12    0.19    0.08
  -3   5  12    0.35    0.18
   2  -5 -12    3.71    0.25
   2  -5 -12    3.54    0.35
   2  -5 -12    3.66    0.33
  -2   5  12    3.76    0.21
  -2   5  12    3.89    0.23
  -2   5  12    3.80    0.34
  -2   5  12    3.61    0.32
   1  -5 -12    6.89    0.38
   1  -5 -12    6.38    0.35
   1  -5 -12    6.73    0.23
   1  -5 -12    6.37    0.25
  -1   5  12    6.95    0.37
  -1   5  12    6.38    0.35
  -1   5  12    6.68    0.25
  -1   5  12    6.62    0.27
   0  -5 -12    3.42    0.30
   0  -5 -12    3.11    0.25
   0  -5 -12    3.34    0.16
   0  -5 -12    3.24    0.19
   0   5  12    2.94    0.17
   0   5  12    3.60    0.28
   0   5  12    3.18    0.28
  -1  -5 -12    7.50    0.18
  -1  -5 -12    7.43    0.28
  -1  -5 -12    7.72    0.36
   1   5  12    7.42    0.34
   1   5  12    7.13    0.33
   1   5  12    6.90    0.22
   1   5  12    7.74    0.32
   2   5  12   34.13    0.82
   2   5  12   33.76    0.82
   2   5  12   33.11    0.80
  -3  -5 -12    1.34    0.15
  -3  -5 -12    1.96    0.23
  -3  -5 -12    1.61    0.18
  -3  -5 -12    1.83    0.17
   3   5  12    2.30    0.25
   3   5  12    1.77    0.23
   3   5  12    2.14    0.24
  -4  -5 -12    3.76    0.31
  -4  -5 -12    3.47    0.21
  -4  -5 -12    2.81    0.23
  -4  -5 -12    3.37    0.28
   4   5  12    3.31    0.26
   4   5  12    3.65    0.25
   4   5  12    4.04    0.31
  -5  -5 -12    5.02    0.26
  -5  -5 -12    4.58    0.25
  -5  -5 -12    5.41    0.30
  -5  -5 -12    4.77    0.36
   5   5  12    4.92    0.26
   5   5  12    5.54    0.39
   5   5  12    5.05    0.29
  -4   6  12    4.90    0.48
   3  -6 -12   -0.29    0.19
   3  -6 -12   -0.09    0.17
   3  -6 -12    0.25    0.20
  -3   6  12   -0.24    0.12
  -3   6  12   -0.01    0.17
  -3   6  12    0.09    0.08
  -3   6  12   -0.13    0.19
   2  -6 -12    1.08    0.20
   2  -6 -12    1.42    0.16
   2  -6 -12    1.20    0.21
  -2   6  12    1.20    0.18
  -2   6  12    1.50    0.18
  -2   6  12    1.38    0.21
  -2   6  12    1.36    0.16
   1  -6 -12    0.20    0.09
   1  -6 -12    0.09    0.14
   1  -6 -12    0.27    0.10
   1  -6 -12   -0.14    0.15
  -1   6  12    0.08    0.10
  -1   6  12   -0.12    0.12
  -1   6  12    0.24    0.14
  -1   6  12    0.23    0.10
   0  -6 -12    1.67    0.15
   0  -6 -12    1.38    0.17
   0  -6 -12    1.77    0.18
   0   6  12    1.46    0.18
   0   6  12    1.54    0.18
   0   6  12    1.71    0.15
  -1  -6 -12    0.68    0.13
  -1  -6 -12    0.75    0.16
   1   6  12    0.82    0.14
   1   6  12    0.83    0.10
   1   6  12    0.48    0.14
  -2  -6 -12    6.55    0.30
  -2  -6 -12    6.33    0.35
   2   6  12    6.52    0.33
   2   6  12    6.46    0.31
   2   6  12    6.26    0.32
  -3  -6 -12    0.28    0.13
  -3  -6 -12    0.38    0.15
  -3  -6 -12    0.17    0.11
   3   6  12    0.17    0.13
   3   6  12    0.13    0.12
   3   6  12    0.24    0.13
  -4  -6 -12    1.87    0.21
  -4  -6 -12    1.67    0.18
  -4  -6 -12    2.06    0.26
  -4  -6 -12    2.02    0.27
   4   6  12    1.61    0.16
   4   6  12    1.42    0.21
   4   6  12    1.86    0.25
  -5  -6 -12    3.64    0.24
  -5  -6 -12    3.62    0.30
  -5  -6 -12    3.92    0.24
  -5  -6 -12    4.04    0.36
   5   6  12    4.16    0.25
   5   6  12    3.64    0.39
   5   6  12    3.95    0.30
   3  -7 -12    8.46    0.39
   3  -7 -12    8.09    0.46
   3  -7 -12    8.59    0.48
  -3   7  12    8.21    0.34
  -3   7  12    7.99    0.49
  -3   7  12    8.30    0.25
  -3   7  12    7.09    0.42
   2  -7 -12    4.38    0.28
   2  -7 -12    4.35    0.36
   2  -7 -12    4.17    0.34
  -2   7  12    3.92    0.23
  -2   7  12    3.44    0.33
  -2   7  12    4.02    0.23
  -2   7  12    3.79    0.37
   1  -7 -12    1.61    0.19
   1  -7 -12    1.08    0.18
   1  -7 -12    1.40    0.22
  -1   7  12    1.33    0.19
  -1   7  12    1.19    0.14
  -1   7  12    1.11    0.18
  -1   7  12    1.22    0.14
   0  -7 -12    6.60    0.37
   0  -7 -12    6.36    0.23
   0  -7 -12    6.45    0.32
   0   7  12    6.19    0.34
   0   7  12    6.50    0.31
   0   7  12    6.30    0.23
   0   7  12    6.06    0.33
  -1  -7 -12    4.85    0.26
  -1  -7 -12    4.39    0.16
   1   7  12    4.14    0.29
   1   7  12    4.33    0.28
   1   7  12    4.93    0.30
  -2  -7 -12    6.96    0.35
  -2  -7 -12    7.23    0.33
   2   7  12    7.47    0.35
   2   7  12    7.42    0.34
   2   7  12    6.94    0.33
  -3  -7 -12    2.68    0.27
  -3  -7 -12    2.66    0.17
  -3  -7 -12    2.84    0.29
  -3  -7 -12    2.44    0.22
   3   7  12    2.62    0.29
   3   7  12    2.82    0.25
   3   7  12    2.82    0.27
  -4  -7 -12    2.39    0.28
  -4  -7 -12    1.67    0.20
  -4  -7 -12    1.76    0.22
   4   7  12    1.82    0.23
   4   7  12    1.65    0.19
   4   7  12    1.64    0.21
  -5  -7 -12   10.33    0.42
  -5  -7 -12   11.09    0.49
  -5  -7 -12    9.82    0.35
  -5  -7 -12   10.67    0.34
   5   7  12   10.07    0.36
   5   7  12    9.94    0.51
   5   7  12   10.15    0.41
   3  -8 -12    1.30    0.22
   3  -8 -12    1.71    0.23
   3  -8 -12    1.19    0.21
  -3   8  12    1.27    0.16
  -3   8  12    1.24    0.18
  -3   8  12    1.34    0.23
  -3   8  12    0.94    0.26
   2  -8 -12   19.01    0.64
   2  -8 -12   17.46    0.59
   2  -8 -12   17.91    0.51
  -2   8  12   17.68    0.58
  -2   8  12   17.17    0.46
  -2   8  12   16.76    0.61
  -2   8  12   17.02    0.47
   1  -8 -12    0.02    0.15
   1  -8 -12    0.16    0.15
   1  -8 -12    0.14    0.11
  -1   8  12    0.07    0.10
  -1   8  12    0.05    0.16
  -1   8  12    0.22    0.12
  -1   8  12    0.18    0.15
   0  -8 -12    4.29    0.29
   0  -8 -12    4.87    0.22
   0  -8 -12    4.67    0.35
   0   8  12    4.26    0.20
   0   8  12    4.32    0.31
   0   8  12    4.47    0.28
   0   8  12    4.20    0.32
  -1  -8 -12    5.12    0.18
  -1  -8 -12    3.86    0.27
  -1  -8 -12    4.72    0.27
   1   8  12    4.90    0.31
   1   8  12    5.21    0.30
   1   8  12    4.75    0.29
  -2  -8 -12    0.36    0.16
   2   8  12    0.97    0.17
   2   8  12    0.65    0.14
   2   8  12    0.76    0.16
  -3  -8 -12    4.80    0.34
  -3  -8 -12    5.15    0.21
  -3  -8 -12    5.09    0.27
  -3  -8 -12    5.16    0.34
   3   8  12    3.95    0.30
   3   8  12    4.61    0.33
   3   8  12    4.73    0.28
  -4  -8 -12    0.01    0.10
  -4  -8 -12   -0.14    0.12
  -4  -8 -12    0.02    0.14
  -4  -8 -12    0.07    0.16
   4   8  12    0.08    0.13
   4   8  12   -0.01    0.14
   4   8  12   -0.05    0.17
  -5  -8 -12    3.38    0.26
  -5  -8 -12    4.11    0.36
  -5  -8 -12    4.13    0.37
   5   8  12    4.04    0.40
   5   8  12    2.96    0.33
   5   8  12    3.28    0.28
   3  -9 -12    1.29    0.24
   3  -9 -12    1.23    0.22
   3  -9 -12    1.36    0.27
  -3   9  12    1.65    0.18
  -3   9  12    1.40    0.27
   2  -9 -12    2.21    0.28
   2  -9 -12    1.59    0.22
   2  -9 -12    1.87    0.25
  -2   9  12    1.69    0.21
  -2   9  12    2.07    0.22
  -2   9  12    2.77    0.36
  -2   9  12    2.51    0.23
   1  -9 -12    1.27    0.23
   1  -9 -12    1.15    0.18
  -1   9  12    1.33    0.20
  -1   9  12    1.23    0.14
  -1   9  12    1.09    0.20
   0  -9 -12    4.95    0.31
   0  -9 -12    5.51    0.25
   0  -9 -12    5.39    0.37
   0   9  12    5.69    0.31
   0   9  12    5.24    0.23
   0   9  12    5.34    0.33
   0   9  12    4.87    0.35
  -1  -9 -12    6.44    0.31
  -1  -9 -12    6.35    0.38
  -1  -9 -12    6.68    0.23
   1   9  12    6.32    0.34
   1   9  12    6.36    0.34
   1   9  12    6.51    0.36
  -2  -9 -12    4.90    0.35
  -2  -9 -12    5.36    0.32
   2   9  12    4.53    0.30
   2   9  12    4.45    0.33
   2   9  12    4.71    0.32
  -3  -9 -12    2.47    0.25
  -3  -9 -12    1.76    0.22
  -3  -9 -12    2.72    0.28
  -3  -9 -12    2.41    0.17
   3   9  12    2.09    0.25
   3   9  12    2.23    0.28
   3   9  12    1.92    0.23
  -4  -9 -12    0.86    0.13
  -4  -9 -12    0.62    0.20
  -4  -9 -12    0.54    0.15
  -4  -9 -12    0.62    0.20
   4   9  12    0.30    0.16
   4   9  12    0.72    0.17
   4   9  12    0.50    0.19
  -5  -9 -12    0.71    0.15
  -5  -9 -12    0.46    0.20
  -5  -9 -12    0.53    0.16
   5   9  12    0.32    0.19
   2 -10 -12    4.02    0.34
   2 -10 -12    3.40    0.35
   2 -10 -12    3.95    0.46
  -2  10  12    3.70    0.43
  -2  10  12    3.14    0.36
  -2  10  12    3.39    0.24
  -2  10  12    4.11    0.27
   1 -10 -12    1.24    0.24
   1 -10 -12    1.37    0.19
   1 -10 -12    1.28    0.17
  -1  10  12    1.10    0.22
  -1  10  12    0.90    0.18
  -1  10  12    1.05    0.14
  -1  10  12    1.16    0.17
   0 -10 -12    9.84    0.33
   0 -10 -12    9.84    0.47
   0 -10 -12    8.82    0.40
   0  10  12    9.91    0.46
   0  10  12    8.94    0.42
   0  10  12    9.46    0.40
  -1 -10 -12    7.53    0.35
  -1 -10 -12    7.53    0.43
  -1 -10 -12    7.11    0.27
   1  10  12    7.13    0.37
   1  10  12    7.47    0.38
   1  10  12    6.61    0.36
  -2 -10 -12    0.54    0.19
  -2 -10 -12    0.88    0.10
  -2 -10 -12    0.75    0.15
   2  10  12    0.76    0.17
   2  10  12    0.74    0.17
   2  10  12    0.94    0.18
  -3 -10 -12    0.71    0.20
  -3 -10 -12    0.62    0.15
  -3 -10 -12    0.89    0.18
  -3 -10 -12    0.82    0.11
   3  10  12    0.97    0.18
  -4 -10 -12    0.72    0.16
  -4 -10 -12    0.89    0.13
  -4 -10 -12    0.96    0.22
  -4 -10 -12    1.17    0.23
   4  10  12    1.19    0.22
   4  10  12    0.96    0.18
   4  10  12    1.09    0.22
   2 -11 -12    4.39    0.43
   2 -11 -12    4.43    0.38
   2 -11 -12    4.86    0.49
  -2  11  12    4.24    0.49
  -2  11  12    4.04    0.28
  -2  11  12    4.57    0.32
   1 -11 -12   10.34    0.55
   1 -11 -12   10.59    0.48
   1 -11 -12   10.29    0.41
  -1  11  12   10.52    0.48
  -1  11  12   10.64    0.54
  -1  11  12   10.38    0.35
  -1  11  12   10.86    0.43
   0 -11 -12    3.33    0.27
   0 -11 -12    2.48    0.32
   0 -11 -12    2.79    0.39
   0  11  12    2.77    0.31
   0  11  12    3.96    0.38
   0  11  12    3.35    0.33
  -1 -11 -12    9.25    0.26
  -1 -11 -12    9.59    0.41
  -1 -11 -12   10.25    0.51
   1  11  12    9.86    0.43
   1  11  12    9.59    0.46
  -2 -11 -12    0.10    0.07
  -2 -11 -12    0.25    0.22
  -2 -11 -12    0.01    0.14
   2  11  12    0.16    0.17
  -3 -11 -12    0.43    0.18
  -3 -11 -12    0.41    0.16
   3  11  12    0.58    0.18
  -4 -11 -12    2.79    0.39
  -4 -11 -12    1.97    0.30
   1 -12 -12    4.93    0.37
   1 -12 -12    5.03    0.42
   1 -12 -12    4.10    0.49
  -1  12  12    4.44    0.27
  -1  12  12    5.02    0.48
  -1  12  12    4.32    0.37
  -1  12  12    4.55    0.43
   0 -12 -12    0.61    0.27
   0 -12 -12    0.56    0.20
   0  12  12    1.14    0.21
  -1 -12 -12    7.77    0.26
  -1 -12 -12    7.67    0.41
  -1 -12 -12    7.76    0.50
   1  12  12    7.80    0.46
  -2 -12 -12    1.62    0.17
  -2 -12 -12    1.82    0.29
   2  12  12    1.48    0.22
   2  12  12    1.21    0.22
  -3 -12 -12    2.13    0.31
  -3 -12 -12    2.03    0.25
   3  12  12    1.67    0.24
   0   2 -13    3.34    0.46
   0   2 -13    2.41    0.31
   0  -2  13    2.63    0.26
   0  -2  13    2.89    0.30
   0  -2  13    2.89    0.34
  -1   2 -13    0.24    0.23
   1  -2  13    0.17    0.16
   1  -2  13    0.70    0.27
   1  -2  13    0.03    0.17
  -2   2 -13    6.81    0.46
   2  -2  13    6.62    0.52
   1   1 -13    5.85    0.48
   1   1 -13    5.66    0.47
   1   1 -13    5.24    0.29
  -1  -1  13    5.01    0.53
  -1  -1  13    5.69    0.42
  -1  -1  13    4.72    0.44
  -1  -1  13    5.16    0.31
   0   1 -13    4.42    0.42
   0   1 -13    4.19    0.24
   0   1 -13    4.06    0.43
   0   1 -13    4.58    0.44
   0  -1  13    4.33    0.49
   0  -1  13    4.19    0.39
   0  -1  13    3.48    0.33
   0  -1  13    4.08    0.29
  -1   1 -13    0.94    0.23
  -1   1 -13    0.88    0.23
  -1   1 -13    1.34    0.24
   1  -1  13    0.96    0.18
   1  -1  13    1.01    0.26
   1  -1  13    0.76    0.20
  -2   1 -13    4.33    0.42
  -2   1 -13    4.79    0.41
  -2   1 -13    5.00    0.42
   2  -1  13    4.20    0.32
   2  -1  13    4.77    0.36
   2  -1  13    4.81    0.27
   2  -1  13    4.62    0.44
  -3   1 -13    0.15    0.11
  -3   1 -13    0.09    0.19
  -3   1 -13    0.41    0.20
   3  -1  13   -0.03    0.18
   3  -1  13    0.22    0.21
   3  -1  13    0.25    0.18
   2   0 -13    2.73    0.33
   2   0 -13    2.21    0.28
   2   0 -13    2.49    0.31
   2   0 -13    2.96    0.30
  -2   0  13    2.61    0.25
  -2   0  13    3.06    0.33
  -2   0  13    2.51    0.27
   1   0 -13    4.94    0.26
   1   0 -13    4.48    0.45
   1   0 -13    4.72    0.46
   1   0 -13    5.22    0.41
  -1   0  13    5.33    0.37
  -1   0  13    4.37    0.47
  -1   0  13    4.81    0.28
  -1   0  13    5.24    0.42
   0   0 -13   10.76    0.51
   0   0 -13   10.91    0.49
   0   0 -13   10.93    0.51
   0   0  13   10.25    0.53
   0   0  13   10.98    0.40
   0   0  13   11.69    0.49
   0   0  13   11.55    0.40
  -1   0 -13    3.64    0.38
  -1   0 -13    3.39    0.37
  -1   0 -13    3.49    0.36
   1   0  13    3.91    0.26
   1   0  13    3.47    0.40
   1   0  13    3.64    0.28
   1   0  13    4.06    0.34
  -2   0 -13    1.31    0.21
  -2   0 -13    1.87    0.24
   2   0  13    2.21    0.28
   2   0  13    1.51    0.20
   2   0  13    1.96    0.24
   2   0  13    2.10    0.20
  -3   0 -13    0.49    0.19
  -3   0 -13    0.11    0.11
   3   0  13    0.44    0.20
   3   0  13    0.18    0.15
   3   0  13    0.09    0.16
  -4   0 -13    0.58    0.18
  -4   0 -13    0.37    0.14
  -4   0 -13    0.34    0.18
   4   0  13    0.54    0.21
   4   0  13    0.58    0.18
   2  -1 -13    2.84    0.28
   2  -1 -13    3.37    0.43
  -2   1  13    2.60    0.29
  -2   1  13    2.86    0.21
  -2   1  13    2.80    0.32
  -2   1  13    3.01    0.24
   1  -1 -13   -0.02    0.21
   1  -1 -13    0.37    0.20
   1  -1 -13   -0.12    0.11
  -1   1  13    0.19    0.13
  -1   1  13   -0.16    0.20
  -1   1  13    0.04    0.18
   0  -1 -13    0.72    0.20
   0  -1 -13    1.08    0.19
   0  -1 -13    0.78    0.11
   0   1  13    0.45    0.18
   0   1  13    0.79    0.14
   0   1  13    0.84    0.22
   0   1  13    0.59    0.15
  -1  -1 -13    6.42    0.39
  -1  -1 -13    5.94    0.38
   1   1  13    6.04    0.32
   1   1  13    5.66    0.35
   1   1  13    5.94    0.41
  -2  -1 -13    3.86    0.34
   2   1  13    4.04    0.31
   2   1  13    3.65    0.31
  -3  -1 -13   -0.04    0.16
  -3  -1 -13    0.05    0.12
  -3  -1 -13    0.01    0.15
   3   1  13    0.42    0.15
   3   1  13    0.12    0.17
   3   1  13    0.37    0.15
  -4  -1 -13    2.88    0.29
  -4  -1 -13    2.53    0.31
  -4  -1 -13    2.05    0.23
   4   1  13    2.81    0.35
   4   1  13    2.79    0.34
   4   1  13    2.37    0.28
   2  -2 -13    6.35    0.46
   2  -2 -13    6.10    0.32
   2  -2 -13    6.28    0.48
  -2   2  13    7.27    0.49
  -2   2  13    6.61    0.29
  -2   2  13    6.80    0.28
  -2   2  13    7.59    0.46
   1  -2 -13    0.71    0.20
   1  -2 -13    0.97    0.22
   1  -2 -13    0.69    0.12
  -1   2  13    0.89    0.14
  -1   2  13    0.76    0.21
  -1   2  13    0.62    0.17
   0  -2 -13    0.26    0.16
   0  -2 -13    0.12    0.09
   0  -2 -13    0.12    0.16
   0   2  13    0.29    0.16
   0   2  13    0.23    0.12
   0   2  13    0.03    0.18
  -1  -2 -13    1.67    0.12
  -1  -2 -13    1.74    0.22
  -1  -2 -13    1.06    0.17
   1   2  13    1.59    0.18
   1   2  13    1.31    0.19
   1   2  13    1.25    0.17
  -2  -2 -13    4.21    0.26
  -2  -2 -13    3.68    0.28
  -2  -2 -13    4.02    0.34
   2   2  13    3.92    0.33
   2   2  13    4.41    0.31
   2   2  13    4.15    0.29
  -3  -2 -13    3.83    0.27
  -3  -2 -13    3.33    0.22
  -3  -2 -13    3.71    0.32
  -3  -2 -13    3.16    0.27
   3   2  13    3.91    0.32
   3   2  13    3.78    0.30
   3   2  13    3.18    0.29
  -4  -2 -13    4.18    0.31
  -4  -2 -13    3.44    0.31
  -4  -2 -13    3.87    0.26
  -4  -2 -13    3.77    0.30
   4   2  13    3.74    0.32
   4   2  13    4.14    0.31
   4   2  13    4.23    0.37
  -5  -2 -13    3.01    0.31
  -5  -2 -13    3.08    0.26
  -5  -2 -13    2.77    0.34
   5   2  13    2.65    0.29
   3  -3 -13   -0.16    0.17
   3  -3 -13   -0.26    0.24
  -3   3  13    0.26    0.15
  -3   3  13    0.04    0.23
  -3   3  13    0.18    0.12
   2  -3 -13    1.62    0.27
   2  -3 -13    1.33    0.17
   2  -3 -13    0.87    0.21
  -2   3  13    1.35    0.15
  -2   3  13    1.36    0.16
  -2   3  13    0.89    0.22
  -2   3  13    0.95    0.24
   1  -3 -13    1.96    0.24
   1  -3 -13    1.87    0.24
  -1   3  13    1.64    0.22
  -1   3  13    1.56    0.23
  -1   3  13    1.77    0.21
  -1   3  13    1.59    0.19
   0  -3 -13    1.25    0.15
   0  -3 -13    1.51    0.21
   0  -3 -13    1.03    0.17
   0   3  13    1.55    0.22
   0   3  13    1.20    0.16
   0   3  13    1.21    0.18
  -1  -3 -13    5.28    0.25
  -1  -3 -13    6.31    0.41
  -1  -3 -13    5.48    0.16
   1   3  13    5.94    0.31
   1   3  13    5.41    0.35
   1   3  13    5.62    0.34
  -2  -3 -13    0.31    0.13
  -2  -3 -13    0.48    0.14
  -2  -3 -13    0.46    0.18
   2   3  13    0.26    0.15
   2   3  13    0.52    0.14
   2   3  13    0.66    0.17
  -3  -3 -13    1.96    0.26
  -3  -3 -13    2.10    0.26
  -3  -3 -13    2.28    0.19
  -3  -3 -13    2.30    0.30
   3   3  13    1.95    0.26
   3   3  13    2.21    0.29
   3   3  13    2.23    0.28
  -4  -3 -13   10.61    0.43
  -4  -3 -13   10.43    0.37
  -4  -3 -13    9.17    0.39
  -4  -3 -13   10.08    0.41
   4   3  13   10.31    0.40
   4   3  13    9.71    0.40
   4   3  13    9.98    0.46
  -5  -3 -13    2.43    0.24
  -5  -3 -13    2.36    0.31
  -5  -3 -13    2.17    0.20
   5   3  13    2.28    0.28
   3  -4 -13    1.84    0.29
   3  -4 -13    1.20    0.21
  -3   4  13    1.29    0.14
  -3   4  13    1.39    0.19
  -3   4  13    1.72    0.29
   2  -4 -13    0.75    0.22
   2  -4 -13    1.02    0.22
   2  -4 -13    1.30    0.17
  -2   4  13    1.10    0.22
  -2   4  13    1.00    0.16
  -2   4  13    0.63    0.21
   1  -4 -13    0.40    0.16
   1  -4 -13    0.21    0.11
   1  -4 -13    0.15    0.18
  -1   4  13    0.09    0.15
  -1   4  13    0.16    0.17
  -1   4  13    0.26    0.12
  -1   4  13    0.19    0.12
   0  -4 -13    0.96    0.10
   0  -4 -13    0.79    0.12
   0  -4 -13    0.85    0.17
   0  -4 -13    0.80    0.20
   0   4  13    0.90    0.12
   0   4  13    0.61    0.18
   0   4  13    0.74    0.17
   0   4  13    0.87    0.14
  -1  -4 -13    1.00    0.14
  -1  -4 -13    0.82    0.15
   1   4  13    0.93    0.16
   1   4  13    0.99    0.18
   1   4  13    1.14    0.17
  -2  -4 -13    0.99    0.15
  -2  -4 -13    1.66    0.23
  -2  -4 -13    1.67    0.21
   2   4  13    1.71    0.20
   2   4  13    2.07    0.25
   2   4  13    1.77    0.20
  -3  -4 -13    9.56    0.42
  -3  -4 -13    8.92    0.38
  -3  -4 -13    9.46    0.39
  -3  -4 -13    9.52    0.33
   3   4  13    8.94    0.39
   3   4  13    9.82    0.42
   3   4  13    9.82    0.40
  -4  -4 -13    0.13    0.11
  -4  -4 -13    0.02    0.13
  -4  -4 -13   -0.11    0.16
  -4  -4 -13    0.00    0.14
   4   4  13   -0.28    0.14
   4   4  13   -0.04    0.15
   4   4  13    0.02    0.17
  -5  -4 -13    3.74    0.27
  -5  -4 -13    3.79    0.31
  -5  -4 -13    3.18    0.27
  -5  -4 -13    3.84    0.34
   5   4  13    3.47    0.30
   3  -5 -13    1.34    0.21
   3  -5 -13    1.34    0.25
   3  -5 -13    1.42    0.28
  -3   5  13    1.41    0.18
  -3   5  13    1.37    0.29
  -3   5  13    1.74    0.20
   2  -5 -13   -0.23    0.18
   2  -5 -13    0.11    0.22
   2  -5 -13    0.00    0.14
  -2   5  13    0.20    0.13
  -2   5  13    0.16    0.19
  -2   5  13    0.29    0.19
  -2   5  13    0.05    0.11
   1  -5 -13    1.17    0.20
   1  -5 -13    1.10    0.13
   1  -5 -13    0.74    0.21
  -1   5  13    0.86    0.14
  -1   5  13    1.01    0.14
  -1   5  13    0.80    0.19
  -1   5  13    1.13    0.21
   0  -5 -13   16.81    0.38
   0  -5 -13   15.52    0.53
   0  -5 -13   16.35    0.43
   0  -5 -13   16.28    0.58
   0   5  13   16.68    0.56
   0   5  13   16.21    0.49
   0   5  13   15.93    0.54
   0   5  13   15.65    0.39
   1   5  13    2.09    0.16
   1   5  13    1.74    0.20
   1   5  13    2.06    0.26
   1   5  13    2.35    0.27
  -2  -5 -13    0.60    0.14
  -2  -5 -13    0.53    0.18
   2   5  13    0.52    0.15
   2   5  13    0.53    0.16
   2   5  13    0.64    0.16
   2   5  13    0.60    0.10
  -3  -5 -13    0.54    0.19
  -3  -5 -13    0.19    0.10
  -3  -5 -13    0.25    0.15
  -3  -5 -13    0.41    0.14
   3   5  13    0.23    0.15
   3   5  13    0.43    0.15
   3   5  13    0.64    0.15
  -4  -5 -13    4.15    0.33
  -4  -5 -13    3.65    0.28
  -4  -5 -13    3.75    0.32
  -4  -5 -13    4.42    0.24
   4   5  13    3.64    0.30
   4   5  13    4.66    0.36
   4   5  13    3.26    0.29
  -5  -5 -13   16.20    0.58
  -5  -5 -13   14.60    0.50
  -5  -5 -13   15.52    0.47
  -5  -5 -13   14.73    0.45
   5   5  13   15.21    0.49
   3  -6 -13    0.14    0.25
   3  -6 -13    0.42    0.21
  -3   6  13    0.56    0.24
  -3   6  13    0.33    0.11
  -3   6  13    0.38    0.16
   2  -6 -13    0.54    0.21
   2  -6 -13    0.79    0.24
   2  -6 -13    0.66    0.17
  -2   6  13    0.77    0.21
  -2   6  13    0.91    0.14
  -2   6  13    0.85    0.23
  -2   6  13    0.92    0.16
   1  -6 -13    1.13    0.21
   1  -6 -13    1.65    0.20
   1  -6 -13    1.51    0.15
   1  -6 -13    1.41    0.23
  -1   6  13    1.16    0.19
  -1   6  13    1.61    0.17
  -1   6  13    1.86    0.23
  -1   6  13    1.58    0.20
   0  -6 -13    2.50    0.22
   0  -6 -13    2.21    0.29
   0  -6 -13    2.99    0.18
   0  -6 -13    2.45    0.27
   0   6  13    2.70    0.31
   0   6  13    2.70    0.26
   0   6  13    2.34    0.30
   0   6  13    2.59    0.19
  -1  -6 -13    1.02    0.16
  -1  -6 -13    1.31    0.16
  -1  -6 -13    0.96    0.19
   1   6  13    1.17    0.17
   1   6  13    1.57    0.20
   1   6  13    1.87    0.25
   1   6  13    1.22    0.15
  -2  -6 -13    3.21    0.26
  -2  -6 -13    3.41    0.33
   2   6  13    2.49    0.29
   2   6  13    3.41    0.29
   2   6  13    3.43    0.30
  -3  -6 -13    6.06    0.38
  -3  -6 -13    6.10    0.33
  -3  -6 -13    6.14    0.26
  -3  -6 -13    5.77    0.31
   3   6  13    6.03    0.35
   3   6  13    5.81    0.33
   3   6  13    6.29    0.36
  -4  -6 -13    2.00    0.24
  -4  -6 -13    2.73    0.32
  -4  -6 -13    2.59    0.33
  -4  -6 -13    2.30    0.21
   4   6  13    2.19    0.27
   4   6  13    2.30    0.29
   4   6  13    3.40    0.34
  -5  -6 -13    5.14    0.28
  -5  -6 -13    5.29    0.30
  -5  -6 -13    5.06    0.42
   5   6  13    4.98    0.35
   3  -7 -13    3.84    0.45
   3  -7 -13    3.78    0.38
  -3   7  13    4.16    0.29
  -3   7  13    3.81    0.21
  -3   7  13    4.46    0.48
   2  -7 -13    3.97    0.31
   2  -7 -13    3.59    0.34
   2  -7 -13    3.29    0.38
  -2   7  13    3.66    0.25
  -2   7  13    3.72    0.37
  -2   7  13    3.77    0.26
  -2   7  13    3.19    0.42
   1  -7 -13    6.55    0.28
   1  -7 -13    5.55    0.43
   1  -7 -13    6.36    0.27
   1  -7 -13    6.17    0.39
  -1   7  13    6.50    0.42
  -1   7  13    6.04    0.31
  -1   7  13    6.12    0.27
  -1   7  13    6.97    0.40
   0  -7 -13    2.61    0.22
   0  -7 -13    2.19    0.19
   0  -7 -13    2.37    0.29
   0  -7 -13    2.33    0.26
   0   7  13    2.17    0.24
   0   7  13    2.18    0.18
   0   7  13    2.22    0.31
   0   7  13    2.79    0.26
  -1  -7 -13    2.50    0.25
  -1  -7 -13    2.60    0.27
  -1  -7 -13    2.29    0.32
   1   7  13    2.64    0.27
   1   7  13    2.27    0.28
   1   7  13    2.80    0.30
   1   7  13    2.33    0.17
  -2  -7 -13    0.41    0.18
  -2  -7 -13    0.45    0.14
  -2  -7 -13    0.32    0.13
   2   7  13    0.28    0.14
   2   7  13    0.37    0.17
  -3  -7 -13    0.75    0.13
  -3  -7 -13    0.71    0.19
  -3  -7 -13    0.48    0.14
  -3  -7 -13    0.71    0.17
   3   7  13    0.78    0.15
   3   7  13    0.30    0.16
   3   7  13    0.67    0.19
  -4  -7 -13    1.00    0.16
  -4  -7 -13    0.92    0.21
  -4  -7 -13    1.23    0.21
  -4  -7 -13    1.01    0.14
   4   7  13    1.04    0.17
   4   7  13    0.72    0.21
   4   7  13    1.17    0.20
  -5  -7 -13    3.83    0.39
  -5  -7 -13    2.92    0.28
  -5  -7 -13    3.05    0.24
   5   7  13    3.06    0.35
   2  -8 -13    1.68    0.28
   2  -8 -13    1.61    0.25
   2  -8 -13    1.75    0.20
  -2   8  13    2.04    0.25
  -2   8  13    1.27    0.26
  -2   8  13    1.38    0.17
  -2   8  13    1.58    0.19
   1  -8 -13    1.06    0.23
   1  -8 -13    1.09    0.19
  -1   8  13    1.33    0.23
  -1   8  13    1.67    0.23
  -1   8  13    1.37    0.16
  -1   8  13    1.54    0.17
   0  -8 -13    3.87    0.38
   0  -8 -13    3.76    0.32
   0  -8 -13    4.12    0.23
   0  -8 -13    4.10    0.27
   0   8  13    4.18    0.21
   0   8  13    4.56    0.29
   0   8  13    4.38    0.35
   0   8  13    2.89    0.35
  -1  -8 -13    0.69    0.17
  -1  -8 -13    0.73    0.15
  -1  -8 -13    0.73    0.21
   1   8  13    0.55    0.17
   1   8  13    0.77    0.18
   1   8  13    0.67    0.17
  -2  -8 -13    0.54    0.16
  -2  -8 -13    0.38    0.19
  -2  -8 -13    0.42    0.14
   2   8  13    0.42    0.15
   2   8  13    0.56    0.17
   2   8  13    0.70    0.17
  -3  -8 -13    0.46    0.16
  -3  -8 -13    0.44    0.12
  -3  -8 -13    0.48    0.17
  -3  -8 -13    0.36    0.15
   3   8  13    0.46    0.18
   3   8  13    0.31    0.16
   3   8  13    0.60    0.19
  -4  -8 -13    2.94    0.33
  -4  -8 -13    3.07    0.37
  -4  -8 -13    2.87    0.29
  -4  -8 -13    2.86    0.21
   4   8  13    2.49    0.34
   4   8  13    2.93    0.31
   4   8  13    2.89    0.39
   2  -9 -13    6.82    0.53
   2  -9 -13    6.07    0.38
   2  -9 -13    4.89    0.43
  -2   9  13    5.50    0.49
  -2   9  13    5.47    0.43
  -2   9  13    5.72    0.30
  -2   9  13    5.69    0.31
   1  -9 -13    0.77    0.24
   1  -9 -13    0.87    0.19
   1  -9 -13    0.91    0.17
  -1   9  13    0.99    0.17
  -1   9  13    0.78    0.14
  -1   9  13    0.82    0.23
  -1   9  13    0.90    0.21
   0  -9 -13    4.40    0.35
   0  -9 -13    5.11    0.26
   0  -9 -13    4.91    0.42
   0   9  13    4.87    0.37
   0   9  13    4.64    0.33
   0   9  13    4.87    0.23
   0   9  13    4.76    0.39
  -1  -9 -13    2.34    0.28
  -1  -9 -13    2.00    0.27
  -1  -9 -13    2.18    0.17
  -1  -9 -13    2.26    0.27
   1   9  13    1.82    0.20
   1   9  13    2.45    0.30
   1   9  13    1.86    0.23
  -2  -9 -13    0.97    0.16
  -2  -9 -13    0.99    0.21
  -2  -9 -13    1.17    0.19
   2   9  13    0.95    0.19
   2   9  13    1.16    0.20
   2   9  13    0.98    0.19
  -3  -9 -13    2.86    0.19
  -3  -9 -13    2.75    0.34
  -3  -9 -13    2.71    0.29
  -3  -9 -13    3.44    0.38
   3   9  13    2.68    0.26
   3   9  13    2.83    0.36
  -4  -9 -13    2.43    0.21
  -4  -9 -13    2.62    0.28
  -4  -9 -13    2.45    0.29
  -4  -9 -13    2.90    0.31
   4   9  13    2.56    0.33
   4   9  13    3.21    0.34
   2 -10 -13    0.31    0.21
   2 -10 -13    0.51    0.20
  -2  10  13    0.54    0.17
  -2  10  13    1.07    0.29
   1 -10 -13    1.98    0.30
   1 -10 -13    2.82    0.30
   1 -10 -13    2.43    0.26
  -1  10  13    2.46    0.23
  -1  10  13    2.46    0.28
  -1  10  13    2.43    0.21
  -1  10  13    2.00    0.27
   0 -10 -13    8.20    0.41
   0 -10 -13    7.98    0.32
   0 -10 -13    7.48    0.48
   0  10  13    8.56    0.41
   0  10  13    7.43    0.44
   0  10  13    8.21    0.48
   0  10  13    7.63    0.30
  -1 -10 -13    0.88    0.12
  -1 -10 -13    0.80    0.23
  -1 -10 -13    0.93    0.16
   1  10  13    0.52    0.17
   1  10  13    0.73    0.19
   1  10  13    0.59    0.18
  -2 -10 -13    1.13    0.26
  -2 -10 -13    1.36    0.20
  -2 -10 -13    1.14    0.19
  -2 -10 -13    1.29    0.13
   2  10  13    0.86    0.20
   2  10  13    0.86    0.21
   2  10  13    1.42    0.21
  -3 -10 -13    1.43    0.18
  -3 -10 -13    1.63    0.22
  -3 -10 -13    1.47    0.19
   3  10  13    1.13    0.25
   3  10  13    1.71    0.21
   3  10  13    1.21    0.22
   1 -11 -13    1.65    0.25
   1 -11 -13    1.29    0.22
   1 -11 -13    1.00    0.29
  -1  11  13    1.75    0.22
  -1  11  13    1.36    0.23
  -1  11  13    1.11    0.26
   0 -11 -13    1.52    0.19
   0 -11 -13    1.17    0.21
   0 -11 -13    1.20    0.23
   0  11  13    1.60    0.27
   0  11  13    1.24    0.16
   0  11  13    1.23    0.22
  -1 -11 -13    3.08    0.25
  -1 -11 -13    3.20    0.43
  -1 -11 -13    2.87    0.17
  -1 -11 -13    3.59    0.35
   1  11  13    2.85    0.28
   1  11  13    3.08    0.38
   1  11  13    3.64    0.38
  -2 -11 -13    0.84    0.20
  -2 -11 -13    0.91    0.24
  -2 -11 -13    0.81    0.12
   2  11  13    0.80    0.21
   2  11  13    0.73    0.22
   2  11  13    0.75    0.22
  -3 -11 -13    1.49    0.28
  -3 -11 -13    1.47    0.14
  -3 -11 -13    1.19    0.23
   3  11  13    1.10    0.23
  -1 -12 -13    2.00    0.33
  -1 -12 -13    2.08    0.20
  -1 -12 -13    1.99    0.18
   1  12  13    2.51    0.28
   1  12  13    1.73    0.27
   0   0 -14    0.33    0.24
   0   0 -14    0.18    0.26
   0   0 -14    0.28    0.13
   0   0  14    0.26    0.19
   0   0  14    0.30    0.17
   0   0  14    0.56    0.29
  -1   0 -14    5.50    0.49
   1   0  14    5.36    0.35
   1   0  14    5.36    0.33
   1   0  14    5.59    0.53
  -2   0 -14    1.14    0.25
   2   0  14    0.83    0.15
   2   0  14    0.72    0.27
   1  -1 -14    1.57    0.30
  -1   1  14    1.56    0.19
  -1   1  14    1.51    0.30
   0  -1 -14    1.09    0.26
   0   1  14    1.67    0.30
   0   1  14    1.10    0.18
   0   1  14    1.21    0.25
  -1  -1 -14    3.38    0.42
   1   1  14    3.96    0.39
   1   1  14    3.56    0.44
   1   1  14    3.21    0.32
  -2  -1 -14    0.91    0.24
   2   1  14    1.48    0.22
   2   1  14    1.06    0.21
   2   1  14    0.87    0.24
  -3  -1 -14    0.94    0.16
  -3  -1 -14    1.42    0.24
   3   1  14    0.88    0.24
   3   1  14    0.86    0.21
   1  -2 -14    0.40    0.23
   1  -2 -14    0.05    0.13
   1  -2 -14    0.46    0.26
  -1   2  14    0.13    0.15
  -1   2  14    0.15    0.21
  -1   2  14    0.47    0.24
   0  -2 -14    2.74    0.27
   0  -2 -14    2.63    0.29
   0  -2 -14    2.38    0.19
   0   2  14    2.94    0.36
   0   2  14    2.64    0.30
   0   2  14    2.04    0.28
  -1  -2 -14    1.46    0.24
  -1  -2 -14    1.71    0.23
   1   2  14    1.95    0.26
   1   2  14    1.54    0.21
   1   2  14    1.76    0.23
  -2  -2 -14    7.95    0.46
  -2  -2 -14    6.42    0.39
   2   2  14    7.77    0.40
   2   2  14    7.09    0.41
   2   2  14    6.77    0.45
  -3  -2 -14    8.71    0.46
  -3  -2 -14    8.62    0.34
  -3  -2 -14    8.82    0.42
   3   2  14    8.58    0.45
   3   2  14    9.26    0.48
   3   2  14    9.10    0.44
   1  -3 -14    2.90    0.39
   1  -3 -14    3.45    0.25
   1  -3 -14    3.11    0.33
  -1   3  14    3.34    0.28
  -1   3  14    3.19    0.33
  -1   3  14    3.23    0.39
   0  -3 -14    3.97    0.20
   0  -3 -14    4.62    0.44
   0  -3 -14    3.94    0.36
   0   3  14    3.97    0.43
   0   3  14    4.34    0.30
   0   3  14    4.23    0.38
  -1  -3 -14    4.73    0.43
  -1  -3 -14    4.65    0.34
   1   3  14    4.75    0.40
   1   3  14    5.03    0.37
   1   3  14    5.31    0.34
  -2  -3 -14    2.62    0.31
  -2  -3 -14    2.87    0.26
   2   3  14    2.69    0.31
   2   3  14    2.47    0.26
   2   3  14    3.18    0.33
  -3  -3 -14    0.85    0.21
  -3  -3 -14    0.99    0.19
  -3  -3 -14    0.85    0.18
  -3  -3 -14    0.96    0.15
   3   3  14    0.69    0.18
   3   3  14    0.52    0.19
   3   3  14    0.68    0.21
  -4  -3 -14    2.68    0.35
  -4  -3 -14    2.98    0.25
  -4  -3 -14    3.21    0.32
  -4  -3 -14    2.42    0.34
   4   3  14    2.75    0.35
   4   3  14    2.93    0.34
   2  -4 -14    2.67    0.34
   2  -4 -14    2.84    0.31
   2  -4 -14    3.26    0.44
  -2   4  14    2.75    0.26
  -2   4  14    2.62    0.31
  -2   4  14    2.68    0.27
   1  -4 -14    5.44    0.29
   1  -4 -14    6.06    0.49
   1  -4 -14    5.23    0.41
  -1   4  14    6.06    0.44
  -1   4  14    5.51    0.48
  -1   4  14    5.89    0.32
  -1   4  14    5.21    0.26
   0  -4 -14    3.54    0.34
   0  -4 -14    3.99    0.42
   0  -4 -14    2.95    0.19
   0  -4 -14    2.97    0.20
   0   4  14    3.46    0.37
   0   4  14    2.72    0.29
   0   4  14    3.41    0.29
  -1  -4 -14    0.22    0.21
  -1  -4 -14    0.42    0.18
  -1  -4 -14    0.22    0.13
   1   4  14    0.04    0.20
   1   4  14    0.30    0.16
   1   4  14    0.27    0.17
  -2  -4 -14    6.19    0.37
  -2  -4 -14    6.80    0.33
   2   4  14    6.34    0.39
   2   4  14    6.68    0.41
   2   4  14    6.31    0.38
  -3  -4 -14    2.59    0.26
  -3  -4 -14    2.46    0.22
  -3  -4 -14    2.38    0.23
  -3  -4 -14    2.87    0.29
   3   4  14    2.47    0.24
   3   4  14    1.97    0.24
   3   4  14    2.27    0.31
  -4  -4 -14    1.68    0.24
  -4  -4 -14    1.69    0.22
  -4  -4 -14    1.93    0.24
  -4  -4 -14    1.66    0.22
   4   4  14    1.77    0.24
   4   4  14    1.89    0.22
   2  -5 -14    0.85    0.23
   2  -5 -14    1.17    0.30
   2  -5 -14    1.25    0.19
  -2   5  14    1.29    0.16
  -2   5  14    0.91    0.24
  -2   5  14    1.37    0.18
   1  -5 -14    4.53    0.41
   1  -5 -14    4.71    0.29
   1  -5 -14    5.02    0.47
  -1   5  14    4.78    0.27
  -1   5  14    4.82    0.31
  -1   5  14    4.50    0.41
  -1   5  14    4.88    0.45
   0  -5 -14    0.70    0.11
   0  -5 -14    0.44    0.19
   0  -5 -14    0.57    0.14
   0  -5 -14    0.66    0.23
   0   5  14    0.99    0.17
   0   5  14    0.51    0.21
   0   5  14    0.87    0.14
   0   5  14    0.44    0.19
  -1  -5 -14    9.38    0.50
  -1  -5 -14    8.27    0.41
  -1  -5 -14    8.89    0.36
   1   5  14    8.79    0.44
   1   5  14    8.27    0.27
   1   5  14    8.78    0.40
   1   5  14    8.58    0.45
  -2  -5 -14    4.82    0.32
  -2  -5 -14    3.68    0.33
   2   5  14    5.15    0.36
   2   5  14    4.67    0.35
   2   5  14    4.49    0.37
  -3  -5 -14    0.92    0.19
  -3  -5 -14    0.93    0.19
  -3  -5 -14    1.01    0.14
  -3  -5 -14    0.85    0.22
   3   5  14    1.04    0.20
   3   5  14    0.90    0.19
   3   5  14    0.86    0.20
  -4  -5 -14   12.33    0.40
  -4  -5 -14   11.70    0.49
  -4  -5 -14   11.70    0.50
  -4  -5 -14   10.76    0.45
   4   5  14   11.51    0.47
   4   5  14   11.44    0.47
   2  -6 -14    5.22    0.53
   2  -6 -14    4.74    0.33
   2  -6 -14    4.02    0.48
  -2   6  14    5.52    0.30
  -2   6  14    5.24    0.31
  -2   6  14    5.27    0.49
   1  -6 -14    0.63    0.25
   1  -6 -14    0.59    0.22
  -1   6  14    0.84    0.16
  -1   6  14    0.77    0.23
  -1   6  14    0.35    0.22
  -1   6  14    0.79    0.16
   0  -6 -14    4.51    0.27
   0  -6 -14    4.35    0.21
   0  -6 -14    4.74    0.44
   0  -6 -14    3.80    0.37
   0   6  14    4.03    0.38
   0   6  14    4.42    0.33
   0   6  14    4.46    0.39
   0   6  14    3.98    0.24
  -1  -6 -14    2.39    0.25
  -1  -6 -14    1.77    0.21
  -1  -6 -14    1.98    0.26
   1   6  14    2.25    0.20
   1   6  14    2.13    0.22
   1   6  14    1.77    0.23
   1   6  14    2.78    0.34
  -2  -6 -14    3.95    0.30
  -2  -6 -14    3.14    0.32
   2   6  14    3.87    0.34
   2   6  14    3.27    0.35
   2   6  14    3.68    0.34
   2   6  14    3.25    0.20
  -3  -6 -14    8.65    0.42
  -3  -6 -14    8.29    0.31
  -3  -6 -14    7.91    0.39
  -3  -6 -14    8.71    0.47
   3   6  14    8.34    0.44
   3   6  14    9.06    0.45
   3   6  14    9.00    0.43
  -4  -6 -14   12.17    0.52
  -4  -6 -14   11.73    0.39
  -4  -6 -14    9.99    0.44
  -4  -6 -14   11.37    0.50
   4   6  14   11.41    0.48
   4   6  14   11.06    0.46
   2  -7 -14    4.60    0.55
   2  -7 -14    3.79    0.47
   2  -7 -14    4.36    0.37
  -2   7  14    4.38    0.33
  -2   7  14    4.57    0.50
  -2   7  14    4.45    0.29
   1  -7 -14    0.55    0.25
   1  -7 -14    0.14    0.21
   1  -7 -14    0.48    0.15
  -1   7  14    0.64    0.24
  -1   7  14    0.45    0.17
  -1   7  14    0.67    0.22
  -1   7  14    0.81    0.15
   0  -7 -14    1.22    0.23
   0  -7 -14    1.45    0.22
   0  -7 -14    1.19    0.17
   0  -7 -14    1.73    0.19
   0   7  14    1.50    0.20
   0   7  14    1.54    0.24
   0   7  14    1.47    0.16
   0   7  14    1.38    0.23
  -1  -7 -14    0.62    0.23
  -1  -7 -14    1.23    0.18
  -1  -7 -14    1.37    0.20
   1   7  14    1.22    0.20
   1   7  14    1.12    0.22
   1   7  14    1.70    0.21
   1   7  14    1.28    0.14
  -2  -7 -14    0.37    0.20
  -2  -7 -14    0.16    0.15
  -2  -7 -14    0.55    0.16
   2   7  14    0.19    0.19
   2   7  14    0.47    0.18
   2   7  14    0.51    0.19
  -3  -7 -14    2.39    0.28
  -3  -7 -14    2.68    0.30
  -3  -7 -14    2.26    0.21
  -3  -7 -14    1.67    0.21
   3   7  14    2.31    0.24
   3   7  14    2.81    0.37
   3   7  14    2.53    0.33
  -4  -7 -14    6.77    0.37
  -4  -7 -14    7.91    0.47
  -4  -7 -14    7.79    0.45
  -4  -7 -14    7.20    0.31
   4   7  14    8.21    0.45
   4   7  14    6.70    0.41
   1  -8 -14    0.63    0.26
   1  -8 -14    0.83    0.17
   1  -8 -14    0.96    0.17
   1  -8 -14    0.75    0.23
  -1   8  14    0.83    0.18
  -1   8  14    0.96    0.24
  -1   8  14    1.04    0.16
  -1   8  14    0.91    0.26
   0  -8 -14    0.46    0.19
   0  -8 -14    0.39    0.24
   0  -8 -14    0.74    0.16
   0  -8 -14    0.26    0.13
   0   8  14    0.39    0.13
   0   8  14    0.47    0.20
   0   8  14    0.76    0.19
   0   8  14    0.23    0.20
  -1  -8 -14    1.22    0.25
  -1  -8 -14    0.81    0.18
  -1  -8 -14    1.10    0.19
   1   8  14    0.88    0.21
   1   8  14    1.07    0.20
   1   8  14    0.82    0.20
   1   8  14    0.88    0.13
  -2  -8 -14    0.59    0.17
  -2  -8 -14    0.33    0.18
  -2  -8 -14    0.41    0.22
   2   8  14    0.28    0.19
   2   8  14    0.37    0.20
   2   8  14    0.69    0.20
  -3  -8 -14    7.64    0.42
  -3  -8 -14    7.29    0.28
  -3  -8 -14    6.69    0.36
  -3  -8 -14    6.50    0.47
   3   8  14    6.85    0.47
   3   8  14    6.83    0.44
   1  -9 -14    3.81    0.43
   1  -9 -14    3.88    0.32
   1  -9 -14    3.75    0.51
  -1   9  14    3.19    0.44
  -1   9  14    3.94    0.35
  -1   9  14    3.87    0.26
  -1   9  14    3.93    0.48
   0  -9 -14    0.93    0.16
   0  -9 -14    0.69    0.20
   0  -9 -14    1.00    0.18
   0  -9 -14    0.93    0.23
   0   9  14    0.58    0.22
   0   9  14    1.13    0.22
   0   9  14    0.77    0.14
   0   9  14    1.16    0.20
  -1  -9 -14    0.70    0.17
  -1  -9 -14    0.59    0.21
  -1  -9 -14    0.65    0.19
   1   9  14    0.57    0.23
   1   9  14    0.69    0.21
   1   9  14    1.01    0.22
   1   9  14    0.89    0.14
  -2  -9 -14    1.47    0.21
  -2  -9 -14    1.66    0.23
  -2  -9 -14    1.26    0.25
   2   9  14    1.33    0.23
   2   9  14    0.94    0.22
   2   9  14    1.27    0.24
  -3  -9 -14    2.15    0.26
  -3  -9 -14    1.99    0.20
   3   9  14    1.57    0.22
   3   9  14    2.21    0.28
   0 -10 -14    4.56    0.30
   0 -10 -14    3.61    0.50
   0  10  14    3.73    0.24
   0  10  14    2.89    0.38
   0  10  14    4.46    0.45
   0  10  14    3.28    0.44
  -1 -10 -14    6.18    0.26
  -1 -10 -14    7.13    0.40
  -1 -10 -14    6.69    0.53
   1  10  14    5.44    0.46
   1  10  14    7.08    0.44
   1  10  14    5.40    0.50
  -2 -10 -14    3.77    0.37
  -2 -10 -14    3.43    0.47
   2  10  14    1.80    0.25
  -1  -3 -15    1.70    0.32
   1   3  15    1.63    0.30
   1   3  15    1.50    0.23
  -2  -3 -15    1.65    0.29
   2   3  15    2.07    0.31
   2   3  15    1.65    0.26
   0  -4 -15    1.49    0.31
   0  -4 -15    1.04    0.13
   0   4  15    0.95    0.20
   0   4  15    0.96    0.30
  -1  -4 -15    1.97    0.25
  -1  -4 -15    1.99    0.31
   1   4  15    1.56    0.22
   1   4  15    1.67    0.26
  -2  -4 -15    9.27    0.56
  -2  -4 -15    9.90    0.41
   2   4  15    9.56    0.53
   2   4  15   10.09    0.49
   0  -5 -15    3.62    0.22
   0  -5 -15    3.81    0.51
   0   5  15    3.75    0.35
   0   5  15    3.99    0.49
  -1  -5 -15    3.70    0.47
  -1  -5 -15    3.00    0.30
   1   5  15    3.49    0.37
   1   5  15    3.16    0.33
   1   5  15    2.64    0.31
  -2  -5 -15    1.68    0.29
  -2  -5 -15    1.37    0.21
   2   5  15    1.68    0.27
   2   5  15    1.47    0.24
  -3  -5 -15    4.57    0.27
   0  -6 -15    3.84    0.23
   0  -6 -15    4.30    0.41
   0  -6 -15    3.38    0.31
   0   6  15    4.30    0.36
   0   6  15    3.64    0.36
   0   6  15    3.62    0.27
  -1  -6 -15    3.84    0.49
  -1  -6 -15    3.91    0.33
   1   6  15    3.85    0.27
   1   6  15    3.89    0.38
   1   6  15    3.67    0.44
   1   6  15    4.15    0.43
  -2  -6 -15    0.14    0.26
  -2  -6 -15    0.04    0.18
   2   6  15    0.26    0.24
   2   6  15    0.13    0.21
   0  -7 -15    1.75    0.15
   0  -7 -15    1.71    0.30
   0  -7 -15    1.83    0.21
   0   7  15    2.00    0.24
   0   7  15    2.00    0.25
   0   7  15    1.60    0.29
  -1  -7 -15    5.92    0.53
  -1  -7 -15    6.83    0.36
   1   7  15    6.15    0.49
   1   7  15    6.42    0.44
   1   7  15    5.89    0.28
  -2  -7 -15    4.87    0.50
  -2  -7 -15    5.12    0.36
   2   7  15    4.72    0.24
   2   7  15    5.24    0.45
   2   7  15    5.11    0.43
  -1  -8 -15    1.55    0.32
  -1  -8 -15    1.48    0.21
   1   8  15    1.60    0.28
   1   8  15    1.85    0.26
   1   8  15    1.58    0.17
  -2  -8 -15    0.92    0.27
  -2  -8 -15    1.63    0.23
   2   8  15    1.66    0.20
   2   8  15    1.84    0.28
   2   8  15    2.00    0.28
   0   0   0    0.00    0.00
;
_shelx_hkl_checksum              30646
loop_
_space_group_symop_operation_xyz
'x, y, z'
loop_
_atom_site_label
_atom_site_type_symbol
_atom_site_fract_x
_atom_site_fract_y
_atom_site_fract_z
_atom_site_U_iso_or_equiv
_atom_site_adp_type
_atom_site_occupancy
_atom_site_site_symmetry_order
_atom_site_calc_flag
_atom_site_refinement_flags_posn
_atom_site_refinement_flags_adp
O1 O -0.0285(2) -0.27124(13) 0.69630(13) 0.0207(3) Uani 1 1 d . .
O2 O 0.0726(3) -0.30696(15) 0.51186(15) 0.0343(4) Uani 1 1 d . .
O3 O -0.1444(2) -0.09912(13) 0.37550(12) 0.0181(3) Uani 1 1 d . .
O4 O 0.0108(2) 0.10249(12) 0.45187(12) 0.0163(3) Uani 1 1 d . .
O5 O 0.3506(2) 0.00505(12) 0.60058(12) 0.0162(3) Uani 1 1 d . .
O6 O 0.3283(2) -0.37307(13) 0.83890(12) 0.0208(3) Uani 1 1 d . .
O7 O 0.3095(2) 0.07603(14) 0.76090(13) 0.0224(3) Uani 1 1 d . .
C1 C -0.0875(4) -0.26052(19) 0.58084(18) 0.0229(4) Uani 1 1 d . .
H1 H -0.2287 -0.3113 0.5979 0.027 Uiso 1 1 calc R U
C6 C 0.2382(3) -0.24867(18) 0.81295(18) 0.0190(4) Uani 1 1 d . .
H6A H 0.3485 -0.1874 0.8159 0.023 Uiso 1 1 calc R U
H6B H 0.1064 -0.2538 0.8753 0.023 Uiso 1 1 calc R U
C2 C -0.1237(3) -0.11863(17) 0.50127(17) 0.0163(3) Uani 1 1 d . .
H2 H -0.2619 -0.0913 0.5404 0.020 Uiso 1 1 calc R U
C3 C 0.0684(3) -0.02968(17) 0.49304(16) 0.0143(3) Uani 1 1 d . .
H3 H 0.1957 -0.0389 0.4329 0.017 Uiso 1 1 calc R U
C4 C 0.1429(3) -0.06080(17) 0.62046(16) 0.0143(3) Uani 1 1 d . .
H4 H 0.0307 -0.0327 0.6756 0.017 Uiso 1 1 calc R U
C5 C 0.1763(3) -0.20471(17) 0.68260(17) 0.0161(3) Uani 1 1 d . .
H5 H 0.2919 -0.2309 0.6276 0.019 Uiso 1 1 calc R U
C7 C 0.1088(7) -0.4412(3) 0.5806(3) 0.0637(11) Uani 1 1 d . .
H7A H 0.1991 -0.4761 0.5249 0.096 Uiso 1 1 calc R U
H7B H -0.0334 -0.4891 0.6128 0.096 Uiso 1 1 calc R U
H7C H 0.1855 -0.4497 0.6509 0.096 Uiso 1 1 calc R U
C8 C -0.3331(3) -0.1629(2) 0.36582(19) 0.0246(4) Uani 1 1 d . .
H8A H -0.4678 -0.1332 0.4039 0.030 Uiso 1 1 calc R U
H8B H -0.3254 -0.2572 0.4120 0.030 Uiso 1 1 calc R U
C9 C -0.3444(3) -0.13413(18) 0.22979(18) 0.0181(4) Uani 1 1 d . .
C10 C -0.5429(3) -0.15807(19) 0.19634(19) 0.0210(4) Uani 1 1 d . .
H10 H -0.6704 -0.1877 0.2583 0.025 Uiso 1 1 calc R U
C11 C -0.5545(3) -0.1386(2) 0.0725(2) 0.0248(4) Uani 1 1 d . .
H11 H -0.6900 -0.1549 0.0503 0.030 Uiso 1 1 calc R U
C12 C -0.3689(3) -0.0954(2) -0.01877(19) 0.0243(4) Uani 1 1 d . .
H12 H -0.3771 -0.0829 -0.1031 0.029 Uiso 1 1 calc R U
C13 C -0.1714(3) -0.07068(19) 0.01368(19) 0.0214(4) Uani 1 1 d . .
H13 H -0.0444 -0.0407 -0.0486 0.026 Uiso 1 1 calc R U
C14 C -0.1594(3) -0.08979(18) 0.13754(18) 0.0185(4) Uani 1 1 d . .
H14 H -0.0240 -0.0725 0.1593 0.022 Uiso 1 1 calc R U
C15 C 0.0064(5) 0.1694(2) 0.3214(2) 0.0327(5) Uani 1 1 d . .
H15A H -0.1289 0.1442 0.2983 0.039 Uiso 1 1 calc R U
H15B H 0.1362 0.1485 0.2718 0.039 Uiso 1 1 calc R U
C16 C 0.0102(4) 0.31221(19) 0.29508(17) 0.0218(4) Uani 1 1 d . .
C17 C -0.1640(3) 0.3872(2) 0.24702(19) 0.0258(4) Uani 1 1 d . .
H17 H -0.2833 0.3490 0.2284 0.031 Uiso 1 1 calc R U
C18 C -0.1635(4) 0.5184(2) 0.2262(2) 0.0302(5) Uani 1 1 d . .
H18 H -0.2827 0.5693 0.1937 0.036 Uiso 1 1 calc R U
C19 C 0.0099(4) 0.5741(2) 0.2527(2) 0.0300(5) Uani 1 1 d . .
H19 H 0.0089 0.6629 0.2400 0.036 Uiso 1 1 calc R U
C20 C 0.1848(4) 0.5008(2) 0.2978(2) 0.0272(4) Uani 1 1 d . .
H20 H 0.3059 0.5396 0.3143 0.033 Uiso 1 1 calc R U
C21 C 0.1839(3) 0.3712(2) 0.31907(19) 0.0243(4) Uani 1 1 d . .
H21 H 0.3046 0.3213 0.3507 0.029 Uiso 1 1 calc R U
C22 C 0.3618(3) -0.43418(19) 0.96701(18) 0.0213(4) Uani 1 1 d . .
H22A H 0.2187 -0.4669 1.0218 0.026 Uiso 1 1 calc R U
H22B H 0.4279 -0.3711 0.9933 0.026 Uiso 1 1 calc R U
C23 C 0.5137(3) -0.54443(17) 0.97869(16) 0.0175(4) Uani 1 1 d . .
C24 C 0.4384(3) -0.67247(18) 1.04202(18) 0.0190(4) Uani 1 1 d . .
H24 H 0.2871 -0.6918 1.0770 0.023 Uiso 1 1 calc R U
C25 C 0.5838(3) -0.77234(19) 1.05442(19) 0.0226(4) Uani 1 1 d . .
H25 H 0.5320 -0.8595 1.0987 0.027 Uiso 1 1 calc R U
C26 C 0.8032(3) -0.7446(2) 1.0024(2) 0.0247(4) Uani 1 1 d . .
H26 H 0.9024 -0.8128 1.0113 0.030 Uiso 1 1 calc R U
C27 C 0.8792(3) -0.6170(2) 0.93689(19) 0.0243(4) Uani 1 1 d . .
H27 H 1.0298 -0.5982 0.9000 0.029 Uiso 1 1 calc R U
C28 C 0.7357(3) -0.51763(19) 0.92547(18) 0.0219(4) Uani 1 1 d . .
H28 H 0.7883 -0.4306 0.8812 0.026 Uiso 1 1 calc R U
C29 C 0.3436(3) 0.11643(17) 0.62733(17) 0.0161(3) Uani 1 1 d . .
H29 H 0.2203 0.1710 0.5914 0.019 Uiso 1 1 calc R U
C30 C 0.5618(3) 0.18964(19) 0.56962(18) 0.0203(4) Uani 1 1 d . .
H30A H 0.5810 0.2175 0.4773 0.024 Uiso 1 1 calc R U
H30B H 0.6835 0.1325 0.6005 0.024 Uiso 1 1 calc R U
C31 C 0.5711(4) 0.3076(2) 0.6034(2) 0.0274(4) Uani 1 1 d . .
H31A H 0.7199 0.3500 0.5725 0.033 Uiso 1 1 calc R U
H31B H 0.4628 0.3704 0.5628 0.033 Uiso 1 1 calc R U
C32 C 0.5190(4) 0.2664(2) 0.7452(2) 0.0328(5) Uani 1 1 d . .
H32A H 0.6407 0.2154 0.7848 0.039 Uiso 1 1 calc R U
H32B H 0.5057 0.3439 0.7664 0.039 Uiso 1 1 calc R U
C33 C 0.3042(4) 0.1856(2) 0.7959(2) 0.0313(5) Uani 1 1 d . .
H33A H 0.2771 0.1553 0.8885 0.038 Uiso 1 1 calc R U
H33B H 0.1807 0.2401 0.7632 0.038 Uiso 1 1 calc R U
loop_
_atom_site_aniso_label
_atom_site_aniso_U_11
_atom_site_aniso_U_22
_atom_site_aniso_U_33
_atom_site_aniso_U_23
_atom_site_aniso_U_13
_atom_site_aniso_U_12
O1 0.0277(7) 0.0173(7) 0.0152(6) -0.0020(5) -0.0080(5) -0.0048(5)
O2 0.0611(11) 0.0245(8) 0.0273(8) -0.0163(6) -0.0229(8) 0.0215(7)
O3 0.0200(6) 0.0203(6) 0.0143(6) -0.0055(5) -0.0061(5) -0.0009(5)
O4 0.0222(6) 0.0130(6) 0.0120(6) -0.0027(5) -0.0039(5) 0.0037(5)
O5 0.0139(6) 0.0152(6) 0.0198(6) -0.0072(5) -0.0027(5) 0.0006(5)
O6 0.0319(8) 0.0164(6) 0.0149(6) -0.0053(5) -0.0095(5) 0.0072(5)
O7 0.0287(7) 0.0240(7) 0.0152(6) -0.0082(6) -0.0026(5) -0.0038(6)
C1 0.0340(11) 0.0158(9) 0.0188(9) -0.0040(7) -0.0107(8) -0.0020(8)
C6 0.0266(9) 0.0145(8) 0.0164(9) -0.0050(7) -0.0075(7) 0.0033(7)
C2 0.0182(8) 0.0160(8) 0.0136(8) -0.0042(7) -0.0031(6) -0.0005(6)
C3 0.0172(8) 0.0124(8) 0.0127(8) -0.0041(6) -0.0025(6) 0.0027(6)
C4 0.0142(8) 0.0141(8) 0.0134(8) -0.0039(6) -0.0023(6) -0.0004(6)
C5 0.0207(9) 0.0129(8) 0.0146(8) -0.0046(7) -0.0047(7) 0.0013(6)
C7 0.132(3) 0.0303(14) 0.0520(18) -0.0267(13) -0.059(2) 0.0437(17)
C8 0.0182(9) 0.0364(11) 0.0188(9) -0.0090(8) -0.0049(7) -0.0025(8)
C9 0.0186(9) 0.0168(9) 0.0194(9) -0.0065(7) -0.0063(7) 0.0037(7)
C10 0.0181(9) 0.0220(10) 0.0249(10) -0.0104(8) -0.0057(7) 0.0013(7)
C11 0.0225(9) 0.0283(11) 0.0292(11) -0.0143(9) -0.0121(8) 0.0013(8)
C12 0.0298(11) 0.0272(10) 0.0208(10) -0.0124(8) -0.0099(8) 0.0026(8)
C13 0.0222(9) 0.0210(9) 0.0206(9) -0.0073(7) -0.0037(7) 0.0002(7)
C14 0.0163(8) 0.0192(9) 0.0211(9) -0.0075(7) -0.0066(7) 0.0024(7)
C15 0.0650(16) 0.0161(10) 0.0160(10) -0.0032(8) -0.0117(10) 0.0037(10)
C16 0.0340(11) 0.0161(9) 0.0125(8) -0.0026(7) -0.0034(7) 0.0024(7)
C17 0.0231(10) 0.0333(11) 0.0176(9) -0.0059(8) -0.0023(7) -0.0057(8)
C18 0.0276(11) 0.0316(11) 0.0227(10) -0.0024(9) -0.0022(8) 0.0134(9)
C19 0.0446(13) 0.0170(9) 0.0239(10) -0.0063(8) 0.0037(9) 0.0030(9)
C20 0.0311(11) 0.0277(11) 0.0222(10) -0.0092(8) -0.0026(8) -0.0061(8)
C21 0.0261(10) 0.0274(10) 0.0182(9) -0.0067(8) -0.0066(8) 0.0064(8)
C22 0.0310(10) 0.0182(9) 0.0140(8) -0.0040(7) -0.0082(7) 0.0073(8)
C23 0.0233(9) 0.0170(9) 0.0126(8) -0.0047(7) -0.0065(7) 0.0027(7)
C24 0.0195(9) 0.0182(9) 0.0165(8) -0.0035(7) -0.0026(7) -0.0007(7)
C25 0.0285(10) 0.0164(9) 0.0218(9) -0.0050(7) -0.0068(8) 0.0009(7)
C26 0.0252(10) 0.0258(10) 0.0267(10) -0.0125(8) -0.0095(8) 0.0090(8)
C27 0.0175(9) 0.0323(11) 0.0223(9) -0.0096(8) -0.0027(7) -0.0008(8)
C28 0.0256(10) 0.0199(9) 0.0177(9) -0.0036(7) -0.0052(7) -0.0044(7)
C29 0.0169(8) 0.0157(8) 0.0168(8) -0.0070(7) -0.0038(6) 0.0013(6)
C30 0.0185(9) 0.0203(9) 0.0208(9) -0.0073(7) -0.0005(7) -0.0021(7)
C31 0.0279(10) 0.0229(10) 0.0316(11) -0.0107(9) -0.0029(8) -0.0075(8)
C32 0.0411(13) 0.0324(12) 0.0321(12) -0.0195(10) -0.0056(10) -0.0079(10)
C33 0.0373(12) 0.0364(12) 0.0263(11) -0.0206(10) 0.0007(9) -0.0048(9)
loop_
_atom_type_symbol
_atom_type_description
_atom_type_scat_dispersion_real
_atom_type_scat_dispersion_imag
_atom_type_scat_source
C C 0.0033 0.0016 'International Tables Vol C Tables 4.2.6.8 and 6.1.1.4'
H H 0.0000 0.0000 'International Tables Vol C Tables 4.2.6.8 and 6.1.1.4'
O O 0.0106 0.0060 'International Tables Vol C Tables 4.2.6.8 and 6.1.1.4'
loop_
_geom_angle_atom_site_label_1
_geom_angle_atom_site_label_2
_geom_angle_atom_site_label_3
_geom_angle
C1 O1 C5 113.18(14)
C1 O2 C7 110.9(2)
C8 O3 C2 113.60(14)
C15 O4 C3 117.15(14)
C29 O5 C4 115.89(13)
C6 O6 C22 111.85(14)
C29 O7 C33 110.74(15)
O2 C1 O1 112.53(17)
O2 C1 C2 108.43(16)
O1 C1 C2 109.98(15)
O6 C6 C5 106.43(15)
O3 C2 C3 106.51(14)
O3 C2 C1 112.20(15)
C3 C2 C1 111.95(15)
O4 C3 C2 112.19(14)
O4 C3 C4 105.27(14)
C2 C3 C4 112.36(14)
O5 C4 C5 107.77(13)
O5 C4 C3 108.69(14)
C5 C4 C3 109.96(14)
O1 C5 C6 106.20(14)
O1 C5 C4 107.89(14)
C6 C5 C4 114.91(14)
O3 C8 C9 109.86(16)
C14 C9 C10 119.16(17)
C14 C9 C8 121.67(16)
C10 C9 C8 119.11(17)
C11 C10 C9 120.18(18)
C12 C11 C10 120.34(18)
C13 C12 C11 119.78(19)
C12 C13 C14 120.01(18)
C13 C14 C9 120.51(17)
O4 C15 C16 107.28(16)
C21 C16 C17 118.60(19)
C21 C16 C15 121.27(19)
C17 C16 C15 120.1(2)
C16 C17 C18 120.1(2)
C19 C18 C17 120.1(2)
C18 C19 C20 120.0(2)
C21 C20 C19 120.0(2)
C20 C21 C16 121.24(19)
O6 C22 C23 108.67(15)
C24 C23 C28 119.14(17)
C24 C23 C22 121.57(17)
C28 C23 C22 119.29(17)
C23 C24 C25 120.33(18)
C26 C25 C24 119.99(19)
C25 C26 C27 120.11(19)
C28 C27 C26 120.02(19)
C27 C28 C23 120.39(18)
O5 C29 O7 107.45(14)
O5 C29 C30 107.70(15)
O7 C29 C30 111.03(15)
C29 C30 C31 110.29(16)
C32 C31 C30 109.69(17)
C33 C32 C31 110.16(18)
O7 C33 C32 111.96(18)
loop_
_geom_bond_atom_site_label_1
_geom_bond_atom_site_label_2
_geom_bond_distance
O1 C1 1.410(2)
O1 C5 1.434(2)
O2 C1 1.395(3)
O2 C7 1.440(3)
O3 C8 1.417(2)
O3 C2 1.426(2)
O4 C15 1.422(2)
O4 C3 1.426(2)
O5 C29 1.399(2)
O5 C4 1.431(2)
O6 C6 1.427(2)
O6 C22 1.432(2)
O7 C29 1.431(2)
O7 C33 1.436(3)
C1 C2 1.535(2)
C6 C5 1.516(2)
C2 C3 1.531(2)
C3 C4 1.533(2)
C4 C5 1.519(2)
C8 C9 1.508(3)
C9 C14 1.394(3)
C9 C10 1.397(3)
C10 C11 1.391(3)
C11 C12 1.389(3)
C12 C13 1.388(3)
C13 C14 1.393(3)
C15 C16 1.512(3)
C16 C21 1.386(3)
C16 C17 1.393(3)
C17 C18 1.398(3)
C18 C19 1.378(4)
C19 C20 1.379(3)
C20 C21 1.379(3)
C22 C23 1.507(3)
C23 C24 1.392(3)
C23 C28 1.397(3)
C24 C25 1.393(3)
C25 C26 1.380(3)
C26 C27 1.391(3)
C27 C28 1.383(3)
C29 C30 1.509(3)
C30 C31 1.525(3)
C31 C32 1.523(3)
C32 C33 1.523(3)
