#------------------------------------------------------------------------------
#$Date: 2019-11-22 21:40:40 +0200 (Fri, 22 Nov 2019) $
#$Revision: 231367 $
#$URL: file:///home/coder/svn-repositories/cod/cif/4/51/65/4516530.cif $
#------------------------------------------------------------------------------
#
# This file is available in the Crystallography Open Database (COD),
# http://www.crystallography.net/
#
# All data on this site have been placed in the public domain by the
# contributors.
#
data_4516530
loop_
_publ_author_name
'Kataeva, Olga'
'Khrizanforov, Mikhail'
'Budnikova, Yulia'
'Islamov, Daut'
'Burganov, Timur'
'Vandyukov, Alexander'
'Lyssenko, Konstantin'
'Mahns, Benjamin'
'Nohr, Markus'
'Hampel, Silke'
'Knupfer, Martin'
_publ_section_title
;
 Crystal Growth, Dynamic and Charge Transfer Properties of New Coronene
 Charge Transfer Complexes
;
_journal_issue                   1
_journal_name_full               'Crystal Growth &amp; Design'
_journal_page_first              331
_journal_paper_doi               10.1021/acs.cgd.5b01301
_journal_volume                  16
_journal_year                    2015
_chemical_formula_moiety         'C24 H12'
_chemical_formula_sum            'C24 H12'
_chemical_formula_weight         300.34
_chemical_name_common            Coronene
_space_group_crystal_system      monoclinic
_space_group_IT_number           14
_space_group_name_Hall           '-P 2yn'
_space_group_name_H-M_alt        'P 1 21/n 1'
_symmetry_cell_setting           monoclinic
_symmetry_Int_Tables_number      14
_symmetry_space_group_name_H-M   'P 1 21/n 1'
_atom_sites_solution_hydrogens   geom
_audit_creation_method           SHELXL-2013
_cell_angle_alpha                90
_cell_angle_beta                 106.576(3)
_cell_angle_gamma                90
_cell_formula_units_Z            2
_cell_length_a                   10.0086(4)
_cell_length_b                   4.6651(2)
_cell_length_c                   15.5437(6)
_cell_measurement_reflns_used    3517
_cell_measurement_temperature    100(2)
_cell_measurement_theta_max      67.36
_cell_measurement_theta_min      4.72
_cell_volume                     695.59(5)
_computing_cell_refinement       'APEX2  v2, 1-4  (Bruker AXS, 2005-2007)'
_computing_data_collection       'APEX2  v2, 1-4  (Bruker AXS, 2005-2007)'
_computing_data_reduction        'SAINT NT v6.0 (Bruker AXS, 2003)'
_computing_molecular_graphics    'ORTEP-3 for Windows (Farrugia, 1997)'
_computing_publication_material
'WinGX (Farrugia 1999), enCIFer (Allen et al. 2004)'
_computing_structure_refinement
'SHELXL-97 (Sheldrick, 1997), WinGX (Farrugia 1999), PLATON (Spek 2005)'
_computing_structure_solution    'SHELXS-97 (Sheldrick, 2008)'
_diffrn_ambient_temperature      100(2)
_diffrn_measured_fraction_theta_full 0.974
_diffrn_measured_fraction_theta_max 0.991
_diffrn_measurement_device_type  'Bruker Kappa APEX DUO CCD'
_diffrn_measurement_method       '\f and \w scans'
_diffrn_radiation_probe          x-ray
_diffrn_radiation_type           CuK\a
_diffrn_radiation_wavelength     1.54178
_diffrn_reflns_av_R_equivalents  0.0354
_diffrn_reflns_av_unetI/netI     0.0165
_diffrn_reflns_Laue_measured_fraction_full 0.974
_diffrn_reflns_Laue_measured_fraction_max 0.991
_diffrn_reflns_limit_h_max       11
_diffrn_reflns_limit_h_min       -11
_diffrn_reflns_limit_k_max       5
_diffrn_reflns_limit_k_min       -5
_diffrn_reflns_limit_l_max       18
_diffrn_reflns_limit_l_min       -18
_diffrn_reflns_number            14036
_diffrn_reflns_point_group_measured_fraction_full 0.974
_diffrn_reflns_point_group_measured_fraction_max 0.991
_diffrn_reflns_theta_full        67.679
_diffrn_reflns_theta_max         66.876
_diffrn_reflns_theta_min         4.717
_diffrn_source                   'microfocus tube'
_exptl_absorpt_coefficient_mu    0.623
_exptl_absorpt_correction_T_max  0.9822
_exptl_absorpt_correction_T_min  0.8675
_exptl_absorpt_correction_type   multi-scan
_exptl_absorpt_process_details
'SADABS version 2.10 (Sheldrick,Bruker AXS Inc.)'
_exptl_crystal_colour            colorless
_exptl_crystal_density_diffrn    1.434
_exptl_crystal_description       needle
_exptl_crystal_F_000             312
_exptl_crystal_size_max          0.235
_exptl_crystal_size_mid          0.083
_exptl_crystal_size_min          0.029
_refine_diff_density_max         0.141
_refine_diff_density_min         -0.183
_refine_diff_density_rms         0.046
_refine_ls_extinction_method     none
_refine_ls_goodness_of_fit_ref   1.131
_refine_ls_hydrogen_treatment    constr
_refine_ls_matrix_type           full
_refine_ls_number_parameters     109
_refine_ls_number_reflns         1233
_refine_ls_number_restraints     0
_refine_ls_restrained_S_all      1.131
_refine_ls_R_factor_all          0.0573
_refine_ls_R_factor_gt           0.0454
_refine_ls_shift/su_max          0.000
_refine_ls_shift/su_mean         0.000
_refine_ls_structure_factor_coef Fsqd
_refine_ls_weighting_details
'w=1/[\s^2^(Fo^2^)+(0.0477P)^2^+0.6584P] where P=(Fo^2^+2Fc^2^)/3'
_refine_ls_weighting_scheme      calc
_refine_ls_wR_factor_gt          0.1272
_refine_ls_wR_factor_ref         0.1340
_reflns_Friedel_coverage         0.000
_reflns_number_gt                976
_reflns_number_total             1233
_reflns_threshold_expression     'I > 2\s(I)'
_cod_data_source_file            cg5b01301_si_002.cif
_cod_data_source_block           martin137_100K
_cod_original_sg_symbol_H-M      'P 21/n'
_cod_database_code               4516530
_shelx_space_group_comment
;
The symmetry employed for this shelxl refinement is uniquely defined
by the following loop, which should always be used as a source of
symmetry information in preference to the above space-group names.
They are only intended as comments.
;
_shelx_estimated_absorpt_t_min   0.867
_shelx_estimated_absorpt_t_max   0.982
_shelxl_version_number           2013-4
_shelx_res_file
;
TITL martin137_100K in P2(1)/n
CELL 1.54178  10.00860   4.66510  15.54370  90.0000 106.5764  90.0000
ZERR    2.00   0.00040   0.00020   0.00060   0.0000   0.0027   0.0000
LATT 1
SYMM 0.5-X, 0.5+Y, 0.5-Z
SFAC C  H
UNIT 48  24
OMIT -3 134
L.S. 14
ACTA
BOND $H
FMAP 2
PLAN 20
SIZE 0.029 0.083 0.235
TEMP -173.000
WGHT    0.047700    0.658400
FVAR       0.28626
PART 1
MOLE 1
C1    1    0.292849    1.489716    1.113229    11.00000    0.02400    0.02434 =
         0.02654    0.00362   -0.00129   -0.00214
AFIX  43
H1    2    0.346834    1.628160    1.153129    11.00000   -1.20000
AFIX   0
C2    1    0.345228    1.366160    1.050617    11.00000    0.01835    0.02751 =
         0.03166    0.00628    0.00307   -0.00257
AFIX  43
H2    2    0.435898    1.418219    1.048294    11.00000   -1.20000
AFIX   0
C3    1    0.318382    1.035887    0.920392    11.00000    0.02247    0.02856 =
         0.03342    0.00654    0.01010   -0.00034
AFIX  43
H3    2    0.407014    1.091398    0.915088    11.00000   -1.20000
AFIX   0
C4    1    0.241906    0.837474    0.862475    11.00000    0.02700    0.02798 =
         0.02756    0.00417    0.01087    0.00505
AFIX  43
H4    2    0.278793    0.756004    0.818071    11.00000   -1.20000
AFIX   0
C5    1    0.026443    0.542405    0.808173    11.00000    0.03028    0.02589 =
         0.02249    0.00036    0.00572    0.00500
AFIX  43
H5    2    0.061493    0.458014    0.763367    11.00000   -1.20000
AFIX   0
C6    1   -0.101160    0.462281    0.814724    11.00000    0.02758    0.02304 =
         0.02406    0.00092   -0.00014    0.00054
AFIX  43
H6    2   -0.153053    0.321417    0.774820    11.00000   -1.20000
AFIX   0
C7    1    0.268109    1.161463    0.988614    11.00000    0.01979    0.02274 =
         0.02743    0.00633    0.00432    0.00132
C8    1    0.108063    0.750061    0.867202    11.00000    0.02412    0.02247 =
         0.02459    0.00432    0.00550    0.00390
C9    1   -0.158012    0.585235    0.880013    11.00000    0.02389    0.02135 =
         0.02410    0.00473    0.00197    0.00216
C10   1    0.134504    1.080949    0.993977    11.00000    0.02147    0.02003 =
         0.02182    0.00470    0.00297    0.00064
C11   1    0.054528    0.874631    0.933396    11.00000    0.02145    0.01923 =
         0.02263    0.00618    0.00381    0.00356
C12   1   -0.079628    0.792780    0.939673    11.00000    0.01967    0.01971 =
         0.02150    0.00604    0.00196    0.00292
PART
HKLF 4

REM  martin137_100K in P2(1)/n
REM R1 =  0.0454 for     976 Fo > 4sig(Fo)  and  0.0573 for all    1233 data
REM    109 parameters refined using      0 restraints

END

WGHT      0.0477      0.6580

REM Highest difference peak  0.141,  deepest hole -0.183,  1-sigma level  0.046
Q1    1   0.3918  1.1547  1.1257  11.00000  0.05    0.14
Q2    1   0.4603  1.1166  0.9638  11.00000  0.05    0.14
Q3    1   0.0964  0.7439  0.9174  11.00000  0.05    0.14
Q4    1  -0.1094  0.9302  0.9590  11.00000  0.05    0.13
Q5    1   0.5152  1.6202  1.1535  11.00000  0.05    0.13
Q6    1   0.1410  0.4437  0.7629  11.00000  0.05    0.13
Q7    1   0.0944  1.2171  1.0094  11.00000  0.05    0.13
Q8    1   0.0375  0.4066  0.6597  11.00000  0.05    0.13
Q9    1   0.2557  0.9423  1.0646  11.00000  0.05    0.13
Q10   1   0.2366  1.3465  0.8846  11.00000  0.05    0.12
Q11   1  -0.1354  0.7594  0.8984  11.00000  0.05    0.12
Q12   1  -0.2024  0.4367  0.7193  11.00000  0.05    0.12
Q13   1   0.4894  1.4206  1.1017  11.00000  0.05    0.12
Q14   1  -0.1400  0.0703  0.7461  11.00000  0.05    0.12
Q15   1  -0.0748  0.5481  0.6791  11.00000  0.05    0.12
Q16   1  -0.0359  0.1488  0.8655  11.00000  0.05    0.11
Q17   1  -0.0759 -0.0491  0.8149  11.00000  0.05    0.11
Q18   1  -0.0091  0.8274  0.9390  11.00000  0.05    0.11
Q19   1   0.3818  1.4676  0.9785  11.00000  0.05    0.11
Q20   1   0.0716  1.0488  0.9467  11.00000  0.05    0.11
;
_shelx_res_checksum              3031
_shelx_hkl_file
;
   1   0   0   -0.23    0.09
   1   0   0   -0.23    0.07
   1   0   0   -0.11    0.08
  -1   0   0   -0.25    0.07
   1   0   0   -0.14    0.06
  -1   0   0   -0.33    0.09
   2   0   0   69.69    3.22
   2   0   0   73.58    1.93
   2   0   0   74.48    1.90
  -2   0   0   74.28    1.93
  -2   0   0   72.36    1.89
   3   0   0    0.09    0.15
  -3   0   0    0.03    0.15
  -3   0   0    0.14    0.15
   3   0   0    0.05    0.19
   3   0   0    0.12    0.19
  -4   0   0   36.31    1.29
   4   0   0   36.33    1.03
   4   0   0   35.44    1.13
   4   0   0   36.39    1.04
   4   0   0   36.52    1.08
   5   0   0   -0.04    0.25
  -5   0   0    0.17    0.32
  -5   0   0    0.05    0.18
   5   0   0    0.09    0.17
   5   0   0   -0.05    0.18
  -5   0   0    0.12    0.27
   5   0   0    0.24    0.25
   5   0   0    0.17    0.21
  -5   0   0   -0.31    0.22
   6   0   0    7.14    0.42
   6   0   0    7.64    0.53
   6   0   0    6.92    0.45
  -6   0   0    6.64    0.52
  -6   0   0    7.01    0.59
   6   0   0    7.26    0.38
   6   0   0    7.97    0.59
  -6   0   0    7.88    0.54
   7   0   0    0.10    0.26
   7   0   0   -0.03    0.21
   7   0   0    0.11    0.25
  -7   0   0    0.63    0.48
   7   0   0   -0.37    0.28
  -7   0   0    0.41    0.30
   7   0   0    0.23    0.19
   7   0   0    0.15    0.36
   8   0   0    0.64    0.38
   8   0   0    0.41    0.40
  -8   0   0    0.51    0.52
   8   0   0    0.34    0.26
   8   0   0    0.17    0.23
  -8   0   0    0.17    0.41
  -8   0   0    0.24    0.24
   8   0   0    0.05    0.24
   8   0   0    0.39    0.30
   8   0   0    0.34    0.25
   9   0   0    0.09    0.25
   9   0   0    0.33    0.50
   9   0   0   -0.34    0.38
  -9   0   0   -0.44    0.41
   9   0   0   -0.22    0.39
  -9   0   0   -0.06    0.41
  -9   0   0   -0.12    0.25
   9   0   0   -0.39    0.31
   9   0   0    0.14    0.29
  10   0   0    2.72    0.37
  10   0   0    4.42    0.44
  10   0   0    3.66    0.31
  10   0   0    3.36    0.34
 -10   0   0    2.91    0.32
  11   0   0    0.07    0.24
 -11   0   0   -0.23    0.23
  11   0   0    0.12    0.16
  11   0   0    0.22    0.21
   0  -1   0    0.02    0.13
   0  -1   0    0.04    0.14
   0  -1   0   -0.06    0.12
   0   1   0   -0.26    0.11
   0   1   0    0.04    0.26
   0   1   0    0.01    0.10
  -1  -1   0    9.26    0.35
   1  -1   0    9.60    0.37
   1  -1   0    9.49    0.40
  -1  -1   0    9.31    0.42
  -1   1   0    9.06    0.55
   1   1   0   10.99    0.66
  -1   1   0    9.65    0.40
   2  -1   0   30.25    0.89
  -2  -1   0   30.18    0.99
   2  -1   0   31.62    0.91
   2   1   0   32.44    1.50
   2   1   0   30.27    0.99
  -2   1   0   29.60    0.89
  -2   1   0   31.11    0.89
   3  -1   0    2.10    0.23
  -3  -1   0    1.94    0.20
   3  -1   0    1.82    0.23
  -3   1   0    1.65    0.24
  -3   1   0    1.91    0.22
   3   1   0    2.13    0.36
  -3   1   0    1.76    0.24
   4  -1   0    0.32    0.21
   4  -1   0    0.04    0.22
   4  -1   0    0.32    0.18
   4  -1   0   -0.07    0.16
   4  -1   0    0.29    0.22
  -4  -1   0    0.49    0.20
   4  -1   0    0.12    0.26
  -4   1   0    0.14    0.23
   4   1   0    0.27    0.32
   4   1   0   -0.13    0.24
  -4   1   0    0.26    0.34
  -4   1   0   -0.12    0.28
  -4   1   0    0.68    0.21
   4   1   0    0.32    0.26
  -4   1   0   -0.01    0.21
   4   1   0    0.33    0.21
  -4   1   0    0.12    0.29
   5  -1   0    1.69    0.31
   5  -1   0    1.66    0.24
  -5  -1   0    1.38    0.30
   5  -1   0    1.83    0.29
   5  -1   0    1.28    0.23
  -5  -1   0    1.89    0.26
   5  -1   0    1.36    0.26
  -5   1   0    1.49    0.31
  -5   1   0    1.50    0.40
   5   1   0    1.95    0.27
   5   1   0    1.63    0.29
  -5   1   0    1.71    0.27
   5   1   0    1.48    0.33
   5   1   0    1.94    0.33
  -5   1   0    1.61    0.33
   6  -1   0    5.07    0.43
  -6  -1   0    5.20    0.39
   6  -1   0    4.86    0.33
  -6  -1   0    5.37    0.44
   6  -1   0    5.88    0.40
  -6  -1   0    5.81    0.46
   6  -1   0    4.62    0.34
   6   1   0    5.53    0.49
   6   1   0    5.31    0.36
  -6   1   0    5.31    0.53
  -6   1   0    5.05    0.37
   6   1   0    5.60    0.40
  -6   1   0    5.50    0.42
  -6   1   0    4.88    0.42
   7  -1   0    1.19    0.41
  -7  -1   0    1.43    0.37
  -7  -1   0    1.64    0.48
   7  -1   0    1.44    0.30
  -7  -1   0    1.16    0.32
   7  -1   0    0.98    0.28
   7  -1   0    0.95    0.27
   7  -1   0    0.88    0.25
   7  -1   0    1.69    0.27
  -7   1   0    1.07    0.37
   7   1   0    1.48    0.26
   7   1   0    1.90    0.45
  -7   1   0    1.30    0.27
  -7   1   0    0.97    0.46
  -7   1   0    0.96    0.31
  -7   1   0    0.94    0.33
   7   1   0    2.20    0.34
   7   1   0    1.14    0.22
   7   1   0    1.55    0.38
  -7   1   0    1.82    0.27
   7   1   0    1.85    0.30
  -8  -1   0    0.79    0.49
   8  -1   0    0.68    0.26
  -8  -1   0    1.48    0.47
   8  -1   0    0.40    0.29
   8  -1   0    0.82    0.25
   8  -1   0    1.69    0.44
   8  -1   0    1.01    0.36
   8  -1   0    0.73    0.31
   8  -1   0    0.95    0.39
  -8   1   0    0.55    0.41
   8   1   0    1.31    0.25
   8   1   0    1.07    0.28
  -8   1   0    0.72    0.29
   8   1   0    1.16    0.30
  -8   1   0    0.90    0.27
   8   1   0    0.97    0.50
  -8   1   0    1.14    0.32
   8   1   0    1.75    0.40
   9  -1   0    1.32    0.41
   9  -1   0    1.23    0.34
   9  -1   0    0.68    0.41
   9  -1   0    1.25    0.29
  -9  -1   0    0.60    0.42
   9  -1   0    1.88    0.30
   9   1   0    1.12    0.31
   9   1   0    1.64    0.40
  -9   1   0    0.64    0.42
  -9   1   0    1.60    0.28
   9   1   0    0.85    0.30
  -9   1   0    1.36    0.33
   9   1   0    1.00    0.54
  -9   1   0    0.95    0.36
  10  -1   0    5.62    0.43
  10  -1   0    5.79    0.48
  10  -1   0    5.59    0.41
  10  -1   0    5.05    0.37
 -10   1   0    5.21    0.33
  10   1   0    6.57    0.51
 -10   1   0    5.66    0.39
  10   1   0    6.21    0.45
 -11  -1   0    7.78    0.40
  11  -1   0    6.76    0.37
  11  -1   0    7.85    0.48
  11  -1   0    7.67    0.44
  11  -1   0    5.84    0.35
  11   1   0    8.11    0.42
 -11   1   0    8.44    0.44
   0  -2   0   37.89    1.22
   0  -2   0   40.22    1.27
   0   2   0   39.09    1.07
   0   2   0   37.60    1.39
   0   2   0   39.59    1.07
   0   2   0   37.41    1.45
   0   2   0   39.05    1.86
  -1  -2   0    0.21    0.20
   1  -2   0    0.36    0.16
   1  -2   0    0.26    0.21
  -1  -2   0    0.70    0.19
   1  -2   0    0.20    0.23
   1  -2   0    0.45    0.23
   1   2   0    0.32    0.29
  -1   2   0   -0.28    0.30
   1   2   0    0.22    0.29
   1   2   0    0.28    0.39
  -1   2   0   -0.02    0.20
  -1   2   0    0.24    0.18
  -1   2   0    0.20    0.20
  -1   2   0    0.19    0.29
   2  -2   0   -0.30    0.25
   2  -2   0    0.06    0.20
   2  -2   0   -0.25    0.23
  -2  -2   0   -0.34    0.17
   2  -2   0    0.08    0.17
   2  -2   0   -0.06    0.18
   2   2   0    0.22    0.27
  -2   2   0    0.39    0.28
  -2   2   0    0.07    0.23
   2   2   0   -0.06    0.19
   2   2   0    0.03    0.27
  -2   2   0    0.25    0.23
  -2   2   0    0.30    0.19
  -2   2   0    0.25    0.27
   2   2   0    0.10    0.40
   3  -2   0    1.33    0.20
   3  -2   0    0.96    0.26
   3  -2   0    1.06    0.27
   3  -2   0    1.18    0.20
   3  -2   0    1.13    0.24
   3  -2   0    1.22    0.21
  -3  -2   0    1.02    0.22
  -3   2   0    1.33    0.24
  -3   2   0    1.69    0.25
  -3   2   0    1.17    0.27
   3   2   0    1.54    0.22
   3   2   0    1.11    0.31
   3   2   0    1.80    0.42
  -3   2   0    1.92    0.33
   3   2   0    1.51    0.28
  -4  -2   0    0.04    0.22
   4  -2   0    0.05    0.19
   4  -2   0    0.16    0.23
   4  -2   0    0.12    0.24
   4  -2   0   -0.05    0.20
   4  -2   0    0.14    0.28
   4  -2   0    0.39    0.21
  -4   2   0   -0.10    0.28
   4   2   0    0.13    0.25
  -4   2   0   -0.23    0.23
  -4   2   0    0.29    0.34
   4   2   0    0.29    0.32
   4   2   0   -0.03    0.36
  -4   2   0    0.03    0.23
   5  -2   0    0.11    0.25
   5  -2   0    0.62    0.34
   5  -2   0   -0.06    0.27
   5  -2   0    0.07    0.22
   5  -2   0    0.33    0.24
  -5   2   0   -0.27    0.30
  -5   2   0    0.32    0.37
   5   2   0   -0.27    0.35
  -5   2   0   -0.42    0.26
   6  -2   0   29.15    1.05
   6  -2   0   30.99    1.14
   6  -2   0   31.29    1.03
   6  -2   0   32.88    1.09
   6  -2   0   33.43    1.10
  -6   2   0   31.96    1.35
   6   2   0   31.45    1.09
  -6   2   0   33.33    1.19
  -6   2   0   30.58    1.04
  -6   2   0   31.20    0.99
  -6   2   0   31.83    1.09
   6   2   0   30.94    1.33
   7  -2   0    7.42    0.52
   7  -2   0    6.12    0.52
   7  -2   0    8.26    0.58
   7  -2   0    8.37    0.48
   7  -2   0    8.16    0.54
  -7   2   0    6.92    0.55
  -7   2   0    6.72    0.48
  -7   2   0    6.93    0.54
   7   2   0    7.50    0.51
  -7   2   0    6.09    0.56
  -7   2   0    6.95    0.49
   7   2   0    6.50    0.62
   7   2   0    8.07    0.45
   8  -2   0    3.50    0.36
   8  -2   0    3.40    0.45
   8  -2   0    3.77    0.37
   8  -2   0    2.95    0.31
   8  -2   0    2.99    0.43
   8  -2   0    3.37    0.40
  -8   2   0    2.42    0.40
  -8   2   0    2.61    0.44
  -8   2   0    3.40    0.38
   8   2   0    3.40    0.32
   8   2   0    2.70    0.55
  -8   2   0    3.25    0.31
  -8   2   0    3.94    0.37
   9  -2   0    3.85    0.35
   9  -2   0    3.86    0.39
   9  -2   0    3.50    0.29
   9  -2   0    3.74    0.45
  -9   2   0    4.04    0.35
  -9   2   0    3.72    0.31
   9   2   0    3.72    0.32
  10  -2   0    0.51    0.24
  10  -2   0    0.65    0.22
  10  -2   0    0.62    0.34
  10  -2   0    0.49    0.17
 -10   2   0    0.75    0.27
  10   2   0    0.71    0.22
 -10   2   0    0.92    0.22
   0  -3   0    0.40    0.26
   0  -3   0   -0.09    0.26
   0   3   0    0.02    0.23
   0   3   0    0.36    0.22
   0   3   0    0.74    0.38
   0   3   0    0.23    0.26
   0   3   0    0.05    0.17
   0   3   0    0.20    0.22
   0   3   0    0.31    0.15
  -1  -3   0   46.95    1.55
   1  -3   0   48.76    1.46
  -1  -3   0   48.16    1.49
   1  -3   0   47.83    1.51
   1   3   0   44.90    1.42
  -1   3   0   46.49    1.31
   1   3   0   45.72    1.69
  -1   3   0   45.69    1.49
   1   3   0   45.36    1.42
  -1   3   0   45.87    1.31
   1   3   0   46.32    1.39
  -1   3   0   45.35    1.76
  -1   3   0   43.90    1.42
  -1   3   0   44.74    1.43
   1   3   0   49.44    1.79
  -1   3   0   44.87    1.39
   1   3   0   46.26    1.31
  -1   3   0   45.39    1.32
  -1   3   0   47.44    1.84
   2  -3   0   -0.39    0.24
  -2  -3   0    0.38    0.26
  -2  -3   0   -0.05    0.24
   2  -3   0    0.35    0.21
   2   3   0    0.21    0.20
  -2   3   0    0.40    0.36
  -2   3   0    0.08    0.23
  -2   3   0   -0.16    0.21
  -2   3   0   -0.24    0.28
  -2   3   0    0.16    0.29
  -2   3   0    0.09    0.33
  -2   3   0    0.34    0.26
   2   3   0    0.43    0.36
   2   3   0    0.39    0.24
  -2   3   0   -0.04    0.22
   2   3   0   -0.41    0.35
  -2   3   0    0.03    0.30
   2   3   0   -0.04    0.21
   3  -3   0    0.18    0.26
   3  -3   0   -0.14    0.31
  -3  -3   0    0.36    0.27
  -3  -3   0    1.20    0.28
   3  -3   0    0.11    0.23
  -3   3   0    0.16    0.26
  -3   3   0    0.60    0.27
  -3   3   0    0.45    0.30
  -3   3   0    0.47    0.43
  -3   3   0    0.74    0.27
  -3   3   0    0.15    0.34
  -3   3   0    0.26    0.24
  -3   3   0    0.44    0.24
   3   3   0    0.15    0.35
   3   3   0    1.32    0.39
  -3   3   0    0.06    0.31
   4  -3   0    9.30    0.55
  -4  -3   0    9.01    0.58
  -4  -3   0    9.52    0.60
   4  -3   0    9.11    0.51
   4  -3   0    9.74    0.70
   4  -3   0    9.24    0.57
  -4   3   0    8.94    0.54
  -4   3   0    8.17    0.51
  -4   3   0    8.46    0.54
   4   3   0    8.69    0.49
  -4   3   0    9.29    0.68
   4   3   0    8.82    0.41
  -4   3   0    8.83    0.51
  -4   3   0    8.37    0.46
   4   3   0    9.26    0.76
  -4   3   0    9.54    0.64
  -4   3   0    9.54    0.54
   4   3   0   10.01    0.68
  -4   3   0    9.04    0.58
   5  -3   0    5.49    0.38
   5  -3   0    5.09    0.47
   5  -3   0    5.09    0.45
   5  -3   0    4.95    0.38
   5  -3   0    4.58    0.38
  -5   3   0    4.00    0.47
  -5   3   0    5.17    0.42
   5   3   0    4.50    0.33
  -5   3   0    4.78    0.35
  -5   3   0    4.42    0.33
   5   3   0    4.74    0.52
   5   3   0    4.72    0.34
   6  -3   0   22.24    0.93
   6  -3   0   20.52    0.87
   6  -3   0   21.75    0.84
  -6   3   0   23.45    0.84
  -6   3   0   21.86    0.97
   6   3   0   21.71    0.85
  -6   3   0   22.41    0.86
  -6   3   0   23.16    0.78
   6   3   0   22.79    1.11
   7  -3   0    0.89    0.30
   7  -3   0    1.56    0.33
   7   3   0    0.89    0.26
  -7   3   0    1.13    0.36
   7   3   0    1.12    0.44
  -7   3   0    0.71    0.30
  -7   3   0    0.78    0.50
  -7   3   0    0.92    0.27
  -7   3   0    1.69    0.34
  -7   3   0    1.18    0.29
   8  -3   0    0.26    0.24
   8  -3   0    0.52    0.23
   8  -3   0    0.23    0.29
  -8   3   0    0.47    0.26
  -8   3   0   -0.01    0.23
   9  -3   0    6.54    0.35
   9  -3   0    5.67    0.42
   9  -3   0    5.76    0.34
   9  -3   0    5.91    0.43
  -9   3   0    6.25    0.42
  -9   3   0    6.08    0.35
   0  -4   0    0.56    0.37
   0  -4   0   -0.21    0.29
   0   4   0   -0.15    0.27
   0   4   0   -0.01    0.22
   0   4   0    0.06    0.32
   0   4   0   -0.41    0.47
   0   4   0    0.46    0.26
   0   4   0    0.00    0.29
   0   4   0    0.46    0.37
   0   4   0    0.03    0.30
   0   4   0   -0.21    0.28
   1  -4   0    1.13    0.32
  -1  -4   0    0.82    0.31
  -1  -4   0    0.64    0.33
   1   4   0    0.64    0.30
  -1   4   0    0.98    0.29
  -1   4   0    1.45    0.37
   1   4   0    0.97    0.49
   1   4   0    0.59    0.23
  -1   4   0    0.69    0.32
  -1   4   0    0.75    0.28
   1   4   0    1.33    0.29
   1   4   0    1.05    0.29
   1   4   0    0.51    0.29
  -1   4   0    1.36    0.25
  -1   4   0    0.37    0.34
  -1   4   0    0.93    0.48
  -1   4   0    1.14    0.33
   1   4   0    0.71    0.29
  -1   4   0    1.10    0.27
   1   4   0    0.49    0.31
  -1   4   0    1.28    0.33
   2  -4   0    1.35    0.40
   2  -4   0    1.30    0.31
  -2   4   0    1.37    0.30
  -2   4   0    1.83    0.40
  -2   4   0    1.79    0.35
  -2   4   0    1.22    0.34
  -2   4   0    1.15    0.39
   2   4   0    1.49    0.30
   2   4   0    1.76    0.29
   2   4   0    1.59    0.31
   2   4   0    1.37    0.23
  -2   4   0    1.34    0.34
   2   4   0    1.58    0.30
  -2   4   0    1.40    0.27
   2   4   0    0.82    0.48
  -2   4   0    1.55    0.31
   2   4   0    1.47    0.30
  -2   4   0    1.09    0.26
   3  -4   0    0.94    0.39
   3  -4   0    0.32    0.29
   3  -4   0    0.35    0.35
  -3   4   0    0.48    0.37
  -3   4   0    0.42    0.28
   3   4   0    1.06    0.52
   3   4   0    0.78    0.29
  -3   4   0    0.78    0.27
  -3   4   0    0.57    0.40
  -3   4   0    1.02    0.25
  -3   4   0    0.34    0.34
  -3   4   0    1.09    0.35
   3   4   0    0.71    0.28
  -3   4   0    0.82    0.33
   3   4   0    0.71    0.22
   3   4   0    0.61    0.44
   4  -4   0    0.52    0.28
   4  -4   0    0.96    0.39
   4  -4   0    0.35    0.34
   4  -4   0    0.28    0.34
  -4   4   0    0.63    0.28
   4   4   0    0.81    0.38
  -4   4   0    0.64    0.35
  -4   4   0    0.62    0.34
  -4   4   0    0.44    0.28
  -4   4   0    0.86    0.34
   4   4   0    0.54    0.46
  -4   4   0   -0.03    0.39
  -4   4   0    0.87    0.31
   4   4   0    0.84    0.29
  -4   4   0    0.50    0.26
  -4   4   0    0.22    0.35
   5  -4   0    0.53    0.35
  -5   4   0    0.90    0.27
  -5   4   0    0.57    0.35
  -5   4   0    0.44    0.26
   5   4   0    0.73    0.27
  -5   4   0    0.25    0.30
  -5   4   0    0.71    0.27
   6  -4   0    0.93    0.29
  -6   4   0    1.03    0.33
  -6   4   0    1.37    0.25
  -6   4   0    0.67    0.26
   7  -4   0   -0.02    0.23
  -7   4   0    0.50    0.23
  -7   4   0   -0.24    0.20
   8  -4   0    0.50    0.17
  -8   4   0    0.19    0.16
   0   5   0   -0.50    0.27
   0   5   0    0.15    0.25
   0   5   0   -0.42    0.27
   0   5   0   -0.25    0.25
   0   5   0    0.02    0.32
   0   5   0   -0.02    0.18
  -1   5   0    0.31    0.30
   1   5   0    0.76    0.29
  -1   5   0    0.05    0.28
  -1   5   0    0.35    0.27
  -1   5   0    0.55    0.34
   1   5   0    0.37    0.23
  -1   5   0    0.46    0.27
   1   5   0    0.45    0.19
   1   5   0    0.53    0.25
   1   5   0    0.13    0.30
  -1   5   0    0.62    0.20
   2   5   0   -0.27    0.26
  -2   5   0   -0.11    0.29
   2   5   0    0.29    0.25
   2   5   0    0.30    0.22
  -2   5   0   -0.03    0.19
  -2   5   0   -0.22    0.27
  -2   5   0   -0.09    0.25
  -2   5   0    0.13    0.24
  -2   5   0   -0.50    0.32
   2   5   0    0.34    0.17
  -3   5   0    0.45    0.23
  -3   5   0    0.32    0.25
  -3   5   0    0.17    0.30
  -3   5   0    0.24    0.20
  -3   5   0    0.11    0.25
  -3   5   0    0.49    0.28
   3   5   0   -0.20    0.20
  -4   5   0    0.47    0.21
  -4   5   0    0.66    0.19
  -5   5   0    0.21    0.16
  11   0  -1    0.93    0.27
  11   0  -1    1.04    0.19
  11   0  -1    1.20    0.24
 -11   0   1    1.50    0.26
  10   0  -1    0.07    0.30
 -10   0   1   -0.49    0.23
  10   0  -1    0.16    0.37
  10   0  -1   -0.36    0.27
  10   0  -1   -0.30    0.23
 -10   0   1   -0.35    0.28
   9   0  -1    6.79    0.65
  -9   0   1    7.99    0.77
   9   0  -1    7.75    0.52
  -9   0   1    7.65    0.66
   9   0  -1    7.33    0.48
  -9   0   1    8.24    0.47
   9   0  -1    8.28    0.51
   9   0  -1    6.52    0.56
   9   0  -1    7.67    0.53
   9   0  -1    8.23    0.56
   9   0  -1    7.44    0.60
   8   0  -1   -0.02    0.28
   8   0  -1   -0.31    0.24
   8   0  -1    0.21    0.25
   8   0  -1   -0.04    0.21
  -8   0   1    0.20    0.40
   8   0  -1    0.07    0.23
  -8   0   1   -0.68    0.47
   8   0  -1   -0.17    0.39
  -8   0   1    0.19    0.24
  -7   0   1    1.30    0.40
   7   0  -1    1.91    0.28
   7   0  -1    1.38    0.21
   7   0  -1    1.59    0.30
   7   0  -1    1.02    0.22
  -7   0   1    1.77    0.48
  -7   0   1    0.90    0.31
   7   0  -1    1.86    0.41
  -6   0   1    0.20    0.26
   6   0  -1    0.03    0.22
   6   0  -1    0.01    0.26
   6   0  -1   -0.01    0.18
   6   0  -1    0.43    0.31
   6   0  -1   -0.09    0.22
  -6   0   1    0.36    0.40
  -5   0   1  391.68   11.48
  -5   0   1  408.76   12.40
   5   0  -1  405.32   10.30
  -5   0   1  371.93   10.51
   5   0  -1  394.44   11.00
  -5   0   1  384.82   11.01
   5   0  -1  384.77   10.14
  -5   0   1  389.90   12.09
   5   0  -1  397.04   10.38
  -4   0   1   -0.13    0.15
   4   0  -1    0.10    0.21
   4   0  -1    0.14    0.24
   4   0  -1   -0.12    0.16
   4   0  -1   -0.06    0.24
  -4   0   1    0.30    0.30
  -4   0   1   -0.09    0.19
   3   0  -1   78.85    2.12
   3   0  -1   80.25    2.10
  -3   0   1   78.71    2.07
   3   0  -1   79.67    3.53
  -3   0   1   79.46    2.12
  -2   0   1    0.08    0.12
  -2   0   1   -0.05    0.12
   2   0  -1   -0.16    0.10
  -2   0   1   -0.11    0.13
   2   0  -1   -0.04    0.16
   1   0  -1  272.40    6.97
   1   0  -1  262.95    6.96
  -1   0   1  262.75    7.11
  -1   0   1  280.58    6.96
  -1   0   1  278.23    8.41
  -1   0   1  274.39    8.35
   0   0  -1   -0.50    0.04
   0   0   1   -0.50    0.04
   0   0   1   -0.52    0.04
   0   0  -1   -0.49    0.01
   0   0  -1   -0.51    0.06
   0   0   1   -0.41    0.06
   1   0   1  202.85    5.07
   1   0   1  192.47    4.97
   1   0   1  186.34    4.97
  -1   0  -1  195.92    4.97
  -1   0  -1  191.74    8.51
  -2   0  -1    0.12    0.13
   2   0   1   -0.19    0.14
   2   0   1    0.08    0.12
  -2   0  -1    0.03    0.15
  -3   0  -1   19.84    0.59
  -3   0  -1   18.69    0.59
   3   0   1   19.03    0.64
   3   0   1   19.80    0.59
   3   0   1   19.78    0.61
  -4   0  -1   -0.01    0.25
   4   0   1    0.05    0.22
  -4   0  -1    0.27    0.18
   4   0   1    0.16    0.21
   4   0   1    0.10    0.20
   4   0   1   -0.44    0.20
   4   0   1    0.06    0.16
   5   0   1   18.21    0.67
   5   0   1   17.31    0.63
  -5   0  -1   16.94    0.63
  -5   0  -1   16.71    0.69
  -5   0  -1   17.65    0.75
   5   0   1   17.51    0.59
   5   0   1   18.52    0.70
  -5   0  -1   18.40    0.84
   5   0   1   17.17    0.58
   6   0   1    0.00    0.21
   6   0   1    0.38    0.30
   6   0   1   -0.02    0.22
   6   0   1    0.16    0.27
   6   0   1   -0.04    0.17
  -6   0  -1   -0.01    0.32
  -6   0  -1   -0.53    0.36
  -7   0  -1    3.39    0.53
   7   0   1    2.26    0.27
   7   0   1    2.43    0.32
   7   0   1    2.95    0.41
  -7   0  -1    1.78    0.35
   7   0   1    1.84    0.24
   7   0   1    1.95    0.25
   7   0   1    2.54    0.29
   7   0   1    2.66    0.36
  -8   0  -1   -0.48    0.52
   8   0   1    0.39    0.30
   8   0   1   -0.26    0.25
   8   0   1   -0.14    0.34
   8   0   1   -0.26    0.36
   8   0   1    0.05    0.40
   8   0   1    0.07    0.24
  -8   0  -1    0.03    0.42
  -9   0  -1    3.74    0.51
   9   0   1    3.87    0.35
   9   0   1    4.54    0.38
   9   0   1    4.55    0.60
  -9   0  -1    4.67    0.36
   9   0   1    5.64    0.49
   9   0   1    4.28    0.42
   9   0   1    4.07    0.47
  -9   0  -1    4.37    0.59
  -9   0  -1    4.01    0.53
  10   0   1   -0.23    0.25
 -10   0  -1    0.16    0.26
  10   0   1   -0.12    0.29
  10   0   1    0.34    0.22
  10   0   1    0.44    0.34
  11   0   1    0.01    0.15
 -11   0  -1    0.00    0.19
  11   0   1    0.15    0.22
 -11  -1   1    3.71    0.27
  11  -1  -1    2.69    0.24
  11  -1  -1    3.08    0.26
  11  -1  -1    2.61    0.30
  11  -1  -1    3.31    0.35
  11   1  -1    2.95    0.28
  11   1  -1    3.25    0.26
 -11   1   1    3.24    0.24
 -11   1   1    3.49    0.30
  10  -1  -1    1.00    0.39
  10  -1  -1    0.64    0.31
  10  -1  -1    0.67    0.25
  10  -1  -1    0.64    0.26
  10   1  -1    0.48    0.28
 -10   1   1    0.88    0.31
 -10   1   1    1.16    0.26
  10   1  -1    0.42    0.29
   9  -1  -1    0.34    0.40
   9  -1  -1    0.36    0.26
   9  -1  -1    0.22    0.28
  -9  -1   1   -0.45    0.41
   9  -1  -1    0.50    0.39
   9  -1  -1   -0.06    0.33
   9   1  -1    0.68    0.39
  -9   1   1    0.37    0.27
   9   1  -1   -0.08    0.24
   9   1  -1   -0.04    0.51
  -9   1   1    0.34    0.40
   9   1  -1   -0.11    0.27
  -9   1   1    0.31    0.29
   9   1  -1    0.21    0.28
  -9   1   1    0.13    0.34
  -8  -1   1    1.75    0.48
   8  -1  -1    1.44    0.33
   8  -1  -1    1.17    0.35
   8  -1  -1    1.49    0.32
   8  -1  -1    1.58    0.27
   8  -1  -1    1.10    0.42
  -8   1   1    1.77    0.40
   8   1  -1    1.89    0.41
  -8   1   1    1.61    0.28
   8   1  -1    2.38    0.27
  -8   1   1    1.34    0.31
   8   1  -1    1.72    0.31
   8   1  -1    1.56    0.27
   8   1  -1    2.06    0.28
  -8   1   1    1.45    0.30
   8   1  -1    1.94    0.52
  -8   1   1    1.72    0.44
   7  -1  -1    2.69    0.31
   7  -1  -1    3.04    0.33
   7  -1  -1    3.25    0.44
  -7  -1   1    3.63    0.48
  -7  -1   1    3.21    0.37
   7  -1  -1    2.22    0.30
   7  -1  -1    2.37    0.32
  -7  -1   1    2.08    0.38
   7   1  -1    3.13    0.27
  -7   1   1    2.36    0.30
  -7   1   1    2.44    0.32
  -7   1   1    3.79    0.37
  -7   1   1    3.53    0.46
   7   1  -1    2.93    0.26
   7   1  -1    2.89    0.47
   7   1  -1    2.81    0.27
  -7   1   1    3.33    0.29
  -7   1   1    2.51    0.38
   7   1  -1    3.36    0.32
   7   1  -1    3.08    0.40
   6  -1  -1    1.87    0.31
   6  -1  -1    1.65    0.25
  -6  -1   1    1.71    0.38
   6  -1  -1    1.52    0.26
   6  -1  -1    1.10    0.26
  -6  -1   1    1.53    0.32
  -6  -1   1    2.23    0.30
   6  -1  -1    2.06    0.35
  -6   1   1    1.93    0.28
  -6   1   1    2.01    0.33
   6   1  -1    1.78    0.29
  -6   1   1    2.09    0.43
  -6   1   1    1.48    0.30
   6   1  -1    2.49    0.41
   6   1  -1    1.55    0.21
   6   1  -1    1.86    0.33
   5  -1  -1    4.04    0.28
   5  -1  -1    4.46    0.34
  -5  -1   1    5.06    0.37
   5  -1  -1    4.47    0.35
   5  -1  -1    4.26    0.36
   5  -1  -1    5.77    0.42
  -5  -1   1    4.67    0.41
  -5  -1   1    4.57    0.35
   5  -1  -1    3.71    0.29
  -5   1   1    4.95    0.46
  -5   1   1    4.71    0.41
  -5   1   1    4.74    0.32
  -5   1   1    4.58    0.30
  -5   1   1    4.02    0.37
   5   1  -1    4.57    0.40
   5   1  -1    5.37    0.31
   5   1  -1    4.62    0.56
  -5   1   1    4.59    0.31
   5   1  -1    4.93    0.36
   4  -1  -1    0.58    0.27
   4  -1  -1    0.49    0.22
  -4  -1   1    0.20    0.20
   4  -1  -1    0.36    0.20
   4  -1  -1    0.79    0.17
   4  -1  -1    0.25    0.26
   4  -1  -1    0.24    0.21
   4  -1  -1    0.26    0.23
   4   1  -1    0.83    0.25
  -4   1   1    0.58    0.27
  -4   1   1    0.28    0.33
  -4   1   1    0.33    0.27
   4   1  -1    0.63    0.22
  -4   1   1    0.62    0.22
  -4   1   1    0.41    0.20
   4   1  -1    0.49    0.27
   4   1  -1    0.75    0.34
  -4   1   1    0.54    0.22
   3  -1  -1   -0.01    0.23
   3  -1  -1   -0.32    0.21
  -3  -1   1   -0.01    0.16
  -3   1   1    0.25    0.20
  -3   1   1   -0.14    0.17
  -3   1   1    0.12    0.20
   3   1  -1    0.25    0.33
   2  -1  -1    2.54    0.25
  -2  -1   1    3.01    0.19
  -2   1   1    2.75    0.22
  -2   1   1    2.71    0.19
   2   1  -1    2.97    0.19
  -2   1   1    2.74    0.20
   2   1  -1    2.84    0.37
  -1  -1   1    0.98    0.13
  -1  -1   1    0.59    0.12
   1  -1  -1    0.46    0.19
  -1  -1   1    0.98    0.16
   1   1  -1    0.87    0.31
   1   1  -1    0.49    0.10
   1   1  -1    0.61    0.13
  -1   1   1    0.50    0.16
  -1   1   1    0.54    0.08
   1   1  -1    0.60    0.13
  -1   1   1    0.75    0.14
   1   1  -1    0.51    0.08
  -1   1   1    0.62    0.12
   0  -1   1   11.64    0.41
   0  -1  -1   12.60    0.41
   0  -1  -1   12.66    0.49
   0  -1   1   12.05    0.46
   0  -1   1   12.80    0.41
   0  -1  -1   12.84    0.46
   0   1   1   12.02    0.39
   0   1  -1   12.76    0.72
   0   1   1   12.12    0.39
   0   1   1   13.20    0.71
   0   1   1   11.97    0.37
   0   1  -1   12.42    0.43
   0   1  -1   12.04    0.38
   1  -1   1  190.01    5.00
   1  -1   1  194.48    5.10
  -1  -1  -1  194.67    6.00
   1  -1   1  191.67    5.87
   1   1   1  195.67    8.55
  -1   1  -1  198.33    5.00
  -1   1  -1  191.76    5.10
  -1   1  -1  193.83    6.00
   2  -1   1    0.29    0.19
  -2  -1  -1   -0.01    0.14
   2  -1   1    0.13    0.19
   2   1   1   -0.10    0.30
   2   1   1    0.21    0.16
  -2   1  -1   -0.27    0.18
  -2   1  -1   -0.13    0.22
   3  -1   1    0.57    0.18
   3  -1   1    0.25    0.21
   3  -1   1    0.26    0.21
  -3  -1  -1   -0.09    0.18
   3  -1   1    0.20    0.22
   3  -1   1    0.43    0.21
   3   1   1    0.13    0.17
  -3   1  -1    0.66    0.23
   3   1   1    0.37    0.30
   3   1   1    0.46    0.18
  -3   1  -1    0.29    0.25
  -3   1  -1    0.58    0.31
  -3   1  -1    0.41    0.21
  -3   1  -1    0.44    0.28
  -3   1  -1    0.46    0.23
   4  -1   1    8.82    0.48
  -4  -1  -1    9.22    0.48
   4  -1   1    9.02    0.46
   4  -1   1    9.08    0.41
   4  -1   1    9.37    0.49
   4  -1   1   10.03    0.45
   4   1   1    9.16    0.66
  -4   1  -1    8.96    0.65
   4   1   1    7.54    0.61
  -4   1  -1    9.31    0.59
  -4   1  -1   10.19    0.47
  -4   1  -1    8.59    0.63
   4   1   1    9.77    0.51
   4   1   1    9.81    0.43
   4   1   1    8.52    0.50
  -4   1  -1    9.41    0.58
  -4   1  -1    9.67    0.46
  -4   1  -1    9.55    0.51
   5  -1   1   23.57    0.82
   5  -1   1   22.15    0.75
   5  -1   1   22.95    0.77
  -5  -1  -1   23.04    0.88
   5  -1   1   23.19    0.80
   5  -1   1   23.03    0.84
  -5   1  -1   21.87    1.01
  -5   1  -1   23.67    0.90
  -5   1  -1   24.14    0.88
   5   1   1   23.04    1.00
   5   1   1   22.99    0.85
  -5   1  -1   23.46    0.83
   5   1   1   23.33    0.78
   6  -1   1   56.82    1.68
   6  -1   1   57.50    1.77
   6  -1   1   53.17    1.62
  -6  -1  -1   57.30    1.99
  -6  -1  -1   57.11    1.90
   6  -1   1   55.78    1.60
  -6   1  -1   55.53    1.78
   6   1   1   56.92    1.65
  -6   1  -1   57.24    2.04
   6   1   1   55.38    1.76
   6   1   1   55.90    2.05
  -6   1  -1   55.69    1.69
  -6   1  -1   59.02    1.83
   7  -1   1    0.36    0.25
   7  -1   1   -0.05    0.23
  -7  -1  -1   -0.11    0.45
   7  -1   1    0.25    0.23
   7  -1   1    0.43    0.32
   7  -1   1   -0.03    0.30
   7  -1   1   -0.14    0.38
   7  -1   1    0.16    0.28
   7  -1   1    0.38    0.35
  -7   1  -1    0.05    0.26
   7   1   1    0.38    0.35
   7   1   1   -0.08    0.24
  -7   1  -1    0.48    0.47
  -7   1  -1    0.42    0.38
  -7   1  -1   -0.24    0.33
   7   1   1   -0.14    0.29
   7   1   1   -0.20    0.26
   7   1   1    0.21    0.21
   7   1   1    0.04    0.41
  -7   1  -1    0.35    0.24
   8  -1   1    0.50    0.42
  -8  -1  -1    0.98    0.53
   8  -1   1    1.11    0.35
   8  -1   1    1.06    0.27
   8  -1   1    1.45    0.32
   8  -1   1    1.53    0.41
   8  -1   1    0.59    0.24
   8  -1   1    0.70    0.29
   8   1   1    0.74    0.30
  -8   1  -1    1.24    0.27
   8   1   1    1.09    0.53
  -8   1  -1    0.85    0.51
  -8   1  -1    1.13    0.31
  -8   1  -1    0.47    0.33
   8   1   1    1.28    0.29
  -8   1  -1   -0.30    0.41
   8   1   1    1.10    0.38
   8   1   1    0.67    0.26
   9  -1   1    0.69    0.28
   9  -1   1   -0.04    0.40
   9  -1   1    0.12    0.26
   9  -1   1   -0.22    0.38
   9  -1   1    0.07    0.32
  -9  -1  -1   -0.04    0.40
   9   1   1   -0.16    0.26
  -9   1  -1   -0.26    0.34
   9   1   1   -0.07    0.50
   9   1   1    0.34    0.30
  -9   1  -1    0.30    0.40
  -9   1  -1    0.28    0.32
  10  -1   1    3.52    0.30
  10  -1   1    3.11    0.41
  10  -1   1    3.15    0.30
 -10  -1  -1    3.17    0.28
  10  -1   1    3.51    0.35
  10   1   1    3.36    0.30
  10   1   1    3.48    0.34
 -10   1  -1    3.43    0.32
  11  -1   1    3.29    0.29
  11  -1   1    2.96    0.24
 -11   1  -1    3.49    0.25
  10  -2  -1    2.25    0.30
  10  -2  -1    1.77    0.37
 -10   2   1    1.76    0.26
 -10   2   1    1.71    0.28
  10   2  -1    1.62    0.24
   9  -2  -1    0.64    0.39
   9  -2  -1    0.93    0.28
   9  -2  -1    0.81    0.23
   9  -2  -1    0.96    0.35
  -9   2   1    0.83    0.30
  -9   2   1    0.60    0.26
   9   2  -1    1.11    0.25
   8  -2  -1   -0.10    0.28
   8  -2  -1    0.53    0.37
   8  -2  -1    0.44    0.30
   8  -2  -1    0.40    0.37
   8  -2  -1   -0.11    0.26
   8   2  -1    0.20    0.23
  -8   2   1    0.09    0.30
   8   2  -1    0.08    0.50
  -8   2   1    0.17    0.33
   8   2  -1    0.27    0.23
  -8   2   1    0.20    0.37
  -8   2   1   -0.11    0.27
  -8   2   1    0.41    0.31
   7  -2  -1   -0.49    0.29
   7  -2  -1    0.01    0.30
   7  -2  -1    0.37    0.37
   7  -2  -1   -0.27    0.28
  -7   2   1   -0.01    0.27
   7   2  -1    0.19    0.21
   7   2  -1    0.31    0.22
  -7   2   1    0.25    0.29
  -7   2   1    0.17    0.32
  -7   2   1    0.27    0.36
   7   2  -1    0.54    0.46
   7   2  -1    0.39    0.23
  -7   2   1   -0.12    0.36
   6  -2  -1    0.04    0.29
   6  -2  -1    0.18    0.35
   6  -2  -1   -0.26    0.26
   6  -2  -1    0.64    0.27
   6  -2  -1   -0.11    0.26
   6  -2  -1   -0.20    0.33
  -6   2   1   -0.02    0.31
  -6   2   1    0.09    0.28
   6   2  -1    0.19    0.40
  -6   2   1   -0.32    0.24
  -6   2   1    0.23    0.32
  -6   2   1   -0.02    0.27
   6   2  -1   -0.07    0.22
  -6   2   1    0.02    0.37
   5  -2  -1    1.95    0.27
   5  -2  -1    1.42    0.26
   5  -2  -1    1.68    0.36
   5  -2  -1    1.46    0.25
   5  -2  -1    1.48    0.29
   5  -2  -1    0.87    0.29
  -5  -2   1    1.16    0.28
   5  -2  -1    1.04    0.27
  -5   2   1    1.33    0.27
  -5   2   1    1.36    0.27
   5   2  -1    1.21    0.38
  -5   2   1    1.92    0.38
  -5   2   1    1.25    0.30
  -5   2   1    1.24    0.30
  -5   2   1    1.08    0.30
   4  -2  -1    0.28    0.20
   4  -2  -1    0.56    0.28
  -4  -2   1    0.48    0.24
   4  -2  -1    0.37    0.20
   4  -2  -1    0.29    0.23
   4  -2  -1    0.27    0.28
   4  -2  -1    0.23    0.20
  -4   2   1    0.30    0.26
  -4   2   1    0.18    0.31
   4   2  -1    0.67    0.34
  -4   2   1    0.14    0.24
   4   2  -1   -0.02    0.28
   4   2  -1    0.18    0.40
  -4   2   1    0.69    0.24
   3  -2  -1    1.78    0.28
   3  -2  -1    1.85    0.29
   3  -2  -1    2.32    0.25
  -3  -2   1    1.87    0.26
   3  -2  -1    1.44    0.20
   3  -2  -1    1.88    0.22
   3   2  -1    1.82    0.33
  -3   2   1    1.70    0.31
  -3   2   1    2.32    0.26
   3   2  -1    2.31    0.32
  -3   2   1    2.18    0.24
   3   2  -1    2.13    0.44
  -3   2   1    2.25    0.26
   2  -2  -1    4.25    0.31
   2  -2  -1    3.93    0.27
   2  -2  -1    3.65    0.25
   2  -2  -1    3.98    0.24
  -2  -2   1    4.24    0.40
  -2   2   1    3.84    0.25
   2   2  -1    4.82    0.52
   2   2  -1    4.03    0.38
  -2   2   1    3.88    0.35
   2   2  -1    4.52    0.34
  -2   2   1    3.51    0.32
  -2   2   1    4.52    0.28
  -2   2   1    4.55    0.28
   2   2  -1    4.33    0.36
  -1  -2   1   10.00    0.52
  -1  -2   1   10.30    0.47
   1  -2  -1    9.12    0.46
   1  -2  -1    9.99    0.48
  -1   2   1    9.01    0.39
  -1   2   1    8.66    0.41
  -1   2   1    8.57    0.55
   1   2  -1    9.01    0.33
  -1   2   1    9.89    0.42
  -1   2   1    9.38    0.58
   1   2  -1    9.49    0.78
   1   2  -1    9.09    0.60
   1   2  -1    8.48    0.59
   0  -2  -1    0.11    0.19
   0  -2   1    0.24    0.21
   0  -2  -1    0.08    0.20
   0  -2   1    0.62    0.20
   0   2  -1    0.05    0.15
   0   2  -1   -0.25    0.31
   0   2  -1    0.27    0.31
   0   2   1    0.27    0.28
   0   2   1    0.20    0.13
   0   2   1    0.49    0.16
   0   2  -1    0.22    0.21
   0   2   1    0.13    0.34
   0   2  -1    0.29    0.36
   1  -2   1   50.14    1.61
   1  -2   1   52.09    1.45
   1  -2   1   52.29    1.67
   1  -2   1   52.65    1.42
  -1  -2  -1   53.41    1.66
   1  -2   1   50.69    1.44
  -1  -2  -1   54.27    1.86
  -1   2  -1   50.24    1.48
  -1   2  -1   51.68    2.39
  -1   2  -1   52.89    1.90
  -1   2  -1   53.91    1.44
  -1   2  -1   52.50    1.43
   1   2   1   51.81    2.44
   1   2   1   50.84    1.89
   1   2   1   48.90    1.79
  -1   2  -1   54.52    1.60
   2  -2   1    3.52    0.30
   2  -2   1    3.86    0.26
   2  -2   1    3.66    0.25
  -2  -2  -1    4.18    0.33
   2  -2   1    4.50    0.29
  -2  -2  -1    3.90    0.27
   2  -2   1    4.26    0.33
  -2   2  -1    3.73    0.32
  -2   2  -1    4.15    0.27
  -2   2  -1    3.71    0.30
   2   2   1    3.68    0.47
  -2   2  -1    4.28    0.32
   2   2   1    4.38    0.35
  -2   2  -1    4.53    0.31
   2   2   1    3.79    0.28
   2   2   1    4.35    0.36
  -2   2  -1    4.16    0.41
   3  -2   1    4.58    0.35
   3  -2   1    4.58    0.34
   3  -2   1    5.57    0.37
   3  -2   1    4.34    0.35
   3  -2   1    4.92    0.33
  -3  -2  -1    4.72    0.36
   3   2   1    4.67    0.30
  -3   2  -1    4.37    0.33
  -3   2  -1    4.71    0.37
  -3   2  -1    4.73    0.39
   3   2   1    4.69    0.39
   3   2   1    4.55    0.49
   3   2   1    4.99    0.43
  -3   2  -1    4.51    0.32
  -3   2  -1    5.20    0.33
   4  -2   1    2.91    0.25
   4  -2   1    2.34    0.27
   4  -2   1    2.46    0.30
   4  -2   1    2.41    0.29
   4  -2   1    2.60    0.35
   4  -2   1    2.32    0.26
  -4   2  -1    3.23    0.36
  -4   2  -1    2.52    0.33
  -4   2  -1    2.53    0.30
  -4   2  -1    2.43    0.29
   4   2   1    2.25    0.36
  -4   2  -1    2.46    0.39
   4   2   1    2.92    0.28
   4   2   1    3.36    0.46
   5  -2   1    0.53    0.24
   5  -2   1    0.41    0.29
   5  -2   1    0.29    0.23
   5  -2   1    0.03    0.25
  -5   2  -1    0.34    0.33
   5   2   1    0.11    0.38
  -5   2  -1    0.25    0.27
  -5   2  -1    0.23    0.38
  -5   2  -1    0.10    0.34
   6  -2   1   68.11    1.95
   6  -2   1   68.27    2.09
   6  -2   1   67.18    2.18
   6  -2   1   69.13    2.12
   6  -2   1   68.69    2.00
  -6   2  -1   68.20    1.90
  -6   2  -1   72.84    2.06
   6   2   1   68.49    2.14
  -6   2  -1   71.22    2.21
   6   2   1   68.93    2.47
  -6   2  -1   67.67    2.02
   7  -2   1   46.92    1.45
   7  -2   1   49.44    1.46
   7  -2   1   48.43    1.62
   7  -2   1   47.37    1.53
  -7   2  -1   46.85    1.63
   7   2   1   49.07    1.56
  -7   2  -1   47.88    1.52
   7   2   1   49.98    1.87
  -7   2  -1   49.09    1.49
  -7   2  -1   48.46    1.39
  -7   2  -1   46.34    1.91
   8  -2   1    2.51    0.30
   8  -2   1    2.12    0.31
   8  -2   1    2.96    0.43
   8  -2   1    1.51    0.41
   8  -2   1    2.20    0.34
   8  -2   1    3.11    0.40
  -8   2  -1    2.49    0.30
   8   2   1    2.28    0.52
  -8   2  -1    2.20    0.42
  -8   2  -1    2.68    0.35
   8   2   1    2.83    0.31
  -8   2  -1    2.10    0.39
  -8   2  -1    1.96    0.35
   9  -2   1    0.69    0.29
   9  -2   1    0.83    0.22
   9  -2   1    0.16    0.37
   9  -2   1    0.48    0.25
  -9   2  -1    0.60    0.25
   9   2   1    0.58    0.25
  -9   2  -1    0.59    0.29
  10  -2   1    0.05    0.20
  10  -2   1   -0.09    0.30
  10  -2   1    0.01    0.18
  10  -2   1    0.18    0.15
  10   2   1   -0.24    0.21
 -10   2  -1    0.10    0.24
   9  -3  -1   12.99    0.54
   9  -3  -1   14.16    0.63
   9  -3  -1   13.69    0.61
   9  -3  -1   13.97    0.53
  -9   3   1   14.86    0.55
  -9   3   1   14.79    0.52
   8  -3  -1    0.27    0.22
   8  -3  -1   -0.20    0.25
  -8   3   1   -0.12    0.28
  -8   3   1   -0.19    0.25
  -8   3   1   -0.06    0.25
   7  -3  -1    0.86    0.30
   7  -3  -1    0.48    0.26
   7  -3  -1    0.37    0.33
  -7   3   1    0.31    0.35
  -7   3   1    0.53    0.29
  -7   3   1    0.37    0.53
  -7   3   1    0.50    0.29
   7   3  -1    0.93    0.47
  -7   3   1    0.81    0.27
   6  -3  -1   75.31    2.05
   6  -3  -1   70.40    2.21
   6  -3  -1   73.38    2.13
  -6   3   1   72.23    2.10
   6   3  -1   72.18    2.57
  -6   3   1   68.99    2.26
  -6   3   1   71.55    1.99
  -6   3   1   72.85    2.09
  -6   3   1   67.81    2.91
   5  -3  -1   87.98    2.74
   5  -3  -1   86.35    2.61
   5  -3  -1   90.81    2.40
   5  -3  -1   86.23    2.49
   5  -3  -1   88.17    2.60
  -5   3   1   86.64    2.35
   5   3  -1   89.02    3.03
  -5   3   1   84.96    2.47
  -5   3   1   84.23    2.55
   5   3  -1   88.47    2.51
  -5   3   1   85.83    2.30
  -5   3   1   85.84    2.66
  -5   3   1   84.51    2.66
   5   3  -1   82.07    2.45
  -5   3   1   84.65    3.41
  -5   3   1   86.76    2.47
   4  -3  -1   33.31    1.17
   4  -3  -1   35.96    1.07
   4  -3  -1   36.54    1.20
  -4  -3   1   35.44    1.39
   4  -3  -1   33.40    1.25
  -4   3   1   33.52    1.57
   4   3  -1   36.51    1.40
   4   3  -1   36.00    1.41
  -4   3   1   35.52    1.24
  -4   3   1   34.56    1.11
  -4   3   1   33.45    1.21
  -4   3   1   34.30    1.07
  -4   3   1   33.00    1.03
  -4   3   1   32.84    1.15
  -4   3   1   35.03    1.14
  -4   3   1   32.55    1.03
   4   3  -1   34.65    1.00
   4   3  -1   32.55    1.07
  -4   3   1   33.48    1.10
  -4   3   1   34.07    1.08
   3  -3  -1    2.56    0.30
   3  -3  -1    2.19    0.27
  -3  -3   1    3.04    0.35
  -3  -3   1    2.37    0.32
   3  -3  -1    2.33    0.35
   3   3  -1    2.62    0.44
  -3   3   1    2.38    0.30
   3   3  -1    2.46    0.26
   3   3  -1    2.44    0.26
  -3   3   1    2.44    0.29
  -3   3   1    2.43    0.37
  -3   3   1    2.14    0.48
  -3   3   1    2.34    0.29
  -3   3   1    2.36    0.31
  -3   3   1    1.74    0.35
   3   3  -1    2.23    0.42
  -3   3   1    2.43    0.33
   2  -3  -1    0.68    0.25
   2  -3  -1    0.62    0.22
  -2  -3   1    0.16    0.25
  -2   3   1    0.34    0.21
  -2   3   1    0.14    0.34
  -2   3   1    0.16    0.23
  -2   3   1    0.48    0.29
  -2   3   1    0.06    0.28
   2   3  -1    0.08    0.22
   2   3  -1    0.57    0.38
  -2   3   1    0.47    0.29
   2   3  -1    0.27    0.24
   2   3  -1    0.36    0.21
   2   3  -1    0.06    0.38
  -2   3   1    0.33    0.24
  -2   3   1    0.27    0.34
   2   3  -1    0.48    0.19
  -2   3   1    0.00    0.25
  -1  -3   1   29.01    1.05
  -1  -3   1   29.51    1.01
   1  -3  -1   29.90    0.99
   1  -3  -1   30.62    1.04
   1   3  -1   28.75    0.88
  -1   3   1   28.55    0.86
  -1   3   1   29.16    1.21
  -1   3   1   27.25    0.94
   1   3  -1   28.19    0.89
   1   3  -1   28.12    0.97
   1   3  -1   28.06    0.93
   1   3  -1   32.08    1.26
  -1   3   1   28.24    0.86
   1   3  -1   28.80    1.18
  -1   3   1   27.84    1.00
  -1   3   1   27.96    0.93
  -1   3   1   27.43    0.97
   1   3  -1   28.61    0.95
  -1   3   1   28.99    1.24
  -1   3   1   27.72    0.90
   0  -3  -1   38.30    1.31
   0  -3  -1   39.10    1.26
   0  -3  -1   38.78    1.23
   0  -3   1   40.88    1.28
   0  -3   1   37.18    1.31
   0   3   1   37.24    1.20
   0   3   1   36.43    1.10
   0   3   1   36.77    1.23
   0   3   1   37.38    1.16
   0   3   1   36.84    1.20
   0   3  -1   36.62    1.20
   0   3   1   38.89    1.07
   0   3  -1   39.27    1.52
   0   3  -1   37.91    1.08
   0   3  -1   37.32    1.14
   0   3  -1   37.28    1.17
   0   3  -1   38.43    1.09
   0   3  -1   36.08    1.19
   0   3   1   39.97    1.51
   0   3  -1   37.38    1.12
   1  -3   1   26.20    0.93
  -1  -3  -1   24.91    0.89
  -1  -3  -1   24.56    0.93
   1  -3   1   24.86    0.79
   1   3   1   24.84    0.85
  -1   3  -1   23.22    0.86
   1   3   1   24.68    0.87
  -1   3  -1   24.17    0.91
  -1   3  -1   24.63    0.81
  -1   3  -1   24.61    0.81
  -1   3  -1   24.16    0.89
   1   3   1   25.70    1.04
  -1   3  -1   24.71    0.77
  -1   3  -1   25.33    1.10
   1   3   1   24.89    0.79
  -1   3  -1   23.15    0.83
   1   3   1   25.78    1.11
   1   3   1   24.40    0.81
   2  -3   1    0.21    0.22
   2  -3   1    0.36    0.25
  -2  -3  -1    0.55    0.27
   2   3   1    0.43    0.37
  -2   3  -1    0.64    0.26
   2   3   1    0.38    0.24
  -2   3  -1    0.49    0.39
  -2   3  -1    0.31    0.29
  -2   3  -1    0.10    0.25
  -2   3  -1    0.83    0.32
   2   3   1    0.55    0.35
  -2   3  -1    0.42    0.24
   2   3   1    0.31    0.21
  -2   3  -1    0.28    0.30
  -2   3  -1   -0.12    0.21
   3  -3   1   -0.21    0.31
   3  -3   1   -0.28    0.24
   3  -3   1   -0.17    0.23
  -3  -3  -1    0.25    0.26
   3   3   1    0.31    0.36
  -3   3  -1    0.08    0.35
  -3   3  -1   -0.08    0.26
  -3   3  -1    0.12    0.31
   3   3   1    0.25    0.37
  -3   3  -1    0.29    0.31
  -3   3  -1   -0.02    0.23
  -3   3  -1    0.04    0.26
  -3   3  -1    0.30    0.27
  -3   3  -1    0.47    0.26
   4  -3   1    8.42    0.51
  -4  -3  -1    6.63    0.51
   4  -3   1    7.50    0.48
   4  -3   1    7.38    0.54
   4  -3   1    7.47    0.50
   4   3   1    9.01    0.74
  -4   3  -1    8.15    0.50
   4   3   1    7.34    0.63
   4   3   1    6.97    0.47
  -4   3  -1    6.52    0.41
  -4   3  -1    7.16    0.47
  -4   3  -1    8.23    0.56
   4   3   1    5.94    0.46
  -4   3  -1    7.32    0.55
  -4   3  -1    6.64    0.47
  -4   3  -1    6.31    0.43
   5  -3   1    6.20    0.47
   5  -3   1    5.96    0.47
   5  -3   1    5.64    0.39
   5  -3   1    5.09    0.39
   5   3   1    6.12    0.37
   5   3   1    6.11    0.54
   5   3   1    5.99    0.46
  -5   3  -1    4.95    0.34
  -5   3  -1    5.48    0.43
  -5   3  -1    6.03    0.44
  -5   3  -1    4.87    0.51
  -5   3  -1    4.99    0.37
   6  -3   1    4.47    0.39
   6  -3   1    3.71    0.40
  -6   3  -1    4.03    0.33
  -6   3  -1    4.70    0.38
   6   3   1    3.82    0.51
  -6   3  -1    5.09    0.43
  -6   3  -1    3.97    0.46
  -6   3  -1    3.95    0.39
   6   3   1    4.31    0.35
   7  -3   1    1.18    0.30
   7  -3   1    1.18    0.30
   7   3   1    1.75    0.29
  -7   3  -1    1.12    0.35
  -7   3  -1    1.27    0.26
  -7   3  -1    0.92    0.30
   7   3   1    1.85    0.44
   8  -3   1    1.16    0.29
   8  -3   1    0.99    0.25
  -8   3  -1    1.15    0.27
  -8   3  -1    1.37    0.24
   8   3   1    1.49    0.28
   9  -3   1    0.32    0.17
   9  -3   1    0.26    0.19
   9  -3   1    0.15    0.22
  -9   3  -1    0.59    0.17
   9   3   1   -0.35    0.20
  -9   3  -1    0.09    0.23
   8  -4  -1    0.92    0.18
  -8   4   1    0.98    0.17
   7  -4  -1   -0.04    0.24
  -7   4   1   -0.07    0.27
  -7   4   1    0.19    0.22
  -7   4   1   -0.11    0.21
   6  -4  -1    0.77    0.32
  -6   4   1    1.67    0.26
  -6   4   1    1.36    0.33
  -6   4   1    0.92    0.24
  -6   4   1    0.81    0.26
   5  -4  -1   -0.13    0.26
   5  -4  -1    0.07    0.31
   5  -4  -1   -0.01    0.36
   5  -4  -1    0.46    0.35
  -5   4   1    0.11    0.25
   5   4  -1   -0.16    0.26
   5   4  -1    0.30    0.46
  -5   4   1    0.16    0.31
  -5   4   1    0.46    0.33
  -5   4   1   -0.03    0.33
  -5   4   1    0.02    0.25
  -5   4   1    0.02    0.28
  -5   4   1    0.56    0.27
  -5   4   1    0.12    0.41
   4  -4  -1    1.72    0.38
   4  -4  -1    2.14    0.37
   4  -4  -1    2.62    0.42
   4  -4  -1    2.08    0.31
  -4   4   1    1.05    0.45
   4   4  -1    1.83    0.44
  -4   4   1    2.59    0.37
  -4   4   1    1.49    0.37
  -4   4   1    1.79    0.35
  -4   4   1    2.18    0.40
  -4   4   1    1.99    0.29
  -4   4   1    2.59    0.35
  -4   4   1    2.15    0.44
  -4   4   1    2.27    0.28
  -4   4   1    2.59    0.30
   4   4  -1    1.86    0.30
   4   4  -1    2.58    0.51
   3  -4  -1    0.64    0.41
   3  -4  -1    1.33    0.38
   3  -4  -1    1.32    0.37
   3  -4  -1    0.78    0.31
   3   4  -1    1.38    0.23
   3   4  -1    0.38    0.45
  -3   4   1    0.40    0.42
  -3   4   1    1.12    0.35
   3   4  -1    1.57    0.28
   3   4  -1    1.34    0.28
  -3   4   1    0.75    0.27
  -3   4   1    1.12    0.34
  -3   4   1    0.83    0.41
  -3   4   1    1.09    0.29
   3   4  -1    1.43    0.29
   3   4  -1    1.36    0.30
  -3   4   1    0.88    0.34
  -3   4   1    0.69    0.25
  -3   4   1   -0.08    0.37
  -2  -4   1    0.80    0.36
   2  -4  -1    1.60    0.33
   2  -4  -1    1.64    0.40
  -2   4   1    1.25    0.31
   2   4  -1    1.72    0.32
  -2   4   1    1.01    0.33
  -2   4   1    1.47    0.34
   2   4  -1    0.91    0.29
  -2   4   1    1.11    0.28
  -2   4   1    1.04    0.38
  -2   4   1    1.60    0.29
   2   4  -1    1.47    0.29
  -2   4   1    1.10    0.26
   2   4  -1    1.45    0.24
  -2   4   1    1.68    0.38
   2   4  -1    1.58    0.31
   2   4  -1    1.37    0.31
   2   4  -1    1.46    0.27
  -2   4   1    1.27    0.35
   2   4  -1    0.55    0.49
   1  -4  -1    0.17    0.30
  -1  -4   1    0.33    0.33
  -1  -4   1   -0.06    0.29
   1  -4  -1   -0.44    0.37
   1   4  -1    0.14    0.26
   1   4  -1   -0.13    0.49
   1   4  -1   -0.02    0.28
  -1   4   1    0.33    0.30
   1   4  -1    0.19    0.22
  -1   4   1   -0.13    0.27
  -1   4   1    0.37    0.31
   1   4  -1    0.07    0.28
   1   4  -1   -0.12    0.27
   1   4  -1    0.21    0.31
  -1   4   1    0.28    0.28
  -1   4   1    0.21    0.45
   1   4  -1   -0.23    0.25
  -1   4   1    0.15    0.35
   1   4  -1    0.41    0.30
  -1   4   1    0.14    0.30
  -1   4   1    0.47    0.29
  -1   4   1    0.13    0.22
  -1   4   1   -0.23    0.34
   1   4  -1    0.52    0.27
   0  -4   1   11.12    0.71
   0  -4   1   10.78    0.63
   0  -4  -1   10.21    0.64
   0   4   1   10.71    0.65
   0   4  -1   11.11    0.59
   0   4   1   11.01    0.58
   0   4   1   11.14    0.56
   0   4   1   11.05    0.69
   0   4   1   11.07    0.61
   0   4  -1   10.33    0.63
   0   4   1   11.00    0.51
   0   4  -1   10.01    0.83
   0   4  -1   10.20    0.60
   0   4  -1   10.63    0.56
   0   4   1   10.53    0.59
   0   4   1    9.22    0.81
   0   4  -1   10.85    0.51
   0   4   1   10.86    0.58
   0   4   1   10.16    0.61
   0   4  -1    9.97    0.54
   0   4  -1   10.72    0.61
   0   4  -1   10.33    0.54
  -1  -4  -1   -0.13    0.27
   1  -4   1   -0.01    0.30
  -1   4  -1    0.29    0.32
  -1   4  -1   -0.04    0.33
  -1   4  -1   -0.05    0.46
  -1   4  -1    0.29    0.34
  -1   4  -1    0.26    0.25
   1   4   1    0.63    0.29
   1   4   1    0.60    0.27
   1   4   1    0.50    0.30
   1   4   1    0.61    0.28
   1   4   1    0.38    0.27
  -1   4  -1    0.28    0.32
   1   4   1    0.16    0.28
  -1   4  -1    0.01    0.27
  -1   4  -1    0.09    0.31
   1   4   1    0.62    0.22
   1   4   1    0.18    0.47
  -1   4  -1    0.16    0.23
  -1   4  -1    0.39    0.27
   2  -4   1   -0.18    0.37
   2  -4   1    0.00    0.28
  -2   4  -1   -0.06    0.35
  -2   4  -1    0.20    0.33
   2   4   1   -0.06    0.26
   2   4   1    0.01    0.21
  -2   4  -1    0.12    0.32
  -2   4  -1   -0.23    0.24
  -2   4  -1   -0.03    0.27
   2   4   1    0.48    0.28
   2   4   1   -0.13    0.27
   2   4   1    0.26    0.28
   2   4   1    0.07    0.44
  -2   4  -1   -0.07    0.25
  -2   4  -1    0.42    0.28
  -2   4  -1    0.72    0.34
   3  -4   1    0.90    0.37
   3  -4   1    0.61    0.26
   3  -4   1    0.65    0.29
  -3   4  -1    1.24    0.39
  -3   4  -1    0.43    0.34
  -3   4  -1    1.52    0.29
  -3   4  -1    1.56    0.29
   3   4   1    1.29    0.28
  -3   4  -1    1.11    0.33
  -3   4  -1    1.11    0.27
   3   4   1    0.62    0.41
  -3   4  -1    1.06    0.36
   4  -4   1    1.91    0.36
   4  -4   1    1.89    0.30
   4  -4   1    2.12    0.37
   4  -4   1    2.98    0.39
   4  -4   1    2.14    0.31
  -4   4  -1    3.24    0.40
   4   4   1    2.29    0.42
  -4   4  -1    2.67    0.34
  -4   4  -1    2.67    0.29
  -4   4  -1    0.97    0.46
  -4   4  -1    2.83    0.38
  -4   4  -1    2.53    0.30
   4   4   1    2.75    0.32
  -4   4  -1    2.30    0.31
   5  -4   1   18.32    0.77
   5   4   1   19.67    0.75
  -5   4  -1   19.38    0.69
  -5   4  -1   17.49    0.74
  -5   4  -1   19.54    0.80
  -5   4  -1   18.74    0.74
   6  -4   1    1.48    0.27
  -6   4  -1    1.42    0.28
  -6   4  -1    1.74    0.26
  -6   4  -1    1.62    0.32
   7  -4   1    2.18    0.24
  -7   4  -1    2.31    0.26
  -7   4  -1    2.46    0.23
  -5   5   1    0.36    0.16
  -4   5   1    0.13    0.19
  -4   5   1    0.59    0.21
  -3   5   1    0.07    0.24
   3   5  -1    0.52    0.22
  -3   5   1    0.05    0.19
  -3   5   1    0.10    0.30
  -3   5   1    0.30    0.26
  -3   5   1    0.25    0.23
  -3   5   1    0.06    0.27
  -2   5   1    0.56    0.28
  -2   5   1   -0.05    0.29
  -2   5   1    0.14    0.33
   2   5  -1    0.33    0.26
   2   5  -1    0.16    0.22
   2   5  -1    0.27    0.29
  -2   5   1    0.29    0.19
  -2   5   1    0.29    0.25
   2   5  -1    0.10    0.18
  -2   5   1    0.51    0.25
  -1   5   1    0.74    0.30
  -1   5   1    0.53    0.33
  -1   5   1    1.02    0.27
   1   5  -1    0.57    0.25
  -1   5   1    0.86    0.26
   1   5  -1    0.64    0.20
  -1   5   1    0.34    0.28
   1   5  -1    0.45    0.28
  -1   5   1    0.61    0.19
   1   5  -1    0.56    0.31
   1   5  -1    1.02    0.27
   0   5   1    0.48    0.26
   0   5  -1    0.39    0.29
   0   5   1    0.07    0.25
   0   5  -1    0.11    0.26
   0   5  -1    0.31    0.29
   0   5   1    0.41    0.28
   0   5  -1    0.50    0.27
   0   5  -1    0.19    0.32
   0   5  -1    0.53    0.20
   0   5   1    0.38    0.32
   0   5   1    0.14    0.18
   0   5   1    0.28    0.27
   0   5   1    0.09    0.22
   1   5   1    1.51    0.29
  -1   5  -1    1.74    0.34
  -1   5  -1    1.42    0.30
  -1   5  -1    1.49    0.31
  -1   5  -1    1.48    0.27
  -1   5  -1    1.12    0.36
  -1   5  -1    0.94    0.21
   1   5   1    0.87    0.25
   1   5   1    1.86    0.32
  -2   5  -1    3.16    0.33
  -2   5  -1    3.33    0.28
   2   5   1    3.37    0.29
  -2   5  -1    3.48    0.36
  -2   5  -1    3.43    0.38
  -2   5  -1    3.30    0.26
  -2   5  -1    3.35    0.31
  -3   5  -1    0.28    0.20
  -3   5  -1    0.02    0.27
  -3   5  -1    0.01    0.25
  -3   5  -1   -0.21    0.23
  -3   5  -1    0.05    0.22
   3   5   1   -0.16    0.21
  -4   5  -1   -0.06    0.18
  11   0  -2   -0.04    0.24
  11   0  -2    0.17    0.27
 -11   0   2   -0.16    0.21
  11   0  -2   -0.05    0.19
 -11   0   2   -0.28    0.25
 -10   0   2   49.41    1.39
  10   0  -2   49.10    1.53
  10   0  -2   48.34    1.49
  10   0  -2   51.43    1.63
  10   0  -2   45.43    1.51
  10   0  -2   47.66    1.60
 -10   0   2   48.50    1.49
  -9   0   2    0.07    0.41
  -9   0   2    0.11    0.42
   9   0  -2    0.16    0.26
   9   0  -2   -0.05    0.44
   9   0  -2   -0.38    0.22
   9   0  -2   -0.25    0.27
  -9   0   2   -0.12    0.26
   9   0  -2   -0.36    0.40
   9   0  -2   -0.39    0.29
   9   0  -2   -0.32    0.25
   8   0  -2    1.77    0.43
  -8   0   2    0.77    0.44
   8   0  -2    1.01    0.24
   8   0  -2    1.23    0.27
   8   0  -2    0.99    0.27
   8   0  -2    1.39    0.29
  -8   0   2    1.14    0.42
   8   0  -2    0.79    0.46
   8   0  -2    1.02    0.30
  -7   0   2    0.05    0.42
  -7   0   2    0.24    0.35
   7   0  -2   -0.08    0.22
  -7   0   2   -0.20    0.28
   7   0  -2   -0.34    0.36
   7   0  -2    0.25    0.21
   6   0  -2   13.91    0.71
  -6   0   2   14.46    0.81
  -6   0   2   15.04    0.78
  -6   0   2   13.52    0.64
   6   0  -2   13.43    0.56
   6   0  -2   12.99    0.55
   6   0  -2   12.95    0.60
  -5   0   2    0.03    0.29
   5   0  -2    0.15    0.18
   5   0  -2    0.19    0.27
  -5   0   2   -0.25    0.21
   5   0  -2    0.28    0.19
   5   0  -2   -0.19    0.20
  -5   0   2    0.37    0.35
   5   0  -2    0.00    0.27
  -5   0   2   -0.31    0.18
   5   0  -2   -0.07    0.23
  -4   0   2   42.88    1.35
  -4   0   2   40.41    1.15
  -4   0   2   41.20    1.53
   4   0  -2   40.44    1.27
   4   0  -2   40.66    1.88
   4   0  -2   40.36    1.21
  -4   0   2   41.04    1.12
   4   0  -2   40.65    1.14
   3   0  -2    0.01    0.14
   3   0  -2    0.20    0.21
  -3   0   2    0.04    0.16
  -3   0   2   -0.14    0.14
  -3   0   2    0.20    0.18
  -2   0   2   76.95    2.39
  -2   0   2   75.10    2.03
  -2   0   2   77.11    1.98
  -2   0   2   75.16    2.38
   2   0  -2   77.38    2.01
   1   0  -2    0.15    0.14
  -1   0   2   -0.03    0.10
   1   0  -2   -0.09    0.10
  -1   0   2   -0.07    0.11
  -1   0   2   -0.04    0.09
   1   0  -2    0.06    0.08
  -1   0   2   -0.02    0.09
   0   0  -2  324.06    8.65
   0   0  -2  326.43    8.46
   0   0   2  335.14   10.23
   0   0   2  333.66    8.47
   0   0  -2  331.47   10.23
  -1   0  -2   -0.16    0.12
   1   0   2    0.13    0.12
  -1   0  -2   -0.04    0.08
   1   0   2    0.02    0.09
   1   0   2   -0.13    0.11
  -1   0  -2    0.08    0.09
   1   0   2   -0.13    0.13
   2   0   2   53.83    1.41
  -2   0  -2   51.94    1.39
   2   0   2   53.65    1.39
  -2   0  -2   49.49    1.40
  -3   0  -2    0.00    0.18
  -3   0  -2   -0.10    0.16
   3   0   2    0.04    0.19
   3   0   2   -0.06    0.15
   3   0   2    0.15    0.17
   4   0   2    0.81    0.22
   4   0   2    0.33    0.21
  -4   0  -2    0.51    0.27
  -4   0  -2    0.81    0.26
   4   0   2    0.77    0.19
   4   0   2    0.57    0.17
  -4   0  -2    0.72    0.21
  -4   0  -2    0.45    0.24
   4   0   2    0.70    0.25
   5   0   2    0.05    0.16
  -5   0  -2   -0.20    0.28
  -5   0  -2   -0.15    0.24
  -5   0  -2    0.29    0.28
   5   0   2   -0.17    0.24
  -5   0  -2   -0.33    0.21
   5   0   2    0.09    0.23
   5   0   2   -0.09    0.19
  -6   0  -2    8.44    0.73
   6   0   2    9.54    0.62
  -6   0  -2   10.09    0.69
   6   0   2    8.44    0.40
  -6   0  -2    9.87    0.58
   6   0   2    9.62    0.56
   7   0   2    0.10    0.27
  -7   0  -2    0.09    0.47
   7   0   2    0.30    0.37
   7   0   2    0.04    0.33
   7   0   2    0.26    0.24
   7   0   2   -0.36    0.35
   7   0   2   -0.36    0.23
  -7   0  -2   -0.34    0.45
   8   0   2    1.80    0.29
  -8   0  -2    2.29    0.31
   8   0   2    3.02    0.44
   8   0   2    1.50    0.36
  -8   0  -2    1.94    0.59
  -8   0  -2    1.56    0.47
   8   0   2    1.52    0.33
   8   0   2    2.30    0.32
   8   0   2    1.85    0.43
   9   0   2   -0.25    0.24
  -9   0  -2   -0.30    0.48
   9   0   2   -0.28    0.36
  -9   0  -2    0.09    0.40
   9   0   2    0.09    0.37
   9   0   2   -0.45    0.26
   9   0   2   -0.11    0.48
   9   0   2    0.20    0.31
  -9   0  -2    0.18    0.27
  10   0   2    0.70    0.25
  10   0   2    0.61    0.30
  10   0   2    0.93    0.21
  10   0   2    0.98    0.29
 -10   0  -2    0.40    0.25
  11  -1  -2    0.00    0.19
  11  -1  -2   -0.11    0.30
 -11  -1   2    0.18    0.23
  11  -1  -2   -0.05    0.26
  11  -1  -2   -0.21    0.20
  11   1  -2    0.11    0.21
 -11   1   2   -0.15    0.21
  11   1  -2   -0.37    0.23
 -11   1   2   -0.18    0.26
  10  -1  -2    0.58    0.32
  10  -1  -2    0.56    0.26
 -10  -1   2    1.16    0.25
  10  -1  -2    0.60    0.27
  10  -1  -2    1.21    0.40
  10   1  -2    0.82    0.29
  10   1  -2    0.66    0.26
  10   1  -2    1.02    0.29
 -10   1   2    0.77    0.27
 -10   1   2    0.85    0.31
   9  -1  -2    0.88    0.31
   9  -1  -2    0.63    0.35
   9  -1  -2    0.60    0.26
   9  -1  -2    0.14    0.39
  -9  -1   2    0.87    0.45
   9   1  -2    0.85    0.41
   9   1  -2   -0.01    0.27
  -9   1   2    0.78    0.36
   9   1  -2    0.90    0.28
   9   1  -2    1.25    0.51
   9   1  -2    0.69    0.26
   9   1  -2    0.98    0.28
  -9   1   2    0.77    0.28
  -9   1   2    0.21    0.41
  -9   1   2    1.06    0.31
   8  -1  -2    1.93    0.36
   8  -1  -2    1.49    0.29
   8  -1  -2    1.04    0.32
   8  -1  -2    1.51    0.43
   8  -1  -2    1.58    0.35
  -8  -1   2    1.86    0.42
  -8  -1   2    1.09    0.45
   8   1  -2    1.53    0.27
   8   1  -2    1.68    0.29
   8   1  -2    1.89    0.52
  -8   1   2    1.46    0.31
  -8   1   2    2.05    0.32
   8   1  -2    1.61    0.26
   8   1  -2    1.66    0.28
  -8   1   2    2.07    0.28
  -8   1   2    1.42    0.39
   8   1  -2    2.38    0.44
  -8   1   2    1.41    0.44
  -7  -1   2    1.25    0.31
  -7  -1   2    1.06    0.40
   7  -1  -2    0.20    0.26
  -7  -1   2    0.68    0.34
   7  -1  -2    0.65    0.26
   7  -1  -2    0.65    0.38
   7  -1  -2    0.76    0.28
  -7   1   2    0.86    0.28
   7   1  -2    0.63    0.21
   7   1  -2    0.77    0.24
  -7   1   2    0.88    0.29
   7   1  -2    1.06    0.38
  -7   1   2    0.56    0.34
   7   1  -2    0.87    0.25
  -7   1   2    0.55    0.36
  -7   1   2    0.69    0.31
   7   1  -2    0.71    0.43
   6  -1  -2    0.03    0.22
   6  -1  -2   -0.05    0.24
   6  -1  -2   -0.39    0.30
  -6  -1   2   -0.33    0.29
   6  -1  -2    0.06    0.21
  -6  -1   2   -0.04    0.25
   6  -1  -2    0.04    0.28
   6  -1  -2    0.19    0.24
  -6  -1   2   -0.01    0.27
  -6   1   2    0.35    0.23
  -6   1   2    0.59    0.27
   6   1  -2   -0.10    0.30
   6   1  -2    0.19    0.37
  -6   1   2   -0.05    0.31
  -6   1   2    0.01    0.28
   6   1  -2    0.08    0.19
   5  -1  -2    1.02    0.28
   5  -1  -2    1.31    0.27
   5  -1  -2    1.07    0.24
   5  -1  -2    0.92    0.21
  -5  -1   2    0.91    0.24
  -5  -1   2    1.07    0.26
   5  -1  -2    1.09    0.26
  -5   1   2    1.40    0.29
  -5   1   2    0.98    0.22
  -5   1   2    1.21    0.23
   5   1  -2    1.36    0.36
  -5   1   2    1.19    0.25
   5   1  -2    0.90    0.32
  -5   1   2    1.65    0.24
  -5   1   2    0.99    0.30
   5   1  -2    1.22    0.28
  -4  -1   2   27.16    1.08
   4  -1  -2   25.94    0.88
   4  -1  -2   25.32    0.88
   4  -1  -2   27.56    0.82
   4  -1  -2   26.99    0.86
  -4  -1   2   27.55    0.93
   4  -1  -2   26.17    0.88
   4   1  -2   26.77    0.92
   4   1  -2   27.80    1.37
   4   1  -2   26.35    0.76
   4   1  -2   26.07    1.04
  -4   1   2   25.61    0.82
  -4   1   2   26.74    0.86
  -4   1   2   26.27    0.81
  -4   1   2   25.64    0.93
   4   1  -2   26.77    0.80
  -4   1   2   26.63    1.08
  -4   1   2   27.18    0.92
  -3  -1   2    5.10    0.34
   3  -1  -2    4.67    0.33
   3  -1  -2    4.81    0.32
   3   1  -2    6.02    0.59
  -3   1   2    5.47    0.37
  -3   1   2    5.13    0.35
   3   1  -2    4.64    0.25
  -3   1   2    4.62    0.31
  -3   1   2    4.74    0.27
   3   1  -2    4.56    0.23
  -2  -1   2    0.82    0.15
  -2  -1   2    1.11    0.14
  -2  -1   2    1.04    0.17
   2  -1  -2    1.12    0.18
   2  -1  -2    0.57    0.23
  -2  -1   2    0.90    0.12
  -2   1   2    0.73    0.12
   2   1  -2    0.62    0.17
  -2   1   2    0.76    0.17
   2   1  -2    0.95    0.35
  -2   1   2    1.04    0.18
   2   1  -2    0.93    0.12
  -1  -1   2   39.23    1.08
   1  -1  -2   40.32    1.11
   1  -1  -2   41.21    1.12
   1  -1  -2   40.31    1.29
  -1  -1   2   40.81    1.10
  -1  -1   2   41.19    1.45
  -1   1   2   40.45    1.28
  -1   1   2   40.14    1.10
  -1   1   2   39.51    1.25
  -1   1   2   41.18    1.09
   1   1  -2   40.92    1.10
   1   1  -2   39.75    1.09
   1   1  -2   40.84    1.89
   0  -1  -2  345.75   10.21
   0  -1  -2  342.67   10.47
   0  -1   2  326.65   10.22
   0  -1   2  332.83    8.68
   0  -1  -2  341.08    8.67
   0  -1   2  339.75    8.87
   0  -1  -2  341.46   11.60
   0   1   2  337.88    8.66
   0   1  -2  344.32    8.69
   0   1   2  336.10    8.85
   0   1   2  333.86    8.67
   0   1   2  341.70   10.46
  -1  -1  -2  989.80   30.51
   1  -1   2  971.97   25.27
   1  -1   2  978.47   25.79
  -1   1  -2 1000.00   25.26
  -1   1  -2  987.06   25.80
  -1   1  -2  991.12   30.46
   2  -1   2    1.64    0.22
   2  -1   2    1.70    0.21
  -2  -1  -2    1.53    0.17
  -2   1  -2    1.31    0.22
  -2   1  -2    1.49    0.23
   2   1   2    1.58    0.19
  -2   1  -2    1.35    0.20
   3  -1   2    0.89    0.22
   3  -1   2    0.63    0.18
   3  -1   2    0.88    0.22
  -3  -1  -2    1.28    0.20
  -3  -1  -2    1.18    0.17
   3  -1   2    1.16    0.24
  -3   1  -2    1.01    0.25
  -3   1  -2    1.28    0.32
  -3   1  -2    1.00    0.27
  -3   1  -2    1.27    0.23
   3   1   2    1.16    0.21
   3   1   2    1.11    0.18
   3   1   2    0.93    0.20
  -3   1  -2    1.12    0.30
  -3   1  -2    0.93    0.24
  -3   1  -2    1.40    0.25
   4  -1   2    2.75    0.26
  -4  -1  -2    1.87    0.25
   4  -1   2    2.21    0.26
   4  -1   2    1.80    0.26
   4  -1   2    2.10    0.22
   4  -1   2    2.00    0.26
   4   1   2    2.70    0.27
   4   1   2    3.21    0.27
  -4   1  -2    2.02    0.26
  -4   1  -2    2.29    0.28
  -4   1  -2    2.22    0.36
  -4   1  -2    2.34    0.26
  -4   1  -2    2.14    0.33
  -4   1  -2    2.56    0.31
  -4   1  -2    2.60    0.35
   4   1   2    2.51    0.23
   4   1   2    2.29    0.26
  -4   1  -2    1.76    0.30
   5  -1   2   35.89    1.12
   5  -1   2   35.62    1.06
   5  -1   2   35.71    1.10
   5  -1   2   36.46    1.09
  -5  -1  -2   34.14    1.21
   5  -1   2   36.23    1.18
  -5   1  -2   36.22    1.25
   5   1   2   35.57    1.42
  -5   1  -2   37.05    1.22
   5   1   2   36.42    1.10
  -5   1  -2   34.80    1.38
  -5   1  -2   37.37    1.31
   5   1   2   37.14    1.17
  -5   1  -2   36.31    1.16
   5   1   2   36.34    1.38
   6  -1   2   26.63    0.92
   6  -1   2   27.85    0.93
   6  -1   2   28.58    1.07
  -6  -1  -2   29.43    1.19
  -6  -1  -2   30.21    1.09
   6  -1   2   28.54    1.00
   6   1   2   29.47    1.00
  -6   1  -2   28.53    1.08
  -6   1  -2   29.31    1.09
  -6   1  -2   27.13    1.24
   6   1   2   28.93    1.22
   6   1   2   28.97    1.04
   6   1   2   28.41    0.96
  -6   1  -2   29.43    1.03
   7  -1   2    7.38    0.50
   7  -1   2    7.59    0.49
   7  -1   2    7.00    0.48
   7  -1   2    7.06    0.48
   7  -1   2    7.25    0.54
  -7  -1  -2    8.63    0.66
   7  -1   2    7.15    0.44
   7  -1   2    6.92    0.53
   7  -1   2    6.53    0.48
   7   1   2    7.29    0.51
   7   1   2    7.68    0.44
  -7   1  -2    7.15    0.50
   7   1   2    8.13    0.62
  -7   1  -2    6.78    0.64
   7   1   2    8.11    0.49
  -7   1  -2    7.16    0.51
   7   1   2    8.02    0.51
  -7   1  -2    6.48    0.55
  -7   1  -2    8.76    0.57
   7   1   2    7.93    0.55
   8  -1   2    0.07    0.39
   8  -1   2   -0.31    0.26
   8  -1   2    0.14    0.41
   8  -1   2   -0.32    0.24
  -8  -1  -2    0.05    0.54
   8  -1   2    0.22    0.23
   8  -1   2    0.66    0.31
  -8   1  -2   -0.11    0.42
   8   1   2    0.42    0.32
   8   1   2   -0.20    0.26
  -8   1  -2    0.05    0.30
   8   1   2   -0.03    0.29
  -8   1  -2   -0.01    0.49
   8   1   2    0.29    0.21
   8   1   2   -0.16    0.50
   9  -1   2    2.19    0.33
   9  -1   2    1.79    0.29
   9  -1   2    2.50    0.42
   9  -1   2    1.95    0.28
   9  -1   2    1.77    0.24
  -9   1  -2    2.59    0.32
   9   1   2    1.61    0.23
   9   1   2    2.34    0.33
   9   1   2    2.59    0.31
  10  -1   2    3.58    0.37
  10  -1   2    2.82    0.30
  10  -1   2    2.75    0.27
  10  -1   2    2.54    0.26
  10   1   2    3.08    0.31
 -10   1  -2    2.44    0.28
  11  -2  -2    0.24    0.26
  11  -2  -2    0.25    0.16
 -11   2   2    0.43    0.23
  10  -2  -2    1.71    0.38
  10  -2  -2    0.89    0.30
  10  -2  -2    1.22    0.26
 -10   2   2    0.93    0.26
 -10   2   2    1.29    0.25
   9  -2  -2    0.01    0.22
   9  -2  -2   -0.17    0.37
   9  -2  -2    0.08    0.27
   9  -2  -2    0.08    0.32
  -9   2   2    0.09    0.26
   9   2  -2    0.15    0.46
   9   2  -2    0.64    0.25
  -9   2   2    0.98    0.29
   8  -2  -2    0.13    0.37
   8  -2  -2    0.00    0.30
   8  -2  -2   -0.14    0.26
   8  -2  -2    0.32    0.30
  -8   2   2    0.15    0.30
  -8   2   2    0.05    0.35
   8   2  -2    0.60    0.52
  -8   2   2   -0.06    0.29
   8   2  -2   -0.21    0.23
  -8   2   2   -0.14    0.27
  -8   2   2   -0.54    0.34
   7  -2  -2    0.21    0.27
   7  -2  -2    0.15    0.31
   7  -2  -2   -0.08    0.34
   7  -2  -2   -0.18    0.35
   7  -2  -2    0.16    0.31
   7   2  -2   -0.21    0.22
   7   2  -2    0.07    0.46
   7   2  -2    0.09    0.34
  -7   2   2    0.20    0.35
  -7   2   2   -0.26    0.26
  -7   2   2    0.08    0.30
   7   2  -2   -0.02    0.21
   7   2  -2    0.20    0.22
  -7   2   2    0.17    0.34
  -7   2   2    0.39    0.30
   6  -2  -2    1.93    0.31
   6  -2  -2    2.48    0.33
   6  -2  -2    2.11    0.31
   6  -2  -2    2.30    0.37
  -6  -2   2    2.04    0.33
  -6   2   2    2.25    0.31
  -6   2   2    2.24    0.41
  -6   2   2    1.85    0.36
  -6   2   2    2.03    0.33
   6   2  -2    2.06    0.24
  -6   2   2    2.17    0.28
   6   2  -2    2.20    0.44
   6   2  -2    2.54    0.35
   5  -2  -2    1.82    0.27
   5  -2  -2    1.76    0.36
  -5  -2   2    2.06    0.31
   5  -2  -2    2.40    0.28
   5  -2  -2    2.11    0.31
   5  -2  -2    2.19    0.29
   5  -2  -2    2.05    0.29
   5   2  -2    1.79    0.30
   5   2  -2    2.06    0.40
   5   2  -2    2.01    0.22
  -5   2   2    2.27    0.38
  -5   2   2    1.93    0.28
  -5   2   2    2.02    0.28
   5   2  -2    2.06    0.22
  -5   2   2    2.17    0.31
  -5   2   2    2.59    0.26
  -5   2   2    1.56    0.29
  -5   2   2    1.93    0.32
   4  -2  -2    7.13    0.42
   4  -2  -2    7.09    0.46
   4  -2  -2    8.13    0.54
  -4  -2   2    7.44    0.52
   4  -2  -2    6.99    0.55
   4  -2  -2    7.16    0.42
   4  -2  -2    7.07    0.45
   4   2  -2    7.36    0.75
   4   2  -2    6.69    0.46
  -4   2   2    6.66    0.45
  -4   2   2    7.34    0.55
   4   2  -2    8.05    0.60
  -4   2   2    7.12    0.44
  -4   2   2    7.28    0.47
   4   2  -2    7.08    0.52
   3  -2  -2   13.07    0.54
   3  -2  -2   12.87    0.53
  -3  -2   2   12.72    0.65
   3  -2  -2   12.90    0.62
  -3  -2   2   13.22    0.51
   3  -2  -2   13.30    0.50
   3  -2  -2   13.06    0.62
   3   2  -2   12.66    0.94
   3   2  -2   12.08    0.69
  -3   2   2   13.13    0.53
  -3   2   2   12.27    0.54
  -3   2   2   14.02    0.52
   3   2  -2   13.23    0.68
  -3   2   2   13.86    0.61
   3   2  -2   12.72    0.57
  -2  -2   2    0.00    0.17
   2  -2  -2    0.18    0.25
  -2  -2   2    0.39    0.15
  -2  -2   2   -0.07    0.23
  -2  -2   2    0.12    0.23
   2  -2  -2   -0.12    0.16
   2  -2  -2    0.03    0.18
   2   2  -2   -0.02    0.23
  -2   2   2    0.22    0.31
   2   2  -2   -0.23    0.30
   2   2  -2    0.08    0.44
  -2   2   2   -0.14    0.20
   2   2  -2    0.26    0.30
  -2   2   2    0.08    0.27
   2   2  -2    0.14    0.11
   2   2  -2    0.16    0.16
  -2   2   2    0.19    0.20
  -2   2   2   -0.09    0.23
  -2   2   2    0.06    0.18
   1  -2  -2    2.32    0.24
   1  -2  -2    1.56    0.20
  -1  -2   2    1.19    0.23
  -1  -2   2    1.48    0.17
  -1  -2   2    1.40    0.26
   1   2  -2    1.62    0.21
  -1   2   2    2.10    0.32
  -1   2   2    1.53    0.18
  -1   2   2    1.67    0.29
   1   2  -2    1.28    0.34
  -1   2   2    1.49    0.20
   1   2  -2    1.44    0.35
   1   2  -2    1.40    0.44
  -1   2   2    1.85    0.24
  -1   2   2    1.46    0.19
   1   2  -2    1.39    0.14
   0  -2  -2    9.78    0.46
   0  -2   2    9.38    0.39
   0  -2   2    9.00    0.47
   0  -2   2    9.06    0.46
   0   2  -2    9.86    0.77
   0   2   2   10.37    0.55
   0   2   2    9.22    0.58
   0   2  -2    9.26    0.45
   0   2  -2    9.43    0.39
   0   2  -2    9.15    0.63
   0   2   2   10.92    0.36
   0   2  -2    8.96    0.65
   1  -2   2   37.45    1.09
   1  -2   2   37.76    1.06
   1  -2   2   36.96    1.25
   1  -2   2   36.82    1.21
   1  -2   2   38.79    1.09
   1  -2   2   36.79    1.09
  -1  -2  -2   38.55    1.23
  -1  -2  -2   36.84    1.36
  -1   2  -2   38.27    1.44
   1   2   2   37.41    1.42
  -1   2  -2   37.87    1.19
  -1   2  -2   37.13    1.12
   1   2   2   41.74    1.47
  -1   2  -2   35.00    1.78
  -1   2  -2   38.40    1.07
  -2  -2  -2   71.28    2.46
   2  -2   2   70.66    1.92
   2  -2   2   69.39    1.95
   2  -2   2   70.84    1.90
   2  -2   2   70.29    1.88
  -2  -2  -2   71.80    2.18
   2  -2   2   67.07    2.13
   2   2   2   70.58    2.17
  -2   2  -2   70.97    1.97
   2   2   2   62.94    2.35
  -2   2  -2   71.74    1.91
  -2   2  -2   68.11    1.89
  -2   2  -2   68.83    2.10
   2   2   2   69.50    2.58
  -2   2  -2   69.70    2.06
   2   2   2   68.50    2.47
   3  -2   2   14.13    0.61
   3  -2   2   15.07    0.59
  -3  -2  -2   15.95    0.65
   3  -2   2   14.85    0.57
   3  -2   2   15.06    0.56
   3   2   2   15.03    0.62
  -3   2  -2   15.45    0.60
   3   2   2   15.09    0.70
  -3   2  -2   14.56    0.68
  -3   2  -2   15.24    0.70
  -3   2  -2   14.66    0.66
  -3   2  -2   14.77    0.60
   3   2   2   13.95    0.73
   4  -2   2    0.07    0.20
   4  -2   2    0.24    0.21
   4  -2   2   -0.08    0.24
   4  -2   2    0.31    0.23
   4  -2   2   -0.27    0.24
  -4   2  -2    0.11    0.30
  -4   2  -2    0.22    0.34
  -4   2  -2    0.08    0.33
  -4   2  -2    0.13    0.24
   4   2   2   -0.18    0.23
  -4   2  -2    0.29    0.27
   4   2   2   -0.21    0.31
   5  -2   2   -0.04    0.22
   5  -2   2   -0.40    0.24
   5  -2   2   -0.07    0.29
   5   2   2    0.05    0.21
   5   2   2   -0.16    0.36
   5   2   2    0.18    0.31
  -5   2  -2    0.26    0.41
  -5   2  -2   -0.22    0.34
  -5   2  -2    0.68    0.34
  -5   2  -2    0.16    0.26
  -5   2  -2    0.13    0.38
   6  -2   2   42.53    1.42
   6  -2   2   42.60    1.30
   6  -2   2   44.31    1.36
   6  -2   2   40.28    1.44
   6  -2   2   39.90    1.29
  -6   2  -2   43.13    1.50
  -6   2  -2   42.24    1.33
  -6   2  -2   40.94    1.23
  -6   2  -2   43.11    1.48
  -6   2  -2   42.24    1.38
   6   2   2   44.25    1.67
   6   2   2   41.63    1.39
   7  -2   2   32.77    1.17
   7  -2   2   32.06    1.09
   7  -2   2   30.98    1.05
   7  -2   2   31.98    1.05
   7  -2   2   31.80    1.18
   7  -2   2   33.00    1.21
  -7   2  -2   28.89    1.21
  -7   2  -2   33.10    0.99
  -7   2  -2   32.23    1.13
   7   2   2   32.08    1.12
  -7   2  -2   31.55    1.08
   8  -2   2    0.23    0.39
   8  -2   2   -0.04    0.36
   8  -2   2    0.00    0.24
   8  -2   2    0.14    0.32
   8  -2   2   -0.19    0.28
   8  -2   2    0.37    0.26
   8   2   2    0.37    0.45
   8   2   2    0.50    0.25
  -8   2  -2   -0.11    0.35
  -8   2  -2   -0.46    0.24
  -8   2  -2    0.41    0.30
  -8   2  -2   -0.14    0.36
   9  -2   2   -0.06    0.20
   9  -2   2    0.08    0.22
   9  -2   2    0.29    0.34
   9  -2   2   -0.36    0.24
   9   2   2   -0.25    0.22
  -9   2  -2    0.26    0.27
  10  -2   2   -0.09    0.14
  10  -2   2    0.14    0.24
  10  -2   2   -0.11    0.20
  10  -2   2   -0.19    0.15
  10   2   2   -0.22    0.20
 -10   2  -2    0.01    0.21
   9  -3  -2   46.06    1.49
   9  -3  -2   44.30    1.40
   9  -3  -2   45.51    1.33
   9  -3  -2   45.56    1.48
  -9   3   2   48.05    1.30
  -9   3   2   46.86    1.36
   8  -3  -2    1.49    0.29
   8  -3  -2    1.66    0.30
  -8   3   2    1.91    0.28
  -8   3   2    1.87    0.28
   7  -3  -2    0.52    0.28
   7  -3  -2    0.52    0.36
   7  -3  -2    0.81    0.31
   7  -3  -2    0.39    0.27
  -7   3   2    0.71    0.27
  -7   3   2    0.60    0.31
  -7   3   2    1.05    0.54
  -7   3   2    1.30    0.28
  -7   3   2    0.72    0.35
   7   3  -2    1.14    0.48
   6  -3  -2   25.41    0.96
   6  -3  -2   26.02    1.04
  -6  -3   2   27.69    1.27
   6  -3  -2   26.66    0.93
   6  -3  -2   26.37    0.96
   6  -3  -2   26.29    0.98
  -6   3   2   23.45    1.36
  -6   3   2   24.96    0.90
  -6   3   2   26.53    0.86
  -6   3   2   25.51    0.97
   6   3  -2   26.27    1.24
  -6   3   2   26.20    0.86
  -6   3   2   25.81    1.02
  -6   3   2   24.78    1.05
   5  -3  -2    7.90    0.54
   5  -3  -2    8.23    0.55
   5  -3  -2    7.06    0.56
  -5  -3   2    7.77    0.73
   5  -3  -2    7.24    0.51
   5  -3  -2    7.73    0.59
   5   3  -2    8.27    0.46
  -5   3   2    6.34    0.71
  -5   3   2    6.58    0.53
   5   3  -2    7.57    0.64
  -5   3   2    6.73    0.47
  -5   3   2    7.19    0.50
  -5   3   2    6.97    0.45
   5   3  -2    8.12    0.64
  -5   3   2    5.96    0.50
  -5   3   2    7.63    0.46
   5   3  -2    7.38    0.51
  -5   3   2    7.74    0.53
   4  -3  -2    7.33    0.53
  -4  -3   2    6.78    0.61
   4  -3  -2    8.25    0.59
   4  -3  -2    8.38    0.51
   4  -3  -2    8.39    0.55
   4  -3  -2    8.38    0.63
  -4  -3   2    7.86    0.55
   4   3  -2    7.42    0.51
  -4   3   2    7.46    0.52
   4   3  -2    8.97    0.62
   4   3  -2    7.73    0.43
  -4   3   2    7.16    0.54
  -4   3   2    6.55    0.50
  -4   3   2    7.51    0.53
   4   3  -2    8.37    0.44
   4   3  -2    8.68    0.68
  -4   3   2    8.00    0.70
   4   3  -2    8.31    0.43
   4   3  -2    7.96    0.46
  -4   3   2    8.27    0.50
  -4   3   2    7.77    0.44
  -4   3   2    8.09    0.54
  -4   3   2    7.59    0.52
   4   3  -2    8.17    0.41
  -4   3   2    7.70    0.51
   3  -3  -2    0.01    0.21
   3  -3  -2    0.28    0.25
  -3  -3   2   -0.33    0.25
   3  -3  -2    0.36    0.31
   3   3  -2   -0.07    0.39
  -3   3   2   -0.16    0.25
   3   3  -2   -0.25    0.24
   3   3  -2   -0.01    0.18
   3   3  -2    0.34    0.22
  -3   3   2    0.27    0.30
  -3   3   2    0.24    0.25
   3   3  -2    0.13    0.21
   3   3  -2   -0.33    0.40
  -3   3   2   -0.12    0.27
  -3   3   2    0.29    0.25
  -3   3   2   -0.02    0.38
  -3   3   2   -0.03    0.31
  -3   3   2   -0.11    0.23
  -2  -3   2   -0.08    0.24
   2  -3  -2   -0.20    0.24
   2  -3  -2    0.27    0.31
   2   3  -2   -0.22    0.38
   2   3  -2   -0.04    0.41
   2   3  -2    0.23    0.20
   2   3  -2   -0.14    0.21
  -2   3   2   -0.22    0.23
  -2   3   2   -0.01    0.20
  -2   3   2    0.21    0.29
  -2   3   2    0.09    0.22
   2   3  -2   -0.23    0.21
  -2   3   2    0.41    0.28
  -2   3   2    0.15    0.33
   2   3  -2    0.12    0.20
  -2   3   2   -0.07    0.27
  -2   3   2    0.24    0.22
   2   3  -2   -0.39    0.23
  -2   3   2    0.06    0.33
  -1  -3   2    1.59    0.28
  -1  -3   2    1.05    0.28
  -1  -3   2    1.36    0.20
   1  -3  -2    2.04    0.26
  -1   3   2    1.33    0.27
   1   3  -2    1.38    0.17
  -1   3   2    1.67    0.27
  -1   3   2    1.34    0.19
  -1   3   2    1.61    0.25
   1   3  -2    1.92    0.23
   1   3  -2    1.75    0.22
   1   3  -2    1.76    0.25
   1   3  -2    1.63    0.43
  -1   3   2    1.52    0.36
   1   3  -2    1.39    0.46
  -1   3   2    1.80    0.25
   1   3  -2    1.39    0.25
  -1   3   2    1.14    0.39
  -1   3   2    1.78    0.28
  -1   3   2    1.53    0.19
   1   3  -2    1.46    0.28
   1   3  -2    1.60    0.25
   0  -3   2   -0.27    0.25
   0  -3  -2    0.17    0.27
   0  -3   2    0.50    0.26
   0  -3  -2    0.30    0.24
   0  -3  -2    0.38    0.22
   0  -3   2    0.22    0.19
   0   3   2    0.34    0.22
   0   3  -2    0.40    0.18
   0   3   2    0.07    0.28
   0   3   2    0.31    0.23
   0   3  -2    0.48    0.23
   0   3   2    0.01    0.38
   0   3  -2    0.97    0.23
   0   3  -2   -0.02    0.41
   0   3   2    0.31    0.24
   0   3   2    0.06    0.24
   0   3  -2    0.35    0.25
   0   3  -2    0.30    0.24
   0   3  -2    0.22    0.21
   0   3  -2    0.04    0.26
   0   3  -2    0.12    0.23
   0   3   2    0.18    0.22
   1  -3   2    0.18    0.26
  -1  -3  -2   -0.05    0.25
  -1  -3  -2   -0.34    0.21
   1  -3   2   -0.07    0.20
  -1   3  -2    0.22    0.39
   1   3   2    0.14    0.22
  -1   3  -2   -0.20    0.24
  -1   3  -2   -0.03    0.23
   1   3   2    0.18    0.25
   1   3   2    0.07    0.37
   1   3   2    0.17    0.23
   1   3   2    0.32    0.21
  -1   3  -2    0.63    0.28
  -1   3  -2   -0.02    0.20
  -1   3  -2    0.57    0.25
  -1   3  -2    0.44    0.28
  -2  -3  -2   -0.04    0.25
   2  -3   2    0.03    0.24
   2  -3   2   -0.07    0.22
   2   3   2   -0.10    0.35
  -2   3  -2    0.25    0.26
  -2   3  -2    0.01    0.24
  -2   3  -2    0.23    0.27
  -2   3  -2   -0.36    0.29
   2   3   2    0.53    0.23
  -2   3  -2    0.08    0.33
  -2   3  -2   -0.02    0.22
  -2   3  -2    0.03    0.29
   3  -3   2    3.40    0.31
   3  -3   2    3.70    0.34
   3  -3   2    3.54    0.40
  -3  -3  -2    3.43    0.35
  -3   3  -2    2.95    0.35
   3   3   2    3.78    0.44
  -3   3  -2    3.05    0.26
  -3   3  -2    3.68    0.34
  -3   3  -2    3.00    0.31
  -3   3  -2    3.54    0.34
  -3   3  -2    3.70    0.45
  -3   3  -2    2.91    0.33
   3   3   2    4.20    0.46
  -3   3  -2    3.10    0.37
  -3   3  -2    2.90    0.30
   3   3   2    3.00    0.27
   4  -3   2    3.76    0.40
   4  -3   2    3.96    0.41
   4  -3   2    3.31    0.33
   4  -3   2    3.56    0.34
  -4   3  -2    4.02    0.48
  -4   3  -2    3.79    0.38
   4   3   2    3.78    0.31
  -4   3  -2    3.70    0.28
   4   3   2    3.08    0.30
   4   3   2    3.69    0.47
   4   3   2    4.61    0.46
  -4   3  -2    3.82    0.38
  -4   3  -2    3.52    0.31
  -4   3  -2    3.18    0.35
   5  -3   2    1.12    0.28
   5  -3   2    0.31    0.34
  -5   3  -2    1.05    0.23
   5   3   2    0.43    0.24
  -5   3  -2    1.62    0.36
  -5   3  -2    0.85    0.32
   5   3   2    0.73    0.41
  -5   3  -2    0.41    0.41
  -5   3  -2    0.75    0.29
   5   3   2    0.68    0.24
   6  -3   2    2.42    0.34
   6  -3   2    1.63    0.32
  -6   3  -2    1.33    0.25
   6   3   2    1.81    0.29
   6   3   2    1.79    0.43
  -6   3  -2    1.09    0.33
  -6   3  -2    1.66    0.32
  -6   3  -2    1.44    0.40
   7  -3   2    0.11    0.26
  -7   3  -2    0.38    0.28
   7   3   2    0.11    0.27
  -7   3  -2   -0.14    0.23
   8  -3   2    0.19    0.22
   8   3   2   -0.06    0.25
  -8   3  -2   -0.01    0.20
  -8   3  -2    0.25    0.26
   9  -3   2    0.78    0.17
  -9   3  -2    0.36    0.22
   8  -4  -2   -0.07    0.18
  -8   4   2   -0.45    0.17
   7  -4  -2    2.82    0.33
  -7   4   2    2.17    0.25
  -7   4   2    2.77    0.32
   6  -4  -2    0.34    0.33
  -6   4   2    0.38    0.24
  -6   4   2    0.07    0.23
  -6   4   2    0.13    0.31
   5  -4  -2   10.66    0.60
   5  -4  -2   11.09    0.64
   5  -4  -2   11.53    0.74
  -5   4   2   12.09    0.63
  -5   4   2    9.74    0.80
  -5   4   2   12.09    0.53
  -5   4   2   12.05    0.62
   5   4  -2   11.88    0.83
  -5   4   2   11.55    0.55
  -5   4   2    9.50    0.63
   5   4  -2   10.94    0.72
  -5   4   2   11.60    0.60
   4  -4  -2    2.96    0.40
   4  -4  -2    3.84    0.46
   4  -4  -2    3.55    0.36
   4  -4  -2    3.35    0.42
  -4  -4   2    3.34    0.39
  -4   4   2    3.12    0.46
  -4   4   2    2.87    0.38
   4   4  -2    3.72    0.32
   4   4  -2    4.34    0.56
   4   4  -2    3.94    0.35
   4   4  -2    3.08    0.32
   4   4  -2    2.85    0.50
  -4   4   2    3.40    0.30
   4   4  -2    3.52    0.27
   4   4  -2    4.18    0.33
  -4   4   2    3.99    0.44
  -4   4   2    3.71    0.32
  -4   4   2    2.99    0.38
  -4   4   2    2.39    0.49
  -4   4   2    3.51    0.39
  -4   4   2    3.84    0.39
  -3  -4   2    0.36    0.32
   3  -4  -2    0.13    0.41
   3  -4  -2   -0.30    0.35
   3  -4  -2    0.25    0.30
   3  -4  -2    0.29    0.37
   3   4  -2    0.30    0.22
  -3   4   2    0.15    0.27
   3   4  -2    0.03    0.29
  -3   4   2   -0.31    0.37
  -3   4   2    0.18    0.28
  -3   4   2    0.85    0.40
  -3   4   2    0.24    0.41
  -3   4   2   -0.23    0.31
  -3   4   2   -0.16    0.22
   3   4  -2   -0.23    0.45
  -3   4   2   -0.11    0.32
   3   4  -2    0.23    0.28
  -3   4   2    0.26    0.32
   3   4  -2    0.14    0.25
   3   4  -2    0.07    0.26
   3   4  -2    0.27    0.27
  -2  -4   2    0.25    0.34
   2  -4  -2    0.12    0.37
   2  -4  -2    0.23    0.39
   2  -4  -2    0.31    0.29
   2  -4  -2   -0.27    0.36
  -2   4   2    0.16    0.41
   2   4  -2    0.36    0.25
   2   4  -2   -0.16    0.29
  -2   4   2   -0.04    0.29
  -2   4   2    0.06    0.37
   2   4  -2    0.21    0.28
   2   4  -2   -0.07    0.22
   2   4  -2   -0.23    0.30
  -2   4   2    0.31    0.33
   2   4  -2    0.12    0.48
   2   4  -2    0.20    0.25
  -2   4   2   -0.13    0.23
  -2   4   2    0.06    0.29
  -2   4   2    0.34    0.37
  -2   4   2    0.10    0.26
   2   4  -2   -0.11    0.24
  -2   4   2   -0.02    0.27
  -2   4   2    0.41    0.37
   2   4  -2   -0.19    0.27
  -2   4   2    0.21    0.32
   1  -4  -2   -0.03    0.39
  -1  -4   2    0.31    0.33
   1  -4  -2    0.24    0.29
  -1   4   2    0.32    0.23
   1   4  -2    0.01    0.28
   1   4  -2    0.53    0.33
   1   4  -2    0.21    0.30
  -1   4   2    0.51    0.35
  -1   4   2    0.95    0.33
   1   4  -2    0.37    0.23
   1   4  -2    0.58    0.29
  -1   4   2    0.53    0.27
   1   4  -2    0.48    0.30
  -1   4   2    0.58    0.47
   1   4  -2    0.19    0.27
  -1   4   2    0.04    0.36
   1   4  -2    0.16    0.27
  -1   4   2    0.67    0.28
  -1   4   2    0.65    0.31
  -1   4   2   -0.02    0.31
   1   4  -2    0.30    0.49
  -1   4   2    0.41    0.30
   0  -4   2   16.34    0.82
   0  -4  -2   17.04    0.91
   0  -4  -2   17.59    0.75
   0  -4   2   17.01    0.77
   0   4  -2   16.96    0.70
   0   4   2   16.73    0.71
   0   4  -2   16.15    0.74
   0   4   2   17.07    0.71
   0   4  -2   15.54    0.97
   0   4   2   16.19    0.76
   0   4  -2   16.16    0.67
   0   4  -2   15.87    0.74
   0   4  -2   15.40    0.66
   0   4  -2   17.25    0.64
   0   4   2   16.27    0.63
   0   4   2   15.90    0.66
   0   4   2   17.72    0.73
   0   4   2   16.88    0.73
   0   4  -2   15.69    0.77
   0   4  -2   15.95    0.70
   0   4   2   18.74    0.71
   0   4   2   15.71    0.95
   0   4   2   16.98    0.81
   1  -4   2    4.87    0.41
  -1  -4  -2    4.11    0.46
   1   4   2    3.93    0.56
  -1   4  -2    4.59    0.41
  -1   4  -2    4.24    0.34
   1   4   2    4.54    0.38
   1   4   2    4.66    0.34
   1   4   2    4.68    0.40
  -1   4  -2    4.48    0.37
  -1   4  -2    5.14    0.42
   1   4   2    4.70    0.37
   1   4   2    4.94    0.39
  -1   4  -2    4.64    0.44
  -1   4  -2    3.97    0.55
  -1   4  -2    3.94    0.32
  -1   4  -2    4.65    0.33
  -1   4  -2    4.73    0.42
   2  -4   2    0.29    0.26
   2  -4   2    0.12    0.29
   2  -4   2    0.38    0.37
  -2   4  -2    0.12    0.28
  -2   4  -2    0.43    0.31
   2   4   2    0.53    0.26
  -2   4  -2    0.41    0.33
  -2   4  -2    0.20    0.27
  -2   4  -2    0.57    0.26
   2   4   2   -0.25    0.41
  -2   4  -2    0.15    0.34
  -2   4  -2    0.15    0.29
   2   4   2    0.73    0.29
  -2   4  -2    0.23    0.37
   2   4   2    0.92    0.30
   3  -4   2   -0.04    0.34
   3  -4   2    0.31    0.28
   3  -4   2    0.08    0.26
  -3   4  -2    0.17    0.25
  -3   4  -2    0.13    0.34
  -3   4  -2    0.08    0.27
  -3   4  -2    0.86    0.36
  -3   4  -2    0.54    0.29
  -3   4  -2    0.18    0.29
   3   4   2    0.79    0.41
   3   4   2    0.15    0.27
  -3   4  -2    0.42    0.38
   4  -4   2    0.87    0.30
   4  -4   2    0.64    0.31
   4  -4   2    1.04    0.33
   4  -4   2    0.67    0.26
   4  -4   2    0.58    0.27
  -4   4  -2    1.26    0.36
   4   4   2    0.79    0.28
  -4   4  -2    1.23    0.30
  -4   4  -2    0.99    0.36
   4   4   2    0.49    0.34
  -4   4  -2    0.80    0.26
   5  -4   2   13.32    0.60
   5   4   2   13.53    0.62
  -5   4  -2   13.74    0.63
  -5   4  -2   14.25    0.57
  -5   4  -2   12.92    0.66
   6  -4   2    0.22    0.23
  -6   4  -2   -0.06    0.22
  -6   4  -2   -0.18    0.25
   7  -4   2    0.01    0.18
  -7   4  -2    0.34    0.18
  -7   4  -2    0.48    0.23
  -5   5   2    0.75    0.17
  -5   5   2    0.91    0.18
  -4   5   2    2.05    0.22
  -4   5   2    1.99    0.21
  -3   5   2   14.41    0.59
  -3   5   2   14.35    0.65
  -3   5   2   13.49    0.59
  -3   5   2   13.21    0.50
  -3   5   2   14.32    0.54
  -3   5   2   13.71    0.61
   3   5  -2   13.86    0.60
  -2   5   2    2.72    0.36
  -2   5   2    2.21    0.27
   2   5  -2    2.26    0.28
   2   5  -2    2.01    0.22
  -2   5   2    2.25    0.29
   2   5  -2    2.65    0.31
  -2   5   2    2.03    0.32
  -2   5   2    2.71    0.33
  -2   5   2    1.86    0.21
   2   5  -2    2.34    0.33
  -1   5   2    0.03    0.23
   1   5  -2   -0.21    0.25
   1   5  -2   -0.29    0.25
   1   5  -2    0.33    0.31
  -1   5   2    0.17    0.25
  -1   5   2   -0.12    0.25
   1   5  -2   -0.11    0.21
  -1   5   2    0.16    0.28
   1   5  -2   -0.07    0.19
  -1   5   2   -0.09    0.17
   1   5  -2    0.37    0.27
  -1   5   2    0.13    0.31
  -1   5   2    0.53    0.28
   0   5  -2    0.68    0.34
   0   5   2    0.59    0.25
   0   5   2    0.83    0.28
   0   5  -2   -0.09    0.27
   0   5  -2    0.54    0.27
   0   5   2    0.31    0.24
   0   5   2    0.50    0.31
   0   5  -2    0.31    0.20
   0   5   2    0.40    0.27
   0   5  -2    0.21    0.21
   0   5  -2    0.16    0.30
  -1   5  -2    0.20    0.28
  -1   5  -2   -0.08    0.27
  -1   5  -2    0.10    0.20
  -1   5  -2    0.09    0.21
  -1   5  -2   -0.05    0.33
  -1   5  -2    0.11    0.31
  -1   5  -2    0.01    0.24
  -1   5  -2   -0.27    0.24
   1   5   2    0.14    0.22
   1   5   2    0.12    0.26
   1   5   2   -0.02    0.28
  -2   5  -2   13.89    0.60
  -2   5  -2   12.69    0.57
  -2   5  -2   12.10    0.53
  -2   5  -2   13.12    0.60
   2   5   2   13.31    0.57
  -2   5  -2   12.80    0.59
  -2   5  -2   13.60    0.51
  -2   5  -2   13.15    0.53
  -2   5  -2   13.94    0.67
  -3   5  -2    1.55    0.30
   3   5   2    1.54    0.23
  -3   5  -2    1.71    0.23
  -3   5  -2    2.04    0.23
  -3   5  -2    1.49    0.22
  -4   5  -2    0.11    0.17
  -4   5  -2    0.25    0.18
  11   0  -3    0.47    0.25
 -11   0   3    1.01    0.24
 -11   0   3    0.74    0.26
  11   0  -3    0.68    0.28
  10   0  -3    0.42    0.24
  10   0  -3   -0.08    0.39
 -10   0   3    0.39    0.26
  10   0  -3    0.21    0.38
  10   0  -3    0.25    0.27
 -10   0   3   -0.23    0.35
  10   0  -3   -0.39    0.29
  10   0  -3    0.19    0.24
  10   0  -3    0.26    0.30
   9   0  -3    3.92    0.36
   9   0  -3    2.91    0.47
  -9   0   3    3.09    0.31
  -9   0   3    3.43    0.50
   9   0  -3    2.20    0.28
   9   0  -3    2.60    0.34
   9   0  -3    2.88    0.50
   9   0  -3    3.23    0.36
   9   0  -3    3.15    0.34
  -9   0   3    1.95    0.45
   8   0  -3   -0.06    0.26
   8   0  -3    0.41    0.23
  -8   0   3   -0.04    0.39
   8   0  -3   -0.46    0.25
   8   0  -3   -0.36    0.42
  -8   0   3   -0.99    0.37
   8   0  -3   -0.54    0.26
   8   0  -3   -0.49    0.40
   8   0  -3   -0.14    0.25
  -7   0   3    4.16    0.46
  -7   0   3    3.49    0.36
   7   0  -3    3.69    0.30
  -7   0   3    4.95    0.50
   7   0  -3    3.13    0.30
   7   0  -3    4.50    0.45
   6   0  -3    0.25    0.22
  -6   0   3    0.09    0.30
   6   0  -3   -0.31    0.31
  -6   0   3   -0.33    0.32
  -6   0   3   -0.29    0.24
   6   0  -3   -0.58    0.24
   6   0  -3   -0.02    0.21
  -5   0   3   14.30    0.63
  -5   0   3   15.70    0.75
   5   0  -3   15.44    0.67
  -5   0   3   14.25    0.54
  -5   0   3   16.62    0.74
  -5   0   3   14.45    0.76
   5   0  -3   14.65    0.59
   5   0  -3   14.51    0.57
   5   0  -3   14.15    0.54
   4   0  -3   -0.08    0.25
  -4   0   3   -0.03    0.27
  -4   0   3    0.20    0.18
   4   0  -3   -0.05    0.22
   4   0  -3    0.34    0.25
  -4   0   3    0.30    0.25
  -4   0   3    0.03    0.20
  -4   0   3   -0.16    0.16
   4   0  -3   -0.12    0.16
   3   0  -3    6.79    0.42
  -3   0   3    6.08    0.37
  -3   0   3    6.14    0.30
  -3   0   3    6.54    0.32
   2   0  -3    0.11    0.13
  -2   0   3   -0.11    0.13
  -2   0   3   -0.28    0.14
  -2   0   3    0.09    0.14
   2   0  -3   -0.04    0.20
  -1   0   3   86.82    2.35
   1   0  -3   94.63    2.77
   1   0  -3   91.10    2.32
   1   0  -3   86.04    2.34
  -1   0   3   85.78    3.05
  -1   0   3   88.03    2.77
   0   0  -3   -0.03    0.11
   0   0   3   -0.05    0.09
   0   0   3    0.07    0.12
   0   0  -3    0.04    0.17
   0   0  -3   -0.18    0.10
   0   0   3   -0.02    0.11
  -1   0  -3   75.82    2.31
   1   0   3   73.77    1.91
  -1   0  -3   72.90    1.95
   1   0   3   73.59    1.95
   1   0   3   73.44    2.23
  -1   0  -3   71.04    1.92
   2   0   3    0.14    0.16
  -2   0  -3   -0.08    0.16
   2   0   3   -0.11    0.14
  -2   0  -3    0.04    0.12
  -2   0  -3    0.03    0.13
   3   0   3    1.40    0.23
  -3   0  -3    1.11    0.23
   3   0   3    1.21    0.18
   3   0   3    1.10    0.16
  -3   0  -3    1.28    0.22
   3   0   3    1.04    0.21
  -4   0  -3   -0.63    0.27
   4   0   3   -0.30    0.18
   4   0   3   -0.46    0.21
   4   0   3   -0.16    0.24
  -4   0  -3   -0.35    0.21
   4   0   3   -0.50    0.21
  -4   0  -3   -0.43    0.26
   4   0   3   -0.27    0.16
  -5   0  -3    4.92    0.35
  -5   0  -3    5.50    0.38
   5   0   3    5.16    0.47
   5   0   3    4.74    0.32
   5   0   3    5.43    0.35
  -5   0  -3    5.07    0.34
  -5   0  -3    4.26    0.39
   5   0   3    4.69    0.29
   5   0   3    5.04    0.33
   6   0   3   -0.18    0.25
  -6   0  -3   -0.70    0.30
  -6   0  -3    0.73    0.37
   6   0   3    0.07    0.29
  -6   0  -3    0.34    0.40
   6   0   3    0.24    0.16
   7   0   3    7.58    0.51
   7   0   3    7.29    0.52
  -7   0  -3    7.46    0.66
   7   0   3    7.81    0.43
   7   0   3    8.33    0.48
  -7   0  -3    6.52    0.48
  -7   0  -3    7.74    0.60
   7   0   3    7.73    0.63
   7   0   3    7.16    0.54
   7   0   3    7.29    0.50
   8   0   3    0.21    0.27
   8   0   3   -0.21    0.38
  -8   0  -3    0.26    0.55
   8   0   3   -0.27    0.28
  -8   0  -3    0.09    0.27
   8   0   3    0.21    0.39
   8   0   3    0.32    0.25
   8   0   3    0.04    0.33
   9   0   3    4.65    0.43
  -9   0  -3    3.10    0.32
   9   0   3    2.47    0.28
   9   0   3    2.77    0.32
   9   0   3    3.13    0.36
  10   0   3    0.44    0.25
  10   0   3   -0.31    0.26
  10   0   3   -0.33    0.17
 -11  -1   3    0.47    0.21
  11  -1  -3    0.54    0.33
  11  -1  -3    0.03    0.26
  11  -1  -3    0.23    0.22
  11  -1  -3    0.59    0.21
 -11   1   3    0.18    0.23
  11   1  -3    0.55    0.23
 -11   1   3    0.09    0.25
  10  -1  -3    0.66    0.26
  10  -1  -3   -0.16    0.37
  10  -1  -3    0.05    0.31
 -10  -1   3    0.52    0.25
  10  -1  -3   -0.03    0.26
  10   1  -3   -0.03    0.23
  10   1  -3    0.26    0.27
 -10   1   3    0.58    0.29
  10   1  -3    0.40    0.27
  10   1  -3    0.04    0.25
 -10   1   3    0.05    0.27
   9  -1  -3    2.76    0.36
   9  -1  -3    2.82    0.45
  -9  -1   3    2.32    0.48
   9  -1  -3    1.88    0.38
   9  -1  -3    2.57    0.32
  -9   1   3    2.53    0.33
   9   1  -3    3.17    0.53
   9   1  -3    2.16    0.29
   9   1  -3    2.43    0.31
  -9   1   3    2.31    0.31
   9   1  -3    2.70    0.32
   9   1  -3    3.18    0.47
   9   1  -3    2.50    0.32
  -9   1   3    1.81    0.46
  -9   1   3    1.40    0.37
   8  -1  -3    3.70    0.40
   8  -1  -3    3.10    0.34
   8  -1  -3    2.55    0.35
   8  -1  -3    2.71    0.36
  -8  -1   3    3.67    0.52
   8  -1  -3    3.10    0.45
  -8  -1   3    2.89    0.42
   8   1  -3    3.01    0.30
  -8   1   3    2.29    0.45
   8   1  -3    2.76    0.29
  -8   1   3    2.48    0.41
   8   1  -3    3.47    0.47
  -8   1   3    3.27    0.31
   8   1  -3    4.21    0.55
  -8   1   3    3.52    0.34
   8   1  -3    3.02    0.31
   8   1  -3    3.76    0.33
   8   1  -3    2.88    0.31
  -8   1   3    2.76    0.33
  -7  -1   3    0.75    0.34
  -7  -1   3    1.36    0.30
   7  -1  -3    0.76    0.25
   7  -1  -3    1.07    0.29
   7  -1  -3    0.93    0.28
   7  -1  -3    0.61    0.38
  -7  -1   3    0.69    0.39
   7  -1  -3    0.84    0.28
  -7   1   3    1.39    0.30
  -7   1   3    0.92    0.34
  -7   1   3    0.53    0.30
  -7   1   3    1.27    0.28
  -7   1   3    0.95    0.37
   7   1  -3    0.81    0.23
   7   1  -3    0.59    0.43
   7   1  -3    0.64    0.23
   7   1  -3    1.08    0.40
  -6  -1   3    1.34    0.27
   6  -1  -3    1.35    0.33
   6  -1  -3    1.45    0.26
   6  -1  -3    0.96    0.29
  -6  -1   3    1.04    0.30
  -6  -1   3    1.48    0.33
   6  -1  -3    1.41    0.25
   6  -1  -3    1.15    0.25
   6  -1  -3    1.83    0.29
  -6   1   3    1.65    0.26
  -6   1   3    1.30    0.27
   6   1  -3    1.25    0.23
  -6   1   3    0.95    0.29
  -6   1   3    1.38    0.31
   6   1  -3    1.27    0.19
   6   1  -3    1.67    0.39
  -6   1   3    1.34    0.33
   6   1  -3    1.44    0.24
   6   1  -3    1.72    0.36
   5  -1  -3   31.02    1.02
   5  -1  -3   31.13    1.04
   5  -1  -3   30.38    1.01
  -5  -1   3   31.12    1.22
  -5  -1   3   31.47    1.10
  -5  -1   3   32.10    1.26
   5  -1  -3   29.68    1.00
   5  -1  -3   31.61    0.95
   5   1  -3   31.27    1.58
   5   1  -3   31.53    1.22
  -5   1   3   30.89    1.25
  -5   1   3   30.87    1.25
  -5   1   3   31.87    0.99
  -5   1   3   31.21    0.96
  -5   1   3   31.38    1.09
   5   1  -3   30.97    0.90
  -5   1   3   31.18    1.05
   5   1  -3   30.76    1.07
   5   1  -3   31.15    0.93
  -5   1   3   31.34    0.94
   4  -1  -3   94.52    2.76
   4  -1  -3   94.83    2.73
  -4  -1   3   95.77    3.33
  -4  -1   3   96.82    3.40
   4  -1  -3   94.88    2.56
   4  -1  -3   94.31    2.56
   4  -1  -3   95.23    2.52
  -4  -1   3   96.52    2.98
   4  -1  -3   92.24    2.75
  -4   1   3   97.20    2.56
  -4   1   3   95.49    2.97
   4   1  -3   95.43    2.50
  -4   1   3   95.89    3.35
   4   1  -3   93.02    2.52
  -4   1   3   93.72    2.50
  -4   1   3   92.82    3.39
   4   1  -3   96.16    4.29
  -4   1   3   93.98    2.78
   4   1  -3   92.23    2.75
   4   1  -3   91.82    3.17
  -4   1   3   96.56    2.61
   3  -1  -3    1.16    0.28
   3  -1  -3    1.33    0.21
  -3  -1   3    1.38    0.20
  -3   1   3    1.15    0.16
   3   1  -3    1.29    0.15
  -3   1   3    1.22    0.20
   3   1  -3    1.31    0.22
  -3   1   3    1.05    0.21
   3   1  -3    2.01    0.42
  -3   1   3    1.60    0.20
  -2  -1   3   43.23    1.40
  -2  -1   3   44.69    1.58
   2  -1  -3   42.92    1.22
   2  -1  -3   44.70    1.25
  -2  -1   3   42.69    1.20
  -2  -1   3   44.20    1.17
  -2  -1   3   46.61    1.41
   2   1  -3   44.13    1.21
   2   1  -3   43.69    1.19
  -2   1   3   44.58    1.19
  -2   1   3   42.13    1.38
   1  -1  -3   30.94    0.86
  -1  -1   3   29.05    0.95
  -1  -1   3   29.81    0.82
   1  -1  -3   31.13    0.83
  -1  -1   3   28.77    1.10
  -1  -1   3   29.34    0.84
   1  -1  -3   30.46    0.97
   1   1  -3   28.41    0.82
   1   1  -3   29.50    0.87
  -1   1   3   30.34    0.97
  -1   1   3   28.39    0.83
  -1   1   3   29.15    0.81
   0  -1  -3  326.98    8.43
   0  -1  -3  334.87    9.91
   0  -1   3  329.12    9.92
   0  -1   3  324.79    8.43
   0  -1   3  329.59    8.61
   0  -1  -3  320.37   11.25
   0  -1   3  334.46   10.16
   0  -1  -3  329.39   10.16
   0   1  -3  338.94    8.44
   0   1  -3  321.39    8.61
   0   1   3  325.45    8.60
   0   1  -3  329.61   10.15
   0   1   3  325.21    8.42
   0   1   3  325.29   10.16
   0   1   3  334.71    8.41
   1  -1   3  481.50   12.71
  -1  -1  -3  482.45   15.01
   1  -1   3  497.96   12.44
  -1  -1  -3  480.74   14.63
  -1   1  -3  495.41   12.45
  -1   1  -3  477.09   12.70
  -1   1  -3  481.12   14.99
   2  -1   3    4.99    0.28
  -2  -1  -3    5.11    0.31
   2  -1   3    4.90    0.36
   2  -1   3    4.72    0.31
  -2  -1  -3    4.91    0.34
   2  -1   3    5.11    0.36
  -2   1  -3    5.13    0.30
  -2   1  -3    5.68    0.40
  -2   1  -3    5.31    0.34
  -2   1  -3    4.93    0.37
  -2   1  -3    4.99    0.36
   2   1   3    4.47    0.29
   2   1   3    5.26    0.36
  -3  -1  -3    0.45    0.19
   3  -1   3    0.26    0.17
  -3  -1  -3    0.10    0.16
   3  -1   3   -0.03    0.20
   3  -1   3    0.15    0.21
   3  -1   3    0.01    0.20
  -3   1  -3    0.21    0.24
  -3   1  -3    0.27    0.29
   3   1   3    0.44    0.17
  -3   1  -3    0.05    0.23
  -3   1  -3    0.18    0.21
   3   1   3    0.08    0.20
   3   1   3    0.25    0.19
   3   1   3    0.07    0.19
  -3   1  -3   -0.13    0.28
  -3   1  -3    0.09    0.24
   4  -1   3   11.37    0.52
   4  -1   3   10.11    0.50
   4  -1   3   10.96    0.44
   4  -1   3   10.94    0.53
   4  -1   3   10.63    0.48
  -4   1  -3   10.18    0.68
   4   1   3    9.96    0.57
   4   1   3   10.78    0.46
  -4   1  -3   10.64    0.57
  -4   1  -3    9.51    0.62
  -4   1  -3   10.86    0.63
  -4   1  -3   11.15    0.59
   4   1   3    9.81    0.55
  -5  -1  -3    1.40    0.30
   5  -1   3    0.99    0.23
   5  -1   3    1.05    0.28
   5  -1   3    1.16    0.22
   5  -1   3    1.42    0.25
   5  -1   3    1.59    0.28
  -5   1  -3    1.69    0.37
  -5   1  -3    1.27    0.36
  -5   1  -3    1.34    0.33
  -5   1  -3    1.27    0.35
   5   1   3    1.82    0.28
   5   1   3    1.74    0.26
  -5   1  -3    1.36    0.31
  -6  -1  -3    2.60    0.33
   6  -1   3    2.72    0.29
   6  -1   3    2.33    0.28
  -6  -1  -3    2.49    0.44
   6  -1   3    1.68    0.26
   6  -1   3    2.54    0.33
   6  -1   3    2.44    0.35
   6  -1   3    2.77    0.38
  -6   1  -3    1.94    0.39
   6   1   3    2.78    0.29
  -6   1  -3    2.04    0.43
  -6   1  -3    2.37    0.43
   6   1   3    2.00    0.31
   6   1   3    2.50    0.42
  -6   1  -3    1.90    0.38
   7  -1   3   50.06    1.68
   7  -1   3   50.96    1.58
  -7  -1  -3   51.50    1.91
   7  -1   3   49.11    1.57
   7  -1   3   50.83    1.48
   7  -1   3   46.86    1.55
   7  -1   3   51.20    1.70
   7  -1   3   49.92    1.65
   7   1   3   52.87    1.56
   7   1   3   50.79    1.91
  -7   1  -3   47.69    1.92
   7   1   3   51.10    1.54
  -7   1  -3   49.84    1.68
  -7   1  -3   49.02    1.70
   7   1   3   53.72    1.58
   7   1   3   50.65    1.64
  -7   1  -3   49.99    1.58
  -7   1  -3   47.15    1.54
  -8  -1  -3   10.48    0.90
   8  -1   3    9.87    0.56
   8  -1   3    9.57    0.63
   8  -1   3   10.00    0.70
   8  -1   3    9.84    0.76
   8  -1   3    9.77    0.56
   8  -1   3    9.81    0.53
   8  -1   3   10.66    0.62
  -8   1  -3    9.79    0.87
  -8   1  -3    9.82    0.57
   8   1   3   11.20    0.57
   8   1   3   11.08    0.63
   8   1   3   11.53    0.62
   8   1   3   10.30    0.49
   8   1   3   10.63    0.87
   9  -1   3    2.53    0.30
   9  -1   3    2.58    0.41
   9  -1   3    2.28    0.24
   9  -1   3    2.19    0.32
   9  -1   3    2.73    0.30
   9   1   3    2.30    0.30
   9   1   3    2.36    0.25
  -9   1  -3    2.48    0.31
  10  -1   3    1.76    0.24
  10  -1   3    2.05    0.21
  10  -1   3    2.21    0.30
 -10   1  -3    1.97    0.25
  10   1   3    1.87    0.26
  11  -2  -3    0.21    0.23
  11  -2  -3   -0.05    0.16
  11  -2  -3   -0.48    0.25
 -11   2   3    0.44    0.18
 -11   2   3    0.23    0.22
  10  -2  -3    0.56    0.25
  10  -2  -3    0.37    0.36
  10  -2  -3    0.69    0.31
 -10   2   3    0.07    0.25
 -10   2   3    0.59    0.25
   9  -2  -3   13.72    0.64
   9  -2  -3   13.17    0.58
   9  -2  -3   13.16    0.66
   9   2  -3   13.91    0.91
   9   2  -3   13.88    0.60
  -9   2   3   14.59    0.60
  -9   2   3   13.80    0.65
   8  -2  -3    9.37    0.62
   8  -2  -3    9.36    0.58
   8  -2  -3    9.06    0.60
   8   2  -3    9.38    0.64
  -8   2   3    9.02    0.62
  -8   2   3    8.88    0.87
  -8   2   3    7.65    0.72
   8   2  -3    9.51    0.52
   8   2  -3   10.21    0.51
   8   2  -3   10.81    0.53
  -8   2   3   10.09    0.58
  -8   2   3    8.96    0.57
   8   2  -3   10.26    0.88
  -8   2   3    9.21    0.54
   7  -2  -3    0.41    0.31
   7  -2  -3    0.56    0.28
   7  -2  -3    0.82    0.36
   7  -2  -3    0.80    0.35
   7   2  -3    1.20    0.36
  -7   2   3    1.11    0.37
   7   2  -3    0.33    0.22
  -7   2   3    1.08    0.27
  -7   2   3    0.99    0.37
  -7   2   3    0.67    0.27
   7   2  -3    0.87    0.26
  -7   2   3    0.72    0.31
  -7   2   3    0.53    0.31
   7   2  -3    1.45    0.48
   7   2  -3    0.68    0.23
   6  -2  -3    1.46    0.30
   6  -2  -3    0.97    0.29
  -6  -2   3    0.98    0.30
   6  -2  -3    1.11    0.30
   6  -2  -3    1.21    0.29
   6   2  -3    1.21    0.22
   6   2  -3    1.25    0.34
  -6   2   3    1.74    0.38
   6   2  -3    1.35    0.22
  -6   2   3    1.58    0.34
  -6   2   3    1.39    0.32
   6   2  -3    1.16    0.43
  -6   2   3    1.12    0.28
   5  -2  -3    2.29    0.29
   5  -2  -3    2.09    0.29
   5  -2  -3    2.05    0.34
   5  -2  -3    1.87    0.29
  -5  -2   3    2.32    0.33
   5  -2  -3    1.97    0.31
   5   2  -3    2.25    0.23
  -5   2   3    2.58    0.30
   5   2  -3    2.73    0.40
   5   2  -3    2.76    0.32
  -5   2   3    2.21    0.32
   5   2  -3    1.83    0.23
  -5   2   3    2.31    0.36
  -5   2   3    2.04    0.29
   4  -2  -3   58.35    1.64
  -4  -2   3   57.92    1.79
   4  -2  -3   59.27    1.68
   4  -2  -3   58.25    1.71
   4  -2  -3   57.90    1.79
   4  -2  -3   57.93    1.79
   4  -2  -3   57.65    1.88
  -4  -2   3   58.29    2.15
  -4   2   3   59.94    1.70
  -4   2   3   58.46    1.63
   4   2  -3   57.73    2.81
   4   2  -3   60.29    2.09
   4   2  -3   57.65    1.78
  -4   2   3   62.11    1.84
  -4   2   3   59.52    1.66
  -4   2   3   61.76    2.33
   4   2  -3   58.92    2.15
   3  -2  -3   48.81    1.33
   3  -2  -3   46.43    1.36
  -3  -2   3   47.93    1.76
   3  -2  -3   47.86    1.54
   3  -2  -3   47.76    1.46
   3  -2  -3   46.99    1.47
  -3  -2   3   47.20    1.46
  -3   2   3   46.86    1.49
   3   2  -3   47.11    1.71
   3   2  -3   45.53    1.77
   3   2  -3   47.15    1.46
  -3   2   3   49.80    1.90
  -3   2   3   48.71    1.35
   3   2  -3   48.62    1.29
  -3   2   3   47.38    1.33
   3   2  -3   47.13    2.31
  -3   2   3   46.51    1.38
  -2  -2   3    1.76    0.18
  -2  -2   3    1.62    0.18
  -2  -2   3    1.68    0.27
  -2  -2   3    1.94    0.22
   2  -2  -3    1.47    0.21
   2  -2  -3    1.86    0.28
  -2  -2   3    1.70    0.28
   2   2  -3    1.90    0.28
   2   2  -3    1.34    0.21
  -2   2   3    1.89    0.26
   2   2  -3    1.69    0.16
   2   2  -3    1.93    0.35
  -2   2   3    1.86    0.21
   2   2  -3    1.74    0.36
  -2   2   3    1.76    0.21
  -2   2   3    1.89    0.32
   2   2  -3    1.34    0.45
  -2   2   3    2.06    0.32
  -2   2   3    1.93    0.23
  -1  -2   3    1.04    0.27
   1  -2  -3    1.12    0.20
  -1  -2   3    0.61    0.17
  -1  -2   3    1.16    0.17
  -1  -2   3    0.91    0.22
  -1   2   3    1.00    0.21
   1   2  -3    0.98    0.16
   1   2  -3    1.28    0.45
  -1   2   3    1.25    0.20
   1   2  -3    1.08    0.36
   1   2  -3    0.86    0.22
  -1   2   3    1.03    0.17
   1   2  -3    1.12    0.35
  -1   2   3    1.03    0.24
  -1   2   3    0.95    0.28
  -1   2   3    0.94    0.17
  -1   2   3    0.98    0.31
   0  -2   3    4.69    0.32
   0  -2  -3    4.68    0.34
   0  -2   3    4.54    0.37
   0  -2   3    4.41    0.31
   0  -2   3    4.72    0.37
   0  -2   3    5.20    0.36
   0  -2  -3    6.05    0.35
   0   2   3    4.97    0.41
   0   2   3    5.03    0.43
   0   2  -3    4.59    0.30
   0   2  -3    5.43    0.46
   0   2  -3    4.76    0.33
   0   2  -3    4.78    0.52
  -1  -2  -3   14.15    0.55
   1  -2   3   13.60    0.53
   1  -2   3   13.00    0.57
   1  -2   3   14.14    0.51
   1  -2   3   14.30    0.54
   1  -2   3   13.72    0.57
   1  -2   3   13.77    0.59
  -1   2  -3   14.56    0.57
  -1   2  -3   13.36    0.59
  -1   2  -3   14.52    0.52
  -1   2  -3   13.93    0.74
   1   2   3   15.61    0.71
  -1   2  -3   14.63    0.59
   1   2   3   14.24    0.69
  -1   2  -3   14.52    0.61
  -2  -2  -3   74.50    2.29
   2  -2   3   73.56    2.06
   2  -2   3   74.07    2.00
   2  -2   3   69.51    2.24
   2  -2   3   72.73    1.99
   2  -2   3   74.56    2.03
  -2   2  -3   74.14    2.02
   2   2   3   74.63    2.73
  -2   2  -3   73.03    2.08
   2   2   3   73.62    2.30
  -2   2  -3   73.49    2.01
   2   2   3   73.22    2.60
  -2   2  -3   72.26    2.22
  -2   2  -3   75.11    2.18
   3  -2   3    2.10    0.27
   3  -2   3    2.23    0.25
   3  -2   3    2.14    0.22
   3  -2   3    1.98    0.26
  -3  -2  -3    2.01    0.25
  -3  -2  -3    1.98    0.22
   3   2   3    2.62    0.32
   3   2   3    1.79    0.26
   3   2   3    1.93    0.33
   3   2   3    2.75    0.29
  -3   2  -3    2.13    0.31
  -3   2  -3    2.24    0.32
  -3   2  -3    2.00    0.26
   3   2   3    2.26    0.26
  -3   2  -3    2.09    0.29
  -3   2  -3    1.77    0.35
   4  -2   3    1.27    0.24
   4  -2   3    0.89    0.27
   4  -2   3    1.08    0.27
  -4   2  -3    0.83    0.37
   4   2   3    1.63    0.29
   4   2   3    1.61    0.35
  -4   2  -3    1.65    0.35
  -4   2  -3    1.26    0.29
  -4   2  -3    0.91    0.26
  -4   2  -3    1.26    0.33
   5  -2   3   -0.07    0.23
   5  -2   3    0.30    0.27
   5  -2   3   -0.05    0.31
   5  -2   3    0.22    0.26
   5   2   3    0.27    0.34
   5   2   3    0.03    0.36
  -5   2  -3    0.16    0.26
  -5   2  -3   -0.29    0.40
  -5   2  -3   -0.65    0.34
  -5   2  -3    0.17    0.35
   5   2   3   -0.22    0.22
   6  -2   3   58.21    1.91
   6  -2   3   58.49    1.71
   6  -2   3   60.64    1.72
   6  -2   3   61.29    1.81
   6  -2   3   59.07    1.88
  -6   2  -3   59.31    1.77
  -6   2  -3   59.99    1.92
  -6   2  -3   60.54    1.82
   6   2   3   60.55    2.18
  -6   2  -3   58.07    1.65
   6   2   3   57.40    1.87
  -6   2  -3   58.43    1.97
  -6   2  -3   56.48    2.12
   7  -2   3    0.21    0.26
   7  -2   3    0.37    0.30
   7  -2   3    0.45    0.31
   7  -2   3    0.57    0.41
   7  -2   3    0.06    0.24
   7  -2   3    0.50    0.36
  -7   2  -3    0.09    0.39
   7   2   3    0.23    0.24
  -7   2  -3    0.07    0.30
  -7   2  -3   -0.91    0.33
   7   2   3    0.53    0.46
   8  -2   3    2.02    0.27
   8  -2   3    2.83    0.42
   8  -2   3    2.30    0.29
   8  -2   3    2.21    0.32
  -8   2  -3    1.75    0.32
   8   2   3    2.02    0.28
   9  -2   3   -0.32    0.19
   9  -2   3   -0.21    0.21
   9  -2   3   -0.06    0.19
   9  -2   3   -0.11    0.31
   9   2   3    0.05    0.23
  -9   2  -3    0.23    0.24
  10  -2   3    0.53    0.23
 -10   3   3    0.17    0.15
   9  -3  -3   12.96    0.53
   9  -3  -3   13.04    0.55
   9  -3  -3   12.52    0.62
  -9   3   3   13.08    0.52
  -9   3   3   13.66    0.56
  -9   3   3   13.77    0.53
   8  -3  -3    0.01    0.29
   8  -3  -3   -0.14    0.26
  -8   3   3    0.50    0.25
  -8   3   3   -0.02    0.24
   7  -3  -3   -0.12    0.27
  -7  -3   3    0.14    0.35
   7  -3  -3   -0.19    0.36
   7  -3  -3    0.14    0.30
   7  -3  -3   -0.06    0.27
  -7   3   3   -0.03    0.35
  -7   3   3    0.78    0.50
  -7   3   3    0.09    0.25
  -7   3   3   -0.38    0.30
  -7   3   3   -0.56    0.27
   7   3  -3    0.06    0.22
   7   3  -3   -0.41    0.47
  -7   3   3   -0.03    0.25
   6  -3  -3   11.11    0.64
   6  -3  -3   11.64    0.76
   6  -3  -3   11.01    0.63
   6  -3  -3   12.73    0.65
  -6  -3   3   14.09    0.89
   6  -3  -3   11.54    0.60
  -6   3   3    9.50    0.69
  -6   3   3   10.71    0.56
  -6   3   3   10.72    0.72
   6   3  -3   11.72    0.53
   6   3  -3   11.95    0.90
  -6   3   3    9.99    0.89
  -6   3   3   10.35    0.59
  -6   3   3   10.93    0.54
  -6   3   3   11.33    0.66
   5  -3  -3    4.04    0.39
   5  -3  -3    5.06    0.40
   5  -3  -3    4.94    0.42
   5  -3  -3    4.70    0.45
   5  -3  -3    5.45    0.44
   5  -3  -3    4.21    0.48
  -5  -3   3    4.42    0.46
  -5   3   3    4.28    0.34
   5   3  -3    4.27    0.50
  -5   3   3    4.62    0.37
   5   3  -3    5.37    0.57
   5   3  -3    5.21    0.34
   5   3  -3    4.14    0.32
   5   3  -3    4.54    0.32
  -5   3   3    3.81    0.31
  -5   3   3    4.73    0.40
  -5   3   3    4.37    0.38
  -5   3   3    3.75    0.36
   5   3  -3    4.12    0.34
  -5   3   3    3.68    0.59
  -5   3   3    4.47    0.46
  -5   3   3    4.33    0.45
   4  -3  -3    4.29    0.37
  -4  -3   3    4.50    0.44
   4  -3  -3    4.75    0.42
   4  -3  -3    5.57    0.40
  -4  -3   3    4.81    0.40
   4  -3  -3    5.04    0.36
   4  -3  -3    4.61    0.47
  -4  -3   3    4.06    0.44
  -4   3   3    4.62    0.43
  -4   3   3    4.62    0.39
  -4   3   3    3.99    0.55
  -4   3   3    4.83    0.44
   4   3  -3    4.66    0.33
   4   3  -3    5.11    0.54
  -4   3   3    4.37    0.33
  -4   3   3    4.62    0.38
   4   3  -3    5.71    0.56
  -4   3   3    4.40    0.37
   4   3  -3    4.62    0.33
  -4   3   3    4.24    0.35
   4   3  -3    5.09    0.32
   4   3  -3    4.39    0.31
  -4   3   3    3.81    0.34
  -4   3   3    4.14    0.33
   4   3  -3    5.00    0.36
  -4   3   3    4.64    0.31
   4   3  -3    4.16    0.33
  -3  -3   3    1.11    0.32
   3  -3  -3    1.92    0.33
   3  -3  -3    2.17    0.31
   3  -3  -3    1.38    0.34
  -3  -3   3    1.39    0.30
  -3   3   3    1.48    0.28
  -3   3   3    1.48    0.27
   3   3  -3    1.92    0.46
  -3   3   3    1.95    0.31
  -3   3   3    1.72    0.27
   3   3  -3    2.10    0.26
   3   3  -3    1.59    0.22
  -3   3   3    2.03    0.36
  -3   3   3    1.70    0.32
  -3   3   3    2.03    0.43
  -3   3   3    2.21    0.29
   3   3  -3    1.51    0.46
   3   3  -3    1.65    0.28
   3   3  -3    1.58    0.26
   2  -3  -3    0.39    0.25
  -2  -3   3    0.35    0.19
  -2  -3   3    0.61    0.28
   2  -3  -3    0.53    0.31
  -2  -3   3    0.03    0.25
  -2   3   3    0.21    0.25
  -2   3   3    0.27    0.28
   2   3  -3    0.66    0.23
  -2   3   3    0.20    0.21
  -2   3   3    0.69    0.27
   2   3  -3    0.55    0.21
  -2   3   3    0.70    0.30
   2   3  -3    0.49    0.44
   2   3  -3    0.39    0.23
  -2   3   3    0.22    0.23
   2   3  -3    0.31    0.40
  -2   3   3    0.00    0.35
   2   3  -3    0.12    0.25
   2   3  -3    0.58    0.21
  -2   3   3    0.69    0.36
   1  -3  -3    1.24    0.31
   1  -3  -3    1.08    0.25
  -1  -3   3    1.09    0.28
  -1  -3   3    1.05    0.21
  -1  -3   3    0.98    0.27
   1   3  -3    1.21    0.24
  -1   3   3    0.79    0.35
  -1   3   3    0.87    0.23
  -1   3   3    0.65    0.17
   1   3  -3    0.97    0.24
   1   3  -3    1.03    0.18
  -1   3   3    1.20    0.26
  -1   3   3    0.75    0.27
   1   3  -3    1.02    0.46
  -1   3   3    0.86    0.26
   1   3  -3    0.80    0.27
  -1   3   3    1.08    0.24
  -1   3   3    0.75    0.38
   1   3  -3    1.18    0.24
   1   3  -3    1.09    0.23
   1   3  -3    1.25    0.24
   0  -3   3   10.98    0.47
   0  -3  -3   10.41    0.54
   0  -3   3   10.50    0.58
   0  -3   3   10.13    0.56
   0   3  -3    9.67    0.44
   0   3   3    9.71    0.49
   0   3  -3    9.70    0.54
   0   3   3   10.35    0.51
   0   3   3   11.29    0.72
   0   3  -3   10.29    0.53
   0   3   3   11.05    0.67
   0   3  -3   10.44    0.51
   0   3   3    9.84    0.52
   0   3   3    9.15    0.51
   0   3  -3    8.95    0.50
   0   3  -3   11.65    0.79
   0   3  -3    9.86    0.50
   1  -3   3   -0.12    0.21
  -1  -3  -3    0.28    0.26
   1  -3   3    0.23    0.27
   1   3   3    0.12    0.37
   1   3   3   -0.41    0.23
   1   3   3    0.04    0.23
  -1   3  -3    0.10    0.40
   1   3   3    0.05    0.22
   1   3   3   -0.43    0.29
   1   3   3    0.24    0.21
  -1   3  -3   -0.23    0.27
  -1   3  -3   -0.13    0.25
  -1   3  -3    0.07    0.21
  -1   3  -3   -0.20    0.25
  -1   3  -3   -0.37    0.25
   2  -3   3    0.13    0.24
   2  -3   3    0.51    0.26
  -2  -3  -3    0.30    0.26
  -2   3  -3    0.47    0.30
  -2   3  -3    0.51    0.28
  -2   3  -3    0.00    0.26
   2   3   3    0.50    0.37
  -2   3  -3    0.39    0.23
  -2   3  -3    0.78    0.35
  -2   3  -3    0.29    0.27
   2   3   3    0.58    0.23
   3  -3   3   -0.03    0.24
   3  -3   3    0.07    0.28
   3  -3   3    0.00    0.32
   3  -3   3    0.03    0.27
  -3   3  -3    0.17    0.30
   3   3   3    0.14    0.24
   3   3   3   -0.05    0.35
  -3   3  -3    0.28    0.25
  -3   3  -3    0.29    0.21
  -3   3  -3    0.16    0.27
  -3   3  -3    0.26    0.29
  -3   3  -3    0.31    0.38
   3   3   3   -0.11    0.20
  -3   3  -3    0.07    0.24
   4   3   3    1.53    0.26
   4   3   3    2.29    0.38
   5  -3   3    1.52    0.37
   5  -3   3    0.53    0.31
   5  -3   3    1.08    0.29
   5   3   3    1.45    0.26
   5   3   3    1.12    0.27
  -5   3  -3    1.40    0.41
  -5   3  -3    0.42    0.33
  -5   3  -3    0.97    0.25
  -5   3  -3    0.78    0.29
   6  -3   3    1.78    0.30
   6  -3   3    1.47    0.32
   6  -3   3    1.09    0.36
  -6   3  -3    1.58    0.26
  -6   3  -3    1.43    0.30
  -6   3  -3    0.92    0.39
   6   3   3    1.12    0.28
  -6   3  -3    1.40    0.33
   7  -3   3    0.26    0.25
   7   3   3    0.08    0.27
  -7   3  -3    0.16    0.27
  -7   3  -3    0.26    0.23
   8  -3   3    2.15    0.25
   8   3   3    2.85    0.29
  -8   3  -3    2.85    0.30
   8  -4  -3   -0.16    0.19
  -8   4   3    0.15    0.17
   7  -4  -3    0.69    0.29
  -7   4   3    0.26    0.27
  -7   4   3    0.85    0.21
  -7   4   3    0.83    0.22
   6  -4  -3    2.96    0.39
  -6   4   3    2.47    0.28
  -6   4   3    2.11    0.26
  -6   4   3    3.03    0.35
  -6   4   3    2.19    0.31
   5  -4  -3   52.67    1.62
  -5  -4   3   49.25    1.71
   5  -4  -3   53.51    1.66
   5  -4  -3   52.56    1.66
  -5   4   3   52.38    1.59
  -5   4   3   52.82    1.44
  -5   4   3   53.00    1.62
  -5   4   3   42.72    2.10
   5   4  -3   54.03    1.54
   5   4  -3   50.96    1.55
  -5   4   3   50.98    1.46
   5   4  -3   52.48    1.95
  -5   4   3   53.61    1.62
  -5   4   3   54.98    1.71
  -5   4   3   45.64    1.66
   5   4  -3   51.59    1.98
  -5   4   3   51.58    1.49
   4  -4  -3   14.17    0.76
   4  -4  -3   12.11    0.82
   4  -4  -3   15.31    0.86
   4  -4  -3   13.88    0.69
  -4  -4   3   13.88    0.72
   4   4  -3   14.66    0.97
   4   4  -3   12.92    0.87
   4   4  -3   14.18    0.61
  -4   4   3   15.24    0.68
   4   4  -3   16.08    0.67
  -4   4   3   13.12    0.61
  -4   4   3   12.42    0.90
   4   4  -3   15.02    0.57
  -4   4   3   14.21    0.68
   4   4  -3   15.11    0.62
  -4   4   3   13.90    0.72
  -4   4   3   13.71    0.66
   4   4  -3   13.73    0.64
  -4   4   3   13.65    0.57
   4   4  -3   14.73    0.64
  -4   4   3   15.67    0.81
  -4   4   3   15.50    0.75
  -4   4   3   14.20    0.64
   3  -4  -3    3.68    0.43
  -3  -4   3    4.45    0.41
   3  -4  -3    3.74    0.37
   3  -4  -3    3.65    0.44
   3  -4  -3    4.48    0.49
   3   4  -3    3.95    0.56
  -3   4   3    3.73    0.35
  -3   4   3    2.86    0.50
   3   4  -3    3.13    0.33
   3   4  -3    3.67    0.36
   3   4  -3    4.06    0.35
   3   4  -3    3.89    0.33
  -3   4   3    5.21    0.43
   3   4  -3    4.19    0.31
  -3   4   3    4.38    0.39
   3   4  -3    3.58    0.37
  -3   4   3    3.70    0.40
  -3   4   3    3.81    0.30
  -3   4   3    3.57    0.33
  -3   4   3    4.55    0.45
   3   4  -3    4.52    0.37
  -3   4   3    3.63    0.37
  -3   4   3    4.55    0.47
  -2  -4   3    1.48    0.37
   2  -4  -3    1.54    0.37
   2  -4  -3    1.34    0.32
   2  -4  -3    1.83    0.44
   2  -4  -3    1.68    0.40
   2   4  -3    1.45    0.29
  -2   4   3    1.18    0.32
  -2   4   3    1.24    0.30
  -2   4   3    1.57    0.32
   2   4  -3    1.69    0.28
  -2   4   3    1.42    0.29
  -2   4   3    1.11    0.39
   2   4  -3    2.04    0.26
   2   4  -3    1.32    0.35
  -2   4   3    2.01    0.39
   2   4  -3    1.73    0.51
  -2   4   3    2.35    0.43
  -2   4   3    1.70    0.35
  -2   4   3    1.51    0.35
  -2   4   3    1.44    0.25
   2   4  -3    1.08    0.32
  -2   4   3    1.70    0.45
   2   4  -3    1.35    0.30
   2   4  -3    1.72    0.32
   1  -4  -3    4.08    0.43
   1  -4  -3    4.26    0.40
  -1  -4   3    3.85    0.42
   1  -4  -3    4.71    0.47
  -1   4   3    5.33    0.40
   1   4  -3    4.83    0.33
  -1   4   3    4.93    0.41
  -1   4   3    4.16    0.53
   1   4  -3    4.51    0.43
  -1   4   3    4.13    0.40
  -1   4   3    4.15    0.44
   1   4  -3    4.60    0.37
  -1   4   3    4.47    0.35
   1   4  -3    4.82    0.41
  -1   4   3    4.60    0.44
  -1   4   3    4.75    0.40
   1   4  -3    3.59    0.57
   1   4  -3    4.85    0.38
  -1   4   3    4.21    0.36
   1   4  -3    4.65    0.40
   1   4  -3    4.86    0.35
   1   4  -3    4.42    0.35
   0  -4  -3   16.81    0.80
   0  -4   3   16.02    0.76
   0  -4  -3   17.07    0.88
   0  -4   3   17.01    0.82
   0   4  -3   15.95    0.68
   0   4   3   16.68    0.71
   0   4  -3   17.07    0.75
   0   4   3   17.21    0.73
   0   4   3   15.50    0.74
   0   4  -3   15.47    0.78
   0   4  -3   16.72    0.76
   0   4  -3   16.15    0.71
   0   4  -3   16.46    0.71
   0   4   3   16.39    0.75
   0   4  -3   15.88    0.96
   0   4   3   17.52    0.79
   0   4   3   17.50    0.71
   0   4   3   16.20    0.66
   0   4   3   16.56    0.95
   0   4  -3   17.28    0.68
   0   4  -3   16.46    0.65
   1  -4   3    2.96    0.36
   1  -4   3    2.71    0.31
   1   4   3    2.75    0.34
  -1   4  -3    2.27    0.31
  -1   4  -3    3.31    0.37
  -1   4  -3    2.83    0.37
  -1   4  -3    2.92    0.43
   1   4   3    2.24    0.33
   1   4   3    2.96    0.34
  -1   4  -3    3.03    0.32
  -1   4  -3    2.98    0.38
  -1   4  -3    2.19    0.48
   1   4   3    2.54    0.29
  -1   4  -3    2.50    0.34
   1   4   3    2.99    0.52
   1   4   3    2.96    0.36
   1   4   3    2.93    0.30
  -1   4  -3    2.32    0.28
   2  -4   3    1.78    0.39
   2  -4   3    1.12    0.30
   2  -4   3    0.88    0.28
   2   4   3    0.95    0.26
  -2   4  -3    1.12    0.30
  -2   4  -3    0.92    0.36
  -2   4  -3    1.38    0.27
  -2   4  -3    0.77    0.40
  -2   4  -3    1.08    0.32
   2   4   3    1.12    0.30
  -2   4  -3    1.33    0.31
  -2   4  -3    0.88    0.27
   2   4   3    1.33    0.44
  -2   4  -3    1.41    0.37
   3  -4   3    0.76    0.27
   3  -4   3    0.26    0.27
   3  -4   3    0.45    0.33
  -3   4  -3    0.47    0.26
  -3   4  -3    0.86    0.38
  -3   4  -3    0.45    0.29
  -3   4  -3    0.25    0.36
  -3   4  -3    0.53    0.27
   3   4   3    0.75    0.27
  -3   4  -3    0.79    0.36
   3   4   3    1.02    0.38
  -3   4  -3    0.56    0.31
   4  -4   3    0.38    0.26
  -4   4  -3    0.68    0.29
  -4   4  -3    1.11    0.35
  -4   4  -3    1.31    0.27
   4   4   3    0.81    0.28
  -4   4  -3    1.42    0.36
   5  -4   3    3.49    0.30
  -5   4  -3    2.73    0.35
  -5   4  -3    3.25    0.33
   5   4   3    3.44    0.31
  -5   4  -3    3.72    0.30
   6  -4   3    1.39    0.23
  -6   4  -3    1.80    0.28
  -6   4  -3    1.29    0.23
   7  -4   3    0.77    0.17
  -7   4  -3    1.07    0.23
  -5   5   3    0.03    0.17
   4  -5  -3    1.51    0.25
  -4  -5   3    1.47    0.27
  -4   5   3    2.13    0.22
  -4   5   3    1.37    0.18
   3   5  -3   49.40    1.48
   3   5  -3   50.90    1.50
  -3   5   3   49.77    1.40
  -3   5   3   49.79    1.52
  -3   5   3   49.91    1.35
  -3   5   3   48.11    1.35
  -3   5   3   49.67    1.51
  -3   5   3   49.10    1.47
   3   5  -3   46.37    1.43
   2   5  -3    6.94    0.44
   2   5  -3    6.52    0.41
  -2   5   3    8.37    0.54
  -2   5   3    7.11    0.49
  -2   5   3    7.37    0.45
   2   5  -3    7.42    0.54
  -2   5   3    8.20    0.45
   2   5  -3    7.26    0.38
  -2   5   3    7.01    0.50
  -2   5   3    6.42    0.43
   2   5  -3    7.74    0.50
   1   5  -3    1.41    0.22
  -1   5   3    1.39    0.32
   1   5  -3    0.80    0.28
   1   5  -3    1.52    0.29
   1   5  -3    1.49    0.28
   1   5  -3    1.60    0.34
  -1   5   3    1.60    0.27
  -1   5   3    1.36    0.26
  -1   5   3    1.00    0.28
  -1   5   3    1.72    0.30
   1   5  -3    1.45    0.24
   0   5   3   -0.04    0.24
   0   5  -3    0.01    0.24
   0   5  -3    0.12    0.34
   0   5  -3    0.15    0.27
   0   5   3    0.04    0.23
   0   5   3   -0.06    0.25
   0   5   3    0.10    0.28
   0   5  -3    0.00    0.26
   0   5  -3   -0.05    0.20
   0   5  -3    0.03    0.30
   0   5   3    0.08    0.26
   0   5  -3   -0.10    0.21
  -1   5  -3    0.61    0.34
  -1   5  -3    0.07    0.24
   1   5   3    0.08    0.26
  -1   5  -3   -0.14    0.19
   1   5   3    0.15    0.22
  -1   5  -3   -0.04    0.27
  -1   5  -3    0.72    0.33
  -1   5  -3   -0.07    0.22
  -1   5  -3    0.24    0.27
  -2   5  -3    4.95    0.35
  -2   5  -3    4.91    0.34
  -2   5  -3    5.15    0.35
  -2   5  -3    4.71    0.35
  -2   5  -3    4.76    0.31
  -2   5  -3    5.46    0.41
   2   5   3    4.87    0.32
  -3   5  -3    1.67    0.22
  -3   5  -3    1.86    0.23
   3   5   3    1.89    0.23
  -4   5  -3    0.77    0.17
  -4   5  -3    0.74    0.20
  11   0  -4   -0.16    0.26
  11   0  -4   -0.38    0.23
 -11   0   4   -0.15    0.25
 -11   0   4   -0.01    0.23
  10   0  -4    4.40    0.37
  10   0  -4    4.68    0.39
 -10   0   4    5.08    0.35
  10   0  -4    4.13    0.33
  10   0  -4    4.59    0.49
  10   0  -4    4.37    0.35
 -10   0   4    3.44    0.47
 -10   0   4    5.27    0.53
  -9   0   4   -0.16    0.39
  -9   0   4   -0.18    0.26
   9   0  -4    0.21    0.27
   9   0  -4   -0.29    0.30
   9   0  -4    0.84    0.44
  -9   0   4   -0.34    0.38
   9   0  -4   -0.13    0.22
   9   0  -4    0.04    0.42
   9   0  -4    0.00    0.28
   9   0  -4    0.12    0.27
   8   0  -4    1.50    0.31
  -8   0   4    1.14    0.41
   8   0  -4    1.49    0.42
   8   0  -4    0.70    0.27
  -8   0   4    0.76    0.25
  -8   0   4    0.59    0.41
   8   0  -4    1.03    0.29
   8   0  -4    1.18    0.42
   8   0  -4    0.90    0.24
   8   0  -4    1.08    0.29
  -7   0   4    0.06    0.37
  -7   0   4   -0.01    0.26
   7   0  -4    0.00    0.23
   7   0  -4   -0.01    0.24
   7   0  -4    0.10    0.26
   7   0  -4    0.26    0.37
   7   0  -4    0.24    0.37
  -7   0   4   -0.32    0.33
  -6   0   4   11.06    0.57
  -6   0   4   12.07    0.69
   6   0  -4   10.99    0.54
   6   0  -4   10.33    0.50
  -6   0   4   10.17    0.70
   6   0  -4    9.52    0.55
   6   0  -4   10.21    0.65
   5   0  -4   -0.03    0.21
   5   0  -4    0.23    0.27
  -5   0   4    0.02    0.19
   5   0  -4   -0.11    0.19
  -5   0   4   -0.03    0.29
   5   0  -4   -0.09    0.25
   5   0  -4    0.20    0.19
  -5   0   4    0.01    0.27
  -5   0   4   -0.03    0.20
  -4   0   4    0.33    0.19
  -4   0   4    0.17    0.27
   4   0  -4   -0.22    0.15
   4   0  -4   -0.21    0.23
   4   0  -4    0.05    0.20
   4   0  -4   -0.07    0.24
  -4   0   4    0.15    0.16
  -4   0   4    0.01    0.19
  -4   0   4    0.18    0.18
  -4   0   4   -0.14    0.25
  -3   0   4   -0.14    0.16
   3   0  -4   -0.16    0.24
   3   0  -4   -0.05    0.15
  -3   0   4   -0.01    0.16
  -3   0   4    0.14    0.15
  -2   0   4   12.06    0.44
   2   0  -4   12.83    0.51
   2   0  -4   12.50    0.52
  -2   0   4   12.12    0.48
  -2   0   4   12.10    0.41
   2   0  -4   12.07    0.42
  -1   0   4   -0.45    0.16
   1   0  -4   -0.61    0.21
   1   0  -4   -0.53    0.14
  -1   0   4   -0.57    0.13
   1   0  -4    0.26    0.17
   0   0   4   89.65    2.33
   0   0   4   89.59    2.38
   0   0  -4   91.58    2.82
   0   0  -4   90.24    2.38
   0   0  -4   88.36    2.36
   1   0   4    0.05    0.14
  -1   0  -4    0.13    0.18
  -1   0  -4    0.06    0.15
   1   0   4   -0.23    0.14
  -1   0  -4   -0.15    0.13
   1   0   4   -0.08    0.14
  -2   0  -4   38.49    1.14
   2   0   4   42.34    1.13
   2   0   4   39.73    1.16
  -2   0  -4   42.03    1.35
   2   0   4   43.07    1.12
  -2   0  -4   40.44    1.13
   3   0   4   -0.04    0.17
  -3   0  -4   -0.37    0.25
  -3   0  -4    0.01    0.21
  -3   0  -4    0.07    0.20
   3   0   4    0.06    0.22
   3   0   4   -0.04    0.15
  -3   0  -4   -0.24    0.20
   3   0   4   -0.09    0.18
   3   0   4    0.11    0.20
   4   0   4    0.11    0.18
  -4   0  -4    0.26    0.29
  -4   0  -4    0.35    0.26
   4   0   4    0.24    0.25
   4   0   4   -0.07    0.15
  -4   0  -4    0.05    0.23
  -4   0  -4    0.02    0.29
   4   0   4   -0.05    0.22
   4   0   4   -0.15    0.21
  -5   0  -4   -0.12    0.27
  -5   0  -4    0.19    0.31
   5   0   4   -0.08    0.24
   5   0   4   -0.23    0.29
   5   0   4    0.12    0.24
  -5   0  -4   -0.34    0.32
   5   0   4    0.08    0.16
   5   0   4    0.02    0.18
  -6   0  -4    5.89    0.51
   6   0   4    7.30    0.44
   6   0   4    6.52    0.48
  -6   0  -4    6.54    0.48
  -6   0  -4    5.58    0.56
   6   0   4    6.04    0.41
   6   0   4    5.50    0.43
   6   0   4    7.67    0.43
   7   0   4    0.60    0.28
   7   0   4    0.20    0.26
   7   0   4    0.04    0.22
   7   0   4    0.10    0.24
   7   0   4    0.04    0.38
  -7   0  -4    0.29    0.50
   7   0   4   -0.14    0.35
   7   0   4    0.21    0.33
  -7   0  -4    0.01    0.47
   8   0   4    4.62    0.31
   8   0   4    4.74    0.37
   8   0   4    4.19    0.39
   8   0   4    4.80    0.46
  -8   0  -4    4.56    0.63
   8   0   4    4.31    0.42
   8   0   4    3.69    0.46
   8   0   4    5.30    0.42
   9   0   4   -0.06    0.30
   9   0   4   -0.02    0.20
   9   0   4    0.21    0.27
  10   0   4    1.64    0.21
  10   0   4    1.56    0.23
  11  -1  -4    0.87    0.27
 -11  -1   4    0.74    0.22
  11  -1  -4    0.76    0.33
  11  -1  -4    0.98    0.22
  11  -1  -4    0.72    0.23
 -11   1   4    0.74    0.26
  11   1  -4    0.49    0.23
  11   1  -4    0.55    0.23
 -11   1   4    0.88    0.24
  10  -1  -4    2.71    0.37
  10  -1  -4    2.23    0.31
  10  -1  -4    2.50    0.30
 -10   1   4    2.48    0.31
  10   1  -4    2.72    0.31
  10   1  -4    2.76    0.33
 -10   1   4    2.69    0.32
  10   1  -4    2.71    0.29
   9  -1  -4   16.23    0.74
   9  -1  -4   16.27    0.82
  -9  -1   4   16.00    0.96
   9  -1  -4   15.60    0.79
   9  -1  -4   16.01    0.71
   9   1  -4   15.98    0.68
   9   1  -4   15.81    0.67
  -9   1   4   13.75    0.88
   9   1  -4   15.84    0.87
  -9   1   4   15.86    0.95
   9   1  -4   16.84    0.68
   9   1  -4   16.78    0.93
  -9   1   4   16.05    0.69
  -9   1   4   15.45    0.64
  -8  -1   4    0.63    0.26
   8  -1  -4    0.43    0.30
   8  -1  -4    0.74    0.27
   8  -1  -4    0.51    0.32
  -8  -1   4    0.84    0.37
  -8  -1   4    0.80    0.42
   8  -1  -4    0.88    0.34
   8  -1  -4    1.07    0.40
   8   1  -4    0.76    0.27
   8   1  -4    0.54    0.24
   8   1  -4    0.56    0.26
   8   1  -4    0.82    0.44
  -8   1   4    0.63    0.26
  -8   1   4    0.87    0.28
   8   1  -4    0.53    0.42
   8   1  -4    0.37    0.23
  -8   1   4    0.39    0.40
  -8   1   4    0.71    0.35
  -8   1   4    0.84    0.25
   8   1  -4    0.71    0.28
  -7  -1   4    1.58    0.31
   7  -1  -4    1.49    0.29
   7  -1  -4    2.19    0.32
   7  -1  -4    2.18    0.34
   7  -1  -4    3.26    0.42
   7  -1  -4    2.29    0.33
  -7  -1   4    1.78    0.42
  -7  -1   4    1.23    0.36
  -7   1   4    2.32    0.35
  -7   1   4    1.59    0.36
   7   1  -4    1.86    0.42
   7   1  -4    1.83    0.27
  -7   1   4    2.60    0.31
   7   1  -4    1.99    0.27
   7   1  -4    2.26    0.45
  -7   1   4    0.85    0.37
  -7   1   4    1.59    0.29
   6  -1  -4    2.29    0.28
   6  -1  -4    2.67    0.36
   6  -1  -4    2.61    0.29
  -6  -1   4    3.06    0.32
   6  -1  -4    2.97    0.31
  -6  -1   4    2.90    0.38
   6  -1  -4    2.57    0.34
  -6  -1   4    2.95    0.35
   6   1  -4    2.64    0.41
  -6   1   4    2.36    0.28
  -6   1   4    2.91    0.32
  -6   1   4    3.61    0.31
   6   1  -4    2.37    0.26
   6   1  -4    2.71    0.27
  -6   1   4    2.04    0.27
   6   1  -4    3.28    0.24
  -6   1   4    2.49    0.36
  -6   1   4    2.63    0.35
   6   1  -4    2.51    0.26
   6   1  -4    3.35    0.41
   5  -1  -4   16.83    0.63
   5  -1  -4   16.77    0.65
   5  -1  -4   15.75    0.70
  -5  -1   4   16.88    0.80
  -5  -1   4   17.00    0.77
  -5  -1   4   17.28    0.68
   5  -1  -4   17.46    0.63
   5  -1  -4   16.03    0.70
   5  -1  -4   15.69    0.65
   5   1  -4   17.09    0.80
  -5   1   4   16.58    0.67
   5   1  -4   16.62    0.62
   5   1  -4   16.42    0.54
  -5   1   4   17.06    0.59
  -5   1   4   16.13    0.66
   5   1  -4   15.92    1.01
  -5   1   4   16.28    0.62
  -5   1   4   16.24    0.79
   5   1  -4   16.07    0.74
  -5   1   4   17.28    0.65
  -5   1   4   15.27    0.78
   4  -1  -4   80.37    2.43
  -4  -1   4   85.20    2.96
   4  -1  -4   84.00    2.25
   4  -1  -4   84.54    2.28
  -4  -1   4   86.82    3.03
  -4  -1   4   89.34    2.66
   4  -1  -4   83.30    2.46
   4  -1  -4   82.77    2.45
  -4   1   4   84.45    2.97
   4   1  -4   80.92    2.45
  -4   1   4   81.77    3.01
  -4   1   4   85.58    2.47
  -4   1   4   86.09    2.28
  -4   1   4   83.78    2.32
   4   1  -4   86.93    3.82
   4   1  -4   81.94    2.24
   4   1  -4   79.78    2.82
   4   1  -4   85.57    2.24
   4   1  -4   80.80    2.45
  -4   1   4   83.58    2.64
   4   1  -4   82.14    2.93
  -4   1   4   81.49    2.22
  -3  -1   4   20.58    0.72
  -3  -1   4   20.16    0.79
   3  -1  -4   19.28    0.69
   3  -1  -4   19.92    0.63
  -3  -1   4   18.90    0.62
   3  -1  -4   19.15    0.68
   3  -1  -4   19.24    0.71
  -3  -1   4   18.06    0.58
   3  -1  -4   19.29    0.76
  -3   1   4   19.30    0.70
  -3   1   4   20.24    0.63
   3   1  -4   19.05    0.58
   3   1  -4   19.30    0.66
   3   1  -4   18.48    0.72
  -3   1   4   19.63    0.67
  -3   1   4   19.53    0.61
  -3   1   4   19.42    0.64
  -2  -1   4    5.49    0.32
  -2  -1   4    5.78    0.29
  -2  -1   4    6.15    0.39
   2  -1  -4    5.46    0.33
  -2  -1   4    5.58    0.36
   2  -1  -4    4.89    0.32
   2  -1  -4    5.62    0.33
  -2   1   4    5.52    0.28
   2   1  -4    5.64    0.28
   2   1  -4    5.73    0.42
  -2   1   4    5.73    0.33
  -2   1   4    5.54    0.30
  -1  -1   4   10.53    0.40
  -1  -1   4   10.50    0.42
   1  -1  -4   10.88    0.44
   1  -1  -4   11.86    0.46
   1  -1  -4   11.11    0.38
   1   1  -4   10.11    0.43
  -1   1   4   10.39    0.39
   1   1  -4    9.87    0.49
  -1   1   4   10.58    0.37
   0  -1   4   38.73    1.24
   0  -1   4   39.99    1.09
   0  -1  -4   38.49    1.09
   0  -1  -4   39.64    1.28
   0  -1   4   38.54    1.11
   0  -1  -4   41.08    1.48
   0   1  -4   38.45    1.10
   0   1  -4   41.69    1.13
   0   1   4   39.56    1.08
   0   1  -4   40.23    1.28
   0   1   4   39.73    1.05
  -1  -1  -4   74.71    2.42
   1  -1   4   81.58    2.14
   1  -1   4   80.45    2.10
  -1  -1  -4   79.44    2.50
  -1  -1  -4   83.33    2.86
  -1   1  -4   80.37    2.50
  -1   1  -4   75.89    2.19
  -1   1  -4   77.41    2.13
  -1   1  -4   80.51    2.12
  -2  -1  -4   52.65    1.69
   2  -1   4   51.69    1.42
   2  -1   4   51.54    1.44
   2  -1   4   51.82    1.46
   2  -1   4   54.42    1.46
  -2  -1  -4   52.47    1.92
   2  -1   4   51.75    1.49
  -2   1  -4   53.55    1.46
  -2   1  -4   53.11    1.46
   2   1   4   53.86    1.65
   2   1   4   53.08    1.97
   2   1   4   54.20    1.45
  -2   1  -4   52.34    1.63
  -2   1  -4   51.82    1.65
  -2   1  -4   50.70    1.70
  -2   1  -4   51.05    1.52
   2   1   4   49.77    1.86
   3  -1   4   16.88    0.58
   3  -1   4   16.71    0.65
  -3  -1  -4   18.63    0.74
   3  -1   4   17.21    0.63
   3  -1   4   16.98    0.61
  -3  -1  -4   17.38    0.68
   3  -1   4   18.15    0.61
   3   1   4   17.29    0.59
   3   1   4   17.93    0.69
  -3   1  -4   17.49    0.62
  -3   1  -4   17.14    0.70
  -3   1  -4   17.12    0.71
   3   1   4   16.86    0.76
  -3   1  -4   17.51    0.74
  -3   1  -4   17.15    0.77
   3   1   4   18.07    0.78
   4  -1   4    1.04    0.24
   4  -1   4    0.89    0.24
   4  -1   4    1.22    0.20
   4  -1   4    0.67    0.25
   4  -1   4    0.61    0.21
  -4   1  -4    1.13    0.35
   4   1   4    0.65    0.27
   4   1   4    0.92    0.22
  -4   1  -4    1.04    0.30
  -4   1  -4    1.09    0.35
   4   1   4    0.85    0.27
   5  -1   4    8.94    0.56
  -5  -1  -4    8.12    0.65
   5  -1   4    8.30    0.53
   5  -1   4    8.09    0.44
   5  -1   4    7.68    0.47
  -5   1  -4    8.68    0.71
  -5   1  -4    8.40    0.63
   5   1   4    8.62    0.48
  -5   1  -4    9.17    0.66
  -5   1  -4    8.20    0.64
  -5   1  -4    7.66    0.68
   5   1   4    8.96    0.55
   6  -1   4    7.56    0.50
   6  -1   4    7.83    0.61
   6  -1   4    7.35    0.55
   6  -1   4    7.63    0.44
  -6  -1  -4    8.64    0.58
   6  -1   4    6.32    0.45
   6  -1   4    6.38    0.47
   6  -1   4    7.70    0.47
  -6   1  -4    7.13    0.55
   6   1   4    7.00    0.47
  -6   1  -4    7.38    0.59
  -6   1  -4    6.69    0.59
   6   1   4    7.66    0.53
   6   1   4    8.74    0.59
  -6   1  -4    6.54    0.51
  -6   1  -4    7.61    0.52
   6   1   4    6.76    0.61
   6   1   4    7.94    0.42
   6   1   4    7.44    0.52
  -6   1  -4    7.66    0.51
   7  -1   4  105.50    3.25
   7  -1   4  106.71    3.18
   7  -1   4  105.48    3.21
   7  -1   4  107.26    3.11
   7  -1   4  106.43    2.91
  -7  -1  -4  107.85    3.59
   7  -1   4  100.91    3.10
   7  -1   4  100.35    2.97
   7   1   4  107.52    2.98
   7   1   4  105.95    3.65
  -7   1  -4  107.35    3.24
   7   1   4  104.63    3.22
   7   1   4  107.91    3.08
  -7   1  -4  105.61    3.60
  -7   1  -4  106.48    3.19
   7   1   4  108.96    3.11
  -7   1  -4  107.44    3.03
  -7   1  -4  103.96    3.01
   8  -1   4   11.90    0.54
   8  -1   4   11.87    0.58
   8  -1   4   11.92    0.58
  -8  -1  -4   14.44    0.93
   8  -1   4   11.44    0.78
   8  -1   4   12.09    0.71
   8  -1   4   12.35    0.64
   8   1   4   12.32    0.88
   8   1   4   12.33    0.53
  -8   1  -4   11.20    0.89
   8   1   4   12.58    0.65
  -8   1  -4   11.70    0.60
   9  -1   4    0.73    0.22
   9  -1   4    0.45    0.20
   9  -1   4    0.91    0.26
   9  -1   4    0.86    0.32
  -9   1  -4    0.67    0.24
   9   1   4    0.75    0.26
   9   1   4    0.69    0.22
  10  -1   4    0.07    0.19
  10  -1   4    0.19    0.15
  10  -1   4    0.11    0.26
  10   1   4    0.27    0.19
 -10   1  -4    0.06    0.19
  11  -2  -4    0.13    0.17
  11  -2  -4   -0.01    0.21
  11  -2  -4    0.12    0.28
 -11   2   4    0.24    0.19
 -11   2   4    0.35    0.23
  10  -2  -4   -0.15    0.34
  10  -2  -4    0.13    0.24
  10  -2  -4    0.37    0.31
 -10   2   4    0.35    0.24
  10   2  -4   -0.21    0.21
 -10   2   4    0.41    0.23
   9  -2  -4   35.60    1.21
  -9   2   4   29.27    1.49
   9   2  -4   36.27    1.13
   9   2  -4   34.96    1.29
  -9   2   4   36.93    1.13
   9   2  -4   36.25    1.12
   9   2  -4   34.80    1.46
  -9   2   4   36.87    1.08
   8  -2  -4   50.10    1.56
   8  -2  -4   51.68    1.67
   8  -2  -4   49.66    1.54
   8  -2  -4   50.08    1.64
  -8   2   4   45.12    2.13
   8   2  -4   52.40    1.56
  -8   2   4   52.54    1.48
  -8   2   4   50.50    1.68
  -8   2   4   53.53    1.55
   8   2  -4   52.10    1.68
   8   2  -4   55.43    1.99
  -8   2   4   49.58    2.00
  -8   2   4   50.82    1.56
   8   2  -4   52.56    1.54
   8   2  -4   52.96    1.54
  -8   2   4   50.21    1.43
   7  -2  -4    1.29    0.37
   7  -2  -4    0.84    0.30
   7  -2  -4    0.74    0.32
   7  -2  -4    1.22    0.38
  -7   2   4    0.80    0.26
  -7   2   4    0.95    0.28
   7   2  -4    0.80    0.47
   7   2  -4    1.64    0.38
  -7   2   4    1.07    0.38
   7   2  -4    0.55    0.26
  -7   2   4    1.33    0.31
  -7   2   4    0.62    0.32
  -7   2   4    0.48    0.35
   7   2  -4    1.13    0.27
  -7   2   4    0.90    0.54
   7   2  -4    1.02    0.24
   7   2  -4    1.27    0.25
   6  -2  -4   -0.29    0.27
   6  -2  -4   -0.10    0.28
  -6  -2   4    0.31    0.29
   6  -2  -4    0.12    0.29
   6  -2  -4   -0.48    0.32
   6  -2  -4   -0.25    0.28
   6   2  -4    0.13    0.21
  -6   2   4   -0.21    0.29
  -6   2   4    0.32    0.24
   6   2  -4   -0.01    0.32
   6   2  -4   -0.27    0.40
  -6   2   4    0.61    0.36
   6   2  -4    0.10    0.21
   6   2  -4    0.08    0.20
  -6   2   4    0.08    0.26
  -6   2   4   -0.21    0.48
  -6   2   4   -0.18    0.29
  -5  -2   4    0.68    0.20
   5  -2  -4    0.17    0.26
   5  -2  -4    0.54    0.27
   5  -2  -4    0.22    0.27
   5  -2  -4    0.62    0.32
  -5  -2   4    0.23    0.19
  -5  -2   4    0.60    0.27
   5  -2  -4    0.52    0.23
  -5  -2   4    0.30    0.22
   5   2  -4    0.76    0.20
  -5   2   4    0.69    0.27
  -5   2   4    0.63    0.33
   5   2  -4    0.12    0.37
  -5   2   4    0.42    0.24
   5   2  -4    0.09    0.33
  -5   2   4    0.68    0.44
  -5   2   4    0.40    0.28
   5   2  -4    0.50    0.30
   5   2  -4    0.17    0.20
   5   2  -4    0.26    0.20
  -4  -2   4   48.32    1.63
   4  -2  -4   49.76    1.41
  -4  -2   4   49.62    1.54
   4  -2  -4   49.55    1.45
  -4  -2   4   47.33    1.42
   4  -2  -4   48.70    1.54
   4  -2  -4   51.73    1.54
   4  -2  -4   50.04    1.64
  -4  -2   4   49.92    1.85
   4   2  -4   50.60    1.87
   4   2  -4   48.36    1.55
  -4   2   4   51.57    2.00
  -4   2   4   50.43    1.46
  -4   2   4   51.09    1.57
  -4   2   4   50.96    1.43
  -4   2   4   48.71    1.40
   4   2  -4   47.74    2.43
   4   2  -4   49.65    1.55
   4   2  -4   49.66    1.80
  -3  -2   4    9.27    0.41
  -3  -2   4   10.36    0.47
  -3  -2   4   10.02    0.59
   3  -2  -4    8.68    0.44
  -3  -2   4    9.31    0.58
   3  -2  -4    9.35    0.51
   3  -2  -4   10.10    0.48
   3  -2  -4    9.95    0.58
  -3   2   4    9.84    0.55
  -3   2   4   10.19    0.45
   3   2  -4    9.63    0.36
  -3   2   4    8.86    0.47
   3   2  -4    9.80    0.66
  -3   2   4    9.26    0.64
   3   2  -4    9.53    0.56
   3   2  -4    9.16    0.54
  -3   2   4    9.82    0.45
   3   2  -4    9.79    0.87
   3   2  -4    9.42    0.45
   3   2  -4    9.61    0.65
  -3   2   4    9.69    0.54
   2  -2  -4    3.80    0.30
  -2  -2   4    3.49    0.23
   2  -2  -4    3.79    0.27
  -2  -2   4    3.56    0.23
  -2  -2   4    3.33    0.32
  -2  -2   4    3.84    0.35
   2  -2  -4    4.15    0.30
  -2  -2   4    3.93    0.27
   2   2  -4    3.12    0.26
   2   2  -4    3.98    0.34
  -2   2   4    4.30    0.36
   2   2  -4    3.99    0.35
  -2   2   4    2.60    0.34
  -2   2   4    3.25    0.24
  -2   2   4    3.46    0.23
   2   2  -4    4.54    0.42
  -2   2   4    3.84    0.26
  -2   2   4    3.52    0.31
   2   2  -4    3.54    0.42
   2   2  -4    3.16    0.21
   2   2  -4    2.50    0.52
   1  -2  -4    1.67    0.26
  -1  -2   4    2.00    0.20
  -1  -2   4    1.74    0.23
   1  -2  -4    2.08    0.22
  -1  -2   4    1.77    0.28
   1  -2  -4    1.70    0.25
  -1  -2   4    2.00    0.20
  -1   2   4    1.93    0.23
  -1   2   4    1.79    0.18
   1   2  -4    2.17    0.40
   1   2  -4    1.92    0.24
  -1   2   4    1.85    0.18
   1   2  -4    0.93    0.46
   1   2  -4    1.89    0.20
  -1   2   4    1.98    0.32
   1   2  -4    2.54    0.37
  -1   2   4    2.74    0.24
  -1   2   4    2.31    0.34
   0  -2  -4    0.64    0.18
   0  -2   4    0.69    0.20
   0  -2   4    0.37    0.21
   0  -2   4    0.44    0.18
   0  -2   4    0.39    0.17
   0  -2   4    0.41    0.20
   0  -2   4    0.35    0.20
   0  -2  -4    0.42    0.21
   0  -2  -4    0.34    0.22
   0   2  -4    0.15    0.23
   0   2  -4    0.41    0.18
   0   2   4    0.27    0.25
   0   2   4    0.56    0.19
   0   2  -4    0.81    0.37
   0   2  -4    0.03    0.41
   0   2   4    0.62    0.30
   1  -2   4  220.84    5.57
  -1  -2  -4  212.07    6.52
   1  -2   4  213.37    5.68
   1  -2   4  212.24    5.58
   1  -2   4  203.52    6.31
   1  -2   4  206.27    5.78
  -1   2  -4  216.20    6.17
  -1   2  -4  213.77    7.37
   1   2   4  227.58    7.78
  -1   2  -4  218.43    5.81
   1   2   4  210.47    7.36
  -1   2  -4  219.10    5.68
  -1   2  -4  214.22    5.58
   2  -2   4   41.62    1.26
   2  -2   4   40.79    1.37
   2  -2   4   43.56    1.24
  -2  -2  -4   42.87    1.63
   2  -2   4   42.80    1.22
   2  -2   4   40.95    1.25
  -2   2  -4   42.88    1.26
  -2   2  -4   43.23    1.34
  -2   2  -4   41.50    1.38
   2   2   4   43.37    1.40
  -2   2  -4   43.55    1.24
   2   2   4   42.86    1.58
   2   2   4   43.05    1.65
  -2   2  -4   41.88    1.29
   3  -2   4    5.89    0.37
  -3  -2  -4    6.52    0.46
   3  -2   4    6.63    0.41
   3  -2   4    7.26    0.46
   3   2   4    6.46    0.47
   3   2   4    6.39    0.45
   3   2   4    5.97    0.47
  -3   2  -4    6.17    0.43
  -3   2  -4    6.32    0.47
  -3   2  -4    6.53    0.42
  -3   2  -4    6.59    0.46
  -3   2  -4    7.11    0.49
   3   2   4    6.54    0.53
   4  -2   4    0.00    0.23
   4  -2   4   -0.02    0.29
   4  -2   4    0.00    0.24
   4   2   4    0.47    0.28
  -4   2  -4    0.50    0.39
  -4   2  -4    0.16    0.34
  -4   2  -4   -0.03    0.24
   4   2   4   -0.01    0.29
  -4   2  -4    0.14    0.32
   5  -2   4    7.85    0.61
   5  -2   4    6.73    0.56
   5  -2   4    7.51    0.48
   5  -2   4    7.94    0.50
  -5   2  -4    7.39    0.52
   5   2   4    8.37    0.69
  -5   2  -4    6.48    0.50
  -5   2  -4    7.46    0.50
  -5   2  -4    6.57    0.57
   5   2   4    6.90    0.58
   5   2   4    8.08    0.49
   6  -2   4   16.53    0.67
   6  -2   4   16.11    0.64
   6  -2   4   15.28    0.80
   6  -2   4   16.31    0.77
   6  -2   4   15.17    0.68
   6   2   4   14.72    0.69
  -6   2  -4   15.03    0.88
  -6   2  -4   15.43    0.69
   6   2   4   15.43    0.92
  -6   2  -4   17.45    0.81
  -6   2  -4   16.17    0.85
  -6   2  -4   15.00    0.66
   7  -2   4    6.46    0.50
   7  -2   4    5.97    0.51
   7  -2   4    6.15    0.39
   7  -2   4    6.43    0.42
   7  -2   4    6.52    0.44
  -7   2  -4    5.83    0.55
  -7   2  -4    5.94    0.40
   7   2   4    6.45    0.48
  -7   2  -4    6.40    0.48
   8  -2   4    1.75    0.27
   8  -2   4    1.27    0.35
   8  -2   4    1.34    0.26
   8   2   4    2.06    0.27
  -8   2  -4    1.42    0.29
   9  -2   4   -0.05    0.16
   9  -2   4    0.20    0.27
   9  -2   4   -0.34    0.16
   9   2   4   -0.20    0.22
  -9   2  -4    0.18    0.22
  10  -3  -4    1.40    0.19
 -10   3   4    1.43    0.17
   9  -3  -4    2.74    0.29
   9  -3  -4    1.94    0.26
   9  -3  -4    2.44    0.34
  -9   3   4    2.92    0.26
   8  -3  -4   -0.46    0.26
   8  -3  -4    0.09    0.30
   8   3  -4    0.53    0.23
  -8   3   4    0.37    0.26
  -8   3   4    0.52    0.25
   7  -3  -4    2.17    0.32
   7  -3  -4    2.42    0.37
  -7  -3   4    2.58    0.44
   7  -3  -4    2.29    0.33
   7  -3  -4    1.65    0.40
  -7   3   4    2.01    0.34
  -7   3   4    1.95    0.40
  -7   3   4    2.88    0.31
  -7   3   4    2.19    0.29
   7   3  -4    2.47    0.31
  -7   3   4    1.84    0.52
   7   3  -4    2.65    0.51
   7   3  -4    2.24    0.26
   6  -3  -4    1.12    0.36
   6  -3  -4    1.04    0.35
   6  -3  -4    1.98    0.34
  -6  -3   4    1.28    0.42
   6  -3  -4    1.44    0.43
   6  -3  -4    1.05    0.32
  -6   3   4    0.95    0.26
  -6   3   4    1.38    0.51
  -6   3   4    1.27    0.39
  -6   3   4    1.32    0.34
   6   3  -4    1.14    0.27
  -6   3   4    1.50    0.31
  -6   3   4    1.46    0.29
   6   3  -4    0.60    0.51
   6   3  -4    1.16    0.23
   6   3  -4    1.40    0.27
  -6   3   4    0.73    0.32
  -6   3   4    1.27    0.38
   5  -3  -4    0.81    0.34
  -5  -3   4    1.14    0.40
   5  -3  -4    1.39    0.37
   5  -3  -4    0.96    0.30
   5  -3  -4    0.33    0.41
   5  -3  -4    1.24    0.33
  -5   3   4    0.82    0.32
   5   3  -4    0.58    0.26
  -5   3   4    0.49    0.23
  -5   3   4    1.02    0.27
  -5   3   4    0.20    0.30
  -5   3   4    0.60    0.47
   5   3  -4    0.85    0.25
  -5   3   4    0.81    0.31
   5   3  -4    0.64    0.26
  -5   3   4    0.45    0.38
   5   3  -4    1.71    0.51
   5   3  -4    0.91    0.25
   5   3  -4    1.00    0.44
  -5   3   4    0.53    0.29
  -5   3   4    0.97    0.38
  -5   3   4    0.81    0.33
   4  -3  -4    2.97    0.43
   4  -3  -4    2.59    0.36
  -4  -3   4    2.28    0.32
   4  -3  -4    2.56    0.38
   4  -3  -4    2.69    0.35
  -4  -3   4    2.84    0.41
  -4   3   4    2.51    0.38
  -4   3   4    2.72    0.26
  -4   3   4    1.85    0.32
  -4   3   4    1.77    0.28
   4   3  -4    2.26    0.28
  -4   3   4    2.45    0.29
  -4   3   4    2.97    0.33
   4   3  -4    2.41    0.29
   4   3  -4    2.37    0.48
   4   3  -4    2.43    0.24
   4   3  -4    2.72    0.28
   4   3  -4    2.89    0.29
  -4   3   4    2.50    0.30
  -4   3   4    2.22    0.34
  -4   3   4    2.39    0.48
  -4   3   4    2.67    0.39
   4   3  -4    3.16    0.52
   4   3  -4    2.22    0.31
  -4   3   4    2.71    0.33
   4   3  -4    2.63    0.29
  -3  -3   4    2.10    0.31
  -3  -3   4    1.71    0.36
   3  -3  -4    2.25    0.31
   3  -3  -4    2.34    0.36
   3  -3  -4    1.94    0.30
  -3  -3   4    1.93    0.23
   3   3  -4    2.07    0.25
   3   3  -4    1.59    0.47
  -3   3   4    1.94    0.26
   3   3  -4    2.21    0.28
  -3   3   4    1.84    0.28
  -3   3   4    1.96    0.30
  -3   3   4    2.30    0.36
  -3   3   4    1.84    0.38
  -3   3   4    1.87    0.30
   3   3  -4    2.04    0.49
   3   3  -4    1.77    0.30
  -3   3   4    1.70    0.33
   3   3  -4    2.33    0.27
  -3   3   4    2.55    0.47
  -3   3   4    2.84    0.30
   2  -3  -4    0.80    0.30
  -2  -3   4    0.91    0.22
  -2  -3   4    1.05    0.30
   2  -3  -4    1.04    0.26
  -2  -3   4    1.03    0.27
   2  -3  -4    0.62    0.31
  -2   3   4    0.97    0.22
   2   3  -4    1.14    0.25
  -2   3   4    0.81    0.29
  -2   3   4    1.26    0.28
   2   3  -4    1.40    0.49
  -2   3   4    0.72    0.26
   2   3  -4    1.08    0.44
   2   3  -4    0.86    0.16
   2   3  -4    0.67    0.24
   2   3  -4    1.10    0.24
  -2   3   4    1.21    0.26
   2   3  -4    0.83    0.24
  -2   3   4    0.87    0.39
  -2   3   4    1.11    0.38
   2   3  -4    1.16    0.29
  -1  -3   4    0.27    0.27
   1  -3  -4   -0.08    0.28
  -1  -3   4    0.19    0.25
   1  -3  -4    0.10    0.23
  -1  -3   4    0.41    0.20
   1  -3  -4   -0.01    0.29
  -1   3   4   -0.27    0.38
  -1   3   4    0.38    0.25
   1   3  -4   -0.02    0.23
  -1   3   4    0.09    0.24
  -1   3   4    0.07    0.25
   1   3  -4    0.30    0.27
   1   3  -4    0.13    0.18
   1   3  -4    0.15    0.24
  -1   3   4   -0.04    0.32
  -1   3   4   -0.01    0.21
   1   3  -4    0.48    0.48
  -1   3   4    0.21    0.23
   1   3  -4    0.31    0.24
   1   3  -4    0.00    0.23
   0  -3  -4    0.28    0.28
   0  -3  -4    0.26    0.29
   0  -3   4    0.19    0.27
   0  -3   4    0.06    0.21
   0  -3   4    0.27    0.27
   0   3   4    0.45    0.33
   0   3  -4    0.24    0.25
   0   3  -4    0.36    0.20
   0   3  -4    0.42    0.47
   0   3   4    0.07    0.24
   0   3   4    0.66    0.24
   0   3  -4    0.56    0.25
   0   3   4    0.60    0.40
   0   3  -4   -0.11    0.28
   0   3  -4    0.52    0.26
   0   3  -4    0.69    0.25
   0   3   4    0.59    0.23
   0   3   4    0.22    0.23
   1  -3   4   -0.06    0.27
   1  -3   4   -0.08    0.22
  -1   3  -4   -0.15    0.26
   1   3   4    0.12    0.24
  -1   3  -4    0.14    0.23
  -1   3  -4    0.12    0.27
  -1   3  -4   -0.21    0.30
   1   3   4    0.37    0.23
   1   3   4    0.48    0.32
   1   3   4    0.12    0.22
  -1   3  -4    0.10    0.26
  -1   3  -4    0.38    0.42
   1   3   4   -0.10    0.23
   1   3   4   -0.20    0.37
   2  -3   4    2.28    0.29
   2  -3   4    2.23    0.28
  -2   3  -4    2.93    0.42
  -2   3  -4    2.18    0.29
   2   3   4    1.91    0.41
  -2   3  -4    2.47    0.32
  -2   3  -4    3.00    0.38
  -2   3  -4    2.13    0.33
  -2   3  -4    2.73    0.29
  -2   3  -4    2.33    0.32
  -2   3  -4    2.48    0.26
   3  -3   4    3.13    0.35
   3  -3   4    2.60    0.32
   3  -3   4    2.51    0.36
   3  -3   4    2.29    0.30
  -3  -3  -4    2.05    0.30
  -3   3  -4    3.18    0.36
  -3   3  -4    2.78    0.35
  -3   3  -4    2.37    0.38
   3   3   4    2.59    0.28
  -3   3  -4    2.54    0.37
  -3   3  -4    2.72    0.45
  -3   3  -4    3.36    0.31
   3   3   4    2.59    0.29
   3   3   4    3.40    0.43
   3   3   4    3.02    0.42
  -3   3  -4    2.87    0.28
   4  -3   4    2.42    0.33
   4  -3   4    3.38    0.40
   4  -3   4    2.69    0.34
  -4   3  -4    2.72    0.38
  -4   3  -4    2.56    0.31
  -4   3  -4    2.77    0.39
  -4   3  -4    2.61    0.46
  -4   3  -4    2.72    0.28
   4   3   4    2.29    0.28
   4   3   4    2.57    0.29
   4   3   4    3.34    0.42
   5  -3   4    1.58    0.37
   5  -3   4    1.44    0.30
   5  -3   4    1.28    0.29
  -5   3  -4    1.86    0.27
  -5   3  -4    1.07    0.34
   5   3   4    1.30    0.28
   5   3   4    0.85    0.25
  -5   3  -4    0.60    0.41
  -5   3  -4    1.31    0.30
   6  -3   4    0.17    0.26
   6  -3   4   -0.12    0.34
   6  -3   4    0.30    0.29
  -6   3  -4   -0.39    0.23
  -6   3  -4   -0.50    0.33
   6   3   4   -0.39    0.25
  -6   3  -4    0.16    0.29
   7  -3   4    0.53    0.24
  -7   3  -4    0.59    0.27
   7   3   4    0.96    0.27
   8  -3   4    0.61    0.19
  -8   3  -4    0.13    0.23
   8   3   4    0.10    0.22
   8  -4  -4    2.93    0.25
  -8   4   4    3.28    0.22
   7  -4  -4    0.61    0.30
  -7   4   4    0.02    0.21
  -7   4   4    0.40    0.20
  -7   4   4    0.40    0.26
   6  -4  -4    1.89    0.38
  -6   4   4    2.06    0.26
  -6   4   4    1.92    0.24
  -6   4   4    2.12    0.33
  -6   4   4    2.09    0.31
   5  -4  -4   47.68    1.55
   5  -4  -4   46.00    1.53
   5  -4  -4   46.91    1.54
   5   4  -4   48.17    1.41
  -5   4   4   41.15    1.97
  -5   4   4   48.65    1.59
  -5   4   4   46.68    1.50
  -5   4   4   48.14    1.51
   5   4  -4   47.42    1.42
   5   4  -4   49.04    1.44
  -5   4   4   46.63    1.48
  -5   4   4   47.41    1.39
   5   4  -4   50.32    1.48
   5   4  -4   46.89    1.84
  -5   4   4   47.15    1.34
  -5   4   4   45.45    1.47
  -5   4   4   47.14    1.35
   4  -4  -4    5.89    0.50
   4  -4  -4    5.50    0.43
  -4  -4   4    5.68    0.44
   4  -4  -4    5.73    0.51
   4  -4  -4    5.43    0.51
  -4   4   4    5.14    0.37
  -4   4   4    5.62    0.46
   4   4  -4    5.38    0.40
  -4   4   4    5.21    0.36
  -4   4   4    5.77    0.45
  -4   4   4    4.85    0.41
   4   4  -4    5.82    0.39
   4   4  -4    5.62    0.39
  -4   4   4    5.47    0.40
  -4   4   4    5.06    0.32
   4   4  -4    5.38    0.33
  -4   4   4    5.17    0.51
  -4   4   4    3.43    0.54
  -4   4   4    6.72    0.43
   4   4  -4    6.02    0.38
   4   4  -4    3.87    0.55
   3  -4  -4    2.40    0.37
  -3  -4   4    3.10    0.38
   3  -4  -4    3.26    0.43
   3  -4  -4    3.15    0.47
   3  -4  -4    3.19    0.44
   3   4  -4    3.25    0.37
   3   4  -4    3.21    0.54
  -3   4   4    3.69    0.39
   3   4  -4    3.71    0.33
   3   4  -4    2.76    0.28
  -3   4   4    3.33    0.36
  -3   4   4    3.40    0.32
   3   4  -4    3.59    0.37
  -3   4   4    3.49    0.36
  -3   4   4    3.28    0.45
  -3   4   4    2.97    0.47
  -3   4   4    3.06    0.39
  -3   4   4    3.68    0.34
   3   4  -4    2.98    0.32
  -3   4   4    3.32    0.43
   3   4  -4    3.42    0.37
  -3   4   4    3.12    0.28
  -2  -4   4   14.55    0.75
   2  -4  -4   14.74    0.71
   2  -4  -4   14.08    0.79
   2  -4  -4   14.38    0.82
   2  -4  -4   14.82    0.83
  -2   4   4   13.77    0.69
   2   4  -4   14.11    0.63
   2   4  -4   13.50    0.71
  -2   4   4   12.97    0.61
  -2   4   4   13.35    0.76
  -2   4   4   15.19    0.74
  -2   4   4   12.47    0.85
  -2   4   4   13.99    0.65
   2   4  -4   13.75    0.57
   2   4  -4   14.81    0.67
  -2   4   4   14.73    0.67
   2   4  -4   12.90    0.94
   2   4  -4   14.16    0.64
   2   4  -4   14.40    0.69
   2   4  -4   14.02    0.63
  -2   4   4   14.98    0.68
  -2   4   4   14.70    0.70
  -2   4   4   13.82    0.85
   1  -4  -4   -0.85    0.39
  -1  -4   4    0.31    0.34
   1  -4  -4    0.15    0.36
   1  -4  -4   -0.14    0.38
   1  -4  -4    0.76    0.29
  -1   4   4    0.24    0.34
   1   4  -4    0.35    0.24
  -1   4   4    0.29    0.26
   1   4  -4    0.14    0.28
  -1   4   4    0.38    0.30
  -1   4   4   -0.06    0.35
   1   4  -4    0.19    0.50
   1   4  -4    0.40    0.32
  -1   4   4    0.43    0.31
   1   4  -4    0.66    0.31
   1   4  -4    0.79    0.34
   1   4  -4    0.27    0.29
   1   4  -4   -0.02    0.28
  -1   4   4    0.27    0.26
  -1   4   4    0.24    0.37
   1   4  -4    0.32    0.36
  -1   4   4    0.53    0.46
  -1   4   4    0.42    0.31
   0  -4   4   10.59    0.63
   0  -4   4    9.81    0.69
   0  -4   4   10.40    0.55
   0   4  -4   11.02    0.70
   0   4   4   10.80    0.57
   0   4   4   11.37    0.64
   0   4  -4   11.51    0.63
   0   4   4   11.00    0.67
   0   4  -4   10.51    0.60
   0   4  -4    9.06    0.83
   0   4   4   10.95    0.79
   0   4  -4   11.26    0.54
   0   4   4   11.62    0.64
   0   4  -4   11.20    0.64
   0   4  -4   10.40    0.63
   0   4  -4   10.14    0.57
   0   4   4   11.15    0.61
   0   4   4   10.08    0.54
   0   4   4   10.94    0.58
   0   4  -4   10.05    0.58
   1  -4   4    1.54    0.30
   1  -4   4    0.87    0.30
  -1   4  -4    1.06    0.30
   1   4   4    0.95    0.29
  -1   4  -4    1.28    0.35
  -1   4  -4    0.94    0.31
   1   4   4    1.12    0.31
  -1   4  -4    0.79    0.25
   1   4   4    1.87    0.48
  -1   4  -4    1.01    0.40
   1   4   4    1.19    0.27
  -1   4  -4    1.39    0.32
   1   4   4    1.25    0.26
  -1   4  -4    0.52    0.36
   1   4   4    1.43    0.32
  -1   4  -4    0.64    0.29
   2  -4   4    0.92    0.28
   2  -4   4    1.65    0.38
   2  -4   4    1.36    0.30
  -2   4  -4    1.28    0.31
  -2   4  -4    1.15    0.32
  -2   4  -4    1.03    0.26
  -2   4  -4    1.37    0.38
  -2   4  -4    0.38    0.39
   2   4   4    1.40    0.43
  -2   4  -4    1.72    0.37
  -2   4  -4    1.63    0.31
   2   4   4    1.06    0.31
   3  -4   4    8.86    0.53
   3  -4   4    8.47    0.52
   3  -4   4    7.18    0.61
  -3   4  -4    8.47    0.59
   3   4   4    8.41    0.65
   3   4   4    8.16    0.65
   3   4   4    9.48    0.54
  -3   4  -4    9.54    0.58
  -3   4  -4    8.84    0.48
  -3   4  -4    7.96    0.54
  -3   4  -4    8.73    0.61
   4   4   4    0.26    0.26
  -4   4  -4    0.32    0.25
  -4   4  -4   -0.37    0.28
  -4   4  -4    0.12    0.28
  -4   4  -4   -0.39    0.29
   5  -4   4   -0.01    0.20
  -5   4  -4    0.34    0.24
  -5   4  -4   -0.19    0.27
  -5   4  -4    0.12    0.26
   5   4   4    0.12    0.23
   6  -4   4    0.21    0.18
  -6   4  -4    0.30    0.26
  -6   4  -4    0.49    0.19
  -5   5   4   -0.05    0.17
  -4  -5   4    0.04    0.24
   4  -5  -4    0.22    0.24
  -4   5   4   -0.04    0.20
  -3   5   4   21.46    0.78
   3   5  -4   24.57    0.82
  -3   5   4   22.99    0.83
   3   5  -4   23.88    0.76
  -3   5   4   23.50    0.72
  -3   5   4   22.93    0.85
  -3   5   4   23.96    0.77
   2   5  -4    9.25    0.52
   2   5  -4    8.98    0.41
  -2   5   4    8.97    0.44
   2   5  -4    9.92    0.48
   2   5  -4    9.16    0.45
  -2   5   4    8.34    0.48
   2   5  -4    9.74    0.57
  -2   5   4    9.00    0.49
  -2   5   4    8.38    0.55
  -2   5   4    9.32    0.53
   2   5  -4    8.38    0.47
  -2   5   4    9.55    0.55
   1   5  -4   -0.10    0.23
  -1   5   4    0.06    0.24
   1   5  -4   -0.09    0.25
  -1   5   4   -0.30    0.25
   1   5  -4    0.23    0.31
  -1   5   4    0.23    0.29
  -1   5   4   -0.21    0.25
   1   5  -4    0.02    0.22
  -1   5   4   -0.36    0.22
   1   5  -4   -0.19    0.19
   1   5  -4   -0.20    0.26
   0   5  -4    3.36    0.26
   0   5  -4    3.36    0.27
   0   5  -4    3.46    0.38
   0   5   4    3.45    0.31
   0   5  -4    3.44    0.33
   0   5   4    3.65    0.33
   0   5   4    3.18    0.30
   0   5  -4    3.18    0.31
   0   5   4    2.60    0.28
   0   5  -4    4.04    0.31
   0   5   4    3.83    0.28
  -1   5  -4    6.23    0.44
  -1   5  -4    6.09    0.37
  -1   5  -4    6.06    0.43
  -1   5  -4    6.37    0.45
  -1   5  -4    6.75    0.41
   1   5   4    6.17    0.42
  -1   5  -4    6.12    0.44
   2   5   4    0.90    0.23
  -2   5  -4    0.83    0.23
  -2   5  -4    0.97    0.20
   3   5   4    0.10    0.18
  -3   5  -4    0.02    0.20
  -3   5  -4    0.04    0.17
  11   0  -5    0.16    0.23
  11   0  -5    0.17    0.21
 -11   0   5    0.40    0.25
 -11   0   5    0.25    0.25
  11   0  -5    0.64    0.34
 -10   0   5    0.02    0.34
  10   0  -5   -0.03    0.28
  10   0  -5    0.49    0.28
 -10   0   5   -0.28    0.36
 -10   0   5    0.28    0.28
  10   0  -5   -0.08    0.23
  10   0  -5   -0.08    0.38
  10   0  -5   -0.09    0.27
   9   0  -5    3.85    0.37
   9   0  -5    4.91    0.52
  -9   0   5    4.53    0.31
   9   0  -5    4.45    0.39
  -9   0   5    4.05    0.51
   9   0  -5    4.15    0.39
  -9   0   5    4.77    0.34
  -9   0   5    4.40    0.53
   9   0  -5    4.18    0.33
   8   0  -5   -0.15    0.26
   8   0  -5   -0.20    0.23
  -8   0   5   -0.11    0.39
   8   0  -5   -0.33    0.26
   8   0  -5   -0.22    0.27
  -8   0   5   -0.09    0.37
   8   0  -5    0.45    0.22
   8   0  -5    0.24    0.30
  -8   0   5   -0.57    0.25
   8   0  -5    0.03    0.41
   7   0  -5    4.82    0.36
   7   0  -5    6.24    0.39
  -7   0   5    6.94    0.65
   7   0  -5    5.34    0.35
  -7   0   5    6.60    0.55
   7   0  -5    5.64    0.37
  -7   0   5    5.12    0.40
   7   0  -5    5.87    0.49
   7   0  -5    5.19    0.47
  -6   0   5    0.58    0.32
   6   0  -5   -0.40    0.31
   6   0  -5    0.02    0.28
   6   0  -5    0.01    0.32
   6   0  -5   -0.17    0.23
   6   0  -5    0.01    0.22
   6   0  -5   -0.16    0.21
  -6   0   5    0.07    0.32
   6   0  -5    0.17    0.25
  -6   0   5   -0.21    0.22
   5   0  -5    8.73    0.49
  -5   0   5    9.37    0.62
   5   0  -5    8.50    0.55
   5   0  -5    8.50    0.41
  -5   0   5    8.57    0.47
  -5   0   5    8.74    0.42
   5   0  -5    8.50    0.47
  -5   0   5    9.72    0.61
   5   0  -5    9.38    0.55
   4   0  -5   -0.14    0.26
   4   0  -5   -0.04    0.23
   4   0  -5   -0.21    0.17
  -4   0   5   -0.10    0.19
  -4   0   5   -0.09    0.16
  -4   0   5    0.28    0.19
  -4   0   5   -0.17    0.29
  -4   0   5   -0.33    0.19
   4   0  -5   -0.08    0.25
   4   0  -5    0.42    0.22
  -4   0   5    0.07    0.26
   4   0  -5   -0.14    0.20
  -3   0   5    0.63    0.16
   3   0  -5    0.35    0.17
  -3   0   5    0.23    0.18
  -3   0   5    0.33    0.18
   3   0  -5   -0.09    0.25
   2   0  -5   -0.24    0.24
   2   0  -5    0.15    0.19
  -2   0   5   -0.03    0.14
  -2   0   5   -0.15    0.16
  -2   0   5    0.06    0.12
   2   0  -5   -0.10    0.14
   1   0  -5   55.83    1.76
  -1   0   5   54.61    1.46
   1   0  -5   54.64    1.49
  -1   0   5   55.25    1.50
   1   0  -5   54.90    1.52
   0   0   5   -0.05    0.14
   0   0  -5    0.07    0.16
   0   0   5    0.06    0.14
   0   0  -5    0.01    0.22
   0   0   5    0.00    0.12
   0   0   5   -0.09    0.14
   0   0  -5   -0.20    0.14
  -1   0  -5   17.18    0.58
   1   0   5   16.52    0.55
   1   0   5   16.80    0.55
  -1   0  -5   17.48    0.53
  -1   0  -5   16.89    0.63
   1   0   5   16.82    0.54
   1   0   5   17.21    0.61
   2   0   5   -0.10    0.17
  -2   0  -5    0.24    0.20
   2   0   5    0.01    0.16
  -2   0  -5   -0.02    0.18
   2   0   5   -0.15    0.16
   2   0   5    0.08    0.22
   3   0   5   10.27    0.41
  -3   0  -5    9.77    0.56
  -3   0  -5    9.73    0.51
   3   0   5   10.15    0.43
   3   0   5    9.37    0.57
   3   0   5   10.32    0.47
   3   0   5   10.03    0.46
  -3   0  -5    9.79    0.47
  -4   0  -5    0.58    0.25
   4   0   5    0.28    0.21
   4   0   5   -0.11    0.22
  -4   0  -5   -0.43    0.25
  -4   0  -5    0.19    0.31
   4   0   5    0.14    0.16
  -4   0  -5   -0.22    0.31
   4   0   5   -0.21    0.17
   4   0   5    0.10    0.28
   5   0   5    0.86    0.17
  -5   0  -5    0.56    0.35
   5   0   5    0.58    0.35
  -5   0  -5    0.46    0.31
  -5   0  -5    0.69    0.34
   5   0   5    0.48    0.25
   5   0   5    0.59    0.26
   6   0   5   -0.32    0.24
   6   0   5   -0.02    0.36
  -6   0  -5   -0.27    0.35
   6   0   5    0.06    0.25
   6   0   5   -0.09    0.21
   6   0   5   -0.03    0.22
   6   0   5    0.40    0.29
  -6   0  -5    0.40    0.41
   6   0   5    0.00    0.30
   7   0   5   24.28    0.86
  -7   0  -5   22.26    1.13
   7   0   5   23.04    0.93
   7   0   5   23.26    0.93
   7   0   5   24.09    1.00
   7   0   5   24.17    0.89
   7   0   5   24.37    0.80
   7   0   5   23.59    0.96
  -7   0  -5   24.14    1.22
   8   0   5    0.04    0.31
   8   0   5    0.04    0.20
   8   0   5   -0.03    0.27
   8   0   5   -0.19    0.36
  -8   0  -5    0.15    0.51
   8   0   5   -0.05    0.21
   9   0   5    0.35    0.31
   9   0   5    0.15    0.24
   9   0   5    0.02    0.19
  10   0   5   -0.07    0.15
  11  -1  -5    0.57    0.26
  11  -1  -5   -0.30    0.32
 -11  -1   5    0.28    0.22
  11  -1  -5    0.14    0.21
  11  -1  -5    0.12    0.21
  11   1  -5    0.16    0.21
  11   1  -5    0.64    0.23
 -11   1   5    0.21    0.25
  11   1  -5    0.06    0.22
 -11   1   5    0.33    0.24
  10  -1  -5    4.86    0.38
  10  -1  -5    6.48    0.44
  10  -1  -5    5.84    0.46
  10   1  -5    7.40    0.50
  10   1  -5    6.17    0.44
  10   1  -5    5.71    0.46
 -10   1   5    6.17    0.45
 -10   1   5    6.72    0.49
   9  -1  -5    6.26    0.47
   9  -1  -5    6.44    0.47
   9  -1  -5    5.87    0.52
   9  -1  -5    6.72    0.44
  -9  -1   5    6.35    0.46
  -9  -1   5    7.54    0.72
   9  -1  -5    6.86    0.55
  -9  -1   5    6.51    0.44
  -9   1   5    6.21    0.55
   9   1  -5    7.22    0.52
   9   1  -5    6.85    0.58
   9   1  -5    7.39    0.55
   9   1  -5    7.06    0.53
  -9   1   5    6.57    0.51
   9   1  -5    7.19    0.50
  -9   1   5    7.16    0.60
  -9   1   5    7.02    0.47
   9   1  -5    6.20    0.47
   9   1  -5    6.42    0.50
  -9   1   5    6.35    0.44
   8  -1  -5    4.11    0.41
   8  -1  -5    4.15    0.37
   8  -1  -5    4.05    0.36
  -8  -1   5    4.49    0.54
   8  -1  -5    4.28    0.36
   8  -1  -5    3.91    0.47
  -8  -1   5    4.40    0.46
  -8   1   5    4.54    0.33
   8   1  -5    4.49    0.50
   8   1  -5    3.74    0.33
  -8   1   5    4.37    0.32
  -8   1   5    3.90    0.35
  -8   1   5    3.88    0.47
   8   1  -5    4.07    0.35
  -8   1   5    3.66    0.51
   8   1  -5    3.89    0.32
   8   1  -5    4.30    0.52
   8   1  -5    4.12    0.36
   8   1  -5    4.19    0.36
  -7  -1   5    2.28    0.37
   7  -1  -5    2.28    0.37
   7  -1  -5    1.98    0.33
   7  -1  -5    1.55    0.32
  -7  -1   5    2.34    0.45
   7  -1  -5    2.08    0.34
   7  -1  -5    2.02    0.31
  -7  -1   5    1.50    0.32
   7  -1  -5    3.01    0.42
   7  -1  -5    1.95    0.32
   7   1  -5    2.57    0.44
   7   1  -5    1.97    0.29
   7   1  -5    2.60    0.30
   7   1  -5    2.09    0.27
  -7   1   5    2.14    0.27
   7   1  -5    1.97    0.25
   7   1  -5    2.48    0.46
  -7   1   5    1.99    0.29
  -7   1   5    2.77    0.31
  -7   1   5    2.07    0.39
  -7   1   5    2.46    0.42
   7   1  -5    1.72    0.25
   6  -1  -5    0.12    0.26
   6  -1  -5   -0.02    0.25
   6  -1  -5    0.16    0.31
   6  -1  -5    0.18    0.24
  -6  -1   5    0.63    0.28
  -6  -1   5    0.23    0.26
  -6  -1   5    0.36    0.35
   6  -1  -5   -0.06    0.27
   6  -1  -5    0.24    0.25
   6   1  -5    0.74    0.37
   6   1  -5    0.18    0.20
  -6   1   5    0.12    0.31
   6   1  -5    0.20    0.24
   6   1  -5    0.10    0.36
  -6   1   5    0.37    0.30
   6   1  -5    0.31    0.21
  -6   1   5   -0.05    0.25
  -6   1   5    0.35    0.22
  -6   1   5   -0.16    0.21
   6   1  -5    0.02    0.21
  -6   1   5   -0.21    0.27
  -6   1   5    0.05    0.22
  -6   1   5   -0.08    0.37
  -5  -1   5    9.43    0.50
  -5  -1   5    9.60    0.62
   5  -1  -5    7.57    0.48
   5  -1  -5    9.45    0.50
   5  -1  -5    9.00    0.49
  -5  -1   5    9.21    0.55
   5  -1  -5    8.70    0.50
   5  -1  -5    7.94    0.52
   5  -1  -5    9.36    0.51
   5   1  -5    8.19    0.62
  -5   1   5    9.16    0.47
  -5   1   5    8.94    0.45
  -5   1   5    9.01    0.64
   5   1  -5    7.83    0.78
  -5   1   5    9.73    0.44
   5   1  -5    9.36    0.53
   5   1  -5    9.43    0.60
  -5   1   5    8.50    0.58
  -5   1   5    8.53    0.52
  -5   1   5    9.29    0.49
  -5   1   5    7.81    0.60
   5   1  -5    9.18    0.39
   5   1  -5    7.90    0.50
  -4  -1   5   23.89    0.98
  -4  -1   5   25.54    0.99
   4  -1  -5   25.20    0.86
  -4  -1   5   24.49    0.77
   4  -1  -5   24.09    0.89
   4  -1  -5   24.37    0.79
  -4  -1   5   25.22    1.05
  -4  -1   5   24.56    0.89
   4  -1  -5   23.60    0.85
   4  -1  -5   25.21    0.80
  -4   1   5   24.28    0.80
  -4   1   5   24.40    0.86
   4   1  -5   24.59    0.75
  -4   1   5   24.93    1.01
   4   1  -5   23.52    0.88
  -4   1   5   28.05    1.09
   4   1  -5   25.48    1.34
   4   1  -5   25.36    0.87
  -4   1   5   25.32    0.87
  -4   1   5   24.30    0.79
  -4   1   5   23.86    0.76
   4   1  -5   27.02    1.04
  -4   1   5   24.74    1.02
   4   1  -5   24.21    0.82
   4   1  -5   24.42    1.00
   3  -1  -5   62.51    1.74
  -3  -1   5   63.07    2.26
  -3  -1   5   64.19    2.26
  -3  -1   5   62.03    1.69
  -3  -1   5   62.48    1.76
  -3  -1   5   61.28    1.73
   3  -1  -5   64.38    1.77
   3  -1  -5   62.11    1.90
   3  -1  -5   63.35    2.30
   3  -1  -5   63.58    1.89
  -3  -1   5   65.97    2.03
  -3   1   5   64.48    1.70
  -3   1   5   62.14    2.00
   3   1  -5   67.79    2.28
   3   1  -5   65.67    2.18
   3   1  -5   63.31    1.74
  -3   1   5   64.16    1.90
   3   1  -5   61.15    1.88
  -3   1   5   63.80    2.38
   3   1  -5   64.18    1.91
  -3   1   5   62.37    2.26
  -3   1   5   61.63    1.77
  -3   1   5   65.72    1.74
   3   1  -5   63.13    1.72
   2  -1  -5   11.84    0.53
  -2  -1   5   12.61    0.58
   2  -1  -5   12.54    0.55
   2  -1  -5   12.08    0.57
   2  -1  -5   12.51    0.51
  -2  -1   5   12.26    0.46
  -2  -1   5   12.82    0.43
  -2  -1   5   13.58    0.47
   2  -1  -5   12.73    0.45
  -2  -1   5   12.14    0.50
  -2  -1   5   11.47    0.59
   2   1  -5   13.06    0.55
   2   1  -5   12.40    0.52
   2   1  -5   12.07    0.55
  -2   1   5   12.48    0.44
   2   1  -5   12.10    0.59
  -2   1   5   11.15    0.48
  -2   1   5   12.49    0.44
   2   1  -5   12.58    0.41
   1  -1  -5    9.14    0.45
  -1  -1   5    9.10    0.39
   1  -1  -5    8.65    0.41
  -1  -1   5    9.11    0.42
   1  -1  -5    9.49    0.50
   1  -1  -5    9.45    0.37
   1   1  -5    9.56    0.38
   1   1  -5    9.20    0.42
   1   1  -5    9.83    0.50
  -1   1   5    8.97    0.35
  -1   1   5    9.33    0.37
   0  -1   5    2.11    0.21
   0  -1  -5    2.81    0.27
   0  -1   5    2.50    0.23
   0  -1   5    2.82    0.19
   0  -1  -5    2.69    0.21
   0  -1   5    2.70    0.21
   0   1   5    2.90    0.18
   0   1  -5    2.42    0.27
   0   1  -5    2.27    0.20
   0   1   5    2.83    0.17
   0   1   5    2.94    0.18
   0   1   5    3.62    0.25
   0   1   5    2.64    0.29
   0   1   5    3.29    0.30
   0   1  -5    2.80    0.22
   1  -1   5    7.65    0.35
  -1  -1  -5    8.25    0.48
  -1  -1  -5    7.04    0.37
   1  -1   5    7.08    0.38
   1  -1   5    7.88    0.41
   1  -1   5    7.12    0.34
   1  -1   5    7.26    0.39
   1   1   5    8.85    0.44
  -1   1  -5    7.33    0.44
  -1   1  -5    7.74    0.48
   1   1   5    7.63    0.44
   1   1   5    8.26    0.35
  -1   1  -5    7.41    0.44
  -1   1  -5    7.86    0.41
   1   1   5    7.88    0.47
  -1   1  -5    7.83    0.38
   2  -1   5  156.82    4.01
   2  -1   5  157.51    4.09
   2  -1   5  154.29    4.01
   2  -1   5  155.91    4.10
   2  -1   5  155.33    5.59
   2  -1   5  149.94    4.17
  -2  -1  -5  155.29    4.81
  -2  -1  -5  159.49    5.48
  -2  -1  -5  151.61    4.31
  -2   1  -5  148.78    4.19
  -2   1  -5  149.36    4.56
   2   1   5  153.55    4.66
   2   1   5  149.74    5.26
  -2   1  -5  157.65    4.08
  -2   1  -5  154.57    4.02
  -2   1  -5  148.78    4.46
  -2   1  -5  151.03    4.81
   2   1   5  155.49    4.10
   2   1   5  151.64    5.58
   2   1   5  151.04    5.28
   3  -1   5   10.04    0.48
   3  -1   5    9.63    0.50
   3  -1   5    9.74    0.41
   3  -1   5   10.19    0.46
   3  -1   5    9.18    0.47
   3   1   5    9.10    0.51
  -3   1  -5   10.03    0.63
   3   1   5    9.63    0.58
  -3   1  -5   10.28    0.61
   3   1   5   10.33    0.43
  -3   1  -5    9.26    0.57
   3   1   5    9.63    0.56
   4  -1   5    2.14    0.26
   4  -1   5    2.79    0.25
   4  -1   5    2.72    0.29
   4  -1   5    2.77    0.30
   4  -1   5    2.58    0.28
   4   1   5    3.17    0.35
  -4   1  -5    2.56    0.40
   4   1   5    2.16    0.26
  -4   1  -5    2.37    0.35
  -4   1  -5    2.82    0.39
   4   1   5    2.75    0.34
   5  -1   5    1.74    0.32
  -5  -1  -5    2.15    0.38
   5  -1   5    2.60    0.32
   5  -1   5    1.90    0.26
  -5   1  -5    1.55    0.42
  -5   1  -5    1.97    0.39
  -5   1  -5    2.46    0.43
   5   1   5    2.45    0.30
  -5   1  -5    1.65    0.38
  -5   1  -5    2.03    0.39
   5   1   5    2.27    0.28
   5   1   5    1.91    0.34
   5   1   5    2.36    0.39
   6  -1   5    8.84    0.49
   6  -1   5    6.79    0.47
   6  -1   5    9.09    0.50
  -6  -1  -5   10.77    0.61
   6  -1   5    8.53    0.59
   6  -1   5    8.82    0.65
   6  -1   5    8.21    0.63
  -6   1  -5    7.64    0.51
  -6   1  -5    7.57    0.60
   6   1   5    8.62    0.73
  -6   1  -5    6.93    0.60
   6   1   5    9.13    0.68
  -6   1  -5    8.80    0.70
   6   1   5    8.65    0.56
   6   1   5    8.34    0.55
   6   1   5    9.68    0.53
  -6   1  -5    9.68    0.64
  -6   1  -5    9.18    0.67
   6   1   5    9.50    0.47
   7  -1   5   34.70    1.17
   7  -1   5   34.07    1.19
   7  -1   5   36.47    1.11
  -7  -1  -5   35.93    1.47
  -7  -1  -5   35.34    1.38
   7  -1   5   36.02    1.30
   7  -1   5   36.00    1.18
   7  -1   5   34.31    1.28
   7  -1   5   34.35    1.21
   7   1   5   35.60    1.47
  -7   1  -5   34.89    1.30
  -7   1  -5   35.42    1.49
   7   1   5   36.12    1.24
  -7   1  -5   33.30    1.14
   7   1   5   38.97    1.16
  -7   1  -5   34.45    1.22
  -7   1  -5   36.53    1.33
   7   1   5   36.71    1.19
   8  -1   5    0.59    0.24
   8  -1   5    0.32    0.32
   8  -1   5    0.37    0.22
   8  -1   5    0.66    0.27
   8   1   5    0.64    0.23
   8   1   5    0.24    0.26
   9  -1   5    0.17    0.18
   9  -1   5    0.39    0.19
   9  -1   5    0.42    0.30
   9  -1   5    0.11    0.20
   9   1   5    0.31    0.22
   9   1   5    0.21    0.19
  -9   1  -5    0.28    0.25
  10  -1   5    0.00    0.24
  11  -2  -5   -0.13    0.18
  11  -2  -5    0.58    0.25
 -11  -2   5   -0.20    0.16
  11  -2  -5    0.48    0.28
 -11   2   5    0.31    0.19
  10  -2  -5    0.38    0.31
  10  -2  -5    0.55    0.26
 -10   2   5    0.47    0.23
  10   2  -5    0.26    0.22
 -10   2   5    0.49    0.22
  10   2  -5    0.45    0.24
   9  -2  -5   19.42    0.81
  -9  -2   5   18.17    0.65
   9   2  -5   19.48    0.73
  -9   2   5   19.49    0.69
   9   2  -5   19.57    0.73
   9   2  -5   20.25    0.95
  -9   2   5   19.60    0.73
  -9   2   5   19.34    0.71
   9   2  -5   19.47    0.74
   8  -2  -5   36.53    1.17
   8  -2  -5   33.47    1.22
   8  -2  -5   34.94    1.28
  -8  -2   5   38.49    1.25
   8  -2  -5   34.92    1.25
  -8   2   5   36.01    1.18
  -8   2   5   34.03    1.51
  -8   2   5   36.05    1.11
   8   2  -5   36.29    1.53
   8   2  -5   36.62    1.17
   8   2  -5   38.75    1.18
  -8   2   5   35.91    1.29
  -8   2   5   35.82    1.09
   8   2  -5   38.37    1.32
   8   2  -5   36.36    1.18
  -8   2   5   37.90    1.16
   8   2  -5   36.86    1.15
  -7  -2   5   -0.37    0.24
   7  -2  -5    0.40    0.31
   7  -2  -5   -0.35    0.35
   7  -2  -5   -0.16    0.29
   7  -2  -5   -0.57    0.34
  -7   2   5    0.64    0.36
   7   2  -5   -0.27    0.25
   7   2  -5   -0.22    0.24
  -7   2   5    0.30    0.24
  -7   2   5    0.56    0.36
   7   2  -5    0.19    0.23
   7   2  -5   -0.05    0.23
   7   2  -5   -0.01    0.39
  -7   2   5    0.38    0.31
  -7   2   5   -0.27    0.26
   7   2  -5   -0.25    0.45
  -7   2   5    0.28    0.46
   6  -2  -5    0.98    0.30
   6  -2  -5    0.71    0.32
  -6  -2   5    0.77    0.23
   6  -2  -5    0.75    0.36
   6  -2  -5    0.97    0.36
   6  -2  -5    1.28    0.32
  -6  -2   5    0.86    0.30
  -6  -2   5    0.82    0.29
  -6  -2   5    0.67    0.26
   6  -2  -5    1.14    0.32
  -6   2   5    0.65    0.45
  -6   2   5    0.98    0.28
  -6   2   5    0.92    0.26
  -6   2   5    1.53    0.39
   6   2  -5    0.91    0.26
   6   2  -5    1.18    0.24
  -6   2   5    1.21    0.31
   6   2  -5    0.24    0.41
   6   2  -5    0.40    0.23
  -6   2   5    1.31    0.33
   6   2  -5    0.59    0.39
  -6   2   5    0.91    0.24
   6   2  -5    1.12    0.23
  -5  -2   5    2.76    0.26
  -5  -2   5    2.70    0.30
   5  -2  -5    2.11    0.31
   5  -2  -5    2.51    0.33
  -5  -2   5    2.97    0.35
  -5  -2   5    2.64    0.27
   5  -2  -5    2.58    0.33
   5  -2  -5    2.42    0.30
   5   2  -5    2.55    0.37
  -5   2   5    3.13    0.40
   5   2  -5    2.38    0.26
  -5   2   5    2.64    0.28
   5   2  -5    2.12    0.42
   5   2  -5    2.19    0.42
   5   2  -5    2.63    0.26
   5   2  -5    2.49    0.26
  -5   2   5    2.74    0.47
  -5   2   5    2.47    0.32
  -5   2   5    2.19    0.27
  -5   2   5    3.23    0.32
   4  -2  -5    2.07    0.30
   4  -2  -5    1.24    0.23
  -4  -2   5    1.66    0.23
   4  -2  -5    1.59    0.28
  -4  -2   5    1.19    0.21
  -4  -2   5    1.20    0.30
  -4  -2   5    1.62    0.30
   4   2  -5    1.47    0.22
  -4   2   5    1.73    0.23
   4   2  -5    1.42    0.22
   4   2  -5    1.89    0.39
   4   2  -5    1.79    0.31
  -4   2   5    1.75    0.25
  -4   2   5    2.38    0.33
   4   2  -5    1.59    0.37
   4   2  -5    1.56    0.23
  -4   2   5    1.64    0.27
  -4   2   5    1.80    0.40
   4   2  -5    1.32    0.24
   4   2  -5    1.34    0.34
   4   2  -5    1.39    0.17
   3  -2  -5   48.84    1.46
   3  -2  -5   48.71    1.48
  -3  -2   5   46.86    1.35
  -3  -2   5   48.20    1.47
   3  -2  -5   46.88    1.54
  -3  -2   5   46.18    1.75
  -3  -2   5   46.96    1.77
   3   2  -5   45.40    1.47
   3   2  -5   47.46    1.33
   3   2  -5   46.38    1.80
  -3   2   5   48.13    1.86
   3   2  -5   46.78    2.32
   3   2  -5   46.91    1.70
  -3   2   5   46.82    1.31
   3   2  -5   43.61    1.47
   3   2  -5   48.25    1.30
  -3   2   5   47.76    1.48
  -3   2   5   45.52    1.71
  -3   2   5   45.09    1.37
  -3   2   5   46.61    1.34
  -2  -2   5    0.08    0.17
   2  -2  -5    0.10    0.24
   2  -2  -5    0.54    0.24
  -2  -2   5    0.08    0.17
  -2  -2   5    0.23    0.27
  -2  -2   5   -0.19    0.20
   2  -2  -5    0.43    0.20
   2   2  -5    0.10    0.36
   2   2  -5   -0.11    0.23
  -2   2   5    0.15    0.21
  -2   2   5    0.02    0.21
   2   2  -5   -0.49    0.36
   2   2  -5   -0.23    0.47
   2   2  -5    0.14    0.16
   2   2  -5   -0.18    0.29
  -2   2   5    0.07    0.29
  -2   2   5    0.19    0.17
  -2   2   5    0.05    0.29
  -2   2   5   -0.07    0.18
   1  -2  -5    1.14    0.23
  -1  -2   5    0.03    0.25
  -1  -2   5   -0.30    0.19
  -1  -2   5    0.03    0.18
  -1  -2   5    0.06    0.17
   1  -2  -5    0.49    0.23
   1  -2  -5    0.55    0.19
   1   2  -5    0.65    0.33
  -1   2   5    0.70    0.31
  -1   2   5    0.19    0.15
   1   2  -5   -0.24    0.22
   1   2  -5    0.32    0.38
   1   2  -5    0.05    0.18
  -1   2   5    0.25    0.15
   1   2  -5    0.00    0.37
  -1   2   5    0.56    0.27
  -1   2   5    0.52    0.22
   1   2  -5    0.42    0.45
  -1   2   5    0.62    0.22
   0  -2  -5    3.84    0.29
   0  -2   5    4.19    0.29
   0  -2   5    4.05    0.27
   0  -2   5    4.30    0.29
   0  -2   5    3.93    0.26
   0  -2   5    4.26    0.30
   0  -2   5    3.92    0.28
   0   2  -5    3.29    0.31
   0   2   5    4.97    0.41
   0   2   5    4.69    0.30
   0   2  -5    4.37    0.26
   0   2  -5    4.41    0.29
   0   2   5    4.87    0.41
   0   2  -5    3.66    0.51
   0   2  -5    4.81    0.46
   1  -2   5  219.25    5.96
   1  -2   5  215.71    6.49
   1  -2   5  218.27    5.75
   1  -2   5  225.81    5.74
   1  -2   5  217.52    5.85
  -1  -2  -5  219.73    7.86
  -1   2  -5  233.71    5.85
  -1   2  -5  217.40    7.58
   1   2   5  215.04    7.56
  -1   2  -5  224.11    5.98
  -1   2  -5  216.40    5.75
  -1   2  -5  221.75    6.36
   1   2   5  222.23    8.01
   2  -2   5  132.60    3.53
   2  -2   5  127.40    3.58
   2  -2   5  138.53    3.65
  -2  -2  -5  132.04    4.79
   2  -2   5  134.85    3.52
   2   2   5  131.96    4.61
   2   2   5  129.11    4.08
   2   2   5  134.51    4.88
  -2   2  -5  134.74    3.91
  -2   2  -5  132.05    3.58
  -2   2  -5  134.16    3.54
  -2   2  -5  132.20    3.67
  -3  -2  -5    0.31    0.24
   3  -2   5    0.26    0.23
   3  -2   5    0.08    0.27
   3  -2   5   -0.05    0.21
  -3   2  -5    0.36    0.34
   3   2   5   -0.10    0.26
  -3   2  -5    0.19    0.31
   3   2   5    0.21    0.25
   3   2   5    0.21    0.29
  -3   2  -5    0.32    0.29
  -3   2  -5    0.31    0.30
   3   2   5    0.06    0.22
  -3   2  -5    0.07    0.24
   4  -2   5   -0.06    0.23
   4  -2   5    0.18    0.25
   4  -2   5    0.19    0.31
  -4   2  -5    0.10    0.34
  -4   2  -5    0.35    0.40
  -4   2  -5    0.10    0.35
   4   2   5    0.26    0.32
   4   2   5    0.30    0.19
   4   2   5    0.61    0.30
   5  -2   5   -0.26    0.31
   5  -2   5    0.35    0.33
   5  -2   5   -0.02    0.26
   5  -2   5    0.79    0.26
   5   2   5    0.29    0.22
  -5   2  -5    0.14    0.22
  -5   2  -5    0.43    0.44
  -5   2  -5    0.20    0.35
   5   2   5    0.68    0.39
  -5   2  -5    0.29    0.38
  -5   2  -5    0.04    0.26
   6  -2   5    4.27    0.46
   6  -2   5    5.05    0.39
   6  -2   5    4.42    0.43
   6  -2   5    4.35    0.35
   6  -2   5    3.86    0.33
  -6   2  -5    4.17    0.52
   6   2   5    4.98    0.35
  -6   2  -5    4.57    0.47
  -6   2  -5    4.55    0.36
  -6   2  -5    4.93    0.49
  -6   2  -5    3.92    0.32
   7  -2   5   10.01    0.62
   7  -2   5   11.06    0.73
   7  -2   5    9.94    0.50
   7  -2   5   10.74    0.53
  -7   2  -5    9.10    0.72
  -7   2  -5   10.45    0.73
  -7   2  -5   10.46    0.56
  -7   2  -5    9.63    0.51
   7   2   5   10.81    0.55
   8  -2   5    0.37    0.21
   8  -2   5    0.37    0.29
   8  -2   5    0.09    0.18
   8   2   5    0.17    0.23
  -8   2  -5   -0.01    0.23
  -8   2  -5   -0.15    0.19
   9  -2   5    0.72    0.26
   9  -2   5    0.45    0.14
   9  -2   5    0.34    0.15
  -9   2  -5    0.79    0.20
   9   2   5    0.62    0.22
  10  -3  -5    0.82    0.17
 -10   3   5    1.05    0.16
   9  -3  -5    0.46    0.23
   9  -3  -5    0.58    0.25
   9  -3  -5    0.05    0.28
  -9   3   5    0.67    0.22
  -9   3   5    0.80    0.22
   8  -3  -5    0.22    0.30
   8  -3  -5    0.40    0.29
   8   3  -5   -0.01    0.25
  -8   3   5    0.33    0.26
  -8   3   5    0.08    0.22
   8   3  -5    0.11    0.22
  -8   3   5    0.70    0.28
   7  -3  -5    0.01    0.29
   7  -3  -5   -0.32    0.37
  -7  -3   5    0.40    0.41
   7  -3  -5   -0.20    0.28
   7  -3  -5    0.17    0.31
   7  -3  -5    0.19    0.34
  -7   3   5    0.07    0.31
  -7   3   5    0.48    0.34
   7   3  -5    0.60    0.26
  -7   3   5   -0.17    0.24
   7   3  -5   -0.29    0.25
   7   3  -5   -0.01    0.46
  -7   3   5    0.58    0.28
  -7   3   5    0.35    0.47
  -7   3   5   -0.21    0.28
  -7   3   5   -0.28    0.26
   7   3  -5    0.21    0.23
   6  -3  -5    0.53    0.32
   6  -3  -5    0.07    0.35
   6  -3  -5   -0.29    0.34
   6  -3  -5   -0.05    0.41
  -6  -3   5    0.35    0.40
  -6   3   5    0.26    0.31
  -6   3   5    0.63    0.37
   6   3  -5    0.56    0.26
  -6   3   5    0.41    0.28
  -6   3   5    0.39    0.30
  -6   3   5    0.03    0.46
   6   3  -5    0.27    0.28
   6   3  -5    0.13    0.22
   6   3  -5    0.49    0.25
  -6   3   5    0.20    0.30
  -6   3   5    0.71    0.38
   6   3  -5    0.60    0.25
   6   3  -5    0.62    0.51
  -6   3   5    0.69    0.24
  -5  -3   5    2.37    0.43
   5  -3  -5    2.98    0.45
   5  -3  -5    3.22    0.42
   5  -3  -5    2.41    0.39
   5  -3  -5    2.85    0.38
   5   3  -5    2.27    0.26
   5   3  -5    2.61    0.55
   5   3  -5    2.34    0.31
  -5   3   5    2.60    0.35
  -5   3   5    3.25    0.35
   5   3  -5    2.25    0.29
  -5   3   5    2.35    0.52
   5   3  -5    2.75    0.30
   5   3  -5    2.23    0.30
  -5   3   5    2.25    0.26
  -5   3   5    2.86    0.30
  -5   3   5    2.63    0.35
  -5   3   5    2.40    0.33
  -5   3   5    2.46    0.40
  -5   3   5    2.08    0.34
   5   3  -5    2.08    0.49
  -5   3   5    2.77    0.31
  -5   3   5    2.70    0.40
  -4  -3   5    1.72    0.39
   4  -3  -5    2.54    0.39
   4  -3  -5    2.03    0.40
  -4  -3   5    1.96    0.31
   4  -3  -5    1.62    0.42
  -4  -3   5    1.74    0.25
   4  -3  -5    1.81    0.39
   4  -3  -5    1.81    0.34
  -4   3   5    1.25    0.30
  -4   3   5    1.54    0.31
  -4   3   5    1.88    0.30
   4   3  -5    1.56    0.26
  -4   3   5    1.51    0.23
   4   3  -5    1.68    0.50
  -4   3   5    1.67    0.26
   4   3  -5    1.81    0.28
  -4   3   5    1.98    0.49
   4   3  -5    1.54    0.24
  -4   3   5    1.64    0.36
  -4   3   5    1.91    0.31
  -4   3   5    1.51    0.28
   4   3  -5    1.66    0.22
   4   3  -5    1.69    0.52
   4   3  -5    1.42    0.30
   4   3  -5    1.18    0.27
  -4   3   5    1.55    0.30
  -4   3   5    1.39    0.33
  -4   3   5    2.04    0.37
   4   3  -5    1.56    0.26
   3  -3  -5    2.28    0.32
  -3  -3   5    2.02    0.25
   3  -3  -5    2.54    0.37
   3  -3  -5    3.00    0.39
  -3  -3   5    2.12    0.31
  -3  -3   5    2.24    0.37
   3   3  -5    2.34    0.24
   3   3  -5    2.02    0.26
   3   3  -5    2.20    0.25
  -3   3   5    2.28    0.47
  -3   3   5    1.99    0.34
  -3   3   5    2.02    0.40
  -3   3   5    2.25    0.33
   3   3  -5    1.87    0.52
  -3   3   5    2.38    0.29
  -3   3   5    2.08    0.30
   3   3  -5    2.21    0.32
   3   3  -5    2.08    0.49
  -3   3   5    2.26    0.26
  -3   3   5    2.58    0.30
  -3   3   5    2.17    0.30
   3   3  -5    2.16    0.29
  -3   3   5    2.64    0.33
   3   3  -5    2.13    0.28
  -3   3   5    2.25    0.28
  -3   3   5    1.96    0.28
   2  -3  -5    2.27    0.29
  -2  -3   5    1.94    0.31
   2  -3  -5    2.00    0.34
  -2  -3   5    1.77    0.25
   2  -3  -5    2.16    0.35
   2   3  -5    2.06    0.28
  -2   3   5    2.32    0.29
   2   3  -5    2.18    0.20
   2   3  -5    2.25    0.28
   2   3  -5    1.96    0.29
  -2   3   5    2.36    0.23
  -2   3   5    2.69    0.43
  -2   3   5    2.37    0.43
   2   3  -5    2.05    0.28
  -2   3   5    2.56    0.29
  -2   3   5    1.92    0.31
   2   3  -5    2.15    0.33
  -2   3   5    2.27    0.30
   2   3  -5    1.64    0.52
  -1  -3   5    3.37    0.29
  -1  -3   5    3.36    0.35
   1  -3  -5    3.02    0.35
   1  -3  -5    3.94    0.37
   1  -3  -5    3.04    0.30
  -1  -3   5    2.89    0.32
  -1   3   5    2.97    0.46
   1   3  -5    3.10    0.31
  -1   3   5    3.26    0.46
  -1   3   5    2.95    0.33
  -1   3   5    3.46    0.31
   1   3  -5    3.13    0.57
   1   3  -5    3.55    0.31
  -1   3   5    3.34    0.31
   1   3  -5    3.09    0.32
   1   3  -5    2.90    0.32
   1   3  -5    3.60    0.27
   1   3  -5    3.62    0.36
  -1   3   5    3.69    0.32
   0  -3  -5    2.48    0.34
   0  -3   5    3.61    0.36
   0  -3   5    3.53    0.32
   0  -3   5    2.83    0.29
   0  -3   5    2.86    0.35
   0   3  -5    3.25    0.32
   0   3   5    3.25    0.47
   0   3  -5    3.35    0.33
   0   3  -5    2.76    0.54
   0   3  -5    2.59    0.36
   0   3  -5    3.08    0.32
   0   3   5    3.63    0.30
   0   3   5    2.79    0.43
   0   3   5    2.89    0.32
   0   3  -5    2.90    0.33
   0   3   5    3.51    0.31
   0   3   5    3.13    0.29
   0   3  -5    3.12    0.28
  -1  -3  -5    2.71    0.35
   1  -3   5    2.82    0.33
   1  -3   5    3.13    0.37
   1  -3   5    3.09    0.31
  -1   3  -5    2.51    0.27
  -1   3  -5    2.31    0.49
  -1   3  -5    2.98    0.30
   1   3   5    2.56    0.30
   1   3   5    3.23    0.45
  -1   3  -5    2.79    0.32
  -1   3  -5    2.43    0.32
  -1   3  -5    2.47    0.31
   1   3   5    2.90    0.28
  -1   3  -5    2.87    0.38
   1   3   5    2.92    0.40
  -1   3  -5    2.49    0.34
   1   3   5    3.32    0.31
   1   3   5    3.42    0.29
   2  -3   5    0.21    0.25
   2  -3   5    0.51    0.32
  -2  -3  -5    0.60    0.27
   2  -3   5    0.56    0.24
  -2   3  -5    0.63    0.31
  -2   3  -5    0.52    0.35
  -2   3  -5    0.28    0.22
   2   3   5    0.07    0.25
  -2   3  -5    0.59    0.26
   2   3   5    0.04    0.20
  -2   3  -5    0.22    0.31
  -2   3  -5    0.28    0.38
   2   3   5    0.34    0.36
   2   3   5    0.17    0.30
   3  -3   5    0.29    0.27
   3   3   5   -0.07    0.37
  -3   3  -5    0.05    0.33
   3   3   5    0.37    0.23
  -3   3  -5    0.06    0.23
  -3   3  -5    0.14    0.40
   3   3   5    0.15    0.24
  -3   3  -5   -0.24    0.26
  -3   3  -5   -0.01    0.33
   3   3   5    0.08    0.34
   4  -3   5    1.54    0.39
   4  -3   5    1.53    0.30
   4  -3   5    1.20    0.30
  -4   3  -5    1.61    0.40
  -4   3  -5    1.00    0.42
   4   3   5    2.00    0.41
   4   3   5    1.42    0.28
  -4   3  -5    1.34    0.30
  -4   3  -5    1.31    0.36
   4   3   5    1.88    0.26
  -4   3  -5    1.78    0.27
   5  -3   5   -0.23    0.26
   5  -3   5   -0.01    0.34
   5  -3   5    0.03    0.26
  -5   3  -5    0.07    0.28
  -5   3  -5   -0.38    0.31
  -5   3  -5    0.03    0.38
   5   3   5    0.33    0.26
   5   3   5    0.04    0.23
   5   3   5   -0.44    0.36
   6  -3   5   -0.13    0.24
  -6   3  -5    0.31    0.27
   6   3   5   -0.09    0.25
   7  -3   5    5.23    0.32
  -7   3  -5    5.00    0.34
   7   3   5    6.08    0.37
   8  -3   5    3.00    0.21
   8   3   5    3.42    0.25
  -8   3  -5    3.05    0.25
   8  -4  -5    0.63    0.22
  -8   4   5    0.35    0.17
  -8   4   5    0.70    0.18
   7  -4  -5    4.25    0.38
  -7   4   5    4.85    0.33
  -7   4   5    4.46    0.33
  -7   4   5    4.27    0.28
  -7   4   5    4.09    0.26
   6  -4  -5    0.23    0.36
  -6   4   5    0.76    0.21
  -6   4   5    1.25    0.29
   6   4  -5    1.03    0.25
  -6   4   5    0.78    0.29
  -6   4   5    0.49    0.33
  -6   4   5    1.10    0.29
  -6   4   5    1.12    0.27
   6   4  -5    1.35    0.25
   5  -4  -5   22.20    0.95
  -5   4   5   22.32    0.87
  -5   4   5   21.89    0.86
   5   4  -5   21.60    0.79
  -5   4   5   21.38    0.78
  -5   4   5   20.96    0.80
  -5   4   5   22.55    0.93
   5   4  -5   22.79    0.79
  -5   4   5   20.31    0.83
  -5   4   5   22.76    0.87
  -5   4   5   21.98    0.72
   5   4  -5   23.23    0.83
   5   4  -5   22.14    0.80
   4  -4  -5    4.94    0.51
   4  -4  -5    4.00    0.41
  -4  -4   5    4.61    0.41
   4  -4  -5    4.92    0.46
   4   4  -5    4.93    0.40
   4   4  -5    4.85    0.36
  -4   4   5    5.11    0.38
   4   4  -5    4.91    0.40
   4   4  -5    5.26    0.37
  -4   4   5    4.42    0.43
  -4   4   5    4.26    0.40
   4   4  -5    4.50    0.31
  -4   4   5    4.58    0.34
  -4   4   5    2.60    0.48
  -4   4   5    5.25    0.50
   4   4  -5    3.57    0.54
   4   4  -5    5.02    0.39
  -4   4   5    4.33    0.39
  -4   4   5    4.14    0.34
  -4   4   5    5.08    0.44
   3  -4  -5    6.11    0.49
   3  -4  -5    5.16    0.43
   3  -4  -5    5.48    0.51
  -3  -4   5    5.71    0.45
   3  -4  -5    4.82    0.49
  -3   4   5    5.70    0.50
  -3   4   5    5.70    0.36
  -3   4   5    4.32    0.54
  -3   4   5    4.62    0.38
  -3   4   5    5.76    0.47
  -3   4   5    5.41    0.44
   3   4  -5    5.85    0.39
  -3   4   5    6.11    0.42
   3   4  -5    5.11    0.42
   3   4  -5    6.20    0.43
   3   4  -5    5.20    0.42
   3   4  -5    5.48    0.39
  -3   4   5    4.85    0.41
  -3   4   5    5.17    0.41
   3   4  -5    4.81    0.61
   3   4  -5    5.22    0.34
   2  -4  -5   35.37    1.27
   2  -4  -5   37.14    1.29
   2  -4  -5   35.58    1.38
   2  -4  -5   37.06    1.33
  -2  -4   5   38.55    1.33
  -2   4   5   33.87    1.61
  -2   4   5   38.72    1.27
   2   4  -5   36.52    1.19
  -2   4   5   36.55    1.52
  -2   4   5   37.63    1.26
   2   4  -5   39.20    1.23
   2   4  -5   37.90    1.27
   2   4  -5   37.56    1.25
  -2   4   5   35.64    1.22
  -2   4   5   38.02    1.11
   2   4  -5   37.38    1.19
  -2   4   5   37.34    1.24
   2   4  -5   37.71    1.16
  -2   4   5   38.17    1.32
  -2   4   5   39.83    1.18
   2   4  -5   37.23    1.11
   2   4  -5   34.34    1.58
  -1  -4   5    1.53    0.28
  -1  -4   5    1.20    0.37
   1  -4  -5    1.21    0.36
   1   4  -5    1.37    0.25
  -1   4   5    1.62    0.32
   1   4  -5    1.01    0.31
  -1   4   5    0.95    0.34
  -1   4   5    1.10    0.28
  -1   4   5    0.72    0.32
   1   4  -5    1.38    0.39
  -1   4   5    0.98    0.32
  -1   4   5    1.45    0.46
   1   4  -5    1.31    0.31
  -1   4   5    1.30    0.28
  -1   4   5    0.77    0.36
  -1   4   5    1.51    0.39
   1   4  -5    1.80    0.34
   1   4  -5    1.35    0.35
   1   4  -5    0.89    0.51
   1   4  -5    1.19    0.33
   0  -4   5   -0.40    0.25
   0  -4   5   -0.09    0.36
   0   4  -5    0.36    0.28
   0   4   5   -0.37    0.28
   0   4   5   -0.30    0.31
   0   4  -5    0.42    0.48
   0   4   5   -0.04    0.32
   0   4  -5   -0.14    0.28
   0   4   5    0.20    0.44
   0   4  -5   -0.04    0.33
   0   4   5    0.45    0.29
   0   4   5    0.07    0.24
   0   4  -5   -0.44    0.37
   0   4  -5    0.32    0.25
   0   4  -5    0.14    0.30
   0   4  -5    0.20    0.33
   0   4   5    0.24    0.29
   0   4  -5    0.58    0.29
   0   4   5    0.12    0.25
   1  -4   5    4.43    0.37
   1  -4   5    3.64    0.37
  -1   4  -5    5.41    0.45
  -1   4  -5    4.26    0.38
  -1   4  -5    4.65    0.41
   1   4   5    4.51    0.34
  -1   4  -5    4.51    0.37
  -1   4  -5    4.93    0.48
   1   4   5    4.03    0.35
   1   4   5    4.47    0.54
  -1   4  -5    4.67    0.42
   1   4   5    4.43    0.38
  -1   4  -5    4.08    0.32
   1   4   5    4.91    0.39
   2  -4   5    3.00    0.40
   2  -4   5    3.17    0.34
   2  -4   5    4.37    0.36
   2   4   5    3.95    0.36
   2   4   5    4.19    0.44
  -2   4  -5    4.12    0.36
  -2   4  -5    4.77    0.41
  -2   4  -5    4.09    0.32
  -2   4  -5    4.73    0.45
  -2   4  -5    4.05    0.46
  -2   4  -5    4.31    0.39
  -2   4  -5    4.33    0.36
   2   4   5    4.55    0.51
   3  -4   5    9.28    0.55
  -3   4  -5   11.12    0.57
  -3   4  -5   11.93    0.60
  -3   4  -5   10.50    0.59
  -3   4  -5   10.96    0.51
   3   4   5   10.85    0.57
  -4   4  -5    2.89    0.32
   4   4   5    2.04    0.28
  -4   4  -5    2.60    0.27
  -4   4  -5    2.38    0.33
  -5   4  -5    0.70    0.26
  -5   4  -5    0.89    0.21
  -5   4  -5    0.93    0.27
   6  -4   5    0.32    0.15
  -6   4  -5   -0.08    0.23
  -5   5   5    7.20    0.36
  -4  -5   5   19.21    0.68
   4  -5  -5   18.69    0.68
  -4   5   5   19.32    0.62
  -4   5   5   19.10    0.66
   3  -5  -5    3.38    0.32
  -3  -5   5    3.37    0.32
  -3   5   5    3.07    0.24
  -3   5   5    3.73    0.28
   3   5  -5    3.13    0.26
  -2  -5   5    0.07    0.29
   2   5  -5    0.11    0.25
  -2   5   5   -0.06    0.23
  -2   5   5   -0.04    0.28
   2   5  -5    0.26    0.21
  -2   5   5    0.04    0.22
   2   5  -5   -0.29    0.18
  -2   5   5   -0.05    0.24
  -2   5   5    0.09    0.24
   2   5  -5    0.03    0.29
   2   5  -5   -0.25    0.22
  -1  -5   5    3.08    0.34
   1   5  -5    3.48    0.28
  -1   5   5    3.57    0.30
   1   5  -5    3.49    0.26
  -1   5   5    3.84    0.30
   1   5  -5    3.43    0.37
   1   5  -5    3.57    0.32
   1   5  -5    3.58    0.31
  -1   5   5    3.60    0.28
   1   5  -5    3.46    0.30
  -1   5   5    3.75    0.34
  -1   5   5    3.29    0.33
   0  -5   5    2.22    0.29
   0   5   5    2.36    0.27
   0   5  -5    2.07    0.29
   0   5  -5    2.41    0.28
   0   5  -5    3.19    0.28
   0   5   5    2.56    0.25
   0   5  -5    2.72    0.35
   0   5  -5    2.67    0.24
   0   5  -5    2.93    0.25
   1  -5   5    7.11    0.45
  -1   5  -5    9.28    0.40
   1   5   5    8.88    0.45
  -1   5  -5    8.84    0.45
  -2   5  -5    1.51    0.24
   2   5   5    1.22    0.22
  -2   5  -5    1.75    0.20
   3   5   5    0.17    0.16
  -3   5  -5    0.28    0.21
  11   0  -6   -0.12    0.20
 -11   0   6   -0.23    0.24
  11   0  -6    0.73    0.33
  11   0  -6    0.36    0.23
 -11   0   6    0.17    0.24
  10   0  -6    0.57    0.24
  10   0  -6    0.55    0.30
 -10   0   6    0.60    0.28
 -10   0   6    0.68    0.24
  10   0  -6    0.54    0.28
  10   0  -6    0.02    0.39
  -9   0   6   -0.28    0.26
   9   0  -6   -0.30    0.23
  -9   0   6    0.05    0.38
   9   0  -6    0.40    0.28
  -9   0   6    0.25    0.39
  -9   0   6   -0.08    0.26
   9   0  -6    0.12    0.30
   9   0  -6    0.05    0.41
   8   0  -6    3.50    0.36
   8   0  -6    3.89    0.32
  -8   0   6    3.41    0.30
   8   0  -6    3.86    0.35
   8   0  -6    3.35    0.38
  -8   0   6    3.65    0.51
   8   0  -6    3.11    0.28
  -8   0   6    3.87    0.47
   8   0  -6    4.21    0.50
   7   0  -6   -0.07    0.39
   7   0  -6   -0.18    0.24
  -7   0   6   -0.04    0.38
   7   0  -6   -0.43    0.26
   7   0  -6   -0.23    0.26
  -7   0   6   -0.07    0.26
   7   0  -6    0.35    0.29
  -7   0   6    0.18    0.34
   6   0  -6    8.41    0.54
   6   0  -6    7.41    0.46
   6   0  -6    9.20    0.58
   6   0  -6    8.39    0.46
   6   0  -6    8.50    0.52
  -6   0   6    9.65    0.65
   6   0  -6    9.47    0.49
  -6   0   6    8.41    0.51
  -6   0   6    8.68    0.70
   6   0  -6    8.81    0.64
  -5   0   6    0.01    0.22
  -5   0   6   -0.02    0.19
   5   0  -6   -0.02    0.28
  -5   0   6    0.20    0.20
  -5   0   6    0.18    0.28
   5   0  -6   -0.16    0.23
   5   0  -6    0.02    0.24
   5   0  -6   -0.39    0.24
  -5   0   6   -0.19    0.32
   5   0  -6    0.15    0.19
   5   0  -6    0.17    0.28
  -5   0   6   -0.01    0.17
  -4   0   6    3.67    0.26
  -4   0   6    3.22    0.25
   4   0  -6    3.36    0.30
   4   0  -6    3.14    0.28
   4   0  -6    3.72    0.29
  -4   0   6    3.50    0.23
   4   0  -6    2.90    0.33
   4   0  -6    3.20    0.25
  -4   0   6    3.28    0.32
   4   0  -6    2.84    0.27
   4   0  -6    3.19    0.31
  -4   0   6    3.38    0.27
   3   0  -6   -0.11    0.17
   3   0  -6   -0.40    0.18
   3   0  -6    0.02    0.24
  -3   0   6    0.19    0.24
  -3   0   6    0.05    0.20
   3   0  -6   -0.05    0.21
   3   0  -6   -0.33    0.20
  -3   0   6   -0.07    0.15
   3   0  -6   -0.01    0.23
   3   0  -6   -0.01    0.26
  -3   0   6    0.27    0.18
  -3   0   6   -0.11    0.14
  -2   0   6    1.81    0.18
   2   0  -6    1.56    0.23
   2   0  -6    2.01    0.28
  -2   0   6    2.40    0.22
   2   0  -6    1.58    0.23
  -2   0   6    2.10    0.28
   2   0  -6    1.98    0.28
   2   0  -6    1.98    0.18
   1   0  -6    0.09    0.18
  -1   0   6    0.02    0.19
   1   0  -6    0.16    0.17
   1   0  -6    0.11    0.23
  -1   0   6   -0.08    0.15
   0   0   6    2.82    0.19
   0   0  -6    2.97    0.25
   0   0  -6    2.99    0.25
   0   0  -6    3.36    0.20
   0   0  -6    3.18    0.28
   0   0  -6    3.10    0.22
   0   0   6    2.80    0.20
   0   0   6    3.03    0.20
   0   0   6    2.81    0.21
  -1   0  -6   -0.09    0.20
  -1   0  -6   -0.47    0.20
   1   0   6    0.05    0.21
   1   0   6    0.06    0.17
   1   0   6    0.16    0.21
  -1   0  -6    0.05    0.18
   1   0   6    0.08    0.16
  -1   0  -6    0.14    0.18
   1   0   6   -0.06    0.16
   1   0   6    0.23    0.18
  -2   0  -6   10.47    0.48
   2   0   6   10.32    0.43
   2   0   6   10.59    0.46
   2   0   6   10.91    0.43
  -2   0  -6   10.43    0.50
   2   0   6    9.87    0.44
   2   0   6   10.12    0.59
  -3   0  -6    0.38    0.24
   3   0   6   -0.23    0.20
  -3   0  -6    0.09    0.24
   3   0   6   -0.17    0.16
   3   0   6    0.15    0.18
  -3   0  -6    0.04    0.29
   3   0   6    0.04    0.25
   3   0   6   -0.01    0.21
   4   0   6    0.30    0.31
  -4   0  -6   -0.26    0.32
  -4   0  -6   -0.49    0.27
   4   0   6    0.11    0.16
   4   0   6    0.08    0.22
   4   0   6   -0.19    0.18
  -4   0  -6    0.38    0.35
  -4   0  -6   -0.04    0.28
   4   0   6   -0.36    0.22
  -5   0  -6   -0.57    0.35
  -5   0  -6   -0.93    0.32
   5   0   6   -0.28    0.21
   5   0   6   -0.32    0.23
   5   0   6    0.14    0.21
   5   0   6   -0.38    0.26
  -5   0  -6   -0.29    0.35
   5   0   6   -0.17    0.36
   5   0   6   -0.02    0.25
   5   0   6   -0.10    0.23
   6   0   6    6.70    0.42
   6   0   6    5.33    0.43
  -6   0  -6    5.59    0.55
   6   0   6    6.70    0.46
   6   0   6    5.14    0.39
   6   0   6    5.47    0.45
   6   0   6    6.04    0.42
  -6   0  -6    6.26    0.49
  -7   0  -6    0.23    0.50
   7   0   6    0.25    0.27
   7   0   6   -0.16    0.31
   7   0   6    0.19    0.22
   7   0   6   -0.17    0.31
  -7   0  -6   -0.35    0.46
   7   0   6   -0.02    0.22
   7   0   6   -0.32    0.36
   8   0   6  204.55    5.22
   8   0   6  192.87    5.76
   8   0   6  187.63    5.56
   8   0   6  196.44    5.75
   9   0   6    0.24    0.19
   9   0   6   -0.06    0.29
   9   0   6    0.13    0.19
 -11  -1   6    1.95    0.25
  11  -1  -6    1.96    0.25
  11  -1  -6    1.82    0.24
  11  -1  -6    2.17    0.35
  11  -1  -6    2.35    0.28
  11   1  -6    1.68    0.25
  11   1  -6    2.09    0.26
 -11   1   6    1.74    0.25
  11   1  -6    1.61    0.23
 -11   1   6    1.87    0.25
  10  -1  -6   -0.20    0.26
  10  -1  -6    0.38    0.30
  10  -1  -6    0.40    0.27
 -10  -1   6    0.11    0.22
  10   1  -6    0.04    0.23
 -10   1   6   -0.13    0.25
 -10   1   6    0.08    0.24
 -10   1   6   -0.10    0.22
  10   1  -6    0.48    0.28
  10   1  -6   -0.34    0.25
  -9  -1   6    0.46    0.34
  -9  -1   6    0.20    0.27
   9  -1  -6    0.72    0.28
   9  -1  -6    0.28    0.38
  -9  -1   6    0.49    0.25
   9  -1  -6   -0.37    0.28
   9  -1  -6    0.27    0.34
   9  -1  -6    0.54    0.31
   9  -1  -6    0.34    0.30
   9   1  -6    0.66    0.30
   9   1  -6    0.88    0.41
  -9   1   6    0.42    0.26
   9   1  -6    0.78    0.30
   9   1  -6    0.97    0.28
  -9   1   6    0.44    0.39
   9   1  -6    0.63    0.25
   9   1  -6    0.66    0.29
  -9   1   6    0.47    0.26
  -9   1   6    0.64    0.25
  -8  -1   6   46.47    1.85
  -8  -1   6   45.43    1.37
   8  -1  -6   44.17    1.49
  -8  -1   6   45.55    1.77
   8  -1  -6   45.04    1.53
   8  -1  -6   45.54    1.45
   8  -1  -6   47.50    1.40
   8  -1  -6   44.68    1.49
   8   1  -6   44.16    1.38
   8   1  -6   46.06    1.44
   8   1  -6   43.56    1.41
  -8   1   6   44.65    1.37
  -8   1   6   44.56    1.30
  -8   1   6   44.68    1.29
   8   1  -6   46.23    1.55
   8   1  -6   45.32    1.75
   8   1  -6   44.35    1.40
   8   1  -6   45.21    1.37
  -8   1   6   47.17    1.84
  -8   1   6   41.74    1.82
   7  -1  -6   21.24    0.79
   7  -1  -6   21.04    0.84
  -7  -1   6   20.06    0.89
  -7  -1   6   22.69    0.99
   7  -1  -6   21.10    0.87
  -7  -1   6   22.08    0.76
  -7  -1   6   23.18    1.09
   7  -1  -6   21.44    0.90
   7  -1  -6   21.35    0.88
  -7   1   6   20.80    1.05
   7   1  -6   21.34    0.79
  -7   1   6   19.99    0.87
   7   1  -6   21.46    0.75
   7   1  -6   21.36    0.79
   7   1  -6   20.97    0.75
   7   1  -6   21.75    0.94
  -7   1   6   20.03    0.72
   7   1  -6   23.81    1.06
  -7   1   6   22.55    0.79
   7   1  -6   21.05    0.79
  -7   1   6   20.74    0.73
  -7   1   6   21.69    1.05
  -6  -1   6    6.72    0.40
  -6  -1   6    6.56    0.47
   6  -1  -6    6.82    0.51
  -6  -1   6    5.89    0.53
   6  -1  -6    6.59    0.43
   6  -1  -6    6.18    0.50
  -6  -1   6    6.34    0.61
   6  -1  -6    6.99    0.53
  -6  -1   6    6.15    0.48
   6  -1  -6    6.10    0.48
   6  -1  -6    6.20    0.44
  -6   1   6    6.02    0.48
  -6   1   6    5.16    0.35
  -6   1   6    6.70    0.43
  -6   1   6    5.49    0.44
   6   1  -6    5.69    0.39
  -6   1   6    7.04    0.47
   6   1  -6    6.06    0.42
   6   1  -6    6.39    0.44
   6   1  -6    6.47    0.47
   6   1  -6    5.38    0.47
   6   1  -6    6.39    0.39
  -6   1   6    5.10    0.46
  -6   1   6    6.57    0.60
  -5  -1   6    5.41    0.47
   5  -1  -6    5.28    0.34
   5  -1  -6    5.37    0.37
   5  -1  -6    5.12    0.39
  -5  -1   6    5.19    0.37
   5  -1  -6    5.74    0.37
  -5  -1   6    5.25    0.43
   5  -1  -6    5.71    0.35
   5  -1  -6    5.37    0.35
  -5  -1   6    5.11    0.43
  -5   1   6    5.88    0.34
   5   1  -6    5.36    0.41
   5   1  -6    5.37    0.38
  -5   1   6    5.99    0.51
  -5   1   6    4.84    0.30
  -5   1   6    5.93    0.38
   5   1  -6    4.16    0.56
   5   1  -6    5.97    0.37
   5   1  -6    4.76    0.35
  -5   1   6    5.52    0.41
  -5   1   6    5.21    0.38
   5   1  -6    5.66    0.46
  -5   1   6    5.44    0.50
   5   1  -6    4.56    0.40
   4  -1  -6    1.40    0.26
  -4  -1   6    0.89    0.23
   4  -1  -6    1.83    0.30
   4  -1  -6    1.30    0.24
   4  -1  -6    1.54    0.25
  -4  -1   6    0.88    0.26
  -4  -1   6    1.48    0.24
   4  -1  -6    1.26    0.24
  -4  -1   6    1.01    0.20
   4   1  -6    1.12    0.34
  -4   1   6    1.26    0.30
  -4   1   6    1.15    0.28
   4   1  -6    1.25    0.27
   4   1  -6    0.95    0.27
  -4   1   6    1.65    0.21
  -4   1   6    0.80    0.22
  -4   1   6    1.08    0.19
  -4   1   6    1.22    0.25
  -4   1   6    1.28    0.25
   4   1  -6    1.04    0.29
   4   1  -6    1.10    0.19
   4   1  -6    1.09    0.28
   3  -1  -6   97.03    3.48
   3  -1  -6   96.43    2.84
   3  -1  -6   98.02    2.83
  -3  -1   6   95.14    2.87
  -3  -1   6   96.33    3.40
  -3  -1   6  102.03    3.41
   3  -1  -6   98.20    2.61
  -3  -1   6   97.00    2.61
  -3  -1   6   98.40    2.66
  -3  -1   6   89.51    3.42
  -3  -1   6   96.67    2.55
   3  -1  -6   97.30    2.62
   3   1  -6   94.07    2.84
   3   1  -6   96.71    2.60
  -3   1   6   98.12    3.36
  -3   1   6   97.61    2.55
  -3   1   6   94.23    3.40
   3   1  -6   97.30    2.81
  -3   1   6   96.98    2.66
   3   1  -6   97.49    2.59
   3   1  -6   91.23    3.22
  -3   1   6  103.10    3.58
  -3   1   6   98.93    2.61
   2  -1  -6   30.30    0.96
  -2  -1   6   30.17    0.99
  -2  -1   6   29.04    1.18
   2  -1  -6   30.39    1.00
  -2  -1   6   32.53    0.91
  -2  -1   6   31.31    0.87
   2  -1  -6   30.62    0.97
  -2  -1   6   29.61    0.92
   2  -1  -6   30.66    1.19
   2  -1  -6   30.71    1.05
   2  -1  -6   30.72    0.89
  -2  -1   6   31.49    1.18
  -2   1   6   31.37    0.99
  -2   1   6   30.43    0.93
   2   1  -6   29.89    1.02
  -2   1   6   29.91    1.16
  -2   1   6   30.50    0.87
   2   1  -6   30.47    0.97
   2   1  -6   29.96    1.01
   2   1  -6   30.55    1.05
   2   1  -6   31.61    0.89
  -2   1   6   30.16    1.16
  -2   1   6   31.44    1.23
  -2   1   6   31.18    0.89
  -1  -1   6    0.22    0.22
  -1  -1   6   -0.01    0.18
   1  -1  -6   -0.21    0.17
   1  -1  -6    0.27    0.23
  -1  -1   6   -0.09    0.20
   1  -1  -6   -0.12    0.20
   1  -1  -6   -0.12    0.26
  -1  -1   6    0.19    0.17
  -1  -1   6    0.09    0.16
   1   1  -6    0.25    0.19
  -1   1   6    0.19    0.21
  -1   1   6    0.01    0.14
  -1   1   6    0.13    0.16
   1   1  -6    0.38    0.25
   1   1  -6   -0.05    0.27
   1   1  -6   -0.13    0.17
  -1   1   6    0.31    0.25
  -1   1   6   -0.12    0.23
   0  -1   6    6.24    0.36
   0  -1   6    5.92    0.32
   0  -1  -6    6.63    0.47
   0  -1   6    6.52    0.39
   0  -1   6    6.36    0.36
   0  -1  -6    6.56    0.49
   0  -1  -6    6.70    0.47
   0  -1   6    6.17    0.32
   0  -1  -6    6.91    0.35
   0   1   6    6.15    0.46
   0   1  -6    6.46    0.38
   0   1  -6    6.88    0.36
   0   1  -6    6.98    0.46
   0   1   6    6.69    0.31
   0   1   6    6.59    0.40
   0   1  -6    6.64    0.42
   0   1  -6    6.17    0.45
   0   1   6    6.26    0.32
   0   1   6    7.12    0.48
   0   1   6    6.48    0.31
  -1  -1  -6   24.35    1.05
   1  -1   6   26.82    0.76
   1  -1   6   25.41    1.07
   1  -1   6   27.79    0.78
   1  -1   6   27.02    0.79
   1  -1   6   26.90    0.81
  -1  -1  -6   23.99    0.90
   1  -1   6   26.42    0.80
  -1  -1  -6   25.81    1.02
  -1   1  -6   27.81    0.90
   1   1   6   23.58    1.00
  -1   1  -6   27.56    0.91
  -1   1  -6   27.29    0.79
   1   1   6   26.84    0.73
   1   1   6   24.95    0.91
   1   1   6   24.07    0.78
   1   1   6   23.27    1.06
   1   1   6   24.19    0.74
  -1   1  -6   29.30    0.88
   1   1   6   23.67    1.01
   2  -1   6   27.97    0.88
   2  -1   6   29.54    0.87
   2  -1   6   27.33    1.17
   2  -1   6   28.13    0.87
   2  -1   6   27.26    0.82
   2  -1   6   27.53    0.86
  -2  -1  -6   28.34    1.13
  -2  -1  -6   28.12    0.89
   2   1   6   28.54    0.85
  -2   1  -6   27.50    0.99
   2   1   6   26.86    1.10
   2   1   6   26.81    1.07
  -2   1  -6   27.97    1.01
  -2   1  -6   29.04    0.95
  -2   1  -6   27.47    1.00
   2   1   6   27.69    0.97
  -2   1  -6   27.18    0.89
   2   1   6   27.98    1.16
  -2   1  -6   28.72    0.87
   3  -1   6    1.63    0.20
   3  -1   6    1.23    0.23
   3  -1   6    1.35    0.25
  -3  -1  -6    0.81    0.23
   3  -1   6    0.88    0.24
   3  -1   6    1.11    0.27
   3   1   6    1.31    0.30
  -3   1  -6    1.21    0.36
  -3   1  -6    1.47    0.35
   3   1   6    0.55    0.24
   3   1   6    1.09    0.29
  -3   1  -6    1.79    0.32
   3   1   6    1.32    0.21
   4  -1   6    1.39    0.29
   4  -1   6    1.12    0.29
  -4  -1  -6    1.58    0.26
   4  -1   6    1.23    0.24
   4   1   6    1.63    0.34
  -4   1  -6    1.05    0.39
  -4   1  -6    1.07    0.36
   4   1   6    1.26    0.26
  -4   1  -6    1.58    0.41
   5  -1   6    0.66    0.30
   5  -1   6    0.65    0.24
   5  -1   6    0.39    0.30
   5  -1   6    0.03    0.31
   5  -1   6    0.49    0.23
  -5  -1  -6    0.54    0.38
   5   1   6    0.86    0.23
  -5   1  -6    0.32    0.37
   5   1   6    0.43    0.27
   5   1   6    0.53    0.33
   5   1   6    0.81    0.26
  -5   1  -6    0.32    0.42
  -5   1  -6    0.25    0.37
  -5   1  -6    0.75    0.37
   5   1   6    0.63    0.22
  -5   1  -6    0.54    0.41
   6  -1   6   -0.14    0.34
   6  -1   6   -0.20    0.23
   6  -1   6    0.05    0.32
   6  -1   6    0.26    0.24
  -6  -1  -6    0.85    0.43
   6  -1   6    0.23    0.34
   6   1   6    0.56    0.30
   6   1   6    0.54    0.22
  -6   1  -6    0.16    0.48
  -6   1  -6   -0.09    0.36
   6   1   6   -0.23    0.25
   6   1   6    0.17    0.23
  -6   1  -6   -0.73    0.38
  -6   1  -6    0.82    0.43
  -6   1  -6    1.05    0.45
   6   1   6    0.72    0.39
   7  -1   6    1.37    0.34
   7  -1   6    0.87    0.25
  -7  -1  -6    1.97    0.47
  -7  -1  -6    1.41    0.44
   7  -1   6    0.94    0.35
   7  -1   6    1.19    0.40
   7  -1   6    0.89    0.25
  -7   1  -6    1.78    0.37
  -7   1  -6    1.15    0.48
   7   1   6    1.27    0.27
  -7   1  -6    1.52    0.41
   7   1   6    1.33    0.26
  -7   1  -6    1.40    0.42
   7   1   6    1.31    0.33
   8  -1   6   -0.08    0.19
   8  -1   6    0.19    0.20
   8  -1   6   -0.13    0.30
   8   1   6   -0.02    0.22
   8   1   6    0.02    0.21
   9  -1   6    1.51    0.31
   9  -1   6    1.11    0.19
   9  -1   6    0.92    0.17
  -9   1  -6    1.21    0.23
   9   1   6    1.33    0.20
 -11  -2   6   -0.27    0.16
  11  -2  -6    0.01    0.18
  11  -2  -6    0.23    0.27
  11   2  -6    0.06    0.17
 -11   2   6   -0.07    0.18
  10  -2  -6    0.55    0.31
  10  -2  -6    0.22    0.25
 -10  -2   6    0.46    0.19
 -10   2   6    0.26    0.21
  10   2  -6    0.31    0.25
  10   2  -6    0.34    0.21
 -10   2   6    0.12    0.22
   9  -2  -6   21.34    0.84
   9  -2  -6   22.17    0.90
  -9  -2   6   23.78    1.25
  -9  -2   6   24.61    0.76
  -9   2   6   23.32    0.78
   9   2  -6   23.56    0.84
   9   2  -6   23.15    0.84
   9   2  -6   23.36    0.81
   9   2  -6   22.33    0.82
  -9   2   6   23.51    0.78
   8  -2  -6    0.17    0.35
   8  -2  -6    0.46    0.31
   8  -2  -6    0.45    0.27
  -8  -2   6    0.42    0.28
   8   2  -6    0.53    0.29
   8   2  -6    0.49    0.29
   8   2  -6    0.84    0.44
   8   2  -6    0.96    0.25
   8   2  -6    0.80    0.47
   8   2  -6    0.53    0.25
  -8   2   6   -0.16    0.32
  -8   2   6    0.83    0.28
  -8   2   6    0.13    0.29
  -8   2   6    0.48    0.26
  -8   2   6    0.37    0.36
   7  -2  -6   -0.02    0.36
   7  -2  -6   -0.34    0.29
   7  -2  -6    0.27    0.36
  -7  -2   6    0.34    0.25
   7  -2  -6   -0.07    0.30
   7  -2  -6   -0.01    0.32
  -7  -2   6    0.20    0.28
   7   2  -6    0.13    0.23
   7   2  -6    0.12    0.46
  -7   2   6    0.28    0.34
  -7   2   6   -0.01    0.26
  -7   2   6   -0.04    0.42
  -7   2   6    0.45    0.30
  -7   2   6    0.04    0.23
   7   2  -6   -0.87    0.42
  -7   2   6   -0.33    0.34
   7   2  -6    0.30    0.27
   7   2  -6   -0.05    0.22
   7   2  -6    0.37    0.27
   6  -2  -6   -0.30    0.34
   6  -2  -6   -0.07    0.35
  -6  -2   6    0.51    0.27
  -6  -2   6   -0.37    0.25
  -6  -2   6    0.25    0.24
   6  -2  -6   -0.15    0.31
   6  -2  -6    0.30    0.29
   6  -2  -6    0.15    0.31
   6  -2  -6   -0.05    0.32
  -6  -2   6    0.12    0.29
  -6   2   6   -0.13    0.42
   6   2  -6    0.03    0.26
  -6   2   6   -0.28    0.24
  -6   2   6    0.07    0.36
   6   2  -6    0.05    0.22
   6   2  -6   -0.15    0.23
  -6   2   6   -0.19    0.29
   6   2  -6   -0.32    0.39
   6   2  -6   -0.10    0.42
   6   2  -6   -0.01    0.23
  -6   2   6    0.00    0.22
   6   2  -6    0.11    0.22
  -6   2   6   -0.04    0.23
   5  -2  -6    1.79    0.30
  -5  -2   6    1.34    0.34
  -5  -2   6    1.52    0.25
  -5  -2   6    1.28    0.32
   5  -2  -6    1.87    0.36
  -5  -2   6    2.16    0.28
   5  -2  -6    1.97    0.32
   5   2  -6    1.09    0.42
  -5   2   6    1.88    0.26
  -5   2   6    1.78    0.43
  -5   2   6    2.05    0.30
   5   2  -6    1.54    0.24
   5   2  -6    2.00    0.36
   5   2  -6    1.80    0.25
   5   2  -6    1.89    0.26
  -5   2   6    1.75    0.32
   5   2  -6    2.18    0.40
  -5   2   6    2.00    0.37
  -5   2   6    1.85    0.27
   5   2  -6    1.82    0.21
   5   2  -6    1.73    0.41
   4  -2  -6   38.13    1.23
   4  -2  -6   38.28    1.21
  -4  -2   6   35.00    1.42
  -4  -2   6   37.82    1.20
  -4  -2   6   38.02    1.10
  -4  -2   6   36.75    1.44
   4   2  -6   36.32    1.23
   4   2  -6   36.70    1.23
  -4   2   6   40.00    1.24
  -4   2   6   36.50    1.13
   4   2  -6   34.54    1.40
   4   2  -6   37.27    1.49
  -4   2   6   32.56    1.13
   4   2  -6   35.36    1.12
  -4   2   6   37.13    1.53
   4   2  -6   34.75    1.14
   4   2  -6   35.32    1.14
  -4   2   6   35.59    1.06
   4   2  -6   36.53    1.05
  -4   2   6   37.15    1.10
   4   2  -6   35.88    1.11
   4   2  -6   36.36    1.09
  -4   2   6   34.35    1.20
  -3  -2   6   48.99    1.50
   3  -2  -6   48.52    1.49
  -3  -2   6   47.24    1.38
   3  -2  -6   47.10    1.80
  -3  -2   6   49.04    1.80
   3  -2  -6   50.14    1.51
  -3   2   6   45.98    1.75
  -3   2   6   46.76    1.36
   3   2  -6   46.89    1.51
  -3   2   6   46.10    1.39
   3   2  -6   47.08    1.37
   3   2  -6   46.15    1.74
   3   2  -6   48.80    1.84
  -3   2   6   47.40    1.32
   3   2  -6   44.24    1.51
   3   2  -6   46.72    1.33
  -3   2   6   49.32    1.91
  -2  -2   6    6.65    0.58
  -2  -2   6    6.41    0.40
  -2  -2   6    6.55    0.43
   2  -2  -6    6.59    0.50
  -2  -2   6    7.27    0.38
   2  -2  -6    6.18    0.49
   2  -2  -6    5.99    0.48
  -2  -2   6    6.77    0.38
   2  -2  -6    6.68    0.42
   2   2  -6    6.52    0.42
   2   2  -6    6.50    0.46
  -2   2   6    6.40    0.34
  -2   2   6    7.49    0.57
  -2   2   6    6.26    0.43
  -2   2   6    6.57    0.38
  -2   2   6    7.24    0.53
  -2   2   6    6.38    0.44
   2   2  -6    7.25    0.68
   2   2  -6    6.93    0.36
   2   2  -6    4.97    0.66
   2   2  -6    6.71    0.60
   1  -2  -6    1.06    0.24
   1  -2  -6    0.80    0.24
   1  -2  -6    0.98    0.26
  -1  -2   6    0.25    0.20
  -1  -2   6    0.47    0.19
  -1  -2   6    0.53    0.19
   1   2  -6    0.55    0.19
   1   2  -6    0.39    0.24
   1   2  -6   -0.03    0.46
  -1   2   6    0.37    0.16
  -1   2   6    0.96    0.23
   1   2  -6    0.95    0.34
  -1   2   6    0.76    0.31
  -1   2   6    1.23    0.32
   1   2  -6    0.79    0.42
  -1   2   6    0.51    0.15
   0  -2   6    0.04    0.21
   0  -2   6   -0.01    0.21
   0  -2  -6    0.07    0.24
   0  -2   6    0.13    0.18
   0  -2   6   -0.01    0.20
   0  -2   6   -0.22    0.21
   0   2  -6    0.22    0.21
   0   2  -6   -0.23    0.25
   0   2   6    0.44    0.30
   0   2   6    0.25    0.30
   0   2  -6   -0.13    0.39
   0   2  -6    0.38    0.26
   0   2  -6    0.19    0.24
   1  -2   6   77.72    2.02
   1  -2   6   69.98    1.95
   1  -2   6   71.14    1.98
  -1  -2  -6   67.94    2.64
   1  -2   6   73.27    2.18
   1  -2   6   73.19    1.94
  -1   2  -6   70.01    2.58
  -1   2  -6   70.96    2.17
  -1   2  -6   73.16    1.97
   1   2   6   69.07    2.25
   1   2   6   68.45    2.54
  -1   2  -6   68.55    1.95
  -1   2  -6   71.79    2.03
   1   2   6   69.35    2.70
   2  -2   6   67.14    1.91
   2  -2   6   70.47    1.96
   2  -2   6   66.20    1.91
   2  -2   6   68.26    1.87
  -2  -2  -6   68.62    2.54
  -2   2  -6   69.00    1.92
   2   2   6   68.70    2.44
   2   2   6   70.67    2.46
  -2   2  -6   69.04    1.99
  -2   2  -6   65.45    1.92
   2   2   6   66.90    2.17
  -2   2  -6   66.46    2.12
   2   2   6   65.38    2.06
   2   2   6   68.84    2.59
   3  -2   6    1.35    0.27
   3  -2   6    1.47    0.26
  -3  -2  -6    1.99    0.31
   3  -2   6    1.01    0.32
   3   2   6    1.52    0.24
  -3   2  -6    1.35    0.28
  -3   2  -6    1.01    0.33
   3   2   6    0.95    0.25
  -3   2  -6    1.35    0.35
   3   2   6    1.98    0.37
  -3   2  -6    1.20    0.38
   3   2   6    1.48    0.33
   3   2   6    1.58    0.36
   4  -2   6   -0.15    0.31
   4  -2   6   -0.06    0.26
   4  -2   6    0.06    0.26
   4  -2   6    0.10    0.24
  -4   2  -6   -0.10    0.41
   4   2   6   -0.11    0.19
   4   2   6    0.48    0.36
   4   2   6    0.40    0.32
   4   2   6    0.20    0.22
  -4   2  -6   -0.04    0.24
  -4   2  -6    0.40    0.36
  -4   2  -6    0.05    0.23
  -4   2  -6    0.08    0.36
   5  -2   6    0.42    0.26
   5  -2   6    0.55    0.31
   5  -2   6    0.30    0.26
   5  -2   6    0.54    0.36
  -5   2  -6    0.70    0.40
  -5   2  -6    0.73    0.44
  -5   2  -6    0.36    0.27
   5   2   6    0.25    0.23
   5   2   6    0.63    0.33
  -5   2  -6    0.32    0.24
  -5   2  -6    0.56    0.38
   6  -2   6    3.46    0.35
   6  -2   6    3.66    0.32
   6  -2   6    3.79    0.37
   6  -2   6    3.18    0.44
  -6   2  -6    3.54    0.46
  -6   2  -6    3.83    0.32
  -6   2  -6    3.87    0.34
  -6   2  -6    3.47    0.45
   6   2   6    3.78    0.33
  -6   2  -6    4.47    0.51
   7  -2   6   -0.10    0.18
   7  -2   6    0.14    0.24
   7  -2   6    0.14    0.30
  -7   2  -6    0.63    0.25
  -7   2  -6    0.01    0.22
   7   2   6    0.16    0.24
   8  -2   6    3.70    0.35
   8  -2   6    2.81    0.25
   8  -2   6    2.51    0.21
  -8   2  -6    2.79    0.25
  -8   2  -6    2.93    0.23
   8   2   6    3.09    0.29
   9  -2   6    0.20    0.24
  10  -3  -6    0.59    0.18
 -10   3   6    0.60    0.16
   9  -3  -6    0.94    0.23
   9  -3  -6    0.92    0.29
   9  -3  -6    0.71    0.26
  -9   3   6    0.58    0.24
  -9   3   6    0.74    0.21
  -9   3   6    0.75    0.22
   9   3  -6    0.88    0.23
   8  -3  -6   -0.37    0.28
   8  -3  -6    0.44    0.32
  -8   3   6    0.09    0.28
  -8   3   6    0.16    0.26
   8   3  -6    0.15    0.22
   8   3  -6    0.18    0.26
   8   3  -6    0.52    0.26
  -8   3   6    0.45    0.22
  -7  -3   6    3.23    0.46
   7  -3  -6    2.72    0.35
   7  -3  -6    3.12    0.42
   7  -3  -6    2.80    0.37
   7  -3  -6    2.13    0.41
   7  -3  -6    2.76    0.37
  -7   3   6    3.18    0.36
   7   3  -6    3.39    0.33
   7   3  -6    3.11    0.33
  -7   3   6    2.56    0.52
  -7   3   6    3.03    0.28
  -7   3   6    3.33    0.32
  -7   3   6    2.87    0.34
  -7   3   6    2.84    0.34
   7   3  -6    3.01    0.29
   7   3  -6    3.53    0.54
   6  -3  -6    0.08    0.32
   6  -3  -6    0.09    0.36
   6  -3  -6   -0.01    0.35
   6  -3  -6   -0.18    0.40
  -6  -3   6   -0.44    0.39
   6   3  -6    0.59    0.25
   6   3  -6   -0.03    0.50
  -6   3   6   -0.32    0.29
  -6   3   6   -0.44    0.46
  -6   3   6    0.56    0.28
  -6   3   6   -0.05    0.29
  -6   3   6   -0.54    0.31
   6   3  -6    0.21    0.30
   6   3  -6    0.13    0.23
  -6   3   6    0.81    0.37
  -6   3   6    0.22    0.22
   6   3  -6   -0.24    0.25
   6   3  -6    0.10    0.26
  -5  -3   6   -0.09    0.22
   5  -3  -6    0.16    0.37
   5  -3  -6    0.13    0.33
   5  -3  -6   -0.48    0.35
  -5  -3   6    0.19    0.39
   5  -3  -6    0.41    0.41
  -5   3   6   -0.37    0.24
   5   3  -6    0.19    0.22
  -5   3   6    0.14    0.31
  -5   3   6    0.05    0.29
  -5   3   6   -0.07    0.27
  -5   3   6   -0.30    0.29
   5   3  -6    0.15    0.26
   5   3  -6    0.16    0.46
  -5   3   6   -0.05    0.30
  -5   3   6    0.25    0.30
  -5   3   6    0.03    0.31
   5   3  -6    0.34    0.28
   5   3  -6    0.05    0.25
  -5   3   6   -0.23    0.36
   5   3  -6   -0.23    0.27
  -5   3   6    0.15    0.47
   5   3  -6    0.08    0.51
  -4  -3   6    1.58    0.26
   4  -3  -6    1.83    0.35
   4  -3  -6    1.65    0.38
   4  -3  -6    1.01    0.40
  -4  -3   6    1.48    0.40
  -4   3   6    1.99    0.31
  -4   3   6    1.75    0.31
  -4   3   6    0.89    0.47
   4   3  -6    1.35    0.29
   4   3  -6    1.49    0.22
  -4   3   6    1.35    0.32
  -4   3   6    1.12    0.30
  -4   3   6    1.58    0.37
   4   3  -6    1.11    0.27
   4   3  -6    1.23    0.23
   4   3  -6    1.70    0.52
   4   3  -6    1.24    0.51
   4   3  -6    1.66    0.26
  -4   3   6    1.65    0.26
   4   3  -6    1.52    0.29
  -4   3   6    1.85    0.32
  -4   3   6    0.57    0.27
   4   3  -6    1.62    0.31
  -4   3   6    1.80    0.33
  -4   3   6    1.50    0.27
   3  -3  -6    2.70    0.38
  -3  -3   6    3.20    0.34
   3  -3  -6    2.74    0.40
   3  -3  -6    2.39    0.33
   3  -3  -6    2.38    0.41
   3  -3  -6    2.10    0.35
  -3  -3   6    2.52    0.27
  -3  -3   6    2.73    0.39
   3   3  -6    2.45    0.25
   3   3  -6    2.74    0.29
  -3   3   6    2.81    0.30
   3   3  -6    2.62    0.27
   3   3  -6    2.51    0.56
  -3   3   6    2.77    0.32
  -3   3   6    2.70    0.36
   3   3  -6    2.52    0.25
   3   3  -6    2.77    0.54
  -3   3   6    2.62    0.27
  -3   3   6    2.52    0.32
   3   3  -6    2.93    0.27
  -3   3   6    2.32    0.29
  -3   3   6    2.24    0.29
   3   3  -6    2.85    0.32
  -3   3   6    2.41    0.46
   3   3  -6    2.14    0.34
  -3   3   6    2.91    0.44
  -3   3   6    2.36    0.29
  -3   3   6    3.09    0.35
  -3   3   6    2.37    0.31
   3   3  -6    2.00    0.30
  -3   3   6    2.60    0.32
  -2  -3   6    1.56    0.25
   2  -3  -6    1.63    0.34
   2  -3  -6    1.33    0.27
   2  -3  -6    1.79    0.37
  -2  -3   6    1.30    0.29
   2  -3  -6    1.51    0.35
  -2   3   6    1.30    0.21
   2   3  -6    1.68    0.30
  -2   3   6    1.04    0.25
   2   3  -6    1.49    0.26
  -2   3   6    0.96    0.30
   2   3  -6    1.41    0.34
   2   3  -6    1.31    0.21
   2   3  -6    1.45    0.29
  -2   3   6    1.12    0.27
  -2   3   6    1.96    0.29
  -2   3   6    1.35    0.25
   2   3  -6    1.56    0.55
  -2   3   6    1.95    0.43
  -2   3   6    1.23    0.28
   2   3  -6    1.43    0.28
  -2   3   6    2.20    0.44
  -2   3   6    1.52    0.31
   2   3  -6    1.20    0.27
   2   3  -6    1.43    0.22
  -2   3   6    1.44    0.27
   1  -3  -6    3.54    0.41
  -1  -3   6    3.80    0.34
  -1  -3   6    4.41    0.32
  -1  -3   6    3.97    0.32
   1  -3  -6    4.03    0.39
  -1  -3   6    3.95    0.36
   1   3  -6    3.36    0.33
   1   3  -6    4.64    0.62
  -1   3   6    4.12    0.35
   1   3  -6    3.64    0.34
  -1   3   6    4.07    0.37
  -1   3   6    3.64    0.32
   1   3  -6    3.08    0.34
  -1   3   6    4.48    0.50
  -1   3   6    3.71    0.30
   1   3  -6    4.37    0.29
  -1   3   6    4.45    0.31
   1   3  -6    4.16    0.30
   1   3  -6    3.71    0.35
  -1   3   6    3.41    0.35
  -1   3   6    4.29    0.33
   1   3  -6    3.65    0.38
  -1   3   6    4.55    0.51
   1   3  -6    3.69    0.30
   0  -3   6    0.05    0.30
   0  -3   6    0.16    0.24
   0  -3   6    0.22    0.28
   0  -3  -6    0.22    0.30
   0   3   6    0.28    0.25
   0   3  -6   -0.31    0.27
   0   3  -6    0.50    0.27
   0   3  -6    0.29    0.24
   0   3  -6   -0.11    0.33
   0   3  -6    0.03    0.20
   0   3  -6    0.05    0.29
   0   3   6   -0.23    0.21
   0   3  -6    0.02    0.23
   0   3  -6   -0.15    0.51
   0   3   6   -0.07    0.38
   0   3   6    0.13    0.24
   0   3   6    0.12    0.20
   0   3  -6   -0.05    0.26
   0   3   6    0.06    0.25
   0   3   6    0.13    0.36
   0   3   6    0.18    0.25
   1  -3   6    0.52    0.33
   1  -3   6    0.13    0.25
   1  -3   6    0.06    0.29
  -1  -3  -6    0.41    0.30
  -1   3  -6    0.05    0.28
  -1   3  -6   -0.18    0.27
   1   3   6    0.20    0.23
   1   3   6   -0.18    0.31
   1   3   6   -0.39    0.20
  -1   3  -6    0.27    0.35
   1   3   6    0.05    0.37
  -1   3  -6    0.26    0.32
   1   3   6    0.14    0.20
  -1   3  -6   -0.01    0.28
  -1   3  -6    0.45    0.25
   1   3   6    0.21    0.25
  -1   3  -6   -0.04    0.20
   1   3   6    0.19    0.26
   2  -3   6   32.03    1.03
   2  -3   6   29.42    1.10
   2  -3   6   32.91    1.08
  -2   3  -6   30.15    1.14
  -2   3  -6   30.38    1.21
   2   3   6   33.09    1.33
   2   3   6   32.93    1.33
  -2   3  -6   32.79    1.05
   2   3   6   33.70    1.07
  -2   3  -6   30.90    0.97
  -2   3  -6   30.56    1.06
   2   3   6   31.35    1.37
   2   3   6   31.53    1.02
   3  -3   6    0.61    0.27
   3   3   6    0.44    0.37
   3   3   6    0.39    0.36
  -3   3  -6    0.55    0.27
  -3   3  -6    0.47    0.42
   3   3   6    0.14    0.23
  -3   3  -6    0.59    0.35
   3   3   6   -0.08    0.23
   4  -3   6    0.25    0.27
   4  -3   6    0.30    0.25
   4  -3   6   -0.12    0.35
  -4   3  -6    0.53    0.37
  -4   3  -6    0.09    0.40
  -4   3  -6    0.08    0.33
   4   3   6    0.04    0.24
   4   3   6    0.05    0.24
   4   3   6    0.26    0.38
  -4   3  -6    0.51    0.28
   5  -3   6    1.07    0.28
   5  -3   6    0.70    0.25
   5  -3   6    0.76    0.36
  -5   3  -6    0.77    0.28
  -5   3  -6    0.37    0.38
   5   3   6    0.71    0.26
   6  -3   6    0.13    0.22
  -6   3  -6    0.48    0.26
   6   3   6    0.40    0.25
   7  -3   6   11.72    0.47
  -7   3  -6   11.88    0.53
   7   3   6   12.54    0.54
   8  -4  -6    0.62    0.22
  -8   4   6    0.53    0.18
   7  -4  -6    2.00    0.32
  -7  -4   6    2.27    0.23
  -7   4   6    2.24    0.31
  -7   4   6    2.98    0.27
  -7   4   6    2.33    0.21
  -7   4   6    2.68    0.28
  -7   4   6    2.46    0.24
   6  -4  -6    1.03    0.36
  -6   4   6    0.72    0.29
   6   4  -6    0.64    0.25
  -6   4   6    0.53    0.33
  -6   4   6    0.65    0.29
   6   4  -6    0.99    0.29
  -6   4   6    0.89    0.28
  -6   4   6    0.75    0.27
   6   4  -6    0.84    0.25
   5  -4  -6   -0.06    0.40
   5   4  -6   -0.05    0.29
  -5   4   6    0.04    0.32
  -5   4   6    0.05    0.29
  -5   4   6    0.33    0.25
  -5   4   6    0.09    0.36
  -5   4   6    0.39    0.28
  -5   4   6   -0.30    0.30
   5   4  -6   -0.15    0.26
   5   4  -6    0.11    0.26
  -5   4   6    0.28    0.28
   5   4  -6   -0.23    0.25
  -5   4   6   -0.15    0.32
   4  -4  -6    1.35    0.43
  -4  -4   6    1.47    0.32
   4   4  -6    1.94    0.34
   4   4  -6    1.43    0.33
   4   4  -6    1.19    0.48
   4   4  -6    1.75    0.32
   4   4  -6    1.38    0.29
  -3  -4   6   21.72    0.88
   3  -4  -6   20.64    0.94
   3  -4  -6   20.66    0.89
   3  -4  -6   20.85    0.93
  -3   4   6   20.64    0.85
  -3   4   6   21.17    0.80
   3   4  -6   21.22    0.89
  -3   4   6   22.55    0.87
  -3   4   6   19.08    1.08
  -3   4   6   21.54    0.93
   3   4  -6   19.40    1.12
   3   4  -6   22.13    0.86
  -3   4   6   21.04    0.74
   3   4  -6   22.52    0.82
   3   4  -6   21.78    0.80
  -3   4   6   21.01    0.86
  -3   4   6   20.52    0.82
   3   4  -6   21.08    0.79
   3   4  -6   21.47    0.73
   2  -4  -6   61.23    1.87
  -2  -4   6   62.40    2.00
   2  -4  -6   58.66    1.95
  -2  -4   6   58.86    1.76
   2   4  -6   63.30    1.71
   2   4  -6   60.57    2.37
  -2   4   6   59.96    1.67
  -2   4   6   61.98    1.88
   2   4  -6   60.69    1.80
  -2   4   6   61.03    1.86
  -2   4   6   60.97    1.88
   2   4  -6   63.89    1.91
   2   4  -6   61.82    1.81
  -2   4   6   62.17    1.87
  -2   4   6   55.26    2.43
  -2   4   6   62.29    1.74
  -2   4   6   62.43    1.97
   2   4  -6   61.53    1.85
   2   4  -6   61.15    1.89
  -2   4   6   59.38    2.29
  -1  -4   6    3.73    0.33
  -1  -4   6    3.43    0.41
  -1   4   6    2.63    0.43
  -1   4   6    2.84    0.37
   1   4  -6    2.07    0.56
   1   4  -6    3.15    0.28
  -1   4   6    3.08    0.34
   1   4  -6    2.79    0.36
   1   4  -6    3.40    0.35
  -1   4   6    2.93    0.31
   1   4  -6    3.23    0.44
  -1   4   6    2.73    0.30
   1   4  -6    2.67    0.35
   1   4  -6    2.95    0.37
  -1   4   6    2.76    0.35
  -1   4   6    2.89    0.49
  -1   4   6    3.21    0.36
  -1   4   6    3.26    0.40
   0  -4   6    0.05    0.36
   0  -4   6    0.50    0.27
   0   4   6    0.00    0.24
   0   4   6   -0.41    0.26
   0   4   6    0.29    0.43
   0   4  -6    0.35    0.29
   0   4   6    0.45    0.33
   0   4  -6   -0.02    0.32
   0   4   6    0.10    0.29
   0   4  -6   -0.06    0.28
   0   4  -6    0.23    0.29
   0   4  -6   -0.11    0.40
   0   4   6    0.20    0.30
   0   4  -6   -0.11    0.23
   0   4  -6    0.88    0.47
   1  -4   6    0.26    0.26
   1  -4   6    0.25    0.26
   1   4   6   -0.17    0.24
  -1   4  -6    0.18    0.30
  -1   4  -6    0.25    0.25
  -1   4  -6    0.23    0.27
   1   4   6    0.28    0.29
  -1   4  -6    0.27    0.40
   1   4   6    0.10    0.26
   1   4   6   -0.24    0.40
  -1   4  -6    0.16    0.27
  -1   4  -6    0.33    0.34
   2  -4   6    2.60    0.31
   2  -4   6    1.84    0.29
  -2   4  -6    3.34    0.36
  -2   4  -6    2.66    0.32
  -2   4  -6    2.88    0.29
   2   4   6    3.05    0.42
   2   4   6    2.65    0.34
   2   4   6    3.17    0.43
  -2   4  -6    2.63    0.37
  -2   4  -6    2.10    0.41
   3   4   6    1.38    0.27
  -3   4  -6    1.67    0.25
  -3   4  -6    1.31    0.30
  -3   4  -6    1.65    0.30
  -4   4  -6   -0.03    0.24
  -4   4  -6    0.13    0.26
   4   4   6    0.63    0.23
  -4   4  -6    0.31    0.23
  -5   4  -6    0.38    0.24
   4  -5  -6   39.27    1.19
  -4  -5   6   40.72    1.22
  -4   5   6   40.18    1.21
  -4   5   6   41.74    1.10
   3  -5  -6    1.24    0.28
  -3  -5   6    1.08    0.26
  -3   5   6    1.56    0.24
  -3   5   6    1.23    0.20
   3   5  -6    1.18    0.22
  -2  -5   6   -0.38    0.25
   2   5  -6    0.17    0.21
   2   5  -6    0.18    0.18
  -2   5   6   -0.37    0.22
  -2   5   6   -0.11    0.21
  -1  -5   6    0.15    0.23
   1   5  -6    0.09    0.18
  -1   5   6   -0.17    0.22
   1   5  -6   -0.18    0.21
  -1   5   6    0.26    0.21
   0  -5   6    2.54    0.26
   0   5  -6    2.66    0.26
   0   5  -6    2.83    0.23
   0   5   6    2.96    0.27
   1  -5   6    3.49    0.26
  -1   5  -6    4.42    0.30
   1   5   6    4.26    0.28
  -1   5  -6    4.57    0.29
  -2   5  -6    0.58    0.17
   2   5   6    0.33    0.18
  -2   5  -6    0.34    0.21
  11   0  -7   -0.12    0.25
  11   0  -7    0.02    0.20
 -11   0   7    0.01    0.22
  11   0  -7    0.23    0.22
 -11   0   7    0.26    0.23
 -10   0   7   -0.24    0.26
  10   0  -7    0.05    0.30
  10   0  -7   -0.09    0.23
 -10   0   7   -0.23    0.24
  10   0  -7    0.18    0.28
   9   0  -7    4.53    0.36
  -9   0   7    4.09    0.48
  -9   0   7    4.34    0.32
   9   0  -7    4.03    0.38
   9   0  -7    4.40    0.38
   9   0  -7    4.96    0.39
  -9   0   7    4.66    0.34
   9   0  -7    4.34    0.48
   8   0  -7    0.05    0.40
   8   0  -7   -0.40    0.27
   8   0  -7   -0.04    0.31
   8   0  -7    0.15    0.23
   8   0  -7    0.59    0.29
  -8   0   7    0.42    0.26
  -8   0   7   -0.05    0.35
   7   0  -7    6.67    0.54
  -7   0   7    6.59    0.44
  -7   0   7    6.08    0.52
   7   0  -7    7.43    0.55
   7   0  -7    6.49    0.47
   7   0  -7    6.60    0.47
   7   0  -7    6.94    0.42
  -7   0   7    7.42    0.65
  -7   0   7    6.22    0.58
   7   0  -7    6.76    0.50
   7   0  -7    7.76    0.53
   6   0  -7   -0.07    0.26
   6   0  -7   -0.15    0.23
  -6   0   7   -0.10    0.23
   6   0  -7   -0.09    0.33
   6   0  -7    0.12    0.23
   6   0  -7   -0.17    0.22
   6   0  -7   -0.06    0.28
  -6   0   7    0.06    0.29
   5   0  -7    5.12    0.35
  -5   0   7    4.41    0.29
  -5   0   7    5.34    0.34
   5   0  -7    4.66    0.37
  -5   0   7    4.78    0.35
   5   0  -7    5.77    0.40
   5   0  -7    4.25    0.39
   5   0  -7    5.32    0.37
  -5   0   7    5.39    0.51
  -4   0   7   -0.05    0.26
   4   0  -7   -0.01    0.24
   4   0  -7   -0.01    0.23
   4   0  -7   -0.13    0.24
   4   0  -7   -0.16    0.26
  -4   0   7   -0.12    0.20
  -4   0   7    0.19    0.15
   4   0  -7    0.05    0.23
   4   0  -7   -0.10    0.20
  -4   0   7    0.09    0.18
  -4   0   7   -0.05    0.20
   4   0  -7    0.19    0.30
   3   0  -7   18.65    0.80
   3   0  -7   18.09    0.70
   3   0  -7   17.44    0.67
   3   0  -7   18.45    0.60
  -3   0   7   19.12    0.82
   3   0  -7   18.29    0.64
  -3   0   7   18.39    0.59
   3   0  -7   18.43    0.74
   3   0  -7   17.29    0.72
  -3   0   7   17.90    0.59
   3   0  -7   18.51    0.73
  -3   0   7   18.95    0.65
   3   0  -7   17.79    0.66
  -3   0   7   18.65    0.62
  -2   0   7   -0.12    0.17
  -2   0   7    0.04    0.20
  -2   0   7   -0.11    0.14
   2   0  -7    0.03    0.27
  -2   0   7   -0.15    0.24
  -2   0   7    0.17    0.19
   2   0  -7    0.05    0.21
   2   0  -7    0.07    0.26
   2   0  -7   -0.14    0.16
   2   0  -7    0.05    0.16
   2   0  -7   -0.16    0.20
   2   0  -7    0.11    0.21
   2   0  -7   -0.13    0.26
  -2   0   7   -0.03    0.15
  -1   0   7    4.49    0.28
   1   0  -7    3.77    0.32
   1   0  -7    3.42    0.24
  -1   0   7    3.75    0.34
   1   0  -7    3.17    0.27
  -1   0   7    3.96    0.26
   1   0  -7    4.23    0.24
   1   0  -7    3.64    0.28
   1   0  -7    3.79    0.37
  -1   0   7    3.96    0.28
   1   0  -7    3.91    0.31
  -1   0   7    3.83    0.23
   0   0  -7   -0.04    0.15
   0   0   7    0.15    0.18
   0   0  -7    0.07    0.19
   0   0   7   -0.04    0.15
   0   0  -7   -0.03    0.19
   0   0   7    0.07    0.20
   0   0   7    0.11    0.17
   0   0   7    0.04    0.17
   0   0  -7    0.22    0.22
   0   0   7    0.19    0.15
   0   0   7   -0.21    0.21
   0   0  -7   -0.24    0.23
  -1   0  -7    0.11    0.20
   1   0   7   -0.07    0.23
   1   0   7   -0.12    0.19
   1   0   7   -0.06    0.17
  -1   0  -7   -0.15    0.21
  -1   0  -7    0.32    0.23
   1   0   7   -0.07    0.17
   1   0   7    0.11    0.20
   1   0   7    0.01    0.15
   2   0   7    0.27    0.27
   2   0   7   -0.08    0.19
  -2   0  -7   -0.03    0.27
   2   0   7    0.04    0.17
   2   0   7   -0.14    0.20
  -2   0  -7    0.18    0.24
   2   0   7    0.13    0.19
  -3   0  -7  194.91    5.05
   3   0   7  197.71    5.23
   3   0   7  197.42    5.16
  -3   0  -7  194.09    5.32
   3   0   7  192.82    5.07
  -3   0  -7  196.30    5.66
   3   0   7  195.34    7.10
   3   0   7  189.42    5.51
  -4   0  -7   -0.02    0.35
  -4   0  -7   -0.05    0.30
   4   0   7   -0.16    0.24
   4   0   7    0.24    0.23
   4   0   7   -0.01    0.24
  -4   0  -7   -0.37    0.38
   4   0   7    0.00    0.35
  -4   0  -7   -0.13    0.33
   4   0   7   -0.15    0.19
   5   0   7    1.95    0.34
   5   0   7    1.73    0.45
   5   0   7    1.88    0.30
  -5   0  -7    0.94    0.40
  -5   0  -7    2.30    0.43
   5   0   7    1.37    0.24
   5   0   7    2.15    0.33
  -5   0  -7    1.61    0.38
   5   0   7    1.69    0.25
   6   0   7   -0.09    0.31
  -6   0  -7   -0.18    0.44
   6   0   7    0.01    0.25
   6   0   7   -0.01    0.21
  -6   0  -7    0.29    0.37
   6   0   7    0.54    0.32
   6   0   7   -0.26    0.22
   7   0   7   67.66    2.13
  -7   0  -7   69.41    2.27
   7   0   7   70.48    1.90
  -7   0  -7   65.86    2.41
   7   0   7   67.69    2.02
   7   0   7   63.25    2.08
   8   0   7   -0.12    0.19
   8   0   7    0.04    0.22
   8   0   7   -0.09    0.31
   8   0   7    0.05    0.20
   9   0   7    1.96    0.26
   9   0   7    1.99    0.21
  -9   0  -7    2.91    0.25
  11  -1  -7    0.21    0.20
 -11  -1   7    0.46    0.22
  11  -1  -7    0.15    0.20
  11   1  -7    0.11    0.20
  11   1  -7    0.08    0.20
 -11   1   7    0.07    0.19
  11   1  -7    0.22    0.24
 -11   1   7    0.23    0.22
 -10  -1   7    0.85    0.24
  10  -1  -7    1.24    0.30
  10  -1  -7    1.06    0.28
 -10   1   7    0.57    0.24
  10   1  -7    0.83    0.26
  10   1  -7    1.00    0.27
 -10   1   7    1.21    0.26
  10   1  -7    1.15    0.29
 -10   1   7    0.60    0.24
  -9  -1   7    1.67    0.30
  -9  -1   7    2.16    0.28
   9  -1  -7    1.60    0.33
   9  -1  -7    1.99    0.32
   9  -1  -7    2.30    0.33
   9  -1  -7    1.92    0.34
   9  -1  -7    1.87    0.36
  -9  -1   7    1.12    0.36
   9   1  -7    1.73    0.30
  -9   1   7    2.19    0.27
   9   1  -7    2.25    0.34
   9   1  -7    2.41    0.43
   9   1  -7    1.76    0.34
  -9   1   7    1.75    0.40
  -9   1   7    2.40    0.28
   9   1  -7    1.44    0.26
   9   1  -7    2.73    0.33
   8  -1  -7   84.60    2.53
  -8  -1   7   90.97    2.52
   8  -1  -7   86.99    2.66
   8  -1  -7   88.73    2.69
  -8  -1   7   88.30    2.36
  -8  -1   7   90.87    3.24
   8  -1  -7   87.17    2.69
   8   1  -7   91.36    2.55
  -8   1   7   86.71    3.27
   8   1  -7   87.90    2.58
   8   1  -7   90.59    2.59
  -8   1   7   88.45    2.36
  -8   1   7   87.44    2.51
   8   1  -7   89.23    2.64
  -8   1   7   89.38    2.41
   8   1  -7   91.07    2.71
   8   1  -7   90.84    2.54
   7  -1  -7   29.59    1.04
  -7  -1   7   30.45    1.25
  -7  -1   7   29.93    0.96
   7  -1  -7   29.29    1.04
   7  -1  -7   29.31    0.98
   7  -1  -7   29.44    1.07
  -7  -1   7   27.42    1.20
   7  -1  -7   28.56    1.08
  -7   1   7   28.50    0.91
  -7   1   7   29.38    0.90
   7   1  -7   29.42    0.95
   7   1  -7   28.92    0.98
   7   1  -7   29.16    0.99
   7   1  -7   29.88    0.96
   7   1  -7   28.55    1.02
   7   1  -7   29.14    1.01
  -7   1   7   30.33    0.99
   7   1  -7   28.67    1.12
  -7   1   7   28.84    1.28
   6  -1  -7    2.11    0.28
  -6  -1   7    2.49    0.36
  -6  -1   7    2.68    0.28
   6  -1  -7    3.56    0.37
   6  -1  -7    2.53    0.32
   6  -1  -7    2.56    0.34
   6  -1  -7    2.68    0.33
  -6  -1   7    2.81    0.31
  -6  -1   7    2.68    0.32
   6   1  -7    2.13    0.27
   6   1  -7    2.38    0.26
  -6   1   7    2.85    0.29
   6   1  -7    3.02    0.43
  -6   1   7    1.71    0.27
  -6   1   7    2.69    0.37
   6   1  -7    2.28    0.29
   6   1  -7    2.12    0.29
  -6   1   7    2.92    0.31
   6   1  -7    2.67    0.36
   5  -1  -7    0.29    0.26
  -5  -1   7    0.08    0.24
  -5  -1   7    0.37    0.23
   5  -1  -7    0.29    0.30
  -5  -1   7    0.27    0.21
   5  -1  -7    0.41    0.28
  -5  -1   7    0.16    0.26
   5  -1  -7    0.33    0.25
   5  -1  -7    0.54    0.28
   5  -1  -7    0.12    0.26
  -5   1   7    0.28    0.23
  -5   1   7    0.26    0.19
   5   1  -7    0.23    0.24
   5   1  -7    0.78    0.31
   5   1  -7    0.29    0.36
   5   1  -7    0.36    0.20
  -5   1   7    0.20    0.20
  -5   1   7    0.10    0.25
  -5   1   7    0.05    0.26
   5   1  -7    0.34    0.34
   5   1  -7    0.16    0.21
   5   1  -7   -0.12    0.27
   5   1  -7    0.25    0.21
   4  -1  -7    0.62    0.28
   4  -1  -7    0.69    0.21
  -4  -1   7    0.86    0.20
   4  -1  -7    0.42    0.31
  -4  -1   7    1.07    0.27
   4  -1  -7    0.64    0.24
   4  -1  -7    1.33    0.27
  -4  -1   7    0.54    0.23
  -4  -1   7    0.81    0.25
  -4   1   7    1.09    0.22
   4   1  -7    0.88    0.29
  -4   1   7    0.79    0.19
   4   1  -7    0.99    0.31
  -4   1   7    0.65    0.26
  -4   1   7    0.52    0.23
   4   1  -7    1.08    0.36
   4   1  -7    0.67    0.28
   4   1  -7    0.86    0.19
  -4   1   7    1.04    0.31
   3  -1  -7   38.95    1.31
  -3  -1   7   40.94    1.49
   3  -1  -7   39.96    1.21
  -3  -1   7   38.09    1.24
   3  -1  -7   40.00    1.26
  -3  -1   7   37.67    1.49
  -3  -1   7   40.88    1.16
  -3  -1   7   39.59    1.46
  -3  -1   7   40.80    1.15
   3  -1  -7   38.48    1.23
   3  -1  -7   37.94    1.14
   3  -1  -7   37.83    1.50
  -3  -1   7   38.44    1.11
   3   1  -7   40.67    1.13
   3   1  -7   38.17    1.29
   3   1  -7   39.76    1.21
   3   1  -7   39.44    1.26
  -3   1   7   40.88    1.55
  -3   1   7   37.85    1.47
  -3   1   7   40.47    1.14
  -3   1   7   39.89    1.11
  -3   1   7   39.81    1.17
  -2  -1   7    4.44    0.37
  -2  -1   7    2.88    0.31
  -2  -1   7    3.62    0.27
   2  -1  -7    3.65    0.25
  -2  -1   7    3.23    0.23
   2  -1  -7    3.13    0.27
  -2  -1   7    3.36    0.26
   2  -1  -7    3.65    0.32
   2  -1  -7    3.35    0.28
  -2  -1   7    3.15    0.25
   2  -1  -7    4.62    0.36
   2   1  -7    4.51    0.35
   2   1  -7    2.44    0.32
  -2   1   7    3.72    0.36
  -2   1   7    3.83    0.28
   2   1  -7    2.86    0.28
  -2   1   7    4.04    0.31
  -2   1   7    3.53    0.24
   2   1  -7    3.41    0.24
   2   1  -7    4.55    0.36
  -2   1   7    4.18    0.36
  -2   1   7    3.46    0.22
   1  -1  -7    1.07    0.22
  -1  -1   7    0.82    0.17
   1  -1  -7    0.93    0.26
  -1  -1   7    0.65    0.18
  -1  -1   7    1.24    0.24
   1  -1  -7    1.00    0.20
  -1  -1   7    0.82    0.17
   1  -1  -7    0.91    0.29
   1  -1  -7    1.31    0.29
  -1  -1   7    0.95    0.19
  -1   1   7    1.67    0.30
  -1   1   7    0.98    0.29
  -1   1   7    0.70    0.23
  -1   1   7    0.89    0.18
   1   1  -7    0.99    0.20
  -1   1   7    1.19    0.17
   1   1  -7    1.00    0.22
   1   1  -7    1.27    0.30
  -1   1   7    0.98    0.24
   1   1  -7    0.91    0.27
   0  -1  -7    1.79    0.29
   0  -1   7    1.47    0.20
   0  -1   7    1.68    0.21
   0  -1   7    1.71    0.19
   0  -1   7    1.55    0.24
   0  -1  -7    2.36    0.27
   0  -1  -7    1.31    0.20
   0  -1   7    1.90    0.19
   0  -1  -7    2.24    0.29
   0   1  -7    2.02    0.23
   0   1  -7    2.42    0.30
   0   1  -7    1.80    0.21
   0   1  -7    1.71    0.26
   0   1   7    1.81    0.30
   0   1   7    1.19    0.22
   0   1   7    1.72    0.30
   0   1   7    1.45    0.18
   0   1  -7    1.37    0.27
   0   1   7    2.19    0.18
   0   1   7    1.81    0.18
  -1  -1  -7    7.84    0.41
   1  -1   7    7.37    0.51
   1  -1   7    7.77    0.41
   1  -1   7    7.32    0.38
   1  -1   7    8.78    0.45
   1  -1   7    7.22    0.39
  -1  -1  -7    8.10    0.54
   1  -1   7    7.09    0.35
   1   1   7    7.94    0.34
  -1   1  -7    7.73    0.49
  -1   1  -7    7.69    0.48
   1   1   7    7.89    0.46
   1   1   7    7.46    0.55
   1   1   7    8.29    0.33
  -1   1  -7    7.61    0.51
  -1   1  -7    8.51    0.42
  -1   1  -7    8.68    0.50
   1   1   7    7.19    0.53
   1   1   7    8.14    0.49
   1   1   7    8.22    0.39
  -1   1  -7    7.33    0.47
   2  -1   7    0.14    0.27
   2  -1   7    0.04    0.22
  -2  -1  -7   -0.09    0.21
   2  -1   7   -0.15    0.22
   2  -1   7   -0.15    0.20
   2  -1   7    0.21    0.17
   2  -1   7    0.06    0.22
  -2   1  -7    0.39    0.28
   2   1   7    0.09    0.26
   2   1   7   -0.03    0.19
   2   1   7   -0.17    0.26
  -2   1  -7    0.84    0.33
   2   1   7    0.26    0.26
   2   1   7   -0.11    0.21
  -2   1  -7    0.19    0.28
  -3  -1  -7    2.74    0.29
   3  -1   7    2.95    0.32
   3  -1   7    2.62    0.27
  -3  -1  -7    3.28    0.35
   3  -1   7    2.83    0.30
   3   1   7    2.91    0.38
  -3   1  -7    3.07    0.41
  -3   1  -7    2.75    0.39
   3   1   7    3.10    0.27
  -3   1  -7    3.09    0.44
   3   1   7    3.28    0.38
   3   1   7    3.25    0.28
   4  -1   7   -0.11    0.28
   4  -1   7    0.30    0.28
  -4  -1  -7    0.08    0.27
   4  -1   7   -0.07    0.22
   4  -1   7   -0.01    0.23
   4   1   7    0.40    0.25
   4   1   7    0.00    0.24
   4   1   7    0.31    0.33
  -4   1  -7   -0.34    0.40
  -4   1  -7    0.17    0.40
  -4   1  -7    0.23    0.36
   4   1   7    0.16    0.22
   4   1   7   -0.19    0.21
   5  -1   7    1.37    0.33
   5  -1   7    0.93    0.33
  -5  -1  -7    1.34    0.41
   5  -1   7    1.08    0.32
   5  -1   7    1.22    0.26
   5  -1   7    0.98    0.24
  -5   1  -7    1.39    0.40
   5   1   7    1.26    0.27
  -5   1  -7    1.09    0.40
   5   1   7    1.75    0.27
  -5   1  -7    0.93    0.46
  -5   1  -7    1.05    0.44
   5   1   7    1.25    0.39
   5   1   7    1.19    0.24
  -5   1  -7    0.53    0.39
   5   1   7    0.51    0.29
   6  -1   7    0.77    0.33
   6  -1   7    0.36    0.24
  -6  -1  -7    1.24    0.42
   6  -1   7    0.21    0.36
   6  -1   7    0.13    0.32
   6  -1   7    0.68    0.23
  -6   1  -7    1.14    0.39
   6   1   7    0.75    0.23
   6   1   7    0.70    0.26
   6   1   7    0.63    0.25
  -6   1  -7    0.16    0.44
  -6   1  -7    0.68    0.50
   6   1   7    0.68    0.40
   6   1   7    1.03    0.32
  -6   1  -7    0.56    0.40
  -6   1  -7    0.97    0.44
   7  -1   7    0.04    0.22
   7  -1   7    0.13    0.38
   7  -1   7   -0.08    0.20
   7  -1   7    0.25    0.32
  -7  -1  -7    0.79    0.42
  -7  -1  -7   -0.07    0.40
   7   1   7    0.13    0.23
   7   1   7   -0.16    0.18
  -7   1  -7   -0.06    0.30
  -7   1  -7    0.15    0.44
  -7   1  -7   -0.44    0.36
   7   1   7   -0.33    0.23
   8  -1   7    0.27    0.19
   8  -1   7    0.05    0.18
   8  -1   7    0.55    0.31
  -8   1  -7   -0.01    0.25
   8   1   7   -0.26    0.19
   9  -1   7    2.50    0.20
   9  -1   7    2.47    0.19
   9  -1   7    2.63    0.29
  -9   1  -7    3.12    0.22
  11  -2  -7   -0.05    0.17
 -11  -2   7    0.04    0.17
  11  -2  -7   -0.27    0.25
 -11   2   7   -0.05    0.17
  11   2  -7   -0.04    0.18
  10  -2  -7    3.22    0.32
  10  -2  -7    3.10    0.27
  10  -2  -7    2.82    0.34
 -10  -2   7    3.23    0.24
 -10   2   7    3.38    0.26
  10   2  -7    3.09    0.27
  10   2  -7    3.86    0.30
 -10   2   7    3.77    0.26
   9  -2  -7    7.83    0.49
  -9  -2   7    8.93    0.49
   9  -2  -7    8.60    0.57
   9   2  -7    7.97    0.49
   9   2  -7    8.14    0.47
  -9   2   7    8.59    0.51
   9   2  -7    8.99    0.53
  -9   2   7    7.68    0.44
   9   2  -7    8.85    0.52
  -8  -2   7    7.34    0.60
   8  -2  -7    6.21    0.50
  -8  -2   7    7.10    0.53
   8  -2  -7    7.46    0.57
   8  -2  -7    6.33    0.50
   8   2  -7    6.45    0.46
  -8   2   7    6.13    0.38
  -8   2   7    7.15    0.44
  -8   2   7    5.89    0.52
   8   2  -7    7.20    0.53
  -8   2   7    6.97    0.39
   8   2  -7    4.84    0.55
   8   2  -7    7.98    0.53
   8   2  -7    8.16    0.58
   8   2  -7    6.53    0.49
  -7  -2   7    2.74    0.32
   7  -2  -7    3.41    0.45
  -7  -2   7    3.63    0.31
   7  -2  -7    2.35    0.37
  -7  -2   7    4.07    0.37
   7  -2  -7    3.41    0.39
   7  -2  -7    2.73    0.40
  -7  -2   7    3.19    0.46
   7  -2  -7    3.40    0.35
  -7   2   7    3.30    0.37
   7   2  -7    3.35    0.35
   7   2  -7    2.83    0.49
   7   2  -7    3.16    0.32
   7   2  -7    2.89    0.30
  -7   2   7    3.25    0.29
  -7   2   7    3.14    0.32
   7   2  -7    3.03    0.35
   7   2  -7    2.35    0.32
  -7   2   7    3.16    0.50
   7   2  -7    3.15    0.52
   6  -2  -7   -0.02    0.32
   6  -2  -7    0.16    0.29
   6  -2  -7    0.50    0.36
  -6  -2   7    0.59    0.27
  -6  -2   7    0.30    0.35
   6  -2  -7   -0.49    0.32
  -6  -2   7    0.01    0.24
   6  -2  -7    0.10    0.34
   6  -2  -7   -0.43    0.36
   6   2  -7   -0.10    0.22
   6   2  -7   -0.11    0.44
  -6   2   7   -0.01    0.42
   6   2  -7    0.09    0.24
  -6   2   7    0.37    0.31
   6   2  -7   -0.42    0.23
  -6   2   7    0.05    0.24
   6   2  -7    0.30    0.41
   6   2  -7    0.06    0.28
  -6   2   7   -0.35    0.20
   6   2  -7    0.26    0.25
  -5  -2   7    0.33    0.29
   5  -2  -7    0.56    0.32
  -5  -2   7    0.15    0.32
  -5  -2   7    0.37    0.26
  -5  -2   7    0.65    0.24
   5  -2  -7    0.27    0.33
   5   2  -7    0.74    0.44
  -5   2   7    0.30    0.40
   5   2  -7    0.74    0.20
  -5   2   7    0.16    0.29
   5   2  -7    0.23    0.23
  -5   2   7    0.75    0.24
   5   2  -7    0.47    0.37
  -5   2   7    0.71    0.30
   5   2  -7    0.26    0.40
   5   2  -7    0.82    0.26
   5   2  -7    0.71    0.38
  -5   2   7    0.32    0.25
   5   2  -7    0.52    0.24
   4  -2  -7   22.79    0.88
   4  -2  -7   21.83    0.82
  -4  -2   7   21.23    0.74
  -4  -2   7   22.19    0.80
  -4  -2   7   21.73    0.99
  -4  -2   7   19.72    0.94
  -4   2   7   19.90    0.79
   4   2  -7   20.90    0.68
   4   2  -7   20.49    0.75
  -4   2   7   20.84    0.73
   4   2  -7   20.91    1.00
   4   2  -7   20.07    0.73
   4   2  -7   23.01    0.89
  -4   2   7   19.76    0.76
  -4   2   7   19.54    0.91
  -4   2   7   21.51    1.04
   4   2  -7   20.12    0.77
   4   2  -7   19.99    0.75
  -4   2   7   22.20    0.78
   4   2  -7   21.24    1.05
  -4   2   7   20.04    0.70
   4   2  -7   20.99    0.87
   3  -2  -7    7.97    0.50
  -3  -2   7    7.77    0.41
   3  -2  -7    8.24    0.55
  -3  -2   7    7.66    0.44
  -3  -2   7    8.48    0.50
   3  -2  -7    9.09    0.58
  -3  -2   7    7.91    0.64
   3   2  -7    8.56    0.76
   3   2  -7    7.73    0.61
  -3   2   7    8.13    0.55
  -3   2   7    7.67    0.50
  -3   2   7    7.96    0.63
   3   2  -7    8.05    0.40
   3   2  -7    8.20    0.67
  -3   2   7    6.91    0.48
  -3   2   7    6.91    0.47
   3   2  -7    7.37    0.43
  -3   2   7    6.91    0.47
   3   2  -7    7.49    0.44
  -3   2   7    8.15    0.44
  -3   2   7    7.31    0.39
   3   2  -7    7.60    0.49
  -3   2   7    6.99    0.41
   3   2  -7    6.97    0.45
   3   2  -7    7.84    0.51
   2  -2  -7    1.48    0.23
  -2  -2   7    1.16    0.31
   2  -2  -7    1.63    0.30
  -2  -2   7    1.04    0.23
   2  -2  -7    1.81    0.29
  -2  -2   7    1.64    0.23
  -2   2   7    1.37    0.27
  -2   2   7    1.30    0.20
   2   2  -7    1.70    0.34
   2   2  -7    1.41    0.20
  -2   2   7    1.56    0.36
  -2   2   7    1.38    0.21
   2   2  -7    1.58    0.29
   2   2  -7    1.75    0.25
   2   2  -7    1.90    0.48
  -2   2   7    1.73    0.19
   2   2  -7    0.92    0.24
  -2   2   7    1.18    0.23
  -2   2   7    1.30    0.36
  -2   2   7    1.71    0.28
   2   2  -7    1.36    0.27
  -1  -2   7    3.30    0.28
   1  -2  -7    3.51    0.31
  -1  -2   7    3.19    0.27
   1  -2  -7    3.42    0.35
  -1   2   7    3.10    0.22
  -1   2   7    3.99    0.42
   1   2  -7    2.06    0.30
  -1   2   7    3.26    0.25
   1   2  -7    3.37    0.51
   1   2  -7    2.74    0.33
   1   2  -7    3.26    0.26
  -1   2   7    3.14    0.20
  -1   2   7    2.78    0.26
  -1   2   7    3.42    0.30
   1   2  -7    2.04    0.52
  -1   2   7    3.19    0.41
   1   2  -7    3.99    0.42
   0  -2   7    0.49    0.24
   0  -2   7    0.29    0.22
   0  -2  -7    0.22    0.28
   0  -2   7    0.45    0.20
   0  -2   7    0.11    0.21
   0  -2   7    0.64    0.23
   0   2  -7    0.39    0.25
   0   2  -7    0.28    0.23
   0   2   7    0.28    0.21
   0   2  -7   -0.13    0.25
   0   2  -7    0.41    0.27
   0   2   7    0.34    0.31
   0   2   7    0.05    0.31
   0   2  -7    0.31    0.44
   0   2  -7    0.02    0.28
   0   2   7    0.49    0.19
   1  -2   7    6.57    0.44
   1  -2   7    5.40    0.40
  -1  -2  -7    5.46    0.44
   1  -2   7    5.38    0.36
   1  -2   7    6.31    0.45
   1  -2   7    6.34    0.46
  -1  -2  -7    6.00    0.51
  -1   2  -7    6.91    0.46
  -1   2  -7    6.51    0.56
   1   2   7    6.74    0.56
   1   2   7    5.81    0.52
   1   2   7    5.76    0.37
  -1   2  -7    6.14    0.44
  -1   2  -7    6.58    0.40
  -1   2  -7    6.86    0.45
   1   2   7    6.58    0.47
   1   2   7    5.65    0.42
  -1   2  -7    4.92    0.40
   2  -2   7    0.37    0.25
  -2  -2  -7    0.50    0.30
   2  -2   7    0.77    0.29
   2  -2   7    0.57    0.23
  -2   2  -7    0.27    0.33
   2   2   7    0.96    0.34
  -2   2  -7    0.36    0.24
   2   2   7    0.33    0.34
   2   2   7    0.52    0.24
   2   2   7    0.53    0.31
   2   2   7    0.47    0.24
  -2   2  -7    0.42    0.31
   3  -2   7    5.14    0.35
   3  -2   7    5.28    0.42
   3  -2   7    4.30    0.35
   3  -2   7    5.26    0.35
  -3   2  -7    5.03    0.45
   3   2   7    5.16    0.48
   3   2   7    5.31    0.32
   3   2   7    5.24    0.35
  -3   2  -7    4.57    0.43
  -3   2  -7    4.58    0.48
  -3   2  -7    4.99    0.33
  -3   2  -7    4.89    0.32
   3   2   7    5.55    0.49
   4  -2   7    0.09    0.29
   4  -2   7   -0.28    0.34
   4  -2   7    0.03    0.25
   4  -2   7    0.29    0.25
  -4   2  -7   -0.02    0.24
  -4   2  -7    0.11    0.42
   4   2   7    0.11    0.35
  -4   2  -7    0.52    0.38
  -4   2  -7    0.81    0.39
   4   2   7   -0.35    0.38
   4   2   7   -0.12    0.20
  -4   2  -7    0.36    0.22
   4   2   7   -0.24    0.24
   5  -2   7    0.70    0.38
   5  -2   7    0.87    0.26
   5  -2   7    0.64    0.26
   5  -2   7    1.04    0.32
   5   2   7    1.18    0.27
  -5   2  -7    0.73    0.38
  -5   2  -7    0.92    0.25
  -5   2  -7    0.40    0.44
   5   2   7    1.66    0.38
  -5   2  -7    0.33    0.40
  -5   2  -7    0.60    0.25
   6  -2   7    0.35    0.32
   6  -2   7    0.69    0.37
   6  -2   7    0.22    0.24
  -6   2  -7   -0.24    0.37
  -6   2  -7    0.12    0.39
  -6   2  -7    0.12    0.23
  -6   2  -7    0.28    0.27
   6   2   7    0.20    0.26
   7  -2   7    1.36    0.24
   7  -2   7    1.50    0.32
  -7   2  -7    1.51    0.23
   7   2   7    1.43    0.26
   8  -2   7    0.33    0.17
   8  -2   7    0.16    0.28
  -8   2  -7   -0.17    0.17
   8   2   7    0.30    0.21
   9  -3  -7   -0.31    0.23
   9   3  -7   -0.07    0.22
   9   3  -7    0.11    0.20
  -9   3   7    0.09    0.21
  -9   3   7    0.49    0.24
  -9   3   7    0.23    0.18
   8  -3  -7    0.72    0.32
   8  -3  -7    0.36    0.31
   8   3  -7    0.11    0.26
  -8   3   7    0.21    0.25
  -8   3   7    0.32    0.29
  -8   3   7    0.16    0.26
   8   3  -7   -0.17    0.21
   8   3  -7    0.32    0.26
  -8   3   7   -0.11    0.19
   7  -3  -7    0.26    0.37
   7  -3  -7   -0.07    0.31
   7  -3  -7    0.15    0.32
  -7  -3   7    0.28    0.26
   7  -3  -7    0.05    0.30
   7  -3  -7   -0.18    0.35
  -7  -3   7    0.00    0.39
  -7   3   7   -0.12    0.28
  -7   3   7   -0.32    0.31
  -7   3   7    0.64    0.30
   7   3  -7   -0.03    0.25
   7   3  -7   -0.21    0.23
   7   3  -7    0.44    0.45
   7   3  -7    0.24    0.31
  -7   3   7    0.33    0.22
   7   3  -7    0.47    0.28
  -7   3   7    0.24    0.31
  -7   3   7    0.03    0.44
  -6  -3   7    0.04    0.40
   6  -3  -7    0.45    0.35
   6  -3  -7    0.38    0.32
   6  -3  -7    0.20    0.41
   6  -3  -7    0.52    0.38
  -6   3   7    0.06    0.31
  -6   3   7    0.35    0.26
  -6   3   7    0.32    0.28
  -6   3   7    0.42    0.48
   6   3  -7   -0.07    0.45
   6   3  -7    0.10    0.27
  -6   3   7    0.19    0.29
  -6   3   7    0.66    0.32
  -6   3   7    0.44    0.36
   6   3  -7    0.47    0.24
   6   3  -7    0.25    0.32
   6   3  -7    0.26    0.25
   6   3  -7    0.78    0.48
  -6   3   7    0.53    0.32
  -6   3   7    0.26    0.30
   6   3  -7    0.39    0.28
   5  -3  -7    0.41    0.38
  -5  -3   7    0.27    0.40
   5  -3  -7    0.48    0.39
   5  -3  -7    0.18    0.33
  -5  -3   7    0.90    0.25
   5  -3  -7   -0.06    0.40
  -5  -3   7   -0.31    0.36
  -5   3   7    0.25    0.25
   5   3  -7    0.72    0.28
  -5   3   7    0.65    0.31
  -5   3   7    0.33    0.30
  -5   3   7    0.78    0.47
   5   3  -7    0.13    0.49
  -5   3   7    0.26    0.27
   5   3  -7    0.23    0.23
   5   3  -7    0.48    0.49
  -5   3   7    0.52    0.36
  -5   3   7    0.37    0.28
   5   3  -7    0.54    0.30
   5   3  -7    0.74    0.29
   5   3  -7    0.28    0.30
  -5   3   7   -0.02    0.30
  -5   3   7    0.77    0.32
   5   3  -7    0.55    0.25
  -5   3   7    0.39    0.32
  -4  -3   7    0.21    0.34
   4  -3  -7    0.15    0.39
  -4  -3   7   -0.77    0.35
  -4  -3   7    0.12    0.24
   4  -3  -7    0.37    0.39
   4  -3  -7   -0.74    0.29
  -4   3   7   -0.01    0.24
  -4   3   7   -0.17    0.41
   4   3  -7   -0.28    0.51
  -4   3   7    0.01    0.27
  -4   3   7    0.21    0.28
   4   3  -7    0.18    0.29
  -4   3   7   -0.28    0.31
  -4   3   7    0.35    0.26
  -4   3   7    0.04    0.35
  -4   3   7    0.02    0.28
   4   3  -7   -0.13    0.27
  -4   3   7   -0.23    0.29
   4   3  -7    0.14    0.25
   4   3  -7   -0.42    0.19
   4   3  -7   -0.55    0.49
  -4   3   7   -0.03    0.28
  -4   3   7    0.17    0.25
   4   3  -7   -0.05    0.29
   4   3  -7    0.13    0.22
   4   3  -7    0.07    0.28
  -3  -3   7    3.08    0.36
   3  -3  -7    3.76    0.42
  -3  -3   7    3.27    0.42
   3  -3  -7    3.25    0.35
   3  -3  -7    3.81    0.43
  -3  -3   7    3.68    0.30
   3   3  -7    3.45    0.32
  -3   3   7    3.98    0.48
   3   3  -7    2.67    0.34
   3   3  -7    2.90    0.28
  -3   3   7    3.20    0.35
  -3   3   7    2.89    0.49
  -3   3   7    3.49    0.32
  -3   3   7    3.68    0.40
   3   3  -7    3.42    0.29
  -3   3   7    3.00    0.35
  -3   3   7    3.20    0.33
  -3   3   7    3.43    0.32
  -3   3   7    3.57    0.38
  -3   3   7    3.60    0.34
   3   3  -7    3.62    0.35
   3   3  -7    3.10    0.26
   3   3  -7    2.54    0.37
  -3   3   7    2.91    0.30
   3   3  -7    3.23    0.61
   2  -3  -7    7.36    0.56
  -2  -3   7    6.24    0.46
   2  -3  -7    7.52    0.50
   2  -3  -7    7.34    0.62
  -2  -3   7    6.94    0.46
  -2  -3   7    6.87    0.55
  -2   3   7    6.30    0.39
   2   3  -7    5.95    0.42
  -2   3   7    7.40    0.37
  -2   3   7    6.83    0.58
  -2   3   7    7.24    0.49
  -2   3   7    5.76    0.58
   2   3  -7    6.05    0.39
   2   3  -7    6.44    0.44
  -2   3   7    6.56    0.54
   2   3  -7    6.34    0.49
  -2   3   7    6.70    0.47
  -2   3   7    7.13    0.44
  -2   3   7    6.48    0.47
   2   3  -7    6.59    0.69
   2   3  -7    6.45    0.47
   2   3  -7    7.08    0.49
  -2   3   7    6.85    0.49
   2   3  -7    6.14    0.46
  -2   3   7    6.04    0.41
  -1  -3   7   12.83    0.57
  -1  -3   7   12.07    0.64
   1  -3  -7   10.79    0.73
  -1  -3   7   12.89    0.57
   1  -3  -7   11.94    0.67
  -1   3   7   12.09    0.59
   1   3  -7   11.82    0.68
   1   3  -7   12.49    0.95
   1   3  -7   11.15    0.60
   1   3  -7   12.12    0.50
  -1   3   7   12.19    0.57
  -1   3   7   12.21    0.57
   1   3  -7   11.14    0.53
  -1   3   7   12.54    0.78
  -1   3   7   11.89    0.56
   1   3  -7   12.93    0.59
   1   3  -7   11.78    0.61
  -1   3   7   11.73    0.61
  -1   3   7   12.37    0.56
  -1   3   7   11.99    0.62
  -1   3   7   13.06    0.83
   1   3  -7   12.74    0.56
   0  -3   7    3.72    0.40
   0  -3   7    3.98    0.33
   0  -3   7    4.80    0.38
   0   3   7    3.74    0.31
   0   3   7    3.78    0.34
   0   3  -7    3.02    0.42
   0   3   7    3.70    0.29
   0   3  -7    3.63    0.29
   0   3   7    3.26    0.45
   0   3  -7    4.27    0.36
   0   3  -7    3.52    0.37
   0   3   7    3.66    0.35
   0   3  -7    4.31    0.37
   0   3  -7    3.79    0.31
   0   3   7    3.70    0.33
   0   3  -7    4.05    0.61
   0   3   7    4.09    0.34
   0   3   7    3.94    0.48
   1  -3   7    2.56    0.36
   1  -3   7    3.62    0.41
   1  -3   7    3.57    0.37
   1  -3   7    2.94    0.33
  -1   3  -7    2.72    0.37
   1   3   7    3.71    0.30
  -1   3  -7    3.11    0.31
  -1   3  -7    3.81    0.44
   1   3   7    3.66    0.33
   1   3   7    4.19    0.48
   1   3   7    3.33    0.35
   1   3   7    3.68    0.45
   1   3   7    3.78    0.32
  -1   3  -7    2.86    0.34
   2  -3   7  109.86    3.06
   2  -3   7  108.28    2.95
   2   3   7  107.62    3.11
   2   3   7  108.82    3.85
   2   3   7  103.83    4.06
  -2   3  -7  106.41    3.06
   2   3   7  110.17    3.11
   2   3   7  112.73    3.87
  -2   3  -7  104.44    3.05
   3  -3   7   48.69    1.58
   3  -3   7   48.30    1.44
   3   3   7   48.89    1.88
  -3   3  -7   48.00    1.66
   3   3   7   46.24    1.94
  -3   3  -7   46.97    1.47
  -3   3  -7   49.24    1.48
   3   3   7   49.88    1.84
  -3   3  -7   47.73    1.53
   3   3   7   47.80    1.48
   4  -3   7   12.46    0.71
   4  -3   7   11.44    0.53
   4  -3   7   11.55    0.59
  -4   3  -7   11.55    0.59
   4   3   7   10.72    0.60
  -4   3  -7    9.61    0.71
   4   3   7   10.87    0.77
  -4   3  -7   10.18    0.75
  -4   3  -7   12.03    0.67
  -4   3  -7   11.57    0.58
   5  -3   7    1.74    0.25
  -5   3  -7    1.52    0.28
   5   3   7    1.91    0.29
  -5   3  -7    1.92    0.29
   6  -3   7    0.53    0.20
   6   3   7    0.35    0.23
  -6   3  -7    0.27    0.24
   7  -3   7    4.52    0.30
  -7   3  -7    4.57    0.27
  -8   4   7    2.42    0.22
   7  -4  -7    8.24    0.52
  -7  -4   7    7.30    0.41
  -7   4   7    8.33    0.41
  -7   4   7    8.24    0.46
   6  -4  -7    0.10    0.34
  -6   4   7    0.39    0.28
  -6   4   7   -0.54    0.25
   6   4  -7   -0.01    0.22
  -6   4   7    0.25    0.26
  -6   4   7   -0.38    0.26
   6   4  -7   -0.41    0.23
  -6   4   7   -0.07    0.28
  -6   4   7   -0.13    0.30
   6   4  -7   -0.36    0.28
  -6   4   7   -0.19    0.20
  -5  -4   7    0.08    0.30
   5  -4  -7    0.04    0.39
  -5   4   7    0.36    0.25
   5   4  -7    0.12    0.26
  -5   4   7   -0.15    0.30
   5   4  -7   -0.19    0.25
   5   4  -7    0.12    0.29
  -5   4   7    0.51    0.31
  -5   4   7   -0.44    0.34
  -5   4   7    0.17    0.31
  -5   4   7    0.10    0.26
  -5   4   7   -0.34    0.27
   5   4  -7    0.18    0.26
  -5   4   7    0.19    0.26
   4  -4  -7   -0.27    0.41
  -4  -4   7   -0.37    0.34
   4   4  -7    0.14    0.31
   4   4  -7    0.08    0.33
   4   4  -7    0.10    0.27
  -4   4   7    0.17    0.27
  -4   4   7    0.29    0.33
  -4   4   7    0.15    0.32
  -4   4   7   -0.05    0.37
   4   4  -7   -0.03    0.26
  -4   4   7    0.14    0.24
  -4   4   7   -0.36    0.31
   4   4  -7    0.17    0.29
  -4   4   7   -0.15    0.29
   3  -4  -7    6.47    0.50
  -3  -4   7    6.07    0.46
   3  -4  -7    6.66    0.54
  -3  -4   7    8.05    0.51
   3   4  -7    7.44    0.56
  -3   4   7    7.10    0.46
   3   4  -7    6.93    0.70
   3   4  -7    7.40    0.52
   3   4  -7    7.03    0.51
  -3   4   7    7.20    0.52
  -3   4   7    7.19    0.44
  -3   4   7    5.68    0.59
  -3   4   7    7.52    0.55
   3   4  -7    7.36    0.43
   3   4  -7    6.87    0.50
  -3   4   7    7.27    0.46
   3   4  -7    6.80    0.49
  -3   4   7    7.32    0.51
  -3   4   7    7.37    0.57
  -2  -4   7   20.79    0.75
   2  -4  -7   19.75    0.89
  -2  -4   7   19.65    0.88
  -2  -4   7   19.66    0.86
   2   4  -7   20.85    0.90
  -2   4   7   20.49    0.76
   2   4  -7   20.61    0.78
   2   4  -7   21.43    0.76
  -2   4   7   20.78    0.83
  -2   4   7   20.94    0.81
   2   4  -7   20.95    0.81
  -2   4   7   17.61    1.03
   2   4  -7   20.14    0.71
   2   4  -7   20.91    0.84
  -2   4   7   20.04    0.79
  -2   4   7   21.16    0.89
  -2   4   7   21.01    0.70
  -2   4   7   19.50    0.81
   2   4  -7   20.26    1.13
  -2   4   7   18.62    0.98
  -1  -4   7   -0.18    0.25
  -1  -4   7   -0.41    0.35
  -1  -4   7    0.28    0.34
  -1   4   7   -0.18    0.34
  -1   4   7    0.31    0.28
   1   4  -7   -0.13    0.23
   1   4  -7    1.29    0.41
  -1   4   7    0.26    0.35
  -1   4   7   -0.04    0.30
   1   4  -7   -0.13    0.31
   1   4  -7    0.12    0.51
   1   4  -7    0.36    0.29
   1   4  -7    0.27    0.30
  -1   4   7    0.45    0.44
  -1   4   7    0.46    0.25
  -1   4   7   -0.07    0.30
   1   4  -7    0.61    0.29
  -1   4   7    0.39    0.29
   0  -4   7    2.83    0.32
   0  -4   7    3.07    0.32
   0  -4   7    2.62    0.38
   0  -4   7    3.59    0.42
   0   4  -7    4.13    0.46
   0   4  -7    2.45    0.35
   0   4   7    2.69    0.30
   0   4   7    3.03    0.33
   0   4  -7    3.00    0.33
   0   4  -7    2.80    0.34
   0   4   7    2.78    0.34
   0   4   7    2.99    0.34
   0   4   7    2.13    0.38
   0   4  -7    3.30    0.35
   0   4   7    3.00    0.49
   0   4   7    2.24    0.37
   0   4  -7    3.31    0.28
   1  -4   7    0.17    0.31
   1  -4   7   -0.31    0.25
   1  -4   7   -0.02    0.25
   1   4   7   -0.68    0.38
   1   4   7   -0.17    0.24
   1   4   7    0.22    0.28
   1   4   7   -0.16    0.31
  -1   4  -7    0.07    0.39
  -1   4  -7   -0.03    0.27
  -1   4  -7   -0.13    0.27
  -1   4  -7    0.33    0.31
  -1   4  -7    0.25    0.23
  -2   4  -7   -0.07    0.22
   2   4   7   -0.22    0.25
  -2   4  -7   -0.23    0.26
  -2   4  -7    0.18    0.27
   3   4   7    0.82    0.24
  -3   4  -7    0.61    0.26
  -3   4  -7    0.90    0.26
  -4   4  -7    2.82    0.27
  -4   4  -7    3.33    0.30
   4   4   7    3.24    0.26
  -5   4  -7    0.06    0.21
   3  -5  -7    3.17    0.31
  -3  -5   7    2.95    0.26
  -3   5   7    3.03    0.23
  -3   5   7    2.73    0.25
   3   5  -7    3.35    0.24
  -2  -5   7    0.58    0.23
  -2   5   7    0.88    0.21
   2   5  -7    0.80    0.22
  -2   5   7    0.93    0.22
  -1  -5   7   -0.25    0.21
  -1   5   7   -0.09    0.20
   1   5  -7    0.11    0.16
   1   5  -7    0.07    0.21
   0  -5   7    0.04    0.18
   0   5  -7    0.14    0.15
   0   5  -7    0.04    0.21
   0   5   7    0.17    0.19
  -1   5  -7    0.17    0.19
   1   5   7    0.18    0.18
  11   0  -8   -0.15    0.21
  11   0  -8   -0.07    0.19
 -11   0   8    0.05    0.21
 -11   0   8    0.01    0.19
  11   0  -8    0.07    0.25
 -11   0   8    0.18    0.18
 -10   0   8    0.23    0.25
 -10   0   8    0.65    0.26
  10   0  -8    0.27    0.30
  10   0  -8    0.72    0.29
  10   0  -8    0.40    0.24
   9   0  -8   -0.23    0.29
   9   0  -8    0.10    0.37
   9   0  -8    0.07    0.28
  -9   0   8   -0.09    0.24
  -9   0   8   -0.38    0.34
  -9   0   8   -0.27    0.23
  -9   0   8   -0.08    0.26
   9   0  -8    0.12    0.24
   9   0  -8   -0.07    0.29
  -8   0   8   13.50    0.60
   8   0  -8   12.89    0.62
   8   0  -8   14.72    0.79
   8   0  -8   12.85    0.70
   8   0  -8   14.25    0.68
   8   0  -8   14.25    0.60
  -8   0   8   13.52    0.83
  -8   0   8   12.83    0.60
   7   0  -8   -0.06    0.28
   7   0  -8   -0.36    0.37
   7   0  -8   -0.11    0.29
   7   0  -8    0.14    0.23
  -7   0   8    0.20    0.25
   7   0  -8   -0.14    0.25
   7   0  -8    0.06    0.29
  -7   0   8   -0.19    0.24
  -7   0   8   -0.39    0.32
   7   0  -8   -0.06    0.31
   6   0  -8    6.28    0.43
  -6   0   8    6.48    0.47
   6   0  -8    6.94    0.40
   6   0  -8    5.88    0.44
   6   0  -8    6.10    0.47
  -6   0   8    6.55    0.40
   6   0  -8    6.82    0.47
   6   0  -8    6.99    0.52
  -6   0   8    6.74    0.58
   5   0  -8   -0.40    0.27
   5   0  -8    0.04    0.23
  -5   0   8    0.21    0.28
   5   0  -8    0.08    0.31
   5   0  -8   -0.01    0.24
   5   0  -8    0.45    0.27
  -5   0   8    0.11    0.18
  -5   0   8   -0.29    0.22
   5   0  -8   -0.13    0.27
  -5   0   8   -0.04    0.19
  -5   0   8   -0.02    0.22
  -4   0   8   12.13    0.51
  -4   0   8   13.05    0.53
   4   0  -8   12.40    0.59
   4   0  -8   12.73    0.67
   4   0  -8   13.46    0.53
  -4   0   8   12.53    0.48
   4   0  -8   11.96    0.68
  -4   0   8   13.03    0.69
  -4   0   8   13.26    0.50
   4   0  -8   13.15    0.59
   4   0  -8   12.68    0.61
   3   0  -8   -0.27    0.23
   3   0  -8   -0.24    0.18
  -3   0   8   -0.14    0.18
   3   0  -8   -0.16    0.19
  -3   0   8   -0.16    0.27
   3   0  -8    0.06    0.22
  -3   0   8    0.02    0.15
   3   0  -8   -0.03    0.30
   3   0  -8    0.11    0.28
  -3   0   8    0.06    0.14
  -3   0   8    0.08    0.18
  -3   0   8   -0.43    0.20
   3   0  -8   -0.17    0.22
   2   0  -8  294.65    7.62
  -2   0   8  284.01    8.65
  -2   0   8  301.37    7.69
  -2   0   8  305.59    7.86
  -2   0   8  300.21   10.30
   2   0  -8  296.36    8.49
   2   0  -8  290.09    8.34
   2   0  -8  305.82    7.85
   2   0  -8  295.59   10.17
   2   0  -8  288.10    8.51
  -2   0   8  302.64    8.01
   2   0  -8  308.78    7.74
  -2   0   8  303.53    8.58
  -1   0   8    0.01    0.21
   1   0  -8    0.37    0.26
  -1   0   8    0.07    0.17
   1   0  -8   -0.25    0.17
  -1   0   8   -0.24    0.19
   1   0  -8    0.24    0.26
   1   0  -8   -0.16    0.19
   1   0  -8   -0.09    0.25
  -1   0   8   -0.14    0.15
   0   0  -8    0.11    0.23
   0   0   8   -0.11    0.23
   0   0   8    0.16    0.16
   0   0   8    0.40    0.18
   0   0   8    0.33    0.20
   0   0  -8    0.19    0.25
   0   0   8    0.43    0.19
   1   0   8    0.13    0.19
   1   0   8    0.11    0.17
   1   0   8    0.12    0.24
  -1   0  -8    0.21    0.24
   1   0   8    0.09    0.20
   1   0   8   -0.01    0.20
   2   0   8   48.64    1.40
   2   0   8   48.18    1.88
  -2   0  -8   50.71    1.55
  -2   0  -8   48.06    1.38
   2   0   8   45.03    1.33
  -2   0  -8   48.14    1.44
   2   0   8   46.23    1.36
   2   0   8   46.33    1.50
   3   0   8    0.06    0.32
   3   0   8   -0.04    0.24
  -3   0  -8   -0.26    0.30
   3   0   8   -0.22    0.24
  -3   0  -8    0.06    0.35
   3   0   8    0.21    0.21
  -3   0  -8   -0.06    0.31
  -4   0  -8    1.02    0.39
   4   0   8    1.83    0.25
   4   0   8    2.47    0.31
   4   0   8    2.02    0.26
   4   0   8    1.74    0.25
   4   0   8    1.44    0.30
  -4   0  -8    2.19    0.45
   4   0   8    2.48    0.45
   4   0   8    1.73    0.36
  -4   0  -8    1.75    0.38
   5   0   8    0.04    0.21
   5   0   8   -0.23    0.30
  -5   0  -8    0.15    0.43
  -5   0  -8    0.03    0.36
   5   0   8    0.32    0.33
   5   0   8    0.06    0.41
  -5   0  -8   -0.60    0.39
   5   0   8    0.10    0.23
  -6   0  -8    4.48    0.56
   6   0   8    4.48    0.35
   6   0   8    4.49    0.32
   6   0   8    5.72    0.47
  -6   0  -8    4.50    0.46
  -6   0  -8    5.40    0.55
   6   0   8    4.31    0.42
   7   0   8   -0.08    0.33
   7   0   8   -0.17    0.21
   7   0   8    0.04    0.23
  -8   0  -8   33.99    1.05
   8   0   8   32.59    0.97
   8   0   8   32.87    1.13
   8   0   8   32.74    1.05
  11  -1  -8    2.11    0.24
  11  -1  -8    2.00    0.23
 -11  -1   8    2.16    0.24
 -11  -1   8    1.81    0.20
  11   1  -8    1.68    0.23
  11   1  -8    2.07    0.23
 -11   1   8    2.20    0.23
 -11   1   8    1.79    0.20
 -10  -1   8    0.40    0.24
  10  -1  -8    0.37    0.27
  10  -1  -8    0.37    0.25
  10   1  -8    0.73    0.25
 -10   1   8    1.00    0.24
  10   1  -8    0.30    0.28
  10   1  -8    0.64    0.26
 -10   1   8    0.59    0.23
   9  -1  -8    1.37    0.32
  -9  -1   8    0.04    0.32
  -9  -1   8    0.81    0.28
   9  -1  -8    1.13    0.33
   9  -1  -8    0.64    0.30
   9  -1  -8    0.70    0.31
  -9  -1   8    0.12    0.26
   9   1  -8    1.05    0.30
   9   1  -8    0.66    0.30
   9   1  -8    1.29    0.44
  -9   1   8    1.12    0.28
   9   1  -8    0.79    0.27
   9   1  -8    0.83    0.33
  -9   1   8    0.84    0.36
   9   1  -8    0.85    0.24
  -9   1   8    0.91    0.24
   8  -1  -8   33.01    1.02
  -8  -1   8   29.37    0.94
   8  -1  -8   29.25    1.11
   8  -1  -8   29.77    1.10
  -8  -1   8   31.18    1.29
   8  -1  -8   29.79    1.07
  -8  -1   8   30.92    1.01
  -8   1   8   30.21    1.00
  -8   1   8   28.09    1.31
  -8   1   8   28.61    0.93
   8   1  -8   29.81    1.05
   8   1  -8   29.88    1.05
  -8   1   8   29.85    0.95
   8   1  -8   29.90    1.18
   8   1  -8   29.72    1.02
   8   1  -8   30.08    1.02
   8   1  -8   29.76    0.98
  -7  -1   8    4.61    0.36
   7  -1  -8    5.32    0.43
  -7  -1   8    5.78    0.49
   7  -1  -8    4.72    0.38
   7  -1  -8    4.95    0.42
   7  -1  -8    5.42    0.43
   7  -1  -8    5.46    0.47
  -7  -1   8    5.06    0.35
  -7   1   8    5.80    0.40
   7   1  -8    5.90    0.53
  -7   1   8    4.23    0.31
   7   1  -8    5.70    0.40
  -7   1   8    5.71    0.35
   7   1  -8    5.62    0.39
  -7   1   8    5.61    0.33
   7   1  -8    5.02    0.40
   7   1  -8    5.53    0.39
   7   1  -8    4.74    0.33
  -7   1   8    5.75    0.50
   6  -1  -8   -0.25    0.30
  -6  -1   8    0.07    0.27
   6  -1  -8    0.28    0.28
   6  -1  -8   -0.19    0.29
  -6  -1   8    0.14    0.31
   6  -1  -8    0.09    0.30
  -6  -1   8    0.10    0.23
  -6  -1   8   -0.05    0.32
   6   1  -8    0.40    0.35
   6   1  -8   -0.11    0.26
   6   1  -8    0.18    0.40
   6   1  -8   -0.14    0.22
   6   1  -8    0.03    0.25
  -6   1   8   -0.32    0.23
  -6   1   8    0.46    0.31
   6   1  -8    0.13    0.24
  -6   1   8    0.38    0.29
   5  -1  -8   -0.06    0.27
   5  -1  -8   -0.19    0.25
  -5  -1   8   -0.02    0.21
  -5  -1   8    0.15    0.21
  -5  -1   8    0.31    0.29
   5  -1  -8    0.26    0.26
   5  -1  -8   -0.40    0.32
  -5  -1   8    0.20    0.29
   5  -1  -8    0.08    0.29
   5  -1  -8   -0.32    0.29
  -5   1   8   -0.04    0.27
   5   1  -8    0.05    0.40
   5   1  -8    0.12    0.21
   5   1  -8    0.30    0.26
   5   1  -8   -0.17    0.36
   5   1  -8    0.32    0.24
  -5   1   8   -0.08    0.22
  -5   1   8   -0.02    0.25
   5   1  -8   -0.40    0.21
   5   1  -8    0.40    0.33
  -4  -1   8    0.28    0.21
   4  -1  -8    0.19    0.32
   4  -1  -8    0.24    0.24
   4  -1  -8   -0.02    0.27
   4  -1  -8    0.33    0.21
   4  -1  -8    0.02    0.28
  -4  -1   8   -0.02    0.26
  -4  -1   8   -0.09    0.19
   4  -1  -8    0.07    0.28
  -4  -1   8    0.17    0.28
  -4   1   8    0.02    0.20
   4   1  -8    0.23    0.30
  -4   1   8   -0.21    0.22
   4   1  -8    0.74    0.33
   4   1  -8    0.21    0.19
  -4   1   8    0.15    0.26
   4   1  -8    0.33    0.33
  -4   1   8    0.56    0.19
  -4   1   8   -0.16    0.26
   4   1  -8    0.18    0.23
  -3  -1   8    2.60    0.26
  -3  -1   8    2.46    0.22
   3  -1  -8    2.17    0.25
   3  -1  -8    2.42    0.33
  -3  -1   8    2.43    0.24
  -3  -1   8    2.70    0.35
  -3  -1   8    1.93    0.22
  -3  -1   8    2.61    0.31
   3  -1  -8    2.49    0.34
   3  -1  -8    2.44    0.25
   3  -1  -8    2.79    0.31
   3   1  -8    1.93    0.33
  -3   1   8    2.52    0.31
   3   1  -8    2.15    0.23
   3   1  -8    2.22    0.35
  -3   1   8    2.32    0.28
  -3   1   8    2.38    0.21
   3   1  -8    2.25    0.34
  -3   1   8    2.16    0.33
  -3   1   8    2.43    0.24
  -2  -1   8    1.25    0.27
  -2  -1   8    2.00    0.33
  -2  -1   8    1.65    0.25
   2  -1  -8    1.94    0.31
   2  -1  -8    1.69    0.33
  -2  -1   8    1.81    0.22
   2  -1  -8    1.79    0.26
  -2  -1   8    1.49    0.21
  -2  -1   8    1.71    0.22
  -2   1   8    1.80    0.20
  -2   1   8    2.05    0.28
  -2   1   8    1.71    0.32
   2   1  -8    2.00    0.34
  -2   1   8    1.89    0.22
   2   1  -8    2.15    0.24
  -2   1   8    2.22    0.27
   2   1  -8    1.86    0.32
   2   1  -8    1.38    0.25
   1  -1  -8    7.26    0.46
  -1  -1   8    8.21    0.41
  -1  -1   8    8.50    0.42
   1  -1  -8    9.27    0.55
  -1  -1   8    8.56    0.46
  -1  -1   8    8.40    0.39
   1  -1  -8    8.53    0.59
  -1  -1   8    7.92    0.37
  -1   1   8    8.56    0.39
  -1   1   8    8.28    0.38
  -1   1   8    8.63    0.40
   1   1  -8    8.56    0.40
   1   1  -8    8.44    0.53
  -1   1   8    8.07    0.47
   1   1  -8    7.83    0.54
  -1   1   8    8.09    0.55
   1   1  -8    7.04    0.45
   0  -1   8    3.29    0.28
   0  -1  -8    2.84    0.31
   0  -1  -8    2.94    0.27
   0  -1   8    2.62    0.23
   0  -1   8    3.30    0.22
   0  -1   8    3.48    0.27
   0  -1  -8    2.87    0.34
   0  -1   8    2.51    0.23
   0   1   8    3.24    0.36
   0   1  -8    2.63    0.25
   0   1   8    2.97    0.20
   0   1   8    2.33    0.28
   0   1   8    2.81    0.21
   0   1  -8    2.38    0.30
   0   1   8    2.82    0.23
   0   1  -8    2.74    0.32
   0   1   8    2.59    0.26
   0   1  -8    2.43    0.30
   1  -1   8    3.16    0.23
   1  -1   8    3.06    0.29
   1  -1   8    2.94    0.25
  -1  -1  -8    3.23    0.36
  -1  -1  -8    3.16    0.28
   1  -1   8    2.85    0.26
   1  -1   8    3.00    0.26
   1  -1   8    2.94    0.34
   1   1   8    3.81    0.39
  -1   1  -8    2.24    0.34
   1   1   8    3.71    0.22
   1   1   8    3.16    0.26
   1   1   8    3.12    0.28
  -1   1  -8    3.18    0.32
   1   1   8    3.48    0.21
   1   1   8    3.34    0.34
  -1   1  -8    3.21    0.26
  -1   1  -8    3.28    0.32
  -2  -1  -8    0.28    0.25
  -2  -1  -8    0.76    0.26
   2  -1   8    0.45    0.24
   2  -1   8    0.14    0.23
   2  -1   8    0.40    0.22
   2  -1   8    0.08    0.29
  -2   1  -8    0.31    0.36
   2   1   8    0.49    0.22
   2   1   8    0.46    0.22
  -2   1  -8    0.74    0.32
  -2   1  -8    0.15    0.32
   2   1   8    0.36    0.30
   2   1   8    0.17    0.29
   2   1   8    0.35    0.23
  -3  -1  -8   -0.07    0.31
  -3  -1  -8   -0.20    0.26
   3  -1   8    0.13    0.23
   3  -1   8    0.05    0.26
   3  -1   8   -0.01    0.27
  -3   1  -8   -0.48    0.38
   3   1   8    0.20    0.33
  -3   1  -8   -0.36    0.36
  -3   1  -8   -0.43    0.36
   3   1   8    0.05    0.23
   3   1   8    0.18    0.22
   4  -1   8    5.34    0.34
   4  -1   8    4.52    0.31
   4  -1   8    4.38    0.39
   4  -1   8    3.96    0.38
  -4  -1  -8    4.88    0.38
   4  -1   8    5.15    0.43
  -4   1  -8    4.78    0.36
  -4   1  -8    4.55    0.52
   4   1   8    4.54    0.34
  -4   1  -8    4.79    0.53
   4   1   8    5.10    0.39
   4   1   8    5.31    0.42
   4   1   8    4.94    0.51
   4   1   8    5.51    0.33
  -4   1  -8    3.56    0.45
   5  -1   8    1.34    0.35
  -5  -1  -8    0.62    0.42
   5  -1   8    1.42    0.35
   5  -1   8    1.45    0.24
   5  -1   8    0.92    0.26
   5  -1   8    1.27    0.33
  -5   1  -8    1.13    0.50
  -5   1  -8    1.02    0.45
   5   1   8    1.79    0.42
  -5   1  -8    1.05    0.41
   5   1   8    1.69    0.28
  -5   1  -8    1.89    0.42
  -5   1  -8    1.99    0.32
   5   1   8    1.93    0.26
   5   1   8    1.09    0.32
   5   1   8    1.21    0.26
  -5   1  -8    1.42    0.41
   6  -1   8    0.73    0.36
  -6  -1  -8   -0.17    0.41
   6  -1   8    0.37    0.23
   6  -1   8    0.16    0.21
   6  -1   8   -0.44    0.33
   6  -1   8   -0.37    0.31
  -6   1  -8   -0.66    0.40
   6   1   8    0.09    0.37
  -6   1  -8    0.39    0.29
   6   1   8    0.18    0.21
  -6   1  -8    0.32    0.43
   6   1   8    0.20    0.23
   6   1   8   -0.01    0.29
  -6   1  -8    0.13    0.36
  -6   1  -8    0.37    0.40
   6   1   8    0.53    0.26
  -6   1  -8   -0.26    0.49
   7  -1   8    2.57    0.26
   7  -1   8    3.32    0.39
   7  -1   8    2.43    0.26
  -7   1  -8    3.23    0.33
   7   1   8    2.88    0.24
   7   1   8    2.13    0.25
  -8  -1  -8   19.25    0.65
   8  -1   8   17.84    0.61
   8  -1   8   18.74    0.64
   8  -1   8   18.75    0.75
  -8   1  -8   18.88    0.66
   8   1   8   18.23    0.67
  11  -2  -8    0.31    0.25
 -11  -2   8   -0.16    0.15
  10  -2  -8    0.06    0.20
 -10  -2   8   -0.10    0.20
  10  -2  -8   -0.14    0.27
  10  -2  -8    0.25    0.24
 -10   2   8    0.26    0.19
  10   2  -8    0.26    0.24
  10   2  -8    0.19    0.20
 -10   2   8    0.14    0.21
  -9  -2   8    1.11    0.27
   9  -2  -8    1.26    0.33
   9  -2  -8    0.96    0.26
  -9   2   8    0.90    0.28
   9   2  -8    0.42    0.25
   9   2  -8    1.15    0.29
   9   2  -8    0.87    0.27
   9   2  -8    0.95    0.25
  -9   2   8    0.67    0.22
   8  -2  -8    8.81    0.65
  -8  -2   8    9.36    0.58
  -8  -2   8   11.72    0.88
   8  -2  -8    8.98    0.60
   8  -2  -8    9.05    0.55
   8   2  -8    9.06    0.58
  -8   2   8    9.11    0.56
  -8   2   8    8.56    0.47
   8   2  -8    9.57    0.51
   8   2  -8    9.65    0.54
  -8   2   8    9.14    0.56
   8   2  -8    8.28    0.59
   8   2  -8   10.09    0.62
   7  -2  -8    0.48    0.34
   7  -2  -8    0.51    0.35
   7  -2  -8   -0.56    0.37
  -7  -2   8   -0.08    0.25
  -7  -2   8    0.02    0.41
  -7  -2   8    0.02    0.26
   7  -2  -8    0.16    0.30
  -7  -2   8    0.00    0.28
   7  -2  -8   -0.22    0.34
  -7   2   8    0.13    0.21
   7   2  -8    0.04    0.24
   7   2  -8   -0.21    0.24
   7   2  -8    0.34    0.45
   7   2  -8   -0.13    0.30
  -7   2   8   -0.25    0.27
  -7   2   8    0.10    0.31
   7   2  -8   -0.06    0.27
   7   2  -8    0.35    0.30
   6  -2  -8    0.81    0.39
  -6  -2   8    0.83    0.38
   6  -2  -8    1.02    0.30
   6  -2  -8    1.08    0.37
  -6  -2   8    0.78    0.29
   6  -2  -8    1.49    0.38
   6  -2  -8    1.04    0.34
  -6  -2   8    0.73    0.27
   6  -2  -8    0.98    0.38
  -6   2   8    0.00    0.44
  -6   2   8    0.37    0.27
  -6   2   8    0.94    0.33
   6   2  -8    0.17    0.46
   6   2  -8    0.45    0.30
  -6   2   8    0.90    0.23
   6   2  -8    0.68    0.24
   6   2  -8    0.86    0.27
   6   2  -8    0.68    0.25
   6   2  -8    1.41    0.45
  -6   2   8    0.96    0.27
   6   2  -8    1.18    0.39
   6   2  -8    0.99    0.28
   6   2  -8    1.67    0.45
   5  -2  -8    1.49    0.31
  -5  -2   8    1.78    0.29
  -5  -2   8    1.44    0.28
   5  -2  -8    1.76    0.35
   5  -2  -8    1.38    0.39
   5  -2  -8    1.95    0.37
  -5  -2   8    0.96    0.36
   5  -2  -8    1.78    0.39
  -5   2   8    1.45    0.26
  -5   2   8    1.81    0.31
  -5   2   8    1.71    0.46
  -5   2   8    1.45    0.26
  -5   2   8    1.40    0.26
   5   2  -8    1.54    0.31
   5   2  -8    1.11    0.47
   5   2  -8    1.09    0.24
   5   2  -8    1.50    0.41
   5   2  -8    1.73    0.24
  -5   2   8    1.68    0.25
  -5   2   8    1.45    0.32
   5   2  -8    1.69    0.27
   5   2  -8    1.74    0.25
   5   2  -8    1.69    0.26
  -5   2   8    1.46    0.33
   5   2  -8    1.82    0.47
   5   2  -8    1.96    0.44
   5   2  -8    1.40    0.27
   4  -2  -8   -0.27    0.34
  -4  -2   8    0.12    0.25
  -4  -2   8   -0.34    0.32
   4  -2  -8   -0.15    0.27
  -4  -2   8   -0.19    0.23
   4   2  -8   -0.43    0.45
  -4   2   8    0.05    0.29
  -4   2   8    0.00    0.28
   4   2  -8   -0.06    0.23
  -4   2   8   -0.11    0.36
   4   2  -8   -0.10    0.35
  -4   2   8   -0.07    0.27
  -4   2   8   -0.16    0.22
   4   2  -8    0.14    0.20
   4   2  -8    0.05    0.40
  -4   2   8    0.12    0.28
   4   2  -8   -0.11    0.25
   4   2  -8   -0.06    0.25
   4   2  -8   -0.04    0.28
  -4   2   8    0.07    0.23
   4   2  -8   -0.12    0.41
   3  -2  -8    1.92    0.27
  -3  -2   8    1.34    0.34
  -3  -2   8    1.75    0.28
  -3  -2   8    1.04    0.24
   3  -2  -8    1.72    0.35
   3  -2  -8    1.66    0.32
  -3  -2   8    1.62    0.23
  -3   2   8    1.84    0.36
   3   2  -8    1.68    0.30
   3   2  -8    1.56    0.43
   3   2  -8    1.33    0.51
   3   2  -8    2.07    0.27
   3   2  -8    1.34    0.23
  -3   2   8    1.35    0.30
   3   2  -8    1.74    0.25
   3   2  -8    1.57    0.38
  -3   2   8    1.01    0.39
  -3   2   8    1.69    0.29
  -3   2   8    1.72    0.29
  -3   2   8    1.42    0.24
  -3   2   8    1.68    0.24
   3   2  -8    1.32    0.28
   2  -2  -8    1.82    0.34
   2  -2  -8    1.71    0.31
  -2  -2   8    1.20    0.23
  -2  -2   8    1.59    0.26
   2   2  -8    1.73    0.25
  -2   2   8    1.91    0.23
   2   2  -8    1.88    0.29
  -2   2   8    2.03    0.41
   2   2  -8    1.72    0.26
   2   2  -8    1.57    0.29
  -2   2   8    1.20    0.25
  -2   2   8    2.24    0.39
   2   2  -8    1.54    0.22
  -2   2   8    2.05    0.30
  -2   2   8    1.88    0.31
  -2   2   8    1.83    0.23
   2   2  -8    1.76    0.52
   2   2  -8    1.96    0.37
   1  -2  -8    0.41    0.27
  -1  -2   8   -0.19    0.23
   1  -2  -8   -0.03    0.28
  -1  -2   8    0.16    0.20
  -1  -2   8    0.31    0.22
   1  -2  -8    0.18    0.30
  -1   2   8    0.03    0.35
   1   2  -8   -0.10    0.22
   1   2  -8    0.48    0.36
  -1   2   8    0.24    0.20
  -1   2   8    0.16    0.25
   1   2  -8    0.28    0.22
  -1   2   8   -0.08    0.15
  -1   2   8    0.12    0.21
  -1   2   8    0.08    0.17
   1   2  -8   -0.23    0.26
   1   2  -8    0.86    0.49
   1   2  -8    0.07    0.29
  -1   2   8    0.04    0.35
  -1   2   8    0.28    0.28
   0  -2   8    4.81    0.32
   0  -2  -8    4.25    0.43
   0  -2  -8    4.85    0.44
   0  -2   8    4.55    0.34
   0  -2   8    4.56    0.36
   0   2   8    5.26    0.34
   0   2   8    6.26    0.49
   0   2   8    4.35    0.33
   0   2  -8    5.69    0.34
   0   2  -8    6.06    0.61
   0   2   8    5.31    0.32
   0   2  -8    5.01    0.38
   0   2  -8    3.51    0.38
   0   2  -8    5.02    0.34
   0   2   8    5.22    0.50
   0   2  -8    5.15    0.41
   1  -2   8    0.24    0.22
   1  -2   8    0.27    0.27
  -1  -2  -8   -0.15    0.29
   1  -2   8   -0.22    0.25
  -1  -2  -8    0.34    0.24
   1   2   8    0.27    0.22
   1   2   8   -0.16    0.33
  -1   2  -8   -0.06    0.29
  -1   2  -8    0.42    0.30
  -1   2  -8   -0.11    0.30
   1   2   8   -0.04    0.32
   1   2   8    0.08    0.30
   1   2   8    0.06    0.20
  -1   2  -8   -0.29    0.25
   1   2   8    0.09    0.24
   2  -2   8    2.31    0.28
  -2  -2  -8    2.24    0.40
   2  -2   8    2.66    0.35
   2  -2   8    1.52    0.29
  -2   2  -8    2.32    0.32
   2   2   8    2.46    0.30
   2   2   8    3.30    0.42
   2   2   8    2.56    0.29
   2   2   8    2.97    0.42
   2   2   8    3.00    0.41
  -2   2  -8    2.02    0.26
  -2   2  -8    2.72    0.41
  -2   2  -8    2.55    0.39
   3  -2   8    0.61    0.31
   3  -2   8   -0.24    0.24
   3  -2   8   -0.37    0.23
  -3  -2  -8   -0.51    0.27
  -3   2  -8   -0.03    0.36
  -3   2  -8   -0.43    0.39
   3   2   8    0.29    0.34
  -3   2  -8    0.73    0.36
  -3   2  -8    0.03    0.22
   3   2   8   -0.04    0.36
   3   2   8   -0.16    0.24
   4  -2   8    0.77    0.38
   4  -2   8    1.17    0.27
   4  -2   8    1.67    0.28
   4  -2   8    1.27    0.34
   4   2   8    1.36    0.28
  -4   2  -8    1.09    0.25
   4   2   8    1.28    0.41
  -4   2  -8    0.78    0.40
  -4   2  -8    0.84    0.39
  -4   2  -8    0.82    0.44
   4   2   8    1.26    0.40
   5  -2   8   -0.16    0.23
   5  -2   8    0.21    0.33
  -5  -2  -8    0.02    0.37
   5  -2   8    0.01    0.35
  -5   2  -8   -0.13    0.23
   5   2   8    0.28    0.34
  -5   2  -8    0.24    0.37
  -5   2  -8    0.13    0.38
   5   2   8   -0.19    0.25
  -5   2  -8   -0.28    0.40
   6  -2   8    0.60    0.34
   6  -2   8    0.82    0.24
   6   2   8    1.18    0.27
  -6   2  -8    1.00    0.24
   7  -2   8   -0.23    0.29
   7  -2   8    0.06    0.19
  -7   2  -8    0.31    0.20
   7   2   8   -0.02    0.22
   8  -2   8    0.71    0.15
   8  -2   8    0.98    0.23
   9  -3  -8    0.07    0.23
  -9  -3   8    0.05    0.20
  -9   3   8    0.19    0.23
  -9   3   8   -0.04    0.14
  -9   3   8   -0.10    0.21
   9   3  -8   -0.04    0.19
   8  -3  -8    4.93    0.42
  -8  -3   8    4.78    0.38
   8  -3  -8    4.92    0.40
   8   3  -8    4.84    0.36
  -8   3   8    5.41    0.37
   8   3  -8    4.64    0.32
  -8   3   8    4.77    0.33
  -8   3   8    4.66    0.37
   8   3  -8    5.48    0.37
   7  -3  -8    3.62    0.43
   7  -3  -8    3.72    0.44
  -7  -3   8    3.58    0.33
   7   3  -8    3.91    0.38
  -7   3   8    3.11    0.30
  -7   3   8    3.53    0.33
   7   3  -8    3.98    0.36
   7   3  -8    3.55    0.31
   7   3  -8    4.08    0.34
  -7   3   8    3.67    0.38
  -7   3   8    3.91    0.37
   6  -3  -8    3.52    0.45
   6  -3  -8    2.84    0.41
   6  -3  -8    2.62    0.45
   6  -3  -8    3.89    0.39
  -6  -3   8    3.71    0.32
   6  -3  -8    2.81    0.42
  -6  -3   8    3.72    0.50
  -6   3   8    3.07    0.33
  -6   3   8    3.64    0.37
   6   3  -8    3.11    0.51
  -6   3   8    3.90    0.39
   6   3  -8    3.94    0.36
  -6   3   8    2.36    0.38
  -6   3   8    3.93    0.39
   6   3  -8    3.08    0.40
  -6   3   8    2.54    0.49
   6   3  -8    3.61    0.32
   6   3  -8    3.82    0.32
   6   3  -8    3.75    0.52
  -6   3   8    4.04    0.33
  -6   3   8    3.12    0.34
  -6   3   8    3.83    0.39
   6   3  -8    3.80    0.35
   5  -3  -8    1.12    0.41
  -5  -3   8    1.02    0.41
   5  -3  -8    1.11    0.41
  -5  -3   8    0.98    0.34
   5  -3  -8    1.08    0.42
   5  -3  -8    0.65    0.33
  -5  -3   8    1.36    0.27
  -5   3   8    1.21    0.33
  -5   3   8    0.47    0.36
  -5   3   8    0.78    0.28
  -5   3   8    0.51    0.29
  -5   3   8    0.47    0.32
   5   3  -8    0.66    0.50
   5   3  -8    1.07    0.26
   5   3  -8    0.79    0.29
  -5   3   8    0.72    0.33
   5   3  -8    1.08    0.30
  -5   3   8    0.91    0.32
   5   3  -8    0.37    0.50
  -5   3   8    0.54    0.31
   5   3  -8    0.76    0.33
  -5   3   8    0.63    0.27
   5   3  -8    0.14    0.23
  -5   3   8    0.92    0.45
  -4  -3   8    0.86    0.40
  -4  -3   8    0.92    0.27
  -4  -3   8    0.84    0.28
   4  -3  -8    0.88    0.41
  -4  -3   8    1.25    0.36
   4  -3  -8    1.39    0.36
   4  -3  -8    1.63    0.42
  -4   3   8    1.35    0.31
  -4   3   8    0.86    0.26
  -4   3   8    0.77    0.32
  -4   3   8    1.35    0.28
   4   3  -8    0.81    0.31
   4   3  -8    1.31    0.31
   4   3  -8    0.57    0.26
  -4   3   8    0.84    0.31
  -4   3   8    0.87    0.29
   4   3  -8    0.97    0.22
  -4   3   8    1.16    0.34
   4   3  -8    0.78    0.55
  -4   3   8    0.79    0.46
   4   3  -8    1.05    0.24
   4   3  -8    0.78    0.30
  -4   3   8    1.15    0.38
   4   3  -8    0.88    0.34
  -4   3   8    1.27    0.27
   3  -3  -8   23.01    0.94
  -3  -3   8   22.91    0.79
   3  -3  -8   22.72    0.92
   3  -3  -8   22.45    0.97
  -3  -3   8   25.10    0.91
  -3  -3   8   23.55    0.81
   3   3  -8   22.23    0.82
   3   3  -8   21.86    0.87
   3   3  -8   24.92    0.92
  -3   3   8   21.71    0.88
   3   3  -8   21.30    0.80
  -3   3   8   22.30    0.83
  -3   3   8   22.83    0.88
  -3   3   8   22.26    1.16
  -3   3   8   22.28    1.08
  -3   3   8   23.05    0.77
   3   3  -8   22.58    0.74
   3   3  -8   21.90    0.83
   3   3  -8   23.59    1.25
  -3   3   8   23.90    0.92
  -3   3   8   22.57    0.81
  -3   3   8   21.75    0.89
   3   3  -8   22.49    0.80
  -3   3   8   22.39    0.84
  -3   3   8   22.00    0.85
   2  -3  -8   86.19    2.53
  -2  -3   8   83.45    2.27
  -2  -3   8   82.06    2.46
  -2  -3   8   84.14    2.34
  -2  -3   8   83.39    2.57
   2   3  -8   81.56    2.35
  -2   3   8   84.18    2.54
  -2   3   8   81.97    3.20
  -2   3   8   84.81    2.99
   2   3  -8   79.41    2.45
   2   3  -8   81.07    2.36
  -2   3   8   80.20    2.43
   2   3  -8   82.11    2.47
  -2   3   8   79.16    2.50
  -2   3   8   83.28    2.43
  -2   3   8   80.36    2.41
   2   3  -8   78.40    2.22
   2   3  -8   81.20    2.40
   2   3  -8   82.68    2.36
   2   3  -8   82.27    3.09
  -2   3   8   81.78    2.43
  -2   3   8   83.13    2.44
  -2   3   8   82.57    2.24
  -1  -3   8   75.72    2.10
  -1  -3   8   77.24    2.16
  -1  -3   8   75.13    2.37
  -1  -3   8   74.43    2.27
   1   3  -8   74.23    2.17
  -1   3   8   78.33    2.77
  -1   3   8   75.15    2.07
  -1   3   8   73.67    2.94
  -1   3   8   77.20    2.23
  -1   3   8   74.90    2.23
   1   3  -8   74.33    2.85
  -1   3   8   74.94    2.33
   1   3  -8   72.08    2.21
   1   3  -8   75.78    2.17
  -1   3   8   76.47    2.24
  -1   3   8   76.14    2.23
   1   3  -8   76.84    2.18
   1   3  -8   75.36    2.29
   1   3  -8   71.34    2.26
   0  -3   8    1.78    0.29
   0  -3   8    1.93    0.34
   0  -3  -8    1.83    0.39
   0  -3   8    1.88    0.33
   0  -3   8    1.63    0.35
   0   3  -8    1.25    0.31
   0   3  -8    1.79    0.25
   0   3  -8    1.96    0.41
   0   3  -8    1.78    0.57
   0   3  -8    1.90    0.27
   0   3   8    1.52    0.29
   0   3  -8    1.47    0.30
   0   3   8    1.33    0.32
   0   3   8    1.48    0.26
   0   3   8    1.57    0.29
   0   3   8    2.06    0.45
   0   3  -8    2.05    0.32
   0   3   8    1.63    0.30
   0   3   8    1.72    0.25
   0   3   8    1.18    0.39
   1  -3   8    3.96    0.36
   1  -3   8    3.73    0.37
   1  -3   8    3.71    0.39
  -1   3  -8    3.61    0.46
   1   3   8    3.51    0.37
   1   3   8    3.58    0.46
   1   3   8    4.06    0.31
  -1   3  -8    3.87    0.32
  -1   3  -8    4.06    0.30
   1   3   8    4.73    0.50
   1   3   8    4.16    0.45
  -1   3  -8    3.57    0.36
   1   3   8    4.90    0.34
   1   3   8    4.40    0.35
   2  -3   8   57.65    1.77
   2  -3   8   58.55    1.70
  -2   3  -8   55.61    1.72
   2   3   8   59.11    2.32
   2   3   8   60.55    2.22
  -2   3  -8   59.07    1.73
   2   3   8   58.45    2.18
  -2   3  -8   58.18    1.74
   3  -3   8    3.45    0.41
   3  -3   8    2.36    0.32
   3   3   8    3.11    0.44
  -3   3  -8    2.00    0.37
  -3   3  -8    2.92    0.31
   3   3   8    2.77    0.42
  -3   3  -8    2.66    0.29
  -3   3  -8    2.64    0.45
  -3   3  -8    2.99    0.31
   4  -3   8    2.07    0.34
   4  -3   8    2.09    0.39
  -4   3  -8    2.08    0.30
   4   3   8    1.92    0.43
   5  -3   8    0.08    0.19
  -5   3  -8    0.04    0.24
   6  -3   8    0.51    0.18
  -6   3  -8    0.65    0.22
   7  -4  -8    4.25    0.34
  -7  -4   8    4.96    0.33
   7  -4  -8    4.82    0.36
  -7   4   8    4.94    0.32
  -7   4   8    5.73    0.29
   6  -4  -8    0.25    0.33
   6  -4  -8   -0.06    0.25
  -6   4   8   -0.16    0.26
   6   4  -8    0.12    0.24
  -6   4   8    0.29    0.21
  -6   4   8    0.20    0.23
   6   4  -8   -0.19    0.21
  -6   4   8   -0.43    0.26
  -6   4   8   -0.04    0.29
   6   4  -8   -0.18    0.27
  -6   4   8   -0.25    0.26
  -6   4   8    0.11    0.23
  -5  -4   8    1.25    0.30
   5  -4  -8    0.75    0.40
  -5   4   8    1.27    0.29
   5   4  -8    1.09    0.32
   5   4  -8    1.10    0.25
  -5   4   8    1.15    0.26
  -5   4   8    0.81    0.30
   5   4  -8    1.14    0.27
  -5   4   8    0.94    0.30
  -5   4   8    0.96    0.31
  -5   4   8    0.75    0.35
   5   4  -8    1.33    0.26
  -5   4   8    1.23    0.24
   4  -4  -8    1.56    0.42
  -4  -4   8    2.69    0.36
  -4   4   8    2.19    0.30
   4   4  -8    1.47    0.30
  -4   4   8    2.08    0.26
  -4   4   8    2.01    0.33
   4   4  -8    1.78    0.29
   4   4  -8    1.50    0.36
  -4   4   8    2.07    0.35
  -4   4   8    1.58    0.39
  -4   4   8    1.52    0.33
   4   4  -8    1.57    0.29
   4   4  -8    2.18    0.34
  -4   4   8    2.05    0.31
  -3  -4   8    1.68    0.36
   3  -4  -8    1.57    0.43
   3   4  -8    1.40    0.32
  -3   4   8    0.98    0.27
  -3   4   8    0.87    0.33
  -3   4   8    1.20    0.32
  -3   4   8    0.63    0.31
   3   4  -8    0.69    0.33
   3   4  -8    1.17    0.24
   3   4  -8    0.42    0.36
  -3   4   8    0.69    0.25
   3   4  -8    1.06    0.27
   3   4  -8    1.19    0.30
  -3   4   8    0.90    0.38
  -3   4   8    0.49    0.30
  -2  -4   8    1.06    0.35
  -2  -4   8    1.17    0.35
  -2   4   8    1.50    0.50
   2   4  -8    1.57    0.27
  -2   4   8    0.66    0.31
  -2   4   8    1.12    0.38
  -2   4   8    0.97    0.30
  -2   4   8    1.36    0.28
   2   4  -8    1.19    0.24
  -2   4   8    1.06    0.31
   2   4  -8    0.99    0.30
  -2   4   8    0.95    0.37
   2   4  -8    1.51    0.33
   2   4  -8    0.75    0.38
   2   4  -8    0.68    0.55
  -2   4   8    1.15    0.30
   2   4  -8    1.16    0.30
  -1  -4   8    0.65    0.27
  -1  -4   8    0.27    0.32
  -1  -4   8    0.80    0.36
  -1   4   8    0.64    0.37
   1   4  -8    1.08    0.32
  -1   4   8    1.16    0.31
  -1   4   8    0.62    0.30
   1   4  -8    1.47    0.29
  -1   4   8    1.12    0.26
  -1   4   8    0.77    0.42
   1   4  -8    1.11    0.24
  -1   4   8    0.65    0.34
   1   4  -8    0.79    0.39
  -1   4   8    0.91    0.31
   1   4  -8    0.72    0.29
   1   4  -8    0.98    0.31
   0  -4   8    0.29    0.30
   0   4  -8    0.23    0.22
   0   4   8   -0.07    0.28
   0   4   8    0.25    0.28
   0   4  -8    0.07    0.27
   0   4  -8   -0.27    0.38
   0   4  -8    0.20    0.27
   0   4  -8    0.20    0.27
   0   4   8    0.44    0.32
   0   4   8   -0.06    0.24
   0   4  -8   -0.01    0.29
   0   4   8   -0.23    0.27
   1  -4   8    2.05    0.31
  -1   4  -8    2.15    0.38
  -1   4  -8    2.11    0.30
  -1   4  -8    2.57    0.30
   1   4   8    2.76    0.31
   2   4   8   -0.05    0.22
  -2   4  -8    0.15    0.23
  -2   4  -8    0.49    0.24
  -3   4  -8    2.72    0.27
   3   4   8    3.19    0.26
  -3   4  -8    2.77    0.26
  -4   4  -8    0.30    0.20
  -3   5   8    0.52    0.18
  -2  -5   8    0.32    0.18
  -2   5   8    0.13    0.18
   2   5  -8    0.11    0.19
  -1  -5   8    0.74    0.18
   1   5  -8    1.48    0.21
  -1   5   8    1.18    0.19
   0   5   8    0.22    0.16
  11   0  -9    0.80    0.20
  11   0  -9    0.42    0.22
 -11   0   9    0.47    0.19
 -11   0   9    0.75    0.21
  10   0  -9    0.02    0.23
 -10   0   9   -0.17    0.25
  10   0  -9    0.00    0.27
  10   0  -9    0.20    0.28
 -10   0   9    0.31    0.21
  -9   0   9    7.16    0.42
   9   0  -9    6.80    0.45
   9   0  -9    7.08    0.53
   9   0  -9    7.05    0.46
  -9   0   9    6.81    0.47
   9   0  -9    7.49    0.53
   9   0  -9    6.91    0.54
  -9   0   9    6.32    0.54
  -9   0   9    6.74    0.38
   8   0  -9   -0.22    0.29
   8   0  -9   -0.11    0.27
  -8   0   9    0.49    0.37
   8   0  -9    0.12    0.38
   8   0  -9   -0.13    0.32
  -8   0   9   -0.17    0.25
   8   0  -9   -0.05    0.24
  -8   0   9    0.11    0.27
   7   0  -9  314.05    8.76
  -7   0   9  313.51    8.56
   7   0  -9  322.60    9.11
  -7   0   9  312.46   11.01
  -7   0   9  318.45    8.98
   7   0  -9  322.15    8.98
  -7   0   9  314.67    8.07
   7   0  -9  318.08    8.81
   7   0  -9  314.20    9.02
   7   0  -9  318.90    9.10
  -6   0   9    0.14    0.21
  -6   0   9   -0.09    0.29
   6   0  -9    0.31    0.37
   6   0  -9    0.25    0.26
   6   0  -9   -0.11    0.28
   6   0  -9   -0.27    0.23
   6   0  -9   -0.07    0.31
   6   0  -9    0.34    0.31
  -5   0   9    6.10    0.41
   5   0  -9    7.33    0.48
  -5   0   9    6.83    0.41
   5   0  -9    6.89    0.53
  -5   0   9    6.93    0.42
   5   0  -9    6.78    0.47
   5   0  -9    7.49    0.57
  -5   0   9    6.98    0.60
   5   0  -9    6.54    0.45
  -4   0   9   -0.01    0.17
   4   0  -9    0.32    0.31
  -4   0   9    0.04    0.22
   4   0  -9   -0.07    0.23
  -4   0   9    0.04    0.19
  -4   0   9   -0.11    0.29
   4   0  -9   -0.27    0.21
  -4   0   9   -0.16    0.16
   4   0  -9    0.13    0.27
   4   0  -9    0.00    0.28
   4   0  -9    0.05    0.25
  -4   0   9    0.15    0.19
   3   0  -9   31.46    1.09
   3   0  -9   33.13    1.09
   3   0  -9   30.64    1.10
  -3   0   9   35.30    1.34
  -3   0   9   35.59    0.99
  -3   0   9   32.03    1.06
  -3   0   9   34.39    0.99
   3   0  -9   34.04    1.01
   3   0  -9   34.36    1.10
  -3   0   9   33.24    1.01
   3   0  -9   33.55    1.15
  -3   0   9   33.05    1.07
  -2   0   9   -0.09    0.17
   2   0  -9    0.27    0.28
  -2   0   9    0.00    0.18
  -2   0   9    0.02    0.30
  -2   0   9   -0.08    0.20
   2   0  -9   -0.07    0.28
  -2   0   9    0.17    0.21
   2   0  -9    0.13    0.28
   2   0  -9   -0.31    0.21
   2   0  -9    0.03    0.18
   1   0  -9    7.73    0.51
  -1   0   9    8.45    0.40
   1   0  -9    7.84    0.47
  -1   0   9    7.07    0.48
   1   0  -9    8.40    0.52
  -1   0   9    8.24    0.42
  -1   0   9    8.44    0.44
  -1   0   9    7.85    0.38
   0   0   9   -0.07    0.23
   0   0   9   -0.15    0.16
   0   0   9    0.11    0.19
   0   0   9    0.31    0.19
   0   0  -9    0.15    0.25
   0   0   9   -0.16    0.21
   0   0  -9    0.04    0.28
   1   0   9    1.87    0.23
   1   0   9    2.03    0.24
   1   0   9    1.79    0.26
   1   0   9    1.57    0.25
   1   0   9    1.97    0.32
  -1   0  -9    1.52    0.29
   2   0   9    0.27    0.23
  -2   0  -9    0.31    0.32
  -2   0  -9    0.15    0.34
   2   0   9    0.09    0.20
   2   0   9   -0.01    0.23
   2   0   9    0.03    0.31
  -2   0  -9    0.26    0.31
  -3   0  -9   25.55    0.94
  -3   0  -9   26.60    0.99
  -3   0  -9   24.81    0.89
   3   0   9   24.24    0.81
   3   0   9   25.49    0.89
   3   0   9   25.43    0.92
  -3   0  -9   28.28    1.06
   3   0   9   25.08    0.82
   3   0   9   25.52    1.18
   4   0   9    0.15    0.22
  -4   0  -9    0.64    0.42
   4   0   9    0.02    0.22
  -4   0  -9   -0.20    0.43
   4   0   9    0.43    0.35
   4   0   9   -0.32    0.40
   4   0   9    0.14    0.29
  -4   0  -9   -0.32    0.36
   4   0   9   -0.08    0.26
  -5   0  -9    0.67    0.45
   5   0   9    0.76    0.34
   5   0   9    1.41    0.37
  -5   0  -9    1.05    0.44
  -5   0  -9    0.80    0.36
   5   0   9    0.54    0.26
   5   0   9    0.99    0.24
   6   0   9    0.12    0.35
  -6   0  -9    0.38    0.31
   6   0   9    0.02    0.24
  -6   0  -9   -0.09    0.42
  -6   0  -9    0.47    0.44
   6   0   9    0.11    0.23
   8   0   9    0.05    0.23
  -8   0  -9   -0.58    0.19
   8   0   9    0.10    0.14
 -11  -1   9    0.56    0.18
  11  -1  -9    0.26    0.20
 -11  -1   9    0.43    0.19
 -11   1   9    0.15    0.18
 -11   1   9    0.46    0.20
  11   1  -9    0.04    0.18
  10  -1  -9    0.53    0.25
  10  -1  -9    0.68    0.26
 -10  -1   9    0.42    0.24
  10   1  -9    0.10    0.24
  10   1  -9    0.41    0.27
  10   1  -9    0.78    0.25
 -10   1   9    0.37    0.24
  10   1  -9    0.43    0.21
 -10   1   9    0.49    0.21
   9  -1  -9    1.59    0.34
  -9  -1   9    1.55    0.29
   9  -1  -9    2.10    0.33
   9  -1  -9    1.56    0.34
  -9  -1   9    1.38    0.35
  -9  -1   9    1.29    0.28
   9  -1  -9    1.90    0.33
  -9  -1   9    1.64    0.30
  -9  -1   9    1.98    0.44
  -9   1   9    1.99    0.38
   9   1  -9    1.45    0.34
   9   1  -9    1.78    0.29
  -9   1   9    1.51    0.24
   9   1  -9    1.86    0.31
   9   1  -9    1.50    0.31
  -9   1   9    1.19    0.26
   9   1  -9    1.63    0.43
   9   1  -9    1.52    0.26
  -9   1   9    2.14    0.29
  -8  -1   9    0.69    0.27
   8  -1  -9    1.20    0.37
  -8  -1   9    0.57    0.41
   8  -1  -9    1.75    0.35
  -8  -1   9    0.60    0.26
  -8  -1   9    0.28    0.28
  -8  -1   9    0.79    0.36
   8  -1  -9    0.75    0.29
   8  -1  -9    1.11    0.34
   8  -1  -9    1.03    0.34
  -8  -1   9    0.60    0.27
  -8   1   9    1.34    0.28
   8   1  -9    1.00    0.44
  -8   1   9    1.19    0.25
   8   1  -9    1.32    0.34
   8   1  -9    0.63    0.27
  -8   1   9    0.70    0.36
   8   1  -9    0.80    0.30
   8   1  -9    0.94    0.30
  -8   1   9    1.05    0.23
   8   1  -9    0.85    0.24
  -7  -1   9    1.21    0.37
   7  -1  -9    1.07    0.35
   7  -1  -9    1.17    0.36
   7  -1  -9    0.96    0.33
   7  -1  -9    0.94    0.34
   7  -1  -9    0.71    0.34
  -7  -1   9    0.71    0.26
  -7  -1   9    0.98    0.26
  -7  -1   9    0.99    0.40
  -7  -1   9    0.30    0.26
   7   1  -9    1.05    0.32
  -7   1   9    1.22    0.36
   7   1  -9    0.58    0.24
   7   1  -9    0.63    0.37
   7   1  -9    0.78    0.29
  -7   1   9    0.72    0.27
  -7   1   9    0.69    0.23
   7   1  -9    1.24    0.45
   7   1  -9    1.16    0.28
  -7   1   9    0.26    0.22
   6  -1  -9    3.32    0.36
  -6  -1   9    2.77    0.40
   6  -1  -9    2.34    0.35
   6  -1  -9    2.60    0.37
   6  -1  -9    2.75    0.41
   6  -1  -9    2.77    0.37
  -6  -1   9    3.11    0.30
  -6  -1   9    2.63    0.40
  -6  -1   9    2.38    0.28
  -6  -1   9    2.58    0.30
   6  -1  -9    3.03    0.38
   6   1  -9    2.20    0.45
  -6   1   9    2.48    0.29
  -6   1   9    2.22    0.37
  -6   1   9    2.41    0.26
   6   1  -9    2.53    0.30
   6   1  -9    2.51    0.26
   6   1  -9    2.10    0.28
  -6   1   9    2.16    0.29
  -6   1   9    2.81    0.28
   6   1  -9    3.00    0.41
   6   1  -9    2.29    0.33
   6   1  -9    2.26    0.29
   6   1  -9    2.12    0.32
   5  -1  -9    4.22    0.39
   5  -1  -9    3.00    0.32
   5  -1  -9    3.61    0.37
  -5  -1   9    3.97    0.32
   5  -1  -9    3.05    0.38
   5  -1  -9    3.07    0.37
  -5  -1   9    3.38    0.31
  -5  -1   9    3.70    0.40
  -5  -1   9    4.13    0.43
   5   1  -9    3.64    0.51
  -5   1   9    2.83    0.29
   5   1  -9    2.63    0.28
  -5   1   9    2.61    0.37
   5   1  -9    4.38    0.45
   5   1  -9    3.42    0.29
   5   1  -9    2.77    0.32
  -5   1   9    3.13    0.34
   5   1  -9    3.43    0.31
   5   1  -9    4.03    0.45
   4  -1  -9    0.06    0.23
  -4  -1   9    0.39    0.31
   4  -1  -9    0.43    0.31
   4  -1  -9    0.50    0.29
   4  -1  -9    0.37    0.25
  -4  -1   9    0.57    0.29
   4  -1  -9    0.42    0.23
  -4  -1   9    0.41    0.21
   4  -1  -9    0.99    0.32
  -4  -1   9    0.39    0.21
   4   1  -9    0.26    0.21
   4   1  -9    0.12    0.21
   4   1  -9    0.51    0.35
  -4   1   9    0.05    0.26
   4   1  -9   -0.01    0.23
  -4   1   9    0.44    0.29
  -4   1   9    0.37    0.21
   4   1  -9    0.07    0.28
   4   1  -9    0.42    0.36
  -4   1   9    0.52    0.19
   3  -1  -9   -0.18    0.31
   3  -1  -9    0.21    0.23
   3  -1  -9    0.16    0.21
  -3  -1   9   -0.01    0.26
  -3  -1   9   -0.08    0.22
   3  -1  -9    0.73    0.29
  -3  -1   9   -0.36    0.20
   3  -1  -9   -0.08    0.31
  -3  -1   9    0.05    0.19
  -3  -1   9   -0.07    0.17
  -3  -1   9    0.10    0.32
   3   1  -9   -0.01    0.20
   3   1  -9    0.02    0.27
  -3   1   9    0.05    0.26
  -3   1   9   -0.22    0.19
  -3   1   9   -0.11    0.25
  -3   1   9   -0.16    0.28
  -3   1   9   -0.05    0.18
   3   1  -9    0.54    0.35
  -3   1   9   -0.08    0.20
   3   1  -9   -0.30    0.31
  -2  -1   9    0.76    0.24
  -2  -1   9    0.53    0.17
   2  -1  -9    0.24    0.32
   2  -1  -9    1.33    0.33
  -2  -1   9    0.69    0.20
   2  -1  -9    0.54    0.24
   2  -1  -9    0.26    0.25
  -2   1   9    0.53    0.29
   2   1  -9    1.16    0.30
   2   1  -9    1.13    0.34
  -2   1   9    0.17    0.20
  -2   1   9    0.44    0.26
  -2   1   9    0.63    0.26
  -2   1   9    0.60    0.19
  -2   1   9    0.77    0.20
   2   1  -9    0.34    0.22
   1  -1  -9    2.11    0.36
  -1  -1   9    1.64    0.23
   1  -1  -9    1.97    0.26
   1  -1  -9    2.73    0.29
  -1  -1   9    2.02    0.24
  -1  -1   9    1.99    0.25
  -1  -1   9    2.20    0.21
  -1  -1   9    1.96    0.22
   1  -1  -9    2.48    0.34
  -1   1   9    1.95    0.23
  -1   1   9    1.68    0.26
  -1   1   9    1.88    0.24
  -1   1   9    2.22    0.22
   1   1  -9    1.26    0.30
   1   1  -9    1.88    0.23
  -1   1   9    1.81    0.33
  -1   1   9    1.67    0.21
   1   1  -9    2.79    0.34
   1   1  -9    2.06    0.28
  -1   1   9    2.24    0.21
   0  -1   9    0.62    0.22
   0  -1  -9    0.11    0.25
   0  -1   9    0.25    0.22
   0  -1   9    0.19    0.20
   0  -1  -9    0.86    0.33
   0  -1   9    0.08    0.17
   0  -1   9    0.20    0.25
   0   1  -9    0.29    0.21
   0   1  -9    0.02    0.26
   0   1   9    0.78    0.21
   0   1   9    0.05    0.18
   0   1   9    0.54    0.22
   0   1   9    0.41    0.30
   0   1   9    0.61    0.21
   0   1   9    0.39    0.20
   0   1  -9    0.05    0.26
   0   1   9    0.60    0.18
   0   1  -9    0.01    0.29
   0   1   9    0.43    0.27
   1  -1   9    0.40    0.28
   1  -1   9    0.53    0.22
  -1  -1  -9    0.33    0.26
  -1  -1  -9    0.21    0.28
   1  -1   9    0.57    0.24
   1  -1   9    0.14    0.24
   1   1   9    0.41    0.30
  -1   1  -9    0.69    0.31
   1   1   9    0.44    0.22
   1   1   9    0.49    0.32
  -1   1  -9    0.27    0.32
   1   1   9    0.62    0.17
   1   1   9    0.38    0.21
   1   1   9    0.77    0.21
   1   1   9    0.50    0.21
   1   1   9    0.48    0.18
   2  -1   9    1.94    0.39
  -2  -1  -9    1.34    0.31
   2  -1   9    1.00    0.28
  -2  -1  -9    1.48    0.31
   2  -1   9    0.89    0.26
   2  -1   9    1.50    0.30
   2   1   9    0.92    0.35
   2   1   9    1.41    0.27
   2   1   9    1.22    0.36
   2   1   9    0.65    0.25
  -2   1  -9    1.53    0.42
  -2   1  -9    1.74    0.36
  -2   1  -9    1.51    0.37
   2   1   9    1.57    0.26
  -3  -1  -9   15.28    0.69
   3  -1   9   13.30    0.73
   3  -1   9   15.15    0.67
   3  -1   9   14.68    0.68
  -3  -1  -9   15.73    0.75
   3  -1   9   13.81    0.60
   3   1   9   13.49    0.63
   3   1   9   14.07    0.57
   3   1   9   14.25    0.63
  -3   1  -9   14.71    0.84
   3   1   9   15.31    0.85
  -3   1  -9   13.77    0.63
  -3   1  -9   14.57    0.86
  -3   1  -9   15.82    0.80
   3   1   9   15.19    0.73
  -4  -1  -9   14.96    0.70
   4  -1   9   14.11    0.60
   4  -1   9   13.23    0.71
   4  -1   9   12.52    0.57
   4  -1   9   14.69    0.68
   4  -1   9   13.17    0.72
  -4   1  -9   14.02    0.65
  -4   1  -9   14.17    0.86
   4   1   9   14.94    0.59
  -4   1  -9   14.67    0.92
   4   1   9   14.73    0.67
   4   1   9   14.70    0.86
  -4   1  -9   14.29    0.80
   5  -1   9    0.30    0.36
  -5  -1  -9    0.43    0.42
   5  -1   9   -0.25    0.23
   5  -1   9    0.11    0.22
   5  -1   9   -0.15    0.33
   5  -1   9   -0.12    0.31
  -5   1  -9   -0.54    0.47
   5   1   9   -0.09    0.30
  -5   1  -9   -0.13    0.37
  -5   1  -9    0.08    0.41
  -5   1  -9    0.14    0.39
   5   1   9    0.07    0.21
   5   1   9   -0.15    0.38
  -5   1  -9   -0.42    0.37
  -5   1  -9    0.02    0.29
   6  -1   9    0.69    0.24
   6  -1   9    0.24    0.22
   6  -1   9    0.37    0.36
  -6   1  -9    0.79    0.30
   6   1   9    0.47    0.20
   7  -1   9   -0.04    0.19
   7  -1   9    0.32    0.32
  -7  -1  -9    0.10    0.22
   7  -1   9   -0.01    0.18
  -7   1  -9   -0.23    0.23
   7   1   9    0.05    0.17
   8  -1   9   25.54    0.87
   8  -1   9   25.21    0.75
  -8   1  -9   25.15    0.79
 -10  -2   9    0.18    0.21
  10  -2  -9    0.14    0.23
  10  -2  -9    0.09    0.20
  10   2  -9    0.09    0.19
  10   2  -9    0.07    0.20
  10   2  -9   -0.02    0.22
 -10   2   9   -0.20    0.20
 -10   2   9    0.16    0.17
   9  -2  -9    1.22    0.32
  -9  -2   9    1.11    0.27
   9  -2  -9    1.40    0.27
   9   2  -9    1.50    0.27
  -9   2   9    1.75    0.22
   9   2  -9    1.36    0.29
   9   2  -9    1.54    0.25
  -9   2   9    1.11    0.25
  -9   2   9    1.77    0.29
   9   2  -9    1.42    0.29
   8  -2  -9   -0.02    0.30
  -8  -2   9   -0.33    0.26
   8  -2  -9    0.15    0.29
   8  -2  -9   -0.08    0.31
  -8  -2   9   -0.32    0.24
  -8  -2   9    0.22    0.44
   8  -2  -9    0.38    0.34
  -8  -2   9    0.08    0.25
   8   2  -9   -0.40    0.42
   8   2  -9    0.24    0.24
   8   2  -9    0.59    0.32
   8   2  -9    0.12    0.28
  -8   2   9    0.05    0.32
   8   2  -9    0.06    0.24
  -8   2   9   -0.14    0.28
  -7  -2   9    2.65    0.33
  -7  -2   9    2.91    0.32
   7  -2  -9    4.07    0.38
   7  -2  -9    2.81    0.39
  -7  -2   9    2.38    0.48
  -7  -2   9    2.51    0.32
   7  -2  -9    3.14    0.45
   7  -2  -9    3.32    0.41
   7  -2  -9    1.99    0.39
   7   2  -9    2.60    0.32
   7   2  -9    3.63    0.51
  -7   2   9    3.05    0.37
  -7   2   9    3.14    0.29
   7   2  -9    2.90    0.36
   7   2  -9    2.46    0.29
  -7   2   9    3.26    0.41
  -7   2   9    3.03    0.32
   7   2  -9    2.90    0.36
   7   2  -9    3.19    0.35
   6  -2  -9    0.32    0.39
   6  -2  -9    0.24    0.33
  -6  -2   9    0.08    0.26
   6  -2  -9   -0.10    0.30
   6  -2  -9   -0.10    0.35
   6  -2  -9   -0.27    0.34
  -6  -2   9    0.06    0.27
  -6  -2   9   -0.30    0.27
  -6  -2   9    0.47    0.39
   6  -2  -9   -0.15    0.34
   6   2  -9   -0.20    0.24
   6   2  -9    0.48    0.40
   6   2  -9    0.10    0.46
  -6   2   9    0.13    0.32
   6   2  -9    0.03    0.33
  -6   2   9   -0.21    0.26
  -6   2   9    0.41    0.29
   6   2  -9    0.27    0.45
  -6   2   9    0.07    0.33
  -6   2   9   -0.22    0.22
   6   2  -9   -0.19    0.27
   6   2  -9   -0.21    0.26
   6   2  -9   -0.12    0.23
  -6   2   9    0.17    0.39
   5  -2  -9   -0.05    0.38
  -5  -2   9    0.40    0.27
   5  -2  -9    0.40    0.36
  -5  -2   9   -0.09    0.35
  -5  -2   9   -0.12    0.27
   5  -2  -9    0.09    0.30
   5  -2  -9   -0.01    0.36
   5  -2  -9   -0.14    0.31
   5  -2  -9   -0.23    0.35
  -5  -2   9   -0.32    0.27
  -5   2   9    0.13    0.39
  -5   2   9    0.31    0.26
  -5   2   9    0.39    0.31
  -5   2   9   -0.27    0.32
   5   2  -9    0.00    0.22
   5   2  -9    0.18    0.45
   5   2  -9    0.38    0.26
   5   2  -9   -0.10    0.31
   5   2  -9   -0.21    0.40
   5   2  -9   -0.20    0.48
  -5   2   9   -0.02    0.24
  -5   2   9    0.19    0.26
   5   2  -9   -0.18    0.24
   5   2  -9   -0.10    0.23
  -5   2   9   -0.11    0.31
   5   2  -9   -0.15    0.22
   4  -2  -9    1.14    0.32
  -4  -2   9    1.15    0.27
  -4  -2   9    1.21    0.30
   4  -2  -9    1.20    0.38
   4  -2  -9    0.95    0.36
   4  -2  -9    0.96    0.29
   4  -2  -9    0.74    0.35
  -4  -2   9    0.77    0.36
  -4  -2   9    1.09    0.29
  -4  -2   9    0.69    0.23
   4  -2  -9    1.34    0.40
  -4   2   9    0.69    0.41
   4   2  -9    0.99    0.26
  -4   2   9    0.98    0.25
   4   2  -9    0.85    0.39
  -4   2   9    0.53    0.24
   4   2  -9    1.09    0.27
   4   2  -9    0.77    0.30
   4   2  -9    0.89    0.23
  -4   2   9    1.13    0.25
  -4   2   9    1.30    0.32
  -4   2   9    1.04    0.31
   4   2  -9    0.20    0.49
  -4   2   9    1.07    0.32
   4   2  -9    1.02    0.25
  -4   2   9    0.24    0.24
   4   2  -9    0.64    0.24
   4   2  -9    0.75    0.25
  -4   2   9    1.05    0.24
   3  -2  -9    0.26    0.33
   3  -2  -9   -0.63    0.30
  -3  -2   9    0.20    0.32
   3  -2  -9    0.71    0.27
   3  -2  -9   -0.05    0.34
   3  -2  -9    0.12    0.38
  -3  -2   9    0.41    0.23
  -3  -2   9   -0.08    0.24
   3   2  -9    0.20    0.26
  -3   2   9    0.13    0.22
  -3   2   9    0.41    0.28
   3   2  -9    0.16    0.28
   3   2  -9    0.14    0.23
  -3   2   9   -0.03    0.26
  -3   2   9    0.17    0.30
   3   2  -9   -0.09    0.51
  -3   2   9   -0.03    0.22
   3   2  -9   -0.03    0.30
   3   2  -9    0.48    0.37
  -3   2   9   -0.20    0.38
   3   2  -9    0.22    0.21
   2  -2  -9   -0.03    0.33
   2  -2  -9    1.07    0.38
   2  -2  -9    0.75    0.31
   2  -2  -9    1.33    0.36
  -2  -2   9    0.62    0.23
  -2  -2   9    0.40    0.25
  -2   2   9    0.72    0.30
   2   2  -9    1.03    0.28
  -2   2   9    0.27    0.24
  -2   2   9    0.64    0.39
   2   2  -9    0.64    0.24
   2   2  -9    0.53    0.24
  -2   2   9    0.58    0.21
   2   2  -9    0.72    0.54
   2   2  -9    0.23    0.23
  -2   2   9    0.60    0.28
  -2   2   9    0.44    0.39
   2   2  -9    0.58    0.36
   2   2  -9    0.26    0.31
  -2   2   9    0.43    0.22
  -1  -2   9   17.50    0.66
   1  -2  -9   15.23    0.86
  -1  -2   9   15.89    0.62
   1  -2  -9   17.51    0.89
   1  -2  -9   17.24    0.75
   1   2  -9   15.64    0.63
  -1   2   9   15.98    0.67
  -1   2   9   15.73    0.61
   1   2  -9   16.97    0.80
  -1   2   9   16.41    0.56
  -1   2   9   17.02    0.83
   1   2  -9   15.19    0.74
  -1   2   9   16.22    0.66
  -1   2   9   18.15    0.91
   1   2  -9   14.41    0.68
   1   2  -9   15.70    0.63
   1   2  -9   15.93    0.99
   0  -2   9    1.68    0.25
   0  -2   9    1.72    0.30
   0  -2   9    1.94    0.28
   0  -2  -9    0.94    0.36
   0  -2  -9    1.64    0.37
   0   2  -9    1.80    0.33
   0   2  -9    2.56    0.57
   0   2   9    1.77    0.26
   0   2   9    1.79    0.29
   0   2   9    1.79    0.27
   0   2  -9    1.74    0.37
   0   2   9    1.54    0.32
   0   2  -9    1.79    0.28
   0   2   9    1.73    0.40
   0   2   9    2.35    0.41
   0   2  -9    1.29    0.33
   0   2  -9    1.44    0.30
   1  -2   9    6.31    0.43
   1  -2   9    6.61    0.45
  -1  -2  -9    7.06    0.50
   1  -2   9    7.21    0.45
   1   2   9    6.72    0.64
   1   2   9    6.41    0.59
   1   2   9    6.59    0.63
  -1   2  -9    6.17    0.44
   1   2   9    6.15    0.41
   1   2   9    5.91    0.47
  -1   2  -9    6.06    0.40
   1   2   9    6.31    0.40
  -1   2  -9    6.24    0.49
  -1   2  -9    5.58    0.44
   2  -2   9    4.21    0.33
   2  -2   9    4.01    0.41
  -2   2  -9    3.62    0.42
  -2   2  -9    4.01    0.47
   2   2   9    4.63    0.38
  -2   2  -9    4.30    0.33
   2   2   9    4.22    0.47
   2   2   9    3.96    0.33
   2   2   9    4.54    0.48
   3  -2   9    0.42    0.33
  -3  -2  -9    0.38    0.28
   3  -2   9   -0.02    0.24
   3  -2   9    0.54    0.24
   3   2   9    0.56    0.26
  -3   2  -9    0.68    0.25
  -3   2  -9    0.14    0.37
   3   2   9   -0.12    0.36
   3   2   9   -0.11    0.39
  -3   2  -9   -0.09    0.40
  -3   2  -9   -0.23    0.35
   4  -2   9   11.28    0.66
   4  -2   9   11.32    0.71
   4  -2   9   11.76    0.54
  -4   2  -9   10.59    0.76
  -4   2  -9   10.94    0.73
   4   2   9   11.80    0.61
   4   2   9   11.42    0.75
  -4   2  -9   10.73    0.55
  -4   2  -9   10.19    0.78
   5  -2   9    2.69    0.28
   5  -2   9    2.88    0.39
   5  -2   9    3.37    0.39
   5   2   9    2.79    0.32
  -5   2  -9    1.95    0.44
  -5   2  -9    2.52    0.41
  -5   2  -9    2.17    0.29
   6  -2   9    0.72    0.31
   6  -2   9    0.44    0.20
   6   2   9    0.63    0.23
  -6   2  -9    0.38    0.23
   7  -2   9   -0.10    0.16
   7  -2   9   -0.06    0.25
   7   2   9    0.31    0.18
  -7   2  -9    0.02    0.19
  -9  -3   9    0.13    0.20
   9  -3  -9    0.03    0.23
   9   3  -9    0.13    0.19
  -9   3   9   -0.20    0.22
  -9   3   9    0.12    0.20
   8  -3  -9    7.56    0.55
  -8  -3   9    9.02    0.46
   8  -3  -9    9.44    0.56
   8   3  -9    9.73    0.52
   8   3  -9    8.89    0.50
  -8   3   9    9.49    0.49
   8   3  -9    9.05    0.46
  -8   3   9    8.47    0.50
  -8   3   9    8.85    0.54
  -7  -3   9   -0.20    0.25
   7  -3  -9    0.33    0.36
   7  -3  -9   -0.09    0.35
   7   3  -9    0.23    0.31
  -7   3   9    0.07    0.28
   7   3  -9    0.24    0.23
  -7   3   9    0.39    0.27
  -7   3   9    0.48    0.32
   7   3  -9    0.16    0.26
  -7   3   9    0.40    0.23
   7   3  -9   -0.07    0.28
  -6  -3   9    9.81    0.83
  -6  -3   9    9.66    0.50
   6  -3  -9    9.32    0.58
   6  -3  -9    9.66    0.64
   6  -3  -9    9.93    0.62
  -6  -3   9    9.40    0.52
   6  -3  -9    8.28    0.67
   6  -3  -9    8.21    0.71
   6  -3  -9   10.55    0.70
   6   3  -9    9.56    0.54
   6   3  -9    8.81    0.50
   6   3  -9   10.08    0.54
  -6   3   9    9.31    0.53
   6   3  -9    8.75    0.78
  -6   3   9    9.66    0.56
  -6   3   9    8.85    0.58
  -6   3   9    9.64    0.53
   6   3  -9   11.02    0.65
  -6   3   9    8.52    0.57
   6   3  -9    6.52    0.63
  -6   3   9    9.64    0.61
   5  -3  -9    0.01    0.37
   5  -3  -9   -0.32    0.39
   5  -3  -9    0.01    0.31
  -5  -3   9    0.16    0.40
   5  -3  -9   -0.16    0.39
  -5  -3   9   -0.15    0.24
   5  -3  -9    0.55    0.37
  -5  -3   9   -0.29    0.32
   5   3  -9    0.30    0.34
   5   3  -9   -0.01    0.51
   5   3  -9    0.33    0.23
   5   3  -9   -0.16    0.24
  -5   3   9    0.12    0.31
   5   3  -9    0.33    0.28
  -5   3   9    0.19    0.26
  -5   3   9    0.02    0.30
  -5   3   9    0.09    0.31
   5   3  -9   -0.36    0.28
  -5   3   9   -0.12    0.25
  -5   3   9   -0.27    0.32
  -5   3   9    0.35    0.31
  -5   3   9   -0.20    0.34
  -5   3   9    0.26    0.42
   4  -3  -9    0.27    0.39
  -4  -3   9    0.72    0.34
   4  -3  -9    0.26    0.39
   4  -3  -9    0.35    0.38
  -4  -3   9    0.83    0.26
   4  -3  -9    0.55    0.32
  -4  -3   9    0.39    0.27
  -4   3   9    1.05    0.47
   4   3  -9    1.09    0.31
  -4   3   9    0.52    0.31
  -4   3   9    0.87    0.37
   4   3  -9    0.71    0.36
  -4   3   9    0.97    0.35
  -4   3   9    0.17    0.30
   4   3  -9    0.18    0.24
   4   3  -9    0.59    0.57
  -4   3   9    0.68    0.26
  -4   3   9    0.81    0.27
   4   3  -9    0.03    0.29
  -4   3   9    0.83    0.30
   4   3  -9    0.51    0.25
   4   3  -9    0.63    0.33
  -4   3   9    0.24    0.31
  -4   3   9    0.66    0.26
   3  -3  -9   14.22    0.85
  -3  -3   9   15.04    0.72
   3  -3  -9   14.97    0.83
   3  -3  -9   14.84    0.76
  -3  -3   9   15.21    0.63
  -3  -3   9   13.92    0.72
  -3  -3   9   14.38    0.64
  -3   3   9   14.81    0.64
   3   3  -9   14.06    0.61
  -3   3   9   15.11    0.93
  -3   3   9   14.95    0.65
  -3   3   9   15.11    0.67
  -3   3   9   13.74    0.85
   3   3  -9   14.45    0.66
  -3   3   9   14.16    0.63
   3   3  -9   13.96    0.56
   3   3  -9   14.35    1.03
  -3   3   9   13.41    0.68
   3   3  -9   15.06    0.78
   3   3  -9   14.93    0.63
  -3   3   9   15.64    0.75
  -3   3   9   14.45    0.70
  -3   3   9   14.33    0.70
   3   3  -9   14.52    0.65
   3   3  -9   15.16    0.71
  -2  -3   9   11.79    0.57
   2  -3  -9   10.91    0.74
  -2  -3   9   10.98    0.59
   2  -3  -9   11.89    0.78
  -2  -3   9   11.43    0.63
  -2  -3   9   12.46    0.67
  -2   3   9   12.19    0.66
  -2   3   9   11.33    0.56
  -2   3   9   11.61    0.62
  -2   3   9   11.71    0.76
  -2   3   9   11.83    0.62
   2   3  -9   11.23    0.56
   2   3  -9   11.48    0.56
  -2   3   9   11.08    0.59
   2   3  -9   12.12    0.72
  -2   3   9   10.03    0.57
   2   3  -9   11.16    0.58
   2   3  -9   10.83    0.62
   2   3  -9    9.72    0.54
  -2   3   9   10.18    0.57
   2   3  -9   11.85    0.99
  -2   3   9   11.98    0.83
  -1  -3   9   25.66    0.87
  -1  -3   9   24.88    0.99
   1  -3  -9   25.47    1.19
  -1  -3   9   25.33    0.96
  -1  -3   9   25.02    0.90
  -1   3   9   24.92    0.89
   1   3  -9   25.85    0.89
  -1   3   9   27.02    0.91
   1   3  -9   25.98    1.31
   1   3  -9   24.61    0.87
  -1   3   9   26.38    1.16
   1   3  -9   25.26    0.94
  -1   3   9   24.72    0.86
  -1   3   9   23.94    0.91
   1   3  -9   25.87    0.86
   1   3  -9   22.32    0.89
  -1   3   9   23.48    1.21
  -1   3   9   25.87    0.92
   1   3  -9   27.37    1.03
  -1   3   9   25.52    0.97
   0  -3  -9    1.86    0.38
   0  -3   9    1.92    0.31
   0  -3   9    1.74    0.34
   0  -3   9    1.42    0.33
   0   3   9    1.21    0.33
   0   3  -9    1.78    0.27
   0   3  -9    1.11    0.41
   0   3  -9    1.67    0.25
   0   3  -9    1.10    0.55
   0   3   9    1.83    0.46
   0   3  -9    1.71    0.30
   0   3   9    1.34    0.28
   0   3   9    1.61    0.40
   0   3   9    1.30    0.30
   0   3   9    1.44    0.29
   0   3   9    0.95    0.35
   0   3   9    1.68    0.28
   1  -3   9    0.58    0.28
  -1  -3  -9    0.44    0.27
   1  -3   9    1.09    0.30
   1  -3   9    0.58    0.32
  -1   3  -9    0.67    0.26
  -1   3  -9    0.01    0.38
  -1   3  -9    0.91    0.28
   1   3   9    0.90    0.27
   1   3   9    0.93    0.41
   1   3   9    0.77    0.24
   1   3   9    1.56    0.39
  -1   3  -9    0.98    0.25
   1   3   9    1.28    0.33
   1   3   9    0.65    0.37
   2  -3   9   21.82    0.80
   2   3   9   21.54    0.99
  -2   3  -9   20.98    0.79
  -2   3  -9   21.51    0.78
   2   3   9   21.89    1.04
  -2   3  -9   21.19    0.79
   2   3   9   22.61    1.06
   3  -3   9    7.08    0.50
   3  -3   9    7.17    0.49
  -3   3  -9    7.20    0.46
   3   3   9    7.00    0.59
   3   3   9    6.88    0.64
  -3   3  -9    6.89    0.45
  -3   3  -9    5.74    0.52
  -4   3  -9    2.83    0.28
  -7  -4   9    0.19    0.18
   7  -4  -9    0.05    0.25
  -7   4   9    0.18    0.21
  -7   4   9    0.16    0.18
   6  -4  -9    0.40    0.32
  -6  -4   9    1.41    0.24
   6  -4  -9    1.14    0.26
   6   4  -9    0.56    0.22
   6   4  -9    1.14    0.32
   6   4  -9    0.87    0.25
  -6   4   9    1.20    0.27
  -6   4   9    0.67    0.26
  -6   4   9    0.88    0.21
  -6   4   9    0.91    0.22
   5  -4  -9    0.51    0.28
  -5  -4   9    0.26    0.25
   5  -4  -9    0.18    0.35
  -5   4   9    0.38    0.29
   5   4  -9    0.61    0.30
  -5   4   9    0.24    0.21
  -5   4   9    0.30    0.28
  -5   4   9   -0.02    0.23
  -5   4   9    0.20    0.27
  -5   4   9    0.11    0.25
   5   4  -9   -0.05    0.24
   5   4  -9    0.03    0.23
  -5   4   9    0.14    0.30
   5   4  -9    0.14    0.23
  -4  -4   9    1.75    0.31
   4  -4  -9    1.56    0.42
  -4   4   9    1.30    0.35
   4   4  -9    1.66    0.27
   4   4  -9    1.53    0.29
  -4   4   9    1.92    0.30
  -4   4   9    1.53    0.34
  -4   4   9    1.50    0.27
  -4   4   9    1.58    0.31
  -4   4   9    1.63    0.32
  -4   4   9    1.38    0.23
   4   4  -9    1.76    0.34
   4   4  -9    1.56    0.29
   3  -4  -9    0.98    0.40
  -3  -4   9    1.03    0.32
   3   4  -9    0.47    0.37
  -3   4   9    0.64    0.26
   3   4  -9    0.53    0.31
   3   4  -9    0.42    0.29
  -3   4   9    0.81    0.29
  -3   4   9    0.75    0.32
  -3   4   9    0.66    0.30
  -3   4   9    1.10    0.24
   3   4  -9    0.57    0.25
   3   4  -9    0.85    0.29
  -3   4   9    0.11    0.35
  -3   4   9    0.50    0.29
  -2  -4   9    0.27    0.32
   2   4  -9    1.01    0.26
  -2   4   9   -0.36    0.33
   2   4  -9    0.46    0.28
  -2   4   9    0.05    0.29
   2   4  -9    1.08    0.22
   2   4  -9    0.69    0.38
   2   4  -9    0.48    0.26
  -2   4   9   -0.04    0.24
  -2   4   9    1.14    0.29
   2   4  -9    0.68    0.30
  -2   4   9    0.29    0.29
  -1  -4   9    0.57    0.30
  -1   4   9    0.96    0.34
   1   4  -9    0.84    0.27
   1   4  -9    0.62    0.21
   1   4  -9    0.97    0.27
   1   4  -9    0.86    0.29
  -1   4   9    0.95    0.26
   1   4  -9    0.17    0.39
  -1   4   9    0.95    0.29
   1   4  -9    0.99    0.26
  -1   4   9    0.58    0.28
  -1   4   9    0.85    0.30
   0  -4   9    0.33    0.26
   0   4   9    0.46    0.26
   0   4  -9    0.22    0.24
   0   4   9    0.31    0.31
   0   4   9    0.51    0.24
   0   4   9   -0.16    0.26
   0   4  -9    0.32    0.25
   0   4  -9    0.71    0.38
   1  -4   9    0.98    0.24
  -1   4  -9    1.47    0.35
  -1   4  -9    1.50    0.26
  -1   4  -9    0.85    0.24
   1   4   9    0.72    0.25
   2   4   9    4.58    0.30
  -2   4  -9    4.72    0.30
  -2   4  -9    4.14    0.30
  -3   4  -9   33.69    1.03
 -11   0  10    0.15    0.18
 -11   0  10   -0.06    0.18
  11   0 -10   -0.23    0.19
  11   0 -10   -0.07    0.17
  10   0 -10    4.87    0.33
 -10   0  10    5.48    0.33
  10   0 -10    3.87    0.34
 -10   0  10    4.62    0.34
  10   0 -10    5.08    0.35
   9   0 -10    0.57    0.37
  -9   0  10   -0.15    0.26
  -9   0  10   -0.21    0.24
   9   0 -10   -0.33    0.23
  -9   0  10   -0.07    0.34
  -9   0  10   -0.06    0.21
   9   0 -10   -0.07    0.28
   9   0 -10    0.50    0.28
  -8   0  10   36.86    1.09
   8   0 -10   36.77    1.26
  -8   0  10   36.03    1.52
   8   0 -10   36.46    1.16
   8   0 -10   35.22    1.25
  -8   0  10   36.95    1.16
   8   0 -10   37.78    1.32
  -8   0  10   35.69    1.07
  -8   0  10   35.81    1.17
   8   0 -10   36.54    1.18
  -7   0  10    0.18    0.24
   7   0 -10    0.36    0.35
   7   0 -10    0.33    0.31
  -7   0  10   -0.32    0.34
   7   0 -10   -0.01    0.39
   7   0 -10    0.22    0.26
  -7   0  10    0.02    0.26
   7   0 -10    0.03    0.32
   7   0 -10   -0.68    0.23
  -7   0  10   -0.14    0.24
   7   0 -10    0.43    0.36
   6   0 -10   18.03    0.84
   6   0 -10   18.49    0.78
  -6   0  10   19.75    0.74
  -6   0  10   19.03    0.70
   6   0 -10   19.38    0.83
   6   0 -10   19.81    0.85
  -6   0  10   18.45    0.94
   6   0 -10   17.77    0.79
  -6   0  10   17.81    0.67
   6   0 -10   18.68    0.72
   5   0 -10   -0.29    0.24
  -5   0  10   -0.05    0.21
  -5   0  10   -0.07    0.32
   5   0 -10   -0.34    0.27
   5   0 -10   -0.12    0.33
  -5   0  10    0.01    0.19
  -5   0  10   -0.16    0.23
   5   0 -10   -0.14    0.34
  -4   0  10    6.05    0.43
  -4   0  10    5.16    0.39
  -4   0  10    4.97    0.44
  -4   0  10    5.28    0.37
   4   0 -10    5.00    0.38
  -4   0  10    5.26    0.37
   4   0 -10    5.37    0.44
   4   0 -10    6.43    0.45
   4   0 -10    5.79    0.41
  -3   0  10   -0.10    0.19
  -3   0  10   -0.47    0.31
  -3   0  10   -0.17    0.21
   3   0 -10    0.19    0.24
  -3   0  10    0.13    0.22
   3   0 -10    0.03    0.30
  -3   0  10   -0.39    0.18
   3   0 -10    0.12    0.21
   3   0 -10   -0.15    0.31
   3   0 -10    0.14    0.29
   2   0 -10   33.31    1.02
   2   0 -10   34.57    1.14
  -2   0  10   35.12    1.01
  -2   0  10   32.43    1.10
  -2   0  10   34.87    1.04
  -2   0  10   32.50    0.99
   2   0 -10   34.28    1.03
   2   0 -10   32.48    1.15
  -1   0  10    0.05    0.22
  -1   0  10   -0.01    0.20
  -1   0  10   -0.19    0.18
   1   0 -10   -0.30    0.31
   1   0 -10    0.24    0.29
   1   0 -10    0.10    0.27
  -1   0  10   -0.23    0.21
   0   0  10    2.53    0.35
   0   0  10    3.02    0.30
   0   0  10    2.71    0.27
   0   0  10    2.87    0.27
   0   0 -10    2.56    0.33
   1   0  10    0.02    0.22
   1   0  10    0.43    0.23
   1   0  10    0.27    0.23
   1   0  10    0.22    0.31
  -1   0 -10    0.27    0.33
  -2   0 -10    4.60    0.32
   2   0  10    5.13    0.49
  -2   0 -10    5.07    0.48
   2   0  10    4.83    0.37
  -2   0 -10    4.65    0.42
   2   0  10    3.90    0.35
   2   0  10    4.33    0.31
   2   0  10    4.20    0.31
  -2   0 -10    4.32    0.43
   3   0  10    0.20    0.33
  -3   0 -10   -0.47    0.25
  -3   0 -10    0.09    0.37
  -3   0 -10    0.21    0.43
   3   0  10    0.09    0.23
   3   0  10    0.02    0.38
   3   0  10   -0.05    0.26
   3   0  10   -0.47    0.27
  -3   0 -10    0.27    0.42
   4   0  10    0.56    0.25
   4   0  10    0.74    0.43
   4   0  10   -0.10    0.31
  -4   0 -10    0.30    0.45
   4   0  10    0.42    0.29
   4   0  10    0.55    0.36
  -4   0 -10    0.22    0.43
   4   0  10    0.56    0.25
  -4   0 -10    0.43    0.37
  -4   0 -10    0.55    0.29
   5   0  10    0.25    0.24
  -5   0 -10   -0.15    0.42
  -5   0 -10    0.62    0.41
  -5   0 -10   -0.20    0.30
   5   0  10   -0.09    0.33
   5   0  10    0.16    0.31
   7   0  10   -0.08    0.16
   7   0  10    0.34    0.27
  -7   0 -10   -0.05    0.21
  11  -1 -10   -0.12    0.18
 -11  -1  10   -0.04    0.17
 -11  -1  10   -0.09    0.18
 -11   1  10    0.20    0.18
 -11   1  10   -0.01    0.16
  11   1 -10    0.07    0.17
 -10  -1  10    0.54    0.20
 -10  -1  10    0.42    0.23
  10  -1 -10    0.06    0.24
  10   1 -10    0.32    0.24
  10   1 -10   -0.01    0.25
  10   1 -10    0.19    0.19
 -10   1  10    0.41    0.24
  10   1 -10    0.07    0.23
 -10   1  10    0.36    0.18
   9  -1 -10    1.79    0.32
   9  -1 -10    1.72    0.32
  -9  -1  10    1.98    0.30
   9   1 -10    1.61    0.25
   9   1 -10    1.17    0.27
  -9   1  10    1.27    0.23
  -9   1  10    1.65    0.28
   9   1 -10    1.07    0.30
   9   1 -10    1.79    0.29
   9   1 -10    1.86    0.34
  -8  -1  10    0.55    0.26
   8  -1 -10    0.47    0.32
  -8  -1  10    0.21    0.26
  -8  -1  10    0.17    0.27
  -8  -1  10    0.26    0.45
   8  -1 -10   -0.09    0.31
  -8  -1  10    0.03    0.35
  -8  -1  10   -0.03    0.27
   8  -1 -10   -0.06    0.30
   8  -1 -10    0.39    0.33
   8   1 -10    0.18    0.26
   8   1 -10    0.30    0.33
  -8   1  10   -0.09    0.21
  -8   1  10    0.08    0.34
  -8   1  10    0.15    0.23
  -8   1  10    0.15    0.27
  -8   1  10   -0.40    0.32
   8   1 -10   -0.11    0.22
   8   1 -10    0.08    0.27
   8   1 -10    0.14    0.41
   8   1 -10    0.13    0.28
  -7  -1  10    0.84    0.37
   7  -1 -10    1.00    0.36
  -7  -1  10    0.83    0.27
  -7  -1  10    0.95    0.29
   7  -1 -10    0.86    0.36
   7  -1 -10    1.47    0.34
  -7  -1  10    0.79    0.26
   7  -1 -10    1.05    0.36
  -7  -1  10    0.65    0.28
  -7  -1  10    1.21    0.40
   7   1 -10    1.20    0.32
  -7   1  10    0.83    0.33
  -7   1  10    1.25    0.38
   7   1 -10    0.40    0.28
  -7   1  10    0.98    0.24
   7   1 -10    0.47    0.27
   7   1 -10    1.68    0.44
  -7   1  10    1.13    0.28
   7   1 -10    1.09    0.39
   7   1 -10    0.54    0.23
   6  -1 -10    8.22    0.59
   6  -1 -10    8.33    0.64
   6  -1 -10    8.16    0.66
   6  -1 -10    7.71    0.56
  -6  -1  10    7.78    0.52
  -6  -1  10   10.82    0.81
  -6  -1  10    9.16    0.51
  -6  -1  10    8.93    0.54
  -6  -1  10    9.14    0.69
   6  -1 -10    9.82    0.62
   6   1 -10    9.25    0.59
   6   1 -10    5.96    0.63
   6   1 -10    7.99    0.46
   6   1 -10    9.15    0.67
  -6   1  10    7.74    0.50
  -6   1  10    8.67    0.48
   6   1 -10    8.19    0.52
   6   1 -10    8.27    0.55
  -6   1  10    8.06    0.57
   6   1 -10    8.73    0.51
  -6   1  10    7.60    0.67
  -5  -1  10    0.59    0.24
   5  -1 -10    0.26    0.31
   5  -1 -10    0.63    0.34
  -5  -1  10    0.07    0.24
  -5  -1  10    0.48    0.35
   5  -1 -10    0.90    0.37
   5  -1 -10   -0.55    0.31
  -5  -1  10    0.48    0.36
   5  -1 -10    0.17    0.33
  -5  -1  10    0.50    0.25
   5  -1 -10    0.47    0.28
   5   1 -10   -0.04    0.23
   5   1 -10    0.35    0.48
  -5   1  10   -0.08    0.33
  -5   1  10    0.61    0.24
   5   1 -10    0.25    0.29
   5   1 -10    0.19    0.23
   5   1 -10    0.29    0.25
   5   1 -10    0.32    0.21
  -5   1  10    1.01    0.31
   5   1 -10    1.12    0.41
   5   1 -10    0.21    0.28
   5   1 -10    1.10    0.41
  -5   1  10    0.43    0.22
  -4  -1  10    0.00    0.33
   4  -1 -10    0.52    0.36
   4  -1 -10    0.09    0.32
   4  -1 -10    0.28    0.27
  -4  -1  10    0.09    0.35
  -4  -1  10    0.38    0.24
  -4  -1  10    0.20    0.23
   4  -1 -10    0.14    0.24
   4  -1 -10    0.32    0.33
  -4   1  10    0.06    0.21
  -4   1  10    0.30    0.22
  -4   1  10    0.10    0.30
   4   1 -10    0.21    0.38
   4   1 -10    0.32    0.30
   4   1 -10   -0.07    0.38
  -4   1  10   -0.03    0.28
   4   1 -10    0.14    0.25
   4   1 -10    0.11    0.23
   3  -1 -10    5.08    0.45
  -3  -1  10    5.44    0.41
   3  -1 -10    5.55    0.44
  -3  -1  10    5.78    0.47
  -3  -1  10    4.20    0.34
   3  -1 -10    4.90    0.41
  -3  -1  10    6.02    0.42
   3  -1 -10    4.76    0.48
   3   1 -10    5.62    0.40
   3   1 -10    5.15    0.40
  -3   1  10    5.51    0.54
   3   1 -10    5.88    0.46
  -3   1  10    5.13    0.45
  -3   1  10    4.12    0.31
  -3   1  10    4.97    0.38
  -3   1  10    5.12    0.35
  -3   1  10    4.39    0.30
  -2  -1  10   15.75    0.64
   2  -1 -10   15.53    0.79
  -2  -1  10   14.74    0.56
  -2  -1  10   15.34    0.61
   2  -1 -10   15.38    0.84
   2  -1 -10   15.53    0.69
   2  -1 -10   15.40    0.62
  -2  -1  10   16.12    0.59
   2  -1 -10   15.55    0.67
   2   1 -10   12.74    0.67
   2   1 -10   15.61    0.60
   2   1 -10   14.62    0.73
  -2   1  10   15.12    0.62
  -2   1  10   15.09    0.57
  -2   1  10   15.75    0.59
  -2   1  10   15.56    0.69
  -2   1  10   15.38    0.79
  -1  -1  10   34.20    1.08
  -1  -1  10   34.56    1.07
   1  -1 -10   34.42    1.42
   1  -1 -10   35.47    1.07
  -1  -1  10   33.49    1.02
   1  -1 -10   36.72    1.17
  -1  -1  10   35.75    1.06
   1   1 -10   32.84    1.17
   1   1 -10   32.31    1.18
  -1   1  10   34.53    1.02
  -1   1  10   34.79    1.03
   1   1 -10   34.00    1.06
  -1   1  10   34.80    1.06
  -1   1  10   33.39    1.14
  -1   1  10   37.14    1.45
   0  -1 -10    0.19    0.27
   0  -1  10    0.00    0.22
   0  -1 -10   -0.34    0.31
   0  -1  10    0.46    0.25
   0  -1  10    0.50    0.25
   0  -1 -10    0.05    0.36
   0   1  10   -0.07    0.22
   0   1 -10   -0.29    0.29
   0   1  10    0.37    0.32
   0   1  10    0.16    0.22
   0   1  10    0.71    0.31
   0   1  10   -0.17    0.22
   0   1 -10   -0.03    0.28
  -1  -1 -10    2.28    0.33
   1  -1  10    2.24    0.30
   1  -1  10    2.13    0.30
   1  -1  10    2.46    0.29
  -1  -1 -10    2.45    0.37
   1   1  10    3.02    0.40
  -1   1 -10    2.13    0.38
   1   1  10    2.55    0.30
   1   1  10    2.58    0.29
   1   1  10    2.54    0.26
   1   1  10    2.55    0.41
   1   1  10    2.12    0.25
  -1   1 -10    1.94    0.41
   2  -1  10    0.13    0.22
   2  -1  10    0.30    0.29
   2  -1  10   -0.28    0.31
  -2  -1 -10   -0.31    0.29
   2  -1  10   -0.19    0.27
  -2   1 -10    0.32    0.37
   2   1  10   -0.01    0.20
   2   1  10    0.06    0.25
  -2   1 -10   -0.02    0.23
  -2   1 -10   -0.49    0.37
   2   1  10    0.15    0.27
  -2   1 -10    0.36    0.42
   2   1  10   -0.07    0.35
   2   1  10    0.38    0.29
   3  -1  10   12.64    0.56
  -3  -1 -10   13.51    0.74
   3  -1  10   12.69    0.66
   3  -1  10   12.75    0.70
   3  -1  10   13.09    0.66
  -3  -1 -10   12.93    0.69
   3   1  10   13.49    0.56
   3   1  10   13.80    0.64
   3   1  10   12.60    0.82
  -3   1 -10   12.58    0.59
   3   1  10   12.75    0.63
  -3   1 -10   13.75    0.86
  -3   1 -10   13.23    0.78
   3   1  10   12.15    0.68
  -3   1 -10   12.76    0.83
   4  -1  10    8.30    0.62
   4  -1  10    8.96    0.60
   4  -1  10    8.29    0.49
  -4  -1 -10    8.95    0.61
   4  -1  10    8.35    0.57
   4  -1  10    8.64    0.61
  -4   1 -10    7.23    0.55
  -4   1 -10    8.27    0.65
  -4   1 -10    7.92    0.62
   4   1  10    7.87    0.57
  -4   1 -10    8.32    0.51
   4   1  10    8.46    0.48
   4   1  10    8.63    0.69
   5  -1  10   -0.18    0.23
   5  -1  10    0.09    0.29
   5  -1  10   -0.03    0.20
   5  -1  10    0.38    0.35
  -5  -1 -10    0.30    0.41
   5  -1  10    0.22    0.33
  -5   1 -10   -0.57    0.46
  -5   1 -10    0.27    0.41
  -5   1 -10    0.16    0.27
  -5   1 -10    0.25    0.38
   5   1  10   -0.06    0.21
   5   1  10    0.24    0.39
   6  -1  10    0.64    0.21
   6  -1  10    0.30    0.33
   6   1  10    0.54    0.20
  -6   1 -10    0.58    0.26
   7  -1  10   -0.43    0.17
   7  -1  10   -0.44    0.26
  -7   1 -10    0.07    0.20
  10  -2 -10    2.03    0.23
  10  -2 -10    1.75    0.25
 -10  -2  10    1.34    0.22
  10   2 -10    1.90    0.22
 -10   2  10    1.68    0.22
  10   2 -10    1.99    0.22
   9  -2 -10    0.60    0.24
   9  -2 -10    0.91    0.30
  -9  -2  10    0.73    0.25
  -9   2  10    0.54    0.24
   9   2 -10    0.33    0.28
   9   2 -10    0.75    0.26
   9   2 -10    0.47    0.22
  -9   2  10    0.69    0.26
   9   2 -10    0.35    0.23
   8  -2 -10    0.45    0.35
   8  -2 -10    1.15    0.30
  -8  -2  10    0.66    0.25
  -8   2  10    0.65    0.23
   8   2 -10    1.36    0.33
   8   2 -10    0.84    0.25
  -8   2  10    0.81    0.29
   8   2 -10    0.45    0.25
   8   2 -10    0.98    0.30
   7  -2 -10   -0.64    0.36
  -7  -2  10   -0.05    0.27
   7  -2 -10    0.32    0.34
   7  -2 -10    0.20    0.32
  -7  -2  10    0.06    0.44
  -7  -2  10   -0.10    0.26
   7  -2 -10    0.16    0.35
   7  -2 -10    0.22    0.32
  -7  -2  10    0.11    0.27
  -7   2  10   -0.05    0.27
   7   2 -10   -0.18    0.25
   7   2 -10   -0.04    0.24
   7   2 -10   -0.05    0.27
   7   2 -10   -0.32    0.32
   7   2 -10    0.26    0.48
  -7   2  10    0.26    0.33
  -7   2  10   -0.35    0.22
   7   2 -10   -0.23    0.31
   6  -2 -10    2.16    0.40
   6  -2 -10    2.92    0.37
  -6  -2  10    2.83    0.33
  -6  -2  10    2.97    0.35
  -6  -2  10    2.60    0.32
   6  -2 -10    2.53    0.39
  -6  -2  10    2.92    0.48
   6  -2 -10    2.91    0.46
   6  -2 -10    2.33    0.41
   6  -2 -10    2.70    0.41
   6   2 -10    2.53    0.31
   6   2 -10    1.64    0.51
  -6   2  10    2.71    0.31
   6   2 -10    3.07    0.32
   6   2 -10    2.81    0.30
   6   2 -10    2.09    0.38
   6   2 -10    3.18    0.36
   6   2 -10    2.31    0.44
  -6   2  10    2.76    0.39
  -6   2  10    2.76    0.35
  -6   2  10    2.53    0.29
   6   2 -10    3.85    0.53
  -5  -2  10    0.65    0.28
   5  -2 -10    0.42    0.37
  -5  -2  10   -0.20    0.26
  -5  -2  10    0.49    0.39
   5  -2 -10    0.15    0.31
  -5  -2  10    0.63    0.24
   5  -2 -10    0.08    0.37
  -5  -2  10    0.73    0.30
   5  -2 -10    0.29    0.37
   5  -2 -10    0.24    0.34
   5  -2 -10    0.56    0.39
  -5  -2  10    0.51    0.27
  -5   2  10    0.56    0.34
   5   2 -10    0.49    0.25
  -5   2  10    0.43    0.24
   5   2 -10    0.33    0.43
   5   2 -10    0.25    0.50
   5   2 -10    0.33    0.25
  -5   2  10    0.52    0.34
   5   2 -10    0.41    0.26
  -5   2  10    0.14    0.41
   5   2 -10    0.27    0.33
  -5   2  10    0.78    0.25
  -5   2  10    0.45    0.26
  -5   2  10    0.75    0.28
  -5   2  10    0.38    0.33
   5   2 -10    0.61    0.27
   4  -2 -10    1.61    0.39
   4  -2 -10    1.87    0.39
   4  -2 -10    1.17    0.37
  -4  -2  10    1.72    0.29
  -4  -2  10    1.28    0.29
   4  -2 -10    0.99    0.30
  -4  -2  10    1.24    0.27
  -4  -2  10    1.51    0.38
  -4  -2  10    1.62    0.28
   4  -2 -10    1.83    0.41
   4  -2 -10    1.09    0.34
  -4  -2  10    1.31    0.31
   4   2 -10    1.62    0.36
  -4   2  10    2.06    0.29
  -4   2  10    1.41    0.27
   4   2 -10    1.45    0.42
  -4   2  10    1.38    0.34
   4   2 -10    1.17    0.27
  -4   2  10    1.23    0.34
  -4   2  10    1.13    0.34
   4   2 -10    1.58    0.26
   4   2 -10    1.53    0.55
  -4   2  10    1.84    0.45
  -4   2  10    1.20    0.26
   4   2 -10    1.46    0.28
   4   2 -10    1.18    0.26
  -3  -2  10    3.11    0.34
   3  -2 -10    3.11    0.39
   3  -2 -10    2.65    0.40
   3  -2 -10    1.94    0.42
  -3   2  10    2.03    0.35
  -3   2  10    2.14    0.45
  -3   2  10    2.08    0.30
   3   2 -10    3.42    0.61
  -3   2  10    2.46    0.32
  -3   2  10    2.28    0.28
  -3   2  10    2.56    0.28
  -3   2  10    2.45    0.28
  -2  -2  10    0.10    0.24
   2  -2 -10    0.47    0.34
   2  -2 -10    0.39    0.27
   2  -2 -10    0.41    0.38
   2  -2 -10    0.33    0.32
  -2  -2  10    0.59    0.26
  -2  -2  10    0.30    0.29
  -2   2  10    0.56    0.23
   2   2 -10    1.02    0.39
  -2   2  10    0.88    0.24
  -2   2  10    0.52    0.38
  -2   2  10    0.18    0.21
  -2   2  10    0.67    0.27
  -2   2  10    0.43    0.29
  -2   2  10    0.53    0.24
   2   2 -10    0.78    0.58
   2   2 -10    0.44    0.23
   2   2 -10    0.66    0.32
  -2   2  10    0.60    0.33
   2   2 -10    0.41    0.24
   1  -2 -10   51.72    1.62
   1  -2 -10   49.15    1.69
  -1  -2  10   50.56    1.53
  -1  -2  10   50.28    1.47
  -1  -2  10   52.87    1.58
   1  -2 -10   52.51    1.99
  -1   2  10   50.05    1.58
  -1   2  10   49.75    1.56
   1   2 -10   50.69    1.53
   1   2 -10   50.30    1.67
  -1   2  10   50.67    1.45
  -1   2  10   50.39    1.55
  -1   2  10   50.60    1.63
   1   2 -10   53.56    2.07
  -1   2  10   51.30    1.92
  -1   2  10   51.94    2.06
   0  -2  10   41.56    1.21
   0  -2 -10   40.82    1.33
   0  -2 -10   43.13    1.64
   0  -2  10   40.36    1.29
   0  -2  10   40.33    1.27
   0   2 -10   39.12    1.27
   0   2  10   40.78    1.34
   0   2  10   39.71    1.69
   0   2  10   39.50    1.26
   0   2  10   41.09    1.60
   0   2  10   38.29    1.18
   0   2 -10   41.30    1.32
   0   2 -10   40.55    1.73
   1  -2  10    1.05    0.32
  -1  -2 -10    1.22    0.33
   1  -2  10    1.20    0.28
  -1   2 -10    1.12    0.38
   1   2  10    1.06    0.39
   1   2  10    1.22    0.23
  -1   2 -10    1.20    0.27
  -1   2 -10    1.13    0.35
   1   2  10    1.09    0.25
   1   2  10    0.93    0.31
   1   2  10    1.00    0.39
   2  -2  10    0.60    0.31
   2  -2  10    0.38    0.25
   2  -2  10    0.23    0.33
  -2  -2 -10    0.42    0.29
   2   2  10    0.70    0.40
   2   2  10    0.40    0.38
  -2   2 -10   -0.53    0.39
   2   2  10    0.58    0.30
  -2   2 -10    0.47    0.36
  -2   2 -10    0.46    0.26
   3  -2  10    1.73    0.39
   3  -2  10    1.76    0.36
  -3  -2 -10    1.94    0.32
  -3   2 -10    1.16    0.38
   3   2  10    1.03    0.26
   3   2  10    1.57    0.41
  -3   2 -10    1.68    0.28
  -3   2 -10    2.25    0.41
  -3   2 -10    1.80    0.43
   4  -2  10   10.16    0.49
   4  -2  10   10.66    0.64
   4  -2  10   11.05    0.67
   4   2  10   10.15    0.55
  -4   2 -10   10.16    0.54
  -4   2 -10    9.52    0.72
  -4   2 -10   10.15    0.74
   4   2  10   10.85    0.71
   5  -2  10    1.74    0.23
   5  -2  10    1.91    0.34
   5   2  10    1.73    0.26
  -5   2 -10    1.74    0.26
   6  -2  10    0.44    0.18
   6  -2  10    0.50    0.27
  -6   2 -10    0.66    0.22
   7  -2  10    0.60    0.23
   9  -3 -10    0.10    0.21
  -9  -3  10    0.08    0.17
  -9   3  10    0.00    0.21
   9   3 -10    0.12    0.17
  -9   3  10    0.07    0.18
  -8  -3  10    5.78    0.39
   8  -3 -10    6.23    0.43
  -8   3  10    6.81    0.42
   8   3 -10    6.11    0.44
   8   3 -10    5.79    0.39
   8   3 -10    6.17    0.43
  -8   3  10    6.00    0.46
  -8   3  10    6.11    0.45
   7  -3 -10   11.75    0.69
  -7  -3  10   12.38    0.59
   7  -3 -10   13.09    0.70
   7   3 -10   14.00    0.65
  -7   3  10   13.24    0.57
  -7   3  10   13.36    0.63
   7   3 -10   13.83    0.59
   7   3 -10   13.13    0.61
   7   3 -10   12.70    0.56
  -7   3  10   13.01    0.63
  -7   3  10   13.34    0.56
   6  -3 -10    3.67    0.44
   6  -3 -10    4.85    0.48
  -6  -3  10    4.27    0.35
  -6   3  10    3.93    0.37
   6   3 -10    3.86    0.36
  -6   3  10    4.05    0.32
  -6   3  10    5.15    0.39
  -6   3  10    2.87    0.37
  -6   3  10    4.25    0.34
   6   3 -10    5.08    0.44
  -6   3  10    4.22    0.39
   6   3 -10    3.85    0.31
   6   3 -10    4.23    0.35
   5  -3 -10    0.47    0.36
  -5  -3  10    0.54    0.26
  -5  -3  10    0.22    0.27
   5  -3 -10    0.57    0.40
   5  -3 -10    0.20    0.37
  -5  -3  10   -0.12    0.31
   5  -3 -10   -0.07    0.42
   5  -3 -10    0.77    0.36
   5  -3 -10    1.02    0.34
  -5  -3  10    0.50    0.26
   5   3 -10    0.99    0.53
  -5   3  10    0.43    0.34
   5   3 -10    0.44    0.25
  -5   3  10    0.50    0.43
   5   3 -10    0.31    0.28
  -5   3  10    0.53    0.26
   5   3 -10    0.47    0.24
  -5   3  10    0.72    0.24
   5   3 -10    0.36    0.36
  -5   3  10    0.53    0.29
  -5   3  10    0.61    0.30
  -5   3  10    0.13    0.30
   5   3 -10    0.53    0.28
  -5   3  10    0.57    0.33
  -5   3  10   -0.09    0.29
  -5   3  10    0.33    0.27
  -4  -3  10   -0.02    0.24
   4  -3 -10    0.06    0.39
  -4  -3  10   -0.04    0.25
   4  -3 -10   -0.30    0.36
   4  -3 -10   -0.03    0.37
   4  -3 -10    0.23    0.40
  -4  -3  10    0.33    0.32
  -4   3  10   -0.06    0.29
  -4   3  10    0.07    0.26
  -4   3  10    0.32    0.26
   4   3 -10   -0.30    0.34
  -4   3  10    0.08    0.28
   4   3 -10   -0.05    0.28
   4   3 -10   -0.05    0.56
  -4   3  10   -0.20    0.35
  -4   3  10   -0.12    0.41
   4   3 -10   -0.06    0.28
  -4   3  10    0.00    0.25
  -4   3  10    0.39    0.34
  -4   3  10    0.36    0.29
   4   3 -10    0.41    0.24
   4   3 -10   -0.54    0.22
  -4   3  10    0.27    0.29
  -3  -3  10    9.85    0.60
  -3  -3  10   10.33    0.54
   3  -3 -10    9.38    0.67
  -3  -3  10   10.23    0.60
   3  -3 -10    8.83    0.78
   3  -3 -10    8.94    0.61
  -3  -3  10    9.94    0.55
   3  -3 -10    9.44    0.73
  -3   3  10    9.48    0.59
   3   3 -10    9.21    0.51
  -3   3  10   10.29    0.66
  -3   3  10    9.28    0.54
  -3   3  10    9.04    0.53
   3   3 -10    9.51    0.53
  -3   3  10    9.03    0.61
   3   3 -10   10.02    0.63
  -3   3  10    8.62    0.75
   3   3 -10    9.66    0.56
  -3   3  10    9.52    0.61
   3   3 -10    9.67    0.92
  -3   3  10    9.64    0.54
   3   3 -10   10.02    0.71
  -3   3  10    9.36    0.56
   3   3 -10    9.53    0.54
   2  -3 -10   12.39    0.74
  -2  -3  10   11.88    0.59
  -2  -3  10   12.28    0.59
  -2  -3  10   12.27    0.65
  -2  -3  10   12.55    0.66
   2  -3 -10   12.09    0.83
   2   3 -10   12.39    0.58
   2   3 -10   11.31    0.65
   2   3 -10   12.08    0.59
  -2   3  10   11.59    0.61
  -2   3  10   13.38    0.61
   2   3 -10   11.39    0.59
  -2   3  10   11.62    0.79
  -2   3  10   12.17    0.82
   2   3 -10   12.71    0.78
  -2   3  10   12.04    0.58
  -2   3  10   13.11    0.64
  -2   3  10   14.24    0.68
   2   3 -10   11.71    0.99
  -2   3  10   13.25    0.65
   2   3 -10   12.02    0.55
   1  -3 -10    8.49    0.71
  -1  -3  10    8.03    0.55
  -1  -3  10    8.52    0.53
  -1  -3  10    8.32    0.56
  -1   3  10    7.63    0.68
  -1   3  10    8.46    0.60
  -1   3  10    8.07    0.50
  -1   3  10    9.32    0.71
   1   3 -10    9.34    0.90
  -1   3  10    8.44    0.65
   1   3 -10    7.65    0.58
   1   3 -10    8.53    0.51
  -1   3  10    8.12    0.54
   1   3 -10    8.25    0.55
   1   3 -10    9.30    0.50
  -1   3  10    7.88    0.53
  -1   3  10    8.78    0.52
  -1   3  10    8.42    0.54
   1   3 -10    8.68    0.50
   0  -3  10    0.18    0.28
   0  -3  10    0.18    0.30
   0  -3  10    0.22    0.30
   0  -3 -10    0.13    0.27
   0   3 -10    0.36    0.24
   0   3  10    0.10    0.34
   0   3 -10    0.17    0.41
   0   3  10    0.34    0.33
   0   3  10    0.69    0.26
   0   3  10    0.34    0.27
   0   3 -10    0.28    0.24
   0   3  10    0.07    0.40
   0   3  10    0.56    0.36
   0   3 -10    0.55    0.25
   1  -3  10    1.39    0.34
   1  -3  10    1.43    0.29
   1  -3  10    1.19    0.29
   1   3  10    1.66    0.28
   1   3  10    2.11    0.42
   1   3  10    1.43    0.36
   1   3  10    1.22    0.37
   1   3  10    1.58    0.34
  -1   3 -10    1.15    0.25
   1   3  10    1.66    0.26
   2  -3  10   -0.31    0.25
  -2  -3 -10    0.18    0.26
   2   3  10    0.05    0.33
  -2   3 -10    0.03    0.23
   2   3  10    0.49    0.36
  -3   3 -10    1.48    0.25
  -4   3 -10    1.22    0.22
  -7   4  10    1.47    0.21
   6  -4 -10    0.25    0.24
   6  -4 -10   -0.06    0.28
  -6  -4  10    0.06    0.20
   6   4 -10    0.33    0.16
  -6   4  10   -0.05    0.19
  -6   4  10    0.24    0.23
  -6   4  10   -0.18    0.18
   5  -4 -10    0.43    0.27
  -5  -4  10    0.08    0.21
  -5  -4  10   -0.05    0.22
   5  -4 -10   -0.28    0.32
  -5   4  10   -0.01    0.22
  -5   4  10    0.09    0.25
   5   4 -10   -0.03    0.22
  -5   4  10   -0.09    0.19
  -5   4  10   -0.06    0.22
  -5   4  10   -0.07    0.28
   5   4 -10   -0.07    0.23
  -5   4  10   -0.23    0.26
   5   4 -10   -0.20    0.28
  -5   4  10    0.13    0.26
   5   4 -10   -0.17    0.18
   4  -4 -10    0.88    0.38
  -4  -4  10    0.84    0.27
  -4  -4  10    0.81    0.23
   4  -4 -10    1.22    0.31
   4   4 -10    1.33    0.27
  -4   4  10    1.17    0.27
   4   4 -10    1.66    0.27
  -4   4  10    0.44    0.32
  -4   4  10    0.86    0.25
   4   4 -10    1.27    0.24
  -4   4  10    0.78    0.27
  -4   4  10    1.41    0.28
  -4   4  10    1.23    0.31
   4   4 -10    1.07    0.33
  -3  -4  10    0.52    0.27
   3  -4 -10    0.82    0.38
   3   4 -10    0.62    0.28
   3   4 -10    0.39    0.26
  -3   4  10    0.89    0.27
  -3   4  10    0.32    0.32
  -3   4  10    0.35    0.27
  -3   4  10    0.57    0.27
  -3   4  10    0.52    0.24
   3   4 -10    0.15    0.23
  -3   4  10    0.50    0.30
   3   4 -10    0.64    0.31
  -2  -4  10   14.75    0.66
   2   4 -10   14.97    0.64
  -2   4  10   16.52    0.69
   2   4 -10   16.21    0.64
  -2   4  10   17.42    0.64
  -2   4  10   15.47    0.67
  -2   4  10   15.79    0.73
   2   4 -10   15.73    0.62
  -2   4  10   15.59    0.65
   2   4 -10   15.61    0.70
  -1  -4  10    0.51    0.25
  -1   4  10    0.65    0.27
   1   4 -10    0.56    0.28
  -1   4  10    0.60    0.32
  -1   4  10    0.49    0.23
   1   4 -10    0.62    0.23
   1   4 -10    0.40    0.23
  -1   4  10    0.77    0.25
  -1   4  10    0.31    0.28
   0  -4  10    2.51    0.27
   0   4 -10    2.66    0.26
   0   4  10    2.61    0.27
   0   4  10    2.57    0.34
   0   4 -10    2.50    0.26
   0   4  10    2.59    0.28
  -1   4 -10    0.47    0.19
  -1   4 -10    0.48    0.22
  -2   4 -10   10.92    0.47
  11   0 -11    1.66    0.18
 -11   0  11    1.52    0.19
  11   0 -11    2.04    0.21
  10   0 -11    0.16    0.21
 -10   0  11    0.03    0.17
 -10   0  11    0.27    0.24
  10   0 -11   -0.33    0.22
  10   0 -11    0.09    0.24
   9   0 -11    6.40    0.42
   9   0 -11    6.18    0.44
   9   0 -11    5.04    0.38
  -9   0  11    5.37    0.39
  -9   0  11    7.37    0.49
   8   0 -11    0.17    0.24
  -8   0  11   -0.04    0.24
  -8   0  11   -0.11    0.25
  -8   0  11    0.17    0.36
  -8   0  11    0.24    0.24
   8   0 -11    0.50    0.31
   8   0 -11    0.04    0.33
   8   0 -11   -0.44    0.34
  -8   0  11    0.15    0.24
  -7   0  11   54.12    1.65
   7   0 -11   53.47    1.71
  -7   0  11   52.57    2.10
  -7   0  11   53.78    1.49
  -7   0  11   53.42    1.59
   7   0 -11   53.48    1.63
  -7   0  11   53.62    1.72
   7   0 -11   54.72    1.67
   7   0 -11   52.91    1.73
   7   0 -11   54.33    1.75
   6   0 -11   -0.03    0.35
  -6   0  11   -0.22    0.26
  -6   0  11   -0.30    0.23
   6   0 -11   -0.27    0.31
   6   0 -11   -0.11    0.33
  -6   0  11    0.16    0.25
  -6   0  11   -0.18    0.22
  -6   0  11    0.42    0.37
   6   0 -11   -0.13    0.37
   6   0 -11    0.39    0.25
   5   0 -11    4.67    0.35
  -5   0  11    4.53    0.34
   5   0 -11    3.22    0.36
  -5   0  11    5.45    0.35
  -5   0  11    4.84    0.47
   5   0 -11    4.53    0.37
   5   0 -11    5.39    0.40
  -5   0  11    5.17    0.33
   5   0 -11    5.51    0.48
  -5   0  11    4.69    0.33
  -5   0  11    2.97    0.38
   5   0 -11    6.14    0.45
  -4   0  11   -0.11    0.25
  -4   0  11   -0.08    0.23
   4   0 -11   -0.12    0.30
  -4   0  11   -0.05    0.35
  -4   0  11   -0.23    0.21
   4   0 -11    0.09    0.37
   4   0 -11   -0.13    0.24
   3   0 -11    0.19    0.22
  -3   0  11   -0.25    0.20
   3   0 -11    0.59    0.35
  -3   0  11    0.40    0.23
  -3   0  11    0.42    0.34
   3   0 -11    0.24    0.33
   2   0 -11   -0.16    0.34
   2   0 -11   -0.11    0.29
  -2   0  11   -0.08    0.21
  -2   0  11   -0.35    0.23
  -2   0  11   -0.05    0.23
   2   0 -11    0.00    0.32
  -2   0  11   -0.23    0.19
   1   0 -11    7.48    0.44
  -1   0  11    6.93    0.45
  -1   0  11    7.45    0.46
  -1   0  11    7.71    0.49
   0   0 -11   -0.14    0.23
   0   0  11   -0.10    0.29
   0   0  11   -0.24    0.24
   0   0  11    0.08    0.23
   0   0 -11   -0.27    0.33
   0   0  11    0.22    0.26
   1   0  11    0.52    0.27
  -1   0 -11   -0.53    0.34
   1   0  11    0.64    0.31
   1   0  11    0.37    0.20
   1   0  11    0.29    0.35
  -1   0 -11    0.31    0.37
   1   0  11    0.30    0.27
  -2   0 -11    0.11    0.23
   2   0  11    0.35    0.33
   2   0  11    0.24    0.30
  -2   0 -11   -0.04    0.40
   2   0  11    0.28    0.23
  -2   0 -11   -0.02    0.36
   2   0  11   -0.08    0.35
  -2   0 -11   -0.38    0.35
   2   0  11    0.16    0.28
   3   0  11    3.83    0.37
  -3   0 -11    3.72    0.45
  -3   0 -11    4.70    0.35
   3   0  11    4.49    0.53
   3   0  11    3.67    0.39
   3   0  11    3.10    0.41
   3   0  11    3.61    0.31
  -3   0 -11    3.48    0.52
  -3   0 -11    2.82    0.48
  -4   0 -11    0.09    0.42
  -4   0 -11    0.09    0.28
   4   0  11    0.02    0.39
   4   0  11   -0.04    0.24
  -4   0 -11    0.22    0.35
   4   0  11    0.01    0.34
  -4   0 -11    0.35    0.42
   4   0  11    0.21    0.31
   4   0  11   -0.09    0.29
   5   0  11    0.40    0.23
  -5   0 -11    0.12    0.28
   5   0  11    0.31    0.33
   6   0  11    0.13    0.29
   6   0  11   -0.01    0.18
  -6   0 -11    0.10    0.23
  -7   0 -11    3.38    0.24
   7   0  11    3.37    0.28
  11  -1 -11    2.25    0.21
 -11  -1  11    1.83    0.19
  11   1 -11    1.76    0.19
 -11   1  11    1.72    0.19
  10  -1 -11    0.70    0.25
 -10  -1  11    0.27    0.17
 -10  -1  11    0.44    0.22
  10   1 -11    0.17    0.18
  10   1 -11    0.50    0.22
  10   1 -11    0.31    0.24
 -10   1  11    0.46    0.23
  -9  -1  11   -0.38    0.26
   9  -1 -11   -0.24    0.27
  -9  -1  11    0.07    0.22
   9   1 -11    0.03    0.24
  -9   1  11   -0.16    0.25
   9   1 -11   -0.01    0.21
   9   1 -11   -0.02    0.26
   9   1 -11    0.17    0.32
  -8  -1  11    4.39    0.35
   8  -1 -11    4.66    0.41
   8  -1 -11    5.19    0.43
   8  -1 -11    4.07    0.41
  -8  -1  11    4.34    0.46
  -8  -1  11    4.99    0.36
  -8  -1  11    4.36    0.33
   8  -1 -11    4.80    0.40
  -8  -1  11    4.36    0.37
   8   1 -11    4.10    0.35
  -8   1  11    4.65    0.32
  -8   1  11    3.33    0.46
   8   1 -11    6.00    0.51
  -8   1  11    4.88    0.33
   8   1 -11    5.50    0.34
  -8   1  11    4.11    0.39
   8   1 -11    4.73    0.41
   8   1 -11    4.09    0.36
   7  -1 -11   26.21    1.00
   7  -1 -11   26.49    1.01
   7  -1 -11   27.94    1.05
  -7  -1  11   25.67    1.18
  -7  -1  11   27.53    0.99
  -7  -1  11   26.89    0.85
  -7  -1  11   26.46    0.94
   7  -1 -11   26.07    1.02
  -7  -1  11   25.89    0.91
  -7   1  11   26.64    0.99
   7   1 -11   25.87    0.91
  -7   1  11   25.11    0.94
  -7   1  11   25.14    1.20
   7   1 -11   27.78    0.89
   7   1 -11   27.18    1.05
  -7   1  11   26.91    0.86
   7   1 -11   27.10    0.96
  -7   1  11   25.93    0.91
   7   1 -11   26.84    0.94
   7   1 -11   26.38    1.09
   6  -1 -11   54.80    1.74
   6  -1 -11   54.26    1.77
   6  -1 -11   55.68    1.78
   6  -1 -11   53.46    1.75
  -6  -1  11   54.08    1.75
  -6  -1  11   54.51    1.50
  -6  -1  11   55.58    1.63
  -6  -1  11   55.49    2.10
  -6  -1  11   56.50    1.68
   6   1 -11   55.63    1.79
  -6   1  11   52.92    2.10
   6   1 -11   54.86    1.79
   6   1 -11   53.47    1.67
  -6   1  11   55.36    1.67
   6   1 -11   54.25    2.15
  -6   1  11   54.43    1.51
   6   1 -11   54.64    1.62
   6   1 -11   55.62    1.67
  -6   1  11   55.56    1.75
   6   1 -11   51.75    1.62
   5  -1 -11    0.02    0.35
   5  -1 -11    0.30    0.37
  -5  -1  11   -0.11    0.26
  -5  -1  11   -0.20    0.36
   5  -1 -11   -0.31    0.31
   5  -1 -11   -0.20    0.37
  -5  -1  11    0.45    0.26
  -5  -1  11   -0.04    0.25
  -5  -1  11   -0.20    0.27
   5  -1 -11    0.11    0.29
   5  -1 -11   -0.30    0.33
  -5   1  11   -0.01    0.32
   5   1 -11   -0.33    0.41
   5   1 -11   -0.46    0.28
   5   1 -11    0.47    0.51
   5   1 -11    0.03    0.39
  -5   1  11    0.43    0.34
  -5   1  11    0.33    0.25
   5   1 -11    0.43    0.25
  -5   1  11    0.26    0.24
   5   1 -11   -0.03    0.21
  -5   1  11   -0.37    0.31
  -5   1  11   -0.02    0.24
  -5   1  11    0.01    0.23
   4  -1 -11    0.79    0.28
   4  -1 -11    0.39    0.38
  -4  -1  11    0.55    0.38
  -4  -1  11    0.84    0.27
  -4  -1  11    1.46    0.29
   4  -1 -11    0.40    0.37
   4  -1 -11    0.94    0.29
   4  -1 -11    0.78    0.30
   4  -1 -11    0.79    0.38
  -4  -1  11    0.67    0.24
  -4  -1  11    0.93    0.26
  -4   1  11    1.02    0.25
  -4   1  11    1.20    0.36
  -4   1  11    0.41    0.31
   4   1 -11    0.69    0.39
   4   1 -11    0.63    0.25
   4   1 -11    0.80    0.33
  -4   1  11    0.69    0.24
  -4   1  11    0.94    0.32
  -4   1  11    0.64    0.24
  -4   1  11    0.97    0.25
   4   1 -11    0.95    0.24
   4   1 -11    0.44    0.25
  -3  -1  11    0.63    0.25
   3  -1 -11    0.75    0.27
   3  -1 -11    1.38    0.35
  -3  -1  11    0.72    0.24
   3  -1 -11    0.73    0.31
   3  -1 -11    0.37    0.36
  -3  -1  11    0.45    0.21
  -3  -1  11    0.12    0.25
   3  -1 -11    0.56    0.37
  -3   1  11    1.23    0.28
   3   1 -11    0.15    0.38
   3   1 -11    0.96    0.25
  -3   1  11    0.33    0.30
   3   1 -11    0.09    0.32
  -3   1  11    0.41    0.24
  -3   1  11    0.91    0.24
  -3   1  11    0.60    0.25
   3   1 -11    0.51    0.24
  -3   1  11    0.42    0.33
   3   1 -11    0.40    0.23
  -3   1  11    0.20    0.23
   2  -1 -11   27.30    1.00
   2  -1 -11   26.02    0.95
  -2  -1  11   27.40    0.91
   2  -1 -11   27.61    0.91
  -2  -1  11   28.51    0.93
  -2  -1  11   28.17    0.89
  -2  -1  11   26.85    0.85
   2  -1 -11   27.98    1.26
  -2  -1  11   26.58    0.91
   2  -1 -11   26.13    1.00
  -2   1  11   27.39    0.86
   2   1 -11   26.32    0.99
  -2   1  11   28.22    1.20
  -2   1  11   27.27    0.89
   2   1 -11   27.13    1.03
  -2   1  11   27.59    0.90
  -2   1  11   26.20    0.95
  -2   1  11   27.21    0.88
   2   1 -11   26.30    0.89
  -1  -1  11   18.34    0.69
  -1  -1  11   19.24    0.71
  -1  -1  11   18.18    0.76
   1  -1 -11   20.19    0.84
   1  -1 -11   18.57    0.74
  -1  -1  11   17.70    0.69
  -1  -1  11   18.06    0.72
   1  -1 -11   19.52    1.02
   1   1 -11   17.22    0.79
   1   1 -11   17.26    0.71
  -1   1  11   17.12    0.72
   1   1 -11   18.51    0.71
  -1   1  11   18.22    0.67
   1   1 -11   18.29    0.80
   1   1 -11   17.74    0.70
  -1   1  11   19.51    0.94
  -1   1  11   19.02    0.67
  -1   1  11   17.56    0.68
  -1   1  11   18.41    0.69
   0  -1  11    0.46    0.32
   0  -1  11    0.92    0.25
   0  -1  11    0.54    0.24
   0  -1  11    0.74    0.33
   0  -1 -11    1.04    0.24
   0  -1  11    0.96    0.28
   0  -1 -11    0.58    0.31
   0  -1  11    0.67    0.27
   0  -1 -11    0.61    0.37
   0   1  11    0.26    0.34
   0   1  11    1.06    0.25
   0   1  11    0.57    0.22
   0   1 -11    0.45    0.24
   0   1  11    0.85    0.21
   0   1 -11    0.58    0.26
   0   1  11    0.91    0.37
   0   1 -11    0.59    0.34
   0   1  11    0.88    0.28
   0   1  11    0.76    0.27
   0   1 -11    0.67    0.35
  -1  -1 -11    0.76    0.35
   1  -1  11    0.77    0.34
   1  -1  11    0.83    0.30
   1  -1  11    0.54    0.29
  -1  -1 -11    0.41    0.32
   1   1  11    0.73    0.24
  -1   1 -11    0.29    0.25
  -1   1 -11    0.51    0.40
  -1   1 -11    0.99    0.38
   1   1  11    0.70    0.22
   1   1  11    0.69    0.37
   1   1  11    0.68    0.27
   1   1  11    0.97    0.31
  -1   1 -11    0.25    0.25
   1   1  11    0.52    0.28
  -2  -1 -11    0.89    0.33
   2  -1  11    1.43    0.37
   2  -1  11    0.89    0.31
   2  -1  11    1.31    0.35
   2  -1  11    0.65    0.30
  -2  -1 -11    1.15    0.34
   2  -1  11    1.22    0.23
  -2  -1 -11    1.60    0.40
   2   1  11    1.40    0.42
  -2   1 -11    1.23    0.28
  -2   1 -11    0.87    0.26
  -2   1 -11    1.48    0.44
  -2   1 -11    1.32    0.47
   2   1  11    1.56    0.34
   2   1  11    1.38    0.24
   2   1  11    1.08    0.31
   2   1  11    1.20    0.30
  -3  -1 -11    9.50    0.68
   3  -1  11    7.75    0.60
   3  -1  11    7.83    0.47
   3  -1  11    8.78    0.55
   3  -1  11    7.89    0.60
  -3  -1 -11    8.41    0.50
   3  -1  11    9.23    0.58
  -3   1 -11    7.93    0.60
   3   1  11    7.44    0.67
  -3   1 -11    8.43    0.51
  -3   1 -11    8.95    0.58
   3   1  11    7.65    0.56
   3   1  11    7.96    0.56
  -3   1 -11    8.77    0.65
   3   1  11    9.08    0.60
   3   1  11    7.54    0.47
   4  -1  11   10.93    0.67
   4  -1  11   11.03    0.52
   4  -1  11   11.31    0.63
  -4  -1 -11   11.01    0.57
  -4  -1 -11   11.30    0.82
   4   1  11   11.90    0.53
  -4   1 -11   10.12    0.63
  -4   1 -11   11.03    0.78
   4   1  11   11.56    0.65
  -4   1 -11   10.58    0.86
  -4   1 -11   11.79    0.58
   4   1  11   11.52    0.77
   5  -1  11    4.37    0.37
   5  -1  11    4.61    0.32
   5  -1  11    5.32    0.44
   5   1  11    5.13    0.38
  -5   1 -11    5.23    0.36
   6  -1  11    0.23    0.19
   6  -1  11    0.28    0.29
  -6   1 -11    0.38    0.24
   6   1  11    0.50    0.17
  -6   1 -11    0.18    0.22
   7  -1  11    1.30    0.24
   7  -1  11    1.05    0.14
  -7   1 -11    1.64    0.20
 -10  -2  11   -0.06    0.18
  10  -2 -11    0.28    0.20
  10  -2 -11    0.47    0.18
  10   2 -11    0.33    0.17
 -10   2  11    0.23    0.21
  10   2 -11    0.00    0.17
 -10   2  11    0.59    0.18
   9  -2 -11    0.25    0.23
  -9  -2  11    0.18    0.20
  -9  -2  11    0.00    0.23
   9  -2 -11    0.59    0.27
  -9   2  11    0.17    0.23
   9   2 -11    0.27    0.20
   9   2 -11    0.19    0.27
   9   2 -11    0.49    0.24
  -9   2  11   -0.27    0.22
   9   2 -11    0.17    0.22
   8  -2 -11   -0.09    0.32
   8  -2 -11   -0.05    0.27
  -8  -2  11   -0.03    0.26
  -8  -2  11   -0.54    0.23
   8   2 -11    0.09    0.23
  -8   2  11   -0.22    0.22
   8   2 -11    0.02    0.23
   8   2 -11    0.40    0.30
  -8   2  11   -0.09    0.26
   8   2 -11    0.10    0.27
  -7  -2  11    0.54    0.44
   7  -2 -11   -0.08    0.35
  -7  -2  11    0.32    0.26
  -7  -2  11    0.26    0.24
  -7  -2  11    0.66    0.29
   7  -2 -11    0.44    0.36
  -7  -2  11    0.13    0.26
   7  -2 -11    0.67    0.33
   7  -2 -11    0.06    0.36
   7  -2 -11    0.37    0.32
   7   2 -11    0.20    0.31
   7   2 -11    0.69    0.36
   7   2 -11    0.53    0.29
  -7   2  11    0.10    0.32
   7   2 -11    0.29    0.26
   7   2 -11    0.62    0.25
  -7   2  11    0.54    0.28
  -7   2  11    0.58    0.27
  -7   2  11    0.50    0.23
  -6  -2  11    3.01    0.47
   6  -2 -11    2.65    0.37
  -6  -2  11    2.49    0.30
   6  -2 -11    2.55    0.37
   6  -2 -11    2.74    0.40
   6  -2 -11    1.20    0.40
   6  -2 -11    2.88    0.46
  -6  -2  11    2.15    0.32
   6  -2 -11    1.52    0.39
  -6  -2  11    2.19    0.32
  -6  -2  11    1.98    0.30
  -6   2  11    2.60    0.30
   6   2 -11    2.31    0.30
  -6   2  11    2.10    0.29
   6   2 -11    2.77    0.42
   6   2 -11    2.38    0.35
   6   2 -11    3.51    0.41
  -6   2  11    2.81    0.36
   6   2 -11    2.50    0.30
   6   2 -11    1.49    0.50
   6   2 -11    1.82    0.28
  -6   2  11    1.76    0.38
   5  -2 -11    7.22    0.52
  -5  -2  11    8.27    0.54
  -5  -2  11    8.18    0.52
   5  -2 -11    6.10    0.57
  -5  -2  11    8.13    0.51
  -5  -2  11    8.23    0.77
  -5  -2  11    8.09    0.51
   5  -2 -11    7.81    0.58
   5  -2 -11    7.57    0.54
  -5  -2  11    7.45    0.49
   5  -2 -11    7.10    0.56
   5  -2 -11    8.17    0.61
   5  -2 -11    7.86    0.50
   5   2 -11    7.81    0.58
   5   2 -11    7.17    0.51
   5   2 -11    6.32    0.67
   5   2 -11    6.84    0.49
  -5   2  11    6.98    0.67
   5   2 -11    8.86    0.66
   5   2 -11    7.02    0.48
  -5   2  11    7.79    0.45
  -5   2  11    7.81    0.59
  -5   2  11    8.11    0.47
  -5   2  11    8.02    0.51
  -5   2  11    7.48    0.58
  -5   2  11    7.74    0.50
  -5   2  11    7.18    0.56
   5   2 -11    7.45    0.50
  -4  -2  11    2.80    0.35
   4  -2 -11    2.94    0.37
  -4  -2  11    3.56    0.34
   4  -2 -11    3.19    0.42
   4  -2 -11    3.75    0.47
   4  -2 -11    3.99    0.45
   4  -2 -11    2.70    0.47
  -4  -2  11    3.39    0.32
   4  -2 -11    3.59    0.36
  -4  -2  11    3.87    0.34
  -4   2  11    3.68    0.32
   4   2 -11    2.89    0.61
  -4   2  11    2.44    0.38
  -4   2  11    3.14    0.33
  -4   2  11    3.82    0.40
  -4   2  11    3.56    0.32
   4   2 -11    3.82    0.49
   4   2 -11    3.44    0.31
   4   2 -11    3.12    0.31
  -4   2  11    3.30    0.49
  -4   2  11    3.75    0.34
  -4   2  11    2.93    0.39
   4   2 -11    2.86    0.32
   4   2 -11    3.62    0.42
   4   2 -11    3.26    0.33
   3  -2 -11   -0.56    0.38
  -3  -2  11   -0.14    0.23
   3  -2 -11   -0.20    0.28
   3  -2 -11   -0.12    0.34
  -3  -2  11    0.31    0.27
  -3  -2  11    0.30    0.27
   3  -2 -11   -0.15    0.30
   3  -2 -11   -0.22    0.38
  -3  -2  11    0.41    0.30
   3   2 -11   -0.48    0.33
   3   2 -11    0.97    0.60
   3   2 -11   -0.05    0.24
  -3   2  11   -0.08    0.29
  -3   2  11   -0.08    0.32
  -3   2  11    0.14    0.25
   3   2 -11   -0.07    0.40
  -3   2  11    0.21    0.32
  -3   2  11    0.07    0.29
  -3   2  11    0.23    0.24
  -3   2  11    0.34    0.25
  -3   2  11   -0.10    0.37
   3   2 -11    0.07    0.23
   2  -2 -11    6.31    0.46
   2  -2 -11    6.23    0.57
  -2  -2  11    5.74    0.41
  -2  -2  11    6.36    0.45
   2  -2 -11    7.21    0.54
   2  -2 -11    6.84    0.52
  -2  -2  11    6.81    0.50
   2   2 -11    4.97    0.70
  -2   2  11    6.53    0.52
  -2   2  11    6.35    0.65
  -2   2  11    6.82    0.44
   2   2 -11    7.38    0.49
   2   2 -11    6.57    0.45
  -2   2  11    7.22    0.46
   2   2 -11    5.17    0.45
  -2   2  11    6.11    0.49
  -2   2  11    6.84    0.46
   2   2 -11    5.62    0.52
  -1  -2  11   54.06    1.60
  -1  -2  11   50.54    1.49
  -1  -2  11   51.93    1.56
   1  -2 -11   51.24    1.63
   1  -2 -11   49.66    2.01
   1  -2 -11   52.18    1.64
  -1   2  11   52.31    1.47
  -1   2  11   51.21    1.57
   1   2 -11   51.12    2.08
  -1   2  11   50.91    1.66
   1   2 -11   52.01    1.55
  -1   2  11   50.70    1.95
  -1   2  11   51.03    2.09
  -1   2  11   51.86    1.59
   0  -2  11   20.28    0.78
   0  -2  11   20.05    0.75
   0  -2 -11   22.13    1.07
   0  -2  11   21.16    0.82
   0  -2 -11   20.05    0.84
   0  -2 -11   20.43    0.86
   0   2  11   20.72    0.73
   0   2  11   21.25    0.84
   0   2  11   20.73    1.06
   0   2  11   20.89    0.75
   0   2 -11   19.48    0.86
   0   2  11   21.39    0.99
   0   2 -11   21.45    0.79
   0   2 -11   19.92    1.15
   1  -2  11   -0.16    0.24
  -1  -2 -11    0.18    0.30
  -1  -2 -11    0.23    0.35
   1  -2  11   -0.08    0.29
   1   2  11   -0.23    0.37
   1   2  11    0.20    0.36
  -1   2 -11    0.39    0.35
   1   2  11    0.29    0.23
   1   2  11    0.19    0.29
   1   2  11   -0.37    0.23
  -1   2 -11    0.11    0.26
  -1   2 -11    0.10    0.37
   2  -2  11    0.11    0.31
   2  -2  11    0.01    0.32
  -2  -2 -11   -0.27    0.29
   2   2  11   -0.40    0.37
  -2   2 -11    0.25    0.39
  -2   2 -11    0.64    0.37
  -2   2 -11    0.32    0.26
   2   2  11    0.63    0.29
   2   2  11    0.14    0.36
  -3  -2 -11    0.10    0.28
   3  -2  11   -0.20    0.35
   3  -2  11   -0.23    0.32
   3   2  11   -0.13    0.35
  -3   2 -11    0.08    0.39
  -3   2 -11   -0.06    0.38
  -3   2 -11   -0.08    0.35
  -3   2 -11   -0.37    0.25
   4  -2  11   -0.23    0.18
   4  -2  11    0.05    0.32
  -4   2 -11    0.33    0.26
   5  -2  11    4.24    0.31
   5  -2  11    4.30    0.37
   5  -2  11    5.02    0.36
  -5   2 -11    4.58    0.31
   6  -2  11    0.03    0.15
   6  -2  11    0.13    0.23
  -6   2 -11   -0.06    0.18
   9  -3 -11   -0.02    0.20
  -9   3  11    0.01    0.19
  -8  -3  11    1.08    0.21
  -8  -3  11    0.89    0.20
   8  -3 -11    1.07    0.28
  -8   3  11    0.62    0.19
  -8   3  11    0.96    0.25
  -8   3  11    1.06    0.22
   8   3 -11    1.33    0.21
  -7  -3  11   -0.19    0.23
   7  -3 -11   -0.41    0.30
   7  -3 -11    0.34    0.32
   7   3 -11    0.27    0.29
  -7   3  11   -0.17    0.23
   7   3 -11    0.38    0.22
  -7   3  11   -0.05    0.26
  -7   3  11    0.13    0.26
   7   3 -11   -0.03    0.28
  -7   3  11    0.03    0.22
  -7   3  11   -0.01    0.23
   7   3 -11   -0.35    0.25
  -6  -3  11    0.56    0.27
   6  -3 -11    0.65    0.36
   6  -3 -11    0.77    0.38
  -6   3  11    0.90    0.30
  -6   3  11    0.63    0.25
   6   3 -11    1.19    0.34
   6   3 -11    0.85    0.27
   6   3 -11    0.41    0.24
  -6   3  11    0.66    0.30
   6   3 -11    0.67    0.29
  -6   3  11    0.79    0.24
  -6   3  11    0.59    0.29
   5  -3 -11   -0.72    0.36
   5  -3 -11   -0.59    0.40
  -5  -3  11    0.59    0.27
  -5  -3  11    0.24    0.27
  -5  -3  11   -0.12    0.30
   5   3 -11    0.36    0.27
   5   3 -11    0.45    0.24
  -5   3  11   -0.11    0.29
  -5   3  11    0.22    0.33
  -5   3  11    0.08    0.32
  -5   3  11    0.57    0.28
   5   3 -11   -0.05    0.21
  -5   3  11    0.05    0.25
  -5   3  11   -0.37    0.24
   5   3 -11   -0.08    0.25
  -5   3  11    0.39    0.23
  -5   3  11    0.00    0.28
   5   3 -11    0.09    0.36
  -4  -3  11    0.37    0.25
   4  -3 -11    0.35    0.37
  -4  -3  11    0.38    0.27
  -4  -3  11    0.89    0.33
   4  -3 -11    0.72    0.41
   4  -3 -11    0.51    0.38
   4  -3 -11    0.55    0.38
  -4  -3  11    0.26    0.28
  -4  -3  11    0.16    0.25
  -4   3  11    0.18    0.34
  -4   3  11    0.29    0.29
  -4   3  11    0.76    0.29
   4   3 -11    0.50    0.25
   4   3 -11    1.10    0.58
   4   3 -11    0.44    0.23
  -4   3  11    0.48    0.29
  -4   3  11    0.59    0.34
   4   3 -11    0.41    0.36
  -4   3  11    0.06    0.30
  -4   3  11    0.30    0.26
   4   3 -11    0.66    0.28
   4   3 -11    0.45    0.27
  -4   3  11    0.45    0.39
  -4   3  11    0.20    0.26
  -3  -3  11    2.02    0.30
   3  -3 -11    2.80    0.42
   3  -3 -11    1.71    0.41
   3  -3 -11    1.75    0.43
  -3  -3  11    1.79    0.30
  -3  -3  11    2.76    0.35
  -3  -3  11    2.52    0.29
   3  -3 -11    2.22    0.42
  -3   3  11    1.89    0.28
   3   3 -11    2.16    0.31
   3   3 -11    2.70    0.39
  -3   3  11    2.53    0.33
  -3   3  11    2.45    0.36
  -3   3  11    3.46    0.34
  -3   3  11    1.99    0.31
  -3   3  11    2.35    0.32
   3   3 -11    2.30    0.31
   3   3 -11    2.03    0.29
   3   3 -11    1.53    0.27
  -3   3  11    1.45    0.42
  -3   3  11    2.93    0.41
   3   3 -11    3.49    0.65
   2  -3 -11    0.80    0.31
  -2  -3  11    0.93    0.27
   2  -3 -11    0.50    0.40
  -2  -3  11    0.80    0.29
  -2  -3  11    1.01    0.31
   2   3 -11    0.12    0.32
  -2   3  11    0.45    0.37
  -2   3  11    0.61    0.31
  -2   3  11    0.88    0.28
   2   3 -11    0.46    0.59
   2   3 -11    0.53    0.26
  -2   3  11    0.66    0.25
  -2   3  11    0.93    0.29
  -2   3  11    1.10    0.35
  -2   3  11    0.99    0.29
   2   3 -11    0.79    0.25
  -2   3  11    0.61    0.30
  -1  -3  11    0.52    0.26
   1  -3 -11    0.84    0.38
   1  -3 -11    0.78    0.30
  -1  -3  11    0.66    0.30
  -1  -3  11    0.43    0.30
  -1   3  11    0.51    0.36
  -1   3  11    0.66    0.34
  -1   3  11    0.61    0.27
  -1   3  11    0.97    0.30
  -1   3  11    0.27    0.26
   1   3 -11    0.41    0.54
  -1   3  11    0.34    0.34
  -1   3  11    0.88    0.25
   1   3 -11    0.68    0.25
   1   3 -11    0.48    0.24
   0  -3  11    0.98    0.28
   0  -3 -11    0.28    0.28
   0  -3  11    1.18    0.30
   0  -3  11    0.89    0.30
   0   3 -11    0.72    0.25
   0   3  11    0.94    0.28
   0   3  11    1.23    0.35
   0   3  11    0.88    0.25
   0   3  11    1.13    0.34
   0   3  11    0.66    0.37
   1   3  11    0.29    0.31
   1   3  11    0.19    0.22
  -1   3 -11    0.16    0.22
  -2   3 -11    1.20    0.25
  -3   3 -11    1.69    0.24
  -4   3 -11    0.90    0.20
  -6  -4  11    1.14    0.18
   6  -4 -11    0.63    0.26
  -6   4  11    1.33    0.22
  -6   4  11    1.14    0.18
  -5  -4  11   -0.24    0.18
  -5  -4  11   -0.30    0.20
   5  -4 -11    0.03    0.24
   5  -4 -11    0.64    0.29
  -5   4  11    0.35    0.22
   5   4 -11    0.17    0.16
  -5   4  11   -0.07    0.20
   4  -4 -11    0.09    0.27
  -4  -4  11    0.22    0.23
  -4  -4  11    0.35    0.19
   4  -4 -11    1.02    0.34
   4   4 -11    0.56    0.24
  -4   4  11    0.23    0.27
  -4   4  11    0.17    0.27
  -4   4  11    0.31    0.24
   4   4 -11    0.43    0.17
   4   4 -11   -0.26    0.19
   4   4 -11    0.86    0.29
  -4   4  11    0.32    0.23
  -4   4  11    0.75    0.22
  -3  -4  11    0.50    0.25
   3  -4 -11    0.82    0.36
  -3  -4  11    0.48    0.20
   3  -4 -11    0.36    0.28
  -3   4  11    0.67    0.26
  -3   4  11    0.71    0.30
   3   4 -11    0.50    0.23
  -3   4  11    0.47    0.28
   3   4 -11    0.81    0.21
   3   4 -11    0.62    0.24
   3   4 -11    0.64    0.30
  -3   4  11    0.90    0.22
  -3   4  11    0.95    0.25
  -2  -4  11    9.07    0.49
  -2   4  11   10.34    0.52
  -2   4  11   10.27    0.49
   2   4 -11    9.73    0.47
   2   4 -11   10.53    0.52
  -2   4  11   11.38    0.49
  -2   4  11   10.90    0.54
  -2   4  11   10.93    0.59
   2   4 -11   10.05    0.57
  -1  -4  11   -0.23    0.21
  -1   4  11    0.11    0.29
   1   4 -11   -0.25    0.19
  -1   4  11    0.11    0.20
   1   4 -11    0.29    0.24
  -1   4  11    0.03    0.21
  -1   4  11   -0.13    0.24
   0  -4  11    0.14    0.19
   0   4 -11   -0.15    0.18
 -11   0  12   -0.13    0.16
  10   0 -12    0.38    0.22
  10   0 -12    0.64    0.21
 -10   0  12    0.64    0.21
   9   0 -12   -0.01    0.22
  -9   0  12   -0.21    0.25
  -9   0  12    0.10    0.22
   9   0 -12   -0.31    0.27
   8   0 -12    3.24    0.32
   8   0 -12    3.43    0.38
   8   0 -12    3.35    0.42
  -8   0  12    3.25    0.30
  -8   0  12    3.36    0.32
  -8   0  12    3.34    0.44
  -8   0  12    3.89    0.30
  -8   0  12    2.60    0.29
  -7   0  12   -0.14    0.23
  -7   0  12   -0.20    0.25
  -7   0  12   -0.36    0.25
   7   0 -12   -0.29    0.37
   7   0 -12   -0.12    0.32
   7   0 -12    0.04    0.25
  -7   0  12   -0.18    0.36
  -6   0  12    1.84    0.27
  -6   0  12    2.33    0.31
   6   0 -12    2.02    0.29
   6   0 -12    2.32    0.46
   6   0 -12    2.84    0.40
  -6   0  12    2.68    0.28
   6   0 -12    2.16    0.36
   6   0 -12    2.42    0.38
  -6   0  12    2.07    0.43
  -5   0  12   -0.19    0.37
   5   0 -12   -0.22    0.38
  -5   0  12   -0.37    0.23
  -5   0  12   -0.40    0.26
   5   0 -12   -0.11    0.24
  -5   0  12    0.14    0.25
   5   0 -12   -0.20    0.30
  -5   0  12   -0.37    0.32
  -4   0  12    0.49    0.33
  -4   0  12    0.36    0.26
  -4   0  12    0.22    0.26
   4   0 -12    0.32    0.29
  -4   0  12    0.25    0.28
  -4   0  12    0.89    0.38
   4   0 -12    0.31    0.25
  -4   0  12    0.15    0.22
   4   0 -12    0.52    0.40
   3   0 -12   -0.03    0.28
  -3   0  12   -0.10    0.24
   3   0 -12   -0.03    0.23
  -3   0  12   -0.13    0.24
  -3   0  12    0.12    0.32
   3   0 -12   -0.90    0.34
  -3   0  12    0.15    0.25
   2   0 -12    5.18    0.46
  -2   0  12    5.77    0.36
   2   0 -12    4.23    0.41
   2   0 -12    4.60    0.37
   2   0 -12    5.24    0.35
  -2   0  12    4.58    0.42
  -2   0  12    5.72    0.38
  -2   0  12    4.24    0.34
  -1   0  12    0.08    0.28
  -1   0  12   -0.11    0.25
   1   0 -12    0.14    0.25
  -1   0  12   -0.25    0.31
  -1   0  12    0.00    0.24
   1   0 -12   -0.23    0.35
   0   0  12    3.50    0.38
   0   0 -12    3.72    0.33
   0   0 -12    4.05    0.43
   0   0  12    3.69    0.42
   0   0  12    3.82    0.31
   0   0  12    3.35    0.34
  -1   0 -12    0.17    0.36
   1   0  12    0.01    0.31
  -1   0 -12   -0.05    0.37
   1   0  12   -0.02    0.20
   1   0  12   -0.14    0.32
  -1   0 -12   -0.19    0.24
   1   0  12    0.12    0.29
  -1   0 -12   -0.22    0.38
   1   0  12    0.27    0.35
   2   0  12    2.00    0.35
  -2   0 -12    1.70    0.44
   2   0  12    1.54    0.28
  -2   0 -12    1.41    0.45
   2   0  12    1.77    0.25
  -2   0 -12    2.06    0.30
  -2   0 -12    1.72    0.42
   2   0  12    1.66    0.43
   2   0  12    1.65    0.34
   2   0  12    2.13    0.38
   3   0  12   -0.02    0.39
  -3   0 -12   -0.23    0.28
  -3   0 -12    0.30    0.43
  -3   0 -12    0.55    0.38
   3   0  12   -0.12    0.30
  -3   0 -12   -0.44    0.43
   3   0  12   -0.10    0.21
   3   0  12   -0.33    0.32
   3   0  12    0.09    0.30
   4   0  12    0.44    0.23
  -4   0 -12    0.34    0.29
   4   0  12   -0.05    0.33
   4   0  12    0.06    0.27
   5   0  12   -0.01    0.19
   5   0  12   -0.31    0.30
  -5   0 -12   -0.15    0.25
  -6   0 -12    0.97    0.21
  -6   0 -12    0.76    0.22
   6   0  12    1.01    0.17
   6   0  12    0.59    0.26
  10  -1 -12    0.21    0.21
 -10  -1  12    0.28    0.19
  10   1 -12   -0.28    0.19
 -10   1  12    0.45    0.20
   9  -1 -12    2.41    0.32
  -9  -1  12    2.27    0.26
  -9  -1  12    1.96    0.27
   9   1 -12    1.88    0.28
   9   1 -12    2.13    0.27
  -9   1  12    2.36    0.26
   9   1 -12    1.95    0.23
  -9   1  12    2.01    0.25
  -8  -1  12    0.68    0.28
   8  -1 -12    0.70    0.31
  -8  -1  12    0.63    0.26
   8  -1 -12    0.98    0.34
  -8  -1  12    0.64    0.27
   8   1 -12    0.93    0.27
   8   1 -12    0.31    0.33
   8   1 -12    0.39    0.26
  -8   1  12    0.55    0.25
   8   1 -12    0.80    0.23
  -8   1  12    0.32    0.24
   7  -1 -12   30.07    1.09
   7  -1 -12   29.43    1.10
  -7  -1  12   29.85    1.08
   7  -1 -12   29.06    1.13
  -7  -1  12   29.76    1.02
  -7  -1  12   29.12    1.30
   7  -1 -12   30.68    1.11
  -7  -1  12   29.45    1.00
  -7  -1  12   31.10    0.92
   7   1 -12   31.07    1.06
   7   1 -12   29.65    1.03
  -7   1  12   29.84    1.03
  -7   1  12   28.55    1.31
  -7   1  12   30.71    0.92
  -7   1  12   30.04    1.01
  -7   1  12   29.34    1.08
   7   1 -12   30.95    0.97
   7   1 -12   30.91    1.19
   7   1 -12   29.31    1.14
  -6  -1  12   36.91    1.31
   6  -1 -12   38.63    1.32
  -6  -1  12   38.46    1.59
  -6  -1  12   39.35    1.23
   6  -1 -12   38.08    1.33
   6  -1 -12   38.15    1.35
  -6  -1  12   38.74    1.11
  -6  -1  12   41.29    1.26
   6  -1 -12   39.24    1.38
   6   1 -12   35.73    1.64
   6   1 -12   39.46    1.26
  -6   1  12   37.54    1.11
  -6   1  12   36.60    1.58
   6   1 -12   40.24    1.20
   6   1 -12   38.52    1.38
  -6   1  12   40.10    1.25
  -6   1  12   39.71    1.32
   6   1 -12   38.26    1.25
  -5  -1  12   -0.15    0.25
   5  -1 -12    0.05    0.30
  -5  -1  12   -0.10    0.24
  -5  -1  12    0.20    0.28
   5  -1 -12   -0.03    0.36
   5  -1 -12    0.02    0.34
  -5  -1  12    0.18    0.37
   5  -1 -12   -0.12    0.41
  -5  -1  12   -0.22    0.27
   5  -1 -12   -0.16    0.31
  -5   1  12   -0.18    0.33
  -5   1  12   -0.34    0.32
  -5   1  12    0.14    0.26
   5   1 -12    0.27    0.24
   5   1 -12    0.60    0.43
   5   1 -12   -0.20    0.29
  -5   1  12   -0.11    0.25
   5   1 -12    0.30    0.27
  -5   1  12    0.05    0.26
  -5   1  12    0.28    0.36
   5   1 -12    0.11    0.52
  -4  -1  12    0.14    0.27
   4  -1 -12    0.15    0.36
  -4  -1  12    0.15    0.27
   4  -1 -12   -0.39    0.42
  -4  -1  12    0.08    0.23
  -4  -1  12    0.00    0.21
  -4  -1  12   -0.26    0.30
   4  -1 -12    0.34    0.29
   4  -1 -12   -0.02    0.33
   4  -1 -12    0.26    0.35
   4   1 -12   -0.37    0.22
   4   1 -12    0.14    0.42
  -4   1  12    0.09    0.31
  -4   1  12    0.18    0.36
   4   1 -12    0.30    0.25
   4   1 -12    0.00    0.54
  -4   1  12    0.19    0.25
  -4   1  12    0.03    0.24
  -4   1  12    0.29    0.32
  -4   1  12   -0.56    0.24
  -4   1  12    0.07    0.27
  -3  -1  12    2.59    0.29
  -3  -1  12    2.42    0.29
  -3  -1  12    2.55    0.27
   3  -1 -12    2.38    0.50
   3  -1 -12    2.13    0.33
  -3  -1  12    2.49    0.30
  -3  -1  12    2.73    0.38
  -3  -1  12    2.51    0.31
   3  -1 -12    2.13    0.41
   3  -1 -12    2.17    0.42
  -3   1  12    2.54    0.29
  -3   1  12    1.90    0.28
  -3   1  12    2.52    0.34
  -3   1  12    2.06    0.28
  -3   1  12    2.95    0.30
   3   1 -12    1.92    0.29
  -3   1  12    3.27    0.37
   3   1 -12    2.37    0.44
   3   1 -12    2.61    0.28
   2  -1 -12    2.55    0.32
   2  -1 -12    2.14    0.37
   2  -1 -12    2.15    0.35
  -2  -1  12    1.84    0.30
  -2  -1  12    2.05    0.38
  -2  -1  12    1.90    0.27
  -2  -1  12    2.06    0.29
   2  -1 -12    2.05    0.26
   2  -1 -12    2.07    0.40
  -2   1  12    2.08    0.28
  -2   1  12    1.80    0.38
  -2   1  12    1.92    0.28
   2   1 -12    1.92    0.27
  -2   1  12    2.11    0.35
   2   1 -12    1.82    0.38
  -2   1  12    2.10    0.31
  -2   1  12    1.51    0.28
   2   1 -12    1.50    0.27
   1  -1 -12    1.56    0.35
  -1  -1  12    1.35    0.30
   1  -1 -12    1.37    0.40
  -1  -1  12    1.06    0.27
   1  -1 -12    1.52    0.26
  -1  -1  12    1.77    0.38
  -1  -1  12    1.32    0.26
  -1  -1  12    1.79    0.32
   1   1 -12    1.69    0.35
   1   1 -12    1.10    0.35
   1   1 -12    1.09    0.26
  -1   1  12    0.82    0.27
   1   1 -12    1.07    0.35
  -1   1  12    1.37    0.27
  -1   1  12    1.25    0.26
  -1   1  12    1.60    0.32
  -1   1  12    1.60    0.39
  -1   1  12    1.72    0.33
   1   1 -12    1.19    0.27
   0  -1  12   29.15    1.15
   0  -1 -12   30.52    1.06
   0  -1 -12   30.70    1.13
   0  -1 -12   29.89    1.01
   0  -1  12   29.47    1.01
   0  -1  12   29.88    1.01
   0  -1  12   29.87    1.09
   0  -1  12   31.74    1.02
   0   1  12   30.53    1.02
   0   1  12   32.33    0.96
   0   1 -12   29.84    1.04
   0   1  12   32.01    1.11
   0   1 -12   28.96    1.17
   0   1  12   30.44    1.00
   0   1 -12   31.84    1.12
   0   1  12   30.61    1.13
   0   1  12   30.71    1.35
   0   1 -12   30.48    1.01
   1  -1  12    4.48    0.38
   1  -1  12    4.35    0.39
   1  -1  12    4.10    0.44
   1  -1  12    4.87    0.44
  -1  -1 -12    5.13    0.36
  -1  -1 -12    4.21    0.40
   1   1  12    4.62    0.42
  -1   1 -12    4.98    0.48
   1   1  12    4.22    0.33
  -1   1 -12    4.91    0.38
  -1   1 -12    4.30    0.35
  -1   1 -12    4.84    0.54
   1   1  12    5.00    0.43
   1   1  12    4.74    0.52
   1   1  12    4.54    0.39
  -2  -1 -12    1.42    0.36
  -2  -1 -12    2.32    0.31
  -2  -1 -12    3.19    0.44
   2  -1  12    2.29    0.34
   2  -1  12    1.75    0.25
  -2  -1 -12    1.34    0.36
   2  -1  12    2.12    0.38
   2  -1  12    2.09    0.39
  -2   1 -12    2.12    0.30
   2   1  12    2.28    0.35
  -2   1 -12    1.28    0.44
  -2   1 -12    2.14    0.30
  -2   1 -12    2.41    0.44
   2   1  12    1.89    0.26
   2   1  12    2.00    0.44
   2   1  12    1.59    0.33
   2   1  12    2.19    0.38
   3  -1  12    0.22    0.31
  -3  -1 -12   -0.13    0.38
   3  -1  12    0.64    0.35
   3  -1  12    0.60    0.23
  -3  -1 -12    0.32    0.33
  -3   1 -12    0.61    0.29
   3   1  12    0.88    0.38
   3   1  12    0.98    0.36
   3   1  12    0.44    0.28
  -3   1 -12    0.74    0.40
  -3   1 -12    0.56    0.37
  -3   1 -12    0.96    0.28
   3   1  12    0.55    0.23
   4  -1  12    0.35    0.28
   4  -1  12    0.18    0.21
   4  -1  12    0.11    0.34
  -4   1 -12    0.61    0.28
   4   1  12    0.32    0.33
  -4   1 -12    0.09    0.26
   4   1  12    0.91    0.23
   5  -1  12    6.21    0.37
   5  -1  12    5.88    0.45
   5  -1  12    6.75    0.52
  -5   1 -12    6.76    0.45
  -5   1 -12    6.05    0.41
  -6  -1 -12    1.51    0.21
   6  -1  12    1.62    0.17
   6  -1  12    2.12    0.28
  -6   1 -12    1.48    0.22
  -6   1 -12    1.38    0.22
 -10   2  12    3.26    0.23
  -9  -2  12   -0.03    0.21
   9  -2 -12    0.23    0.21
   9  -2 -12    0.09    0.25
  -9  -2  12    0.13    0.20
  -9   2  12   -0.05    0.20
   9   2 -12    0.36    0.26
   9   2 -12    0.32    0.19
   9   2 -12    0.33    0.20
  -9   2  12    0.82    0.24
  -8  -2  12    0.37    0.24
   8  -2 -12   -0.12    0.26
   8  -2 -12    0.48    0.31
  -8  -2  12    0.05    0.23
  -8   2  12    0.39    0.22
   8   2 -12    0.04    0.21
   8   2 -12    0.12    0.25
   8   2 -12    0.00    0.22
   8   2 -12    0.54    0.30
  -8   2  12    0.12    0.24
  -7  -2  12    0.51    0.26
   7  -2 -12    0.33    0.35
   7  -2 -12   -0.30    0.30
  -7  -2  12   -0.06    0.24
  -7   2  12    0.12    0.23
   7   2 -12    0.19    0.28
  -7   2  12   -0.31    0.24
   7   2 -12   -0.14    0.23
   7   2 -12    0.07    0.24
   7   2 -12    0.26    0.31
  -7   2  12    0.28    0.26
  -6  -2  12    3.21    0.31
   6  -2 -12    4.64    0.41
  -6  -2  12    3.87    0.35
  -6  -2  12    3.32    0.32
  -6  -2  12    2.98    0.31
   6  -2 -12    3.06    0.44
   6  -2 -12    3.24    0.38
   6  -2 -12    2.88    0.45
   6  -2 -12    3.18    0.45
   6  -2 -12    2.10    0.41
   6   2 -12    3.16    0.43
  -6   2  12    3.22    0.30
   6   2 -12    2.46    0.31
  -6   2  12    2.58    0.35
  -6   2  12    2.97    0.34
   6   2 -12    2.78    0.30
   6   2 -12    1.07    0.49
   6   2 -12    3.22    0.32
   6   2 -12    2.47    0.35
  -6   2  12    3.21    0.31
  -6   2  12    3.53    0.41
   6   2 -12    3.48    0.41
   5  -2 -12    3.58    0.49
   5  -2 -12    6.37    0.52
   5  -2 -12    5.10    0.50
   5  -2 -12    5.30    0.43
   5  -2 -12    4.67    0.50
  -5  -2  12    5.27    0.37
  -5  -2  12    4.43    0.36
  -5  -2  12    4.12    0.36
   5  -2 -12    4.18    0.40
  -5  -2  12    5.11    0.38
   5   2 -12    4.62    0.35
  -5   2  12    3.33    0.39
  -5   2  12    4.92    0.34
  -5   2  12    6.02    0.38
   5   2 -12    4.60    0.36
   5   2 -12    4.27    0.38
   5   2 -12    4.63    0.34
   5   2 -12    4.71    0.46
  -5   2  12    4.96    0.35
  -5   2  12    5.42    0.38
   5   2 -12    3.90    0.59
  -5   2  12    5.56    0.43
   5   2 -12    5.59    0.52
  -5   2  12    5.86    0.45
   4  -2 -12    0.10    0.38
   4  -2 -12    0.24    0.38
  -4  -2  12    0.16    0.28
   4  -2 -12   -0.05    0.37
  -4  -2  12    0.18    0.25
   4  -2 -12    0.44    0.40
   4  -2 -12    0.44    0.31
  -4  -2  12    0.01    0.28
   4  -2 -12    0.39    0.32
  -4  -2  12   -0.16    0.29
   4   2 -12    0.69    0.42
  -4   2  12    0.50    0.39
  -4   2  12    0.01    0.27
  -4   2  12    0.06    0.33
   4   2 -12    0.40    0.56
  -4   2  12   -0.25    0.33
   4   2 -12    0.05    0.26
  -4   2  12    0.15    0.25
  -4   2  12   -0.09    0.32
  -4   2  12    0.31    0.25
   4   2 -12    0.46    0.26
   4   2 -12    0.18    0.35
   3  -2 -12    3.32    0.50
   3  -2 -12    3.18    0.44
   3  -2 -12    2.59    0.38
   3  -2 -12    2.75    0.46
  -3  -2  12    2.23    0.33
  -3  -2  12    3.55    0.33
  -3  -2  12    3.88    0.32
   3  -2 -12    3.13    0.35
  -3  -2  12    3.17    0.34
   3  -2 -12    3.77    0.37
   3   2 -12    4.10    0.34
  -3   2  12    3.26    0.32
  -3   2  12    3.21    0.46
   3   2 -12    2.60    0.45
   3   2 -12    3.47    0.32
   3   2 -12    2.56    0.41
  -3   2  12    3.85    0.40
  -3   2  12    3.41    0.38
  -3   2  12    3.21    0.31
   3   2 -12    2.52    0.64
  -3   2  12    3.60    0.40
  -3   2  12    3.66    0.33
   2  -2 -12    0.23    0.32
   2  -2 -12    0.57    0.41
   2  -2 -12    0.72    0.39
  -2  -2  12    0.19    0.24
   2  -2 -12   -0.04    0.28
  -2  -2  12    0.23    0.29
   2  -2 -12   -0.14    0.29
  -2  -2  12    0.25    0.26
  -2   2  12    0.09    0.24
  -2   2  12   -0.05    0.37
  -2   2  12   -0.14    0.25
  -2   2  12    0.26    0.30
   2   2 -12    0.26    0.26
   2   2 -12    0.60    0.41
   2   2 -12   -0.04    0.24
  -2   2  12    0.11    0.30
   2   2 -12    0.59    0.61
  -2   2  12    0.50    0.24
   1  -2 -12   57.14    1.85
  -1  -2  12   57.26    1.65
  -1  -2  12   58.49    1.76
   1  -2 -12   57.94    1.70
   1  -2 -12   55.80    2.25
  -1  -2  12   57.25    1.73
   1  -2 -12   57.79    1.80
  -1  -2  12   57.73    1.84
  -1   2  12   56.87    2.32
  -1   2  12   58.64    1.76
   1   2 -12   58.87    1.73
  -1   2  12   59.62    1.64
  -1   2  12   59.80    1.85
   1   2 -12   59.47    2.31
   1   2 -12   56.34    1.73
  -1   2  12   59.38    1.75
   0  -2 -12    1.78    0.39
   0  -2  12    1.73    0.28
   0  -2  12    1.31    0.28
   0  -2  12    1.50    0.32
   0  -2 -12    1.90    0.35
   0   2  12    1.73    0.34
   0   2  12    1.88    0.40
   0   2  12    1.58    0.42
   0   2 -12    1.25    0.29
   0   2  12    1.43    0.27
   0   2  12    1.56    0.26
   0   2 -12    1.62    0.37
   0   2 -12    1.50    0.26
  -1  -2 -12    2.29    0.37
  -1  -2 -12    1.56    0.34
   1  -2  12    1.75    0.34
  -1   2 -12    1.22    0.31
   1   2  12    1.82    0.27
   1   2  12    2.01    0.27
   1   2  12    1.80    0.41
   1   2  12    2.02    0.34
   1   2  12    1.48    0.41
  -1   2 -12    2.00    0.42
  -1   2 -12    1.83    0.38
  -2  -2 -12    0.00    0.27
   2  -2  12    0.07    0.32
  -2   2 -12   -0.03    0.27
   2   2  12   -0.22    0.27
  -2   2 -12   -0.04    0.38
   2   2  12    0.15    0.35
   3  -2  12    0.32    0.32
   3  -2  12    0.39    0.33
  -3   2 -12    0.61    0.27
   4  -2  12   15.34    0.67
   4  -2  12   14.46    0.66
  -4   2 -12   15.74    0.62
   5  -2  12    4.26    0.32
   5  -2  12    4.17    0.27
  -5   2 -12    4.34    0.29
  -8  -3  12    0.49    0.18
   8  -3 -12    1.34    0.25
  -8  -3  12    0.90    0.18
  -8   3  12    0.69    0.17
  -8   3  12    0.80    0.22
   8   3 -12    0.73    0.18
  -8   3  12    0.74    0.19
  -7  -3  12    1.23    0.23
   7  -3 -12    2.12    0.33
  -7   3  12    1.17    0.26
  -7   3  12    0.91    0.23
  -7   3  12    1.83    0.23
   7   3 -12    1.26    0.27
  -7   3  12    1.49    0.26
   7   3 -12    1.41    0.23
   7   3 -12    0.89    0.27
   6  -3 -12    0.20    0.33
  -6  -3  12    0.06    0.24
   6  -3 -12    0.09    0.34
  -6  -3  12    0.18    0.23
   6   3 -12    0.04    0.30
   6   3 -12   -0.10    0.27
  -6   3  12   -0.01    0.26
  -6   3  12    0.00    0.21
  -6   3  12    0.18    0.27
  -6   3  12    0.44    0.28
   6   3 -12    0.11    0.22
   6   3 -12    0.40    0.25
  -6   3  12    0.34    0.24
  -5  -3  12   -0.38    0.25
   5  -3 -12   -0.01    0.35
  -5  -3  12   -0.18    0.26
   5  -3 -12   -0.28    0.37
   5   3 -12    0.14    0.34
   5   3 -12    0.47    0.27
  -5   3  12    0.23    0.28
  -5   3  12    0.18    0.25
  -5   3  12    0.36    0.22
  -5   3  12    0.55    0.27
  -5   3  12    0.00    0.25
   5   3 -12   -0.21    0.22
  -5   3  12    0.23    0.32
  -5   3  12   -0.02    0.30
   5   3 -12   -0.09    0.25
  -4  -3  12    0.05    0.25
  -4  -3  12    0.21    0.29
   4  -3 -12    0.53    0.40
  -4   3  12    0.21    0.27
  -4   3  12   -0.20    0.27
   4   3 -12   -0.37    0.34
  -4   3  12    0.03    0.25
  -4   3  12    0.01    0.32
   4   3 -12   -0.52    0.25
   4   3 -12    0.19    0.23
  -4   3  12   -0.26    0.32
  -4   3  12   -0.54    0.24
  -4   3  12   -0.17    0.24
   4   3 -12   -0.11    0.25
  -3  -3  12    0.44    0.25
   3  -3 -12    0.27    0.37
  -3  -3  12    0.37    0.29
  -3   3  12    0.85    0.28
  -3   3  12    0.31    0.25
   3   3 -12    0.58    0.25
   3   3 -12    0.51    0.26
  -3   3  12    0.98    0.28
  -3   3  12   -0.27    0.35
  -3   3  12    0.53    0.25
   3   3 -12    0.26    0.34
  -3   3  12   -0.14    0.31
   2  -3 -12    2.39    0.41
  -2  -3  12    1.67    0.31
  -2  -3  12    2.31    0.31
   2  -3 -12    1.11    0.31
   2   3 -12    1.71    0.28
  -2   3  12    2.07    0.31
  -2   3  12    2.63    0.29
  -2   3  12    1.82    0.37
  -2   3  12    2.44    0.31
  -2   3  12    2.37    0.32
  -2   3  12    1.36    0.39
  -1  -3  12    1.83    0.30
  -1   3  12    1.86    0.27
   1   3 -12    1.87    0.28
  -1   3  12    1.69    0.28
  -1   3  12    1.86    0.37
  -1   3  12    1.77    0.31
   0  -3  12    0.05    0.24
   0   3  12    0.01    0.31
   0   3  12    0.09    0.26
   0   3 -12    0.14    0.24
   0   3  12   -0.13    0.22
  -1   3 -12    1.93    0.26
   1   3  12    1.90    0.24
   1   3  12    2.07    0.34
  -2   3 -12    0.31    0.21
  -3   3 -12    0.12    0.19
  -5  -4  12    0.12    0.17
   5  -4 -12    0.43    0.25
  -5   4  12    0.31    0.17
  -5   4  12    0.40    0.20
  -4  -4  12    0.02    0.16
   4  -4 -12   -0.36    0.27
   4  -4 -12    0.13    0.24
  -4  -4  12   -0.05    0.18
  -4   4  12   -0.08    0.18
  -4   4  12   -0.32    0.21
   4   4 -12    0.01    0.15
  -3  -4  12    2.36    0.23
   3  -4 -12    2.47    0.36
   3  -4 -12    1.74    0.29
  -3   4  12    1.99    0.22
  -3   4  12    2.44    0.22
   3   4 -12    2.07    0.20
  -2  -4  12    3.20    0.25
  -2   4  12    3.85    0.25
  -2   4  12    4.37    0.32
  -1  -4  12    0.33    0.17
 -10   0  13    0.04    0.18
  10   0 -13    0.09    0.18
  10   0 -13    0.13    0.20
  -9   0  13    0.18    0.20
   9   0 -13   -0.03    0.21
  -9   0  13    0.23    0.23
   9   0 -13   -0.12    0.25
   8   0 -13    0.05    0.29
   8   0 -13   -0.13    0.24
  -8   0  13    0.21    0.23
  -8   0  13    0.60    0.25
  -7   0  13    7.59    0.47
   7   0 -13    8.67    0.68
  -7   0  13    8.17    0.48
   7   0 -13    8.75    0.51
   7   0 -13    7.54    0.60
  -7   0  13    8.32    0.69
  -7   0  13    8.50    0.50
   6   0 -13   -0.07    0.25
  -6   0  13   -0.09    0.27
  -6   0  13    0.29    0.39
  -6   0  13    0.02    0.23
   6   0 -13    0.38    0.42
   6   0 -13    0.62    0.34
  -6   0  13    0.34    0.25
  -5   0  13    2.35    0.44
   5   0 -13    1.86    0.30
  -5   0  13    1.77    0.37
  -5   0  13    1.71    0.30
  -5   0  13    2.56    0.31
   5   0 -13    1.84    0.46
  -5   0  13    2.15    0.31
   5   0 -13    1.81    0.35
   4   0 -13    0.06    0.39
   4   0 -13    0.01    0.30
  -4   0  13   -0.16    0.27
  -4   0  13    0.10    0.32
  -4   0  13    0.22    0.27
  -4   0  13   -0.52    0.27
   4   0 -13   -0.08    0.25
  -3   0  13    0.47    0.27
  -3   0  13    0.32    0.25
  -3   0  13    0.81    0.29
   3   0 -13    0.04    0.38
   3   0 -13    0.09    0.25
   3   0 -13    0.41    0.31
  -3   0  13   -0.02    0.34
  -3   0  13    0.01    0.26
  -2   0  13    0.23    0.27
   2   0 -13    0.29    0.33
  -2   0  13   -0.06    0.32
  -2   0  13   -0.02    0.28
   2   0 -13   -0.09    0.24
  -2   0  13   -0.17    0.25
   2   0 -13   -0.48    0.33
   2   0 -13   -0.09    0.29
  -1   0  13    3.51    0.32
   1   0 -13    3.11    0.32
  -1   0  13    3.53    0.36
  -1   0  13    3.96    0.43
   1   0 -13    4.11    0.43
  -1   0  13    3.35    0.36
   0   0  13   -0.08    0.23
   0   0  13    0.26    0.32
   0   0  13   -0.40    0.28
   0   0  13   -0.02    0.34
   0   0 -13    0.08    0.38
   0   0 -13    0.19    0.28
   0   0 -13   -0.50    0.37
   1   0  13    0.03    0.35
  -1   0 -13   -0.31    0.28
   1   0  13    0.32    0.31
   1   0  13   -0.16    0.32
   1   0  13   -0.07    0.25
  -1   0 -13    0.36    0.36
   1   0  13   -0.10    0.20
  -1   0 -13    0.19    0.39
   1   0  13   -0.22    0.34
   2   0  13   -0.09    0.35
   2   0  13    0.18    0.25
  -2   0 -13   -0.02    0.29
  -2   0 -13    0.24    0.37
   2   0  13   -0.03    0.31
   2   0  13   -0.48    0.35
  -2   0 -13    0.55    0.41
   2   0  13    0.26    0.30
  -2   0 -13   -0.34    0.40
   2   0  13    0.07    0.21
  -3   0 -13    0.30    0.28
   3   0  13    0.35    0.29
  -3   0 -13    0.12    0.28
   3   0  13    0.27    0.34
   3   0  13    0.30    0.21
   4   0  13   -0.51    0.24
  -4   0 -13    0.33    0.26
  -4   0 -13    0.00    0.26
   4   0  13    0.14    0.19
   4   0  13    0.10    0.33
   5   0  13    5.42    0.38
   5   0  13    4.43    0.30
  -5   0 -13    4.59    0.29
  -5   0 -13    4.86    0.32
  10  -1 -13   -0.03    0.18
 -10  -1  13    0.11    0.18
  10   1 -13    0.24    0.18
 -10   1  13   -0.21    0.18
  -9  -1  13    0.26    0.20
   9  -1 -13    0.07    0.25
  -9  -1  13    0.48    0.20
  -9   1  13   -0.01    0.19
   9   1 -13   -0.37    0.21
  -9   1  13    0.20    0.21
   8  -1 -13    0.10    0.29
  -8  -1  13    0.31    0.24
  -8  -1  13    0.17    0.24
   8   1 -13    0.31    0.26
  -8   1  13    0.84    0.25
  -8   1  13    0.32    0.23
   8   1 -13    0.22    0.20
   8   1 -13    0.52    0.31
   7  -1 -13    8.49    0.60
  -7  -1  13    8.72    0.53
  -7  -1  13    8.66    0.69
  -7  -1  13    7.71    0.52
  -7  -1  13    7.81    0.49
  -7  -1  13   10.02    0.48
   7  -1 -13    7.88    0.60
   7  -1 -13    7.66    0.63
  -7   1  13    7.99    0.69
  -7   1  13    8.42    0.55
  -7   1  13    8.83    0.46
   7   1 -13    8.92    0.68
   7   1 -13    8.57    0.53
   7   1 -13    8.93    0.60
   7   1 -13    8.06    0.44
  -7   1  13    8.25    0.54
  -7   1  13    8.85    0.49
  -6  -1  13   19.14    0.76
  -6  -1  13   17.76    0.75
   6  -1 -13   18.34    0.84
  -6  -1  13   17.73    0.96
   6  -1 -13   18.46    0.84
   6  -1 -13   19.10    0.89
  -6  -1  13   18.53    0.71
   6  -1 -13   18.14    0.83
  -6  -1  13   19.12    0.70
   6   1 -13   18.26    0.69
   6   1 -13   17.33    0.78
   6   1 -13   18.89    0.75
  -6   1  13   17.33    0.96
  -6   1  13   18.15    0.78
  -6   1  13   19.53    0.73
   6   1 -13   20.03    0.91
  -6   1  13   17.82    0.68
  -6   1  13   18.56    0.76
  -5  -1  13    3.95    0.36
   5  -1 -13    4.09    0.41
  -5  -1  13    3.67    0.32
  -5  -1  13    4.02    0.37
  -5  -1  13    4.73    0.33
   5  -1 -13    4.85    0.51
  -5  -1  13    3.10    0.39
   5  -1 -13    4.49    0.44
  -5   1  13    4.86    0.43
  -5   1  13    5.06    0.36
   5   1 -13    3.25    0.35
  -5   1  13    4.71    0.35
   5   1 -13    3.28    0.62
   5   1 -13    3.20    0.46
   5   1 -13    4.90    0.33
  -5   1  13    4.45    0.34
  -5   1  13    4.34    0.47
  -5   1  13    3.97    0.44
   4  -1 -13    1.00    0.38
  -4  -1  13    0.99    0.26
   4  -1 -13    1.71    0.36
   4  -1 -13    1.65    0.34
  -4  -1  13    2.25    0.32
  -4  -1  13    1.81    0.32
   4  -1 -13    0.96    0.38
  -4  -1  13    1.11    0.34
  -4  -1  13    1.57    0.27
  -4  -1  13    1.58    0.26
  -4   1  13    1.53    0.35
   4   1 -13    1.85    0.27
  -4   1  13    1.20    0.28
   4   1 -13    2.11    0.46
   4   1 -13    1.91    0.61
  -4   1  13    1.98    0.30
  -4   1  13    1.39    0.28
  -4   1  13    1.85    0.29
   4   1 -13    1.65    0.29
   3  -1 -13    0.45    0.36
  -3  -1  13    0.33    0.29
   3  -1 -13    0.02    0.31
   3  -1 -13    0.13    0.37
  -3  -1  13    0.08    0.25
  -3  -1  13   -0.04    0.24
  -3  -1  13   -0.07    0.27
   3  -1 -13    0.09    0.23
  -3  -1  13    0.24    0.35
  -3   1  13   -0.06    0.31
  -3   1  13   -0.01    0.25
   3   1 -13    0.18    0.26
   3   1 -13   -0.06    0.24
  -3   1  13   -0.21    0.25
   3   1 -13   -0.55    0.58
  -3   1  13    0.04    0.31
  -3   1  13    0.18    0.24
   3   1 -13    0.06    0.40
  -3   1  13   -0.01    0.25
   2  -1 -13    3.76    0.38
  -2  -1  13    3.79    0.35
  -2  -1  13    3.63    0.42
   2  -1 -13    3.78    0.31
  -2  -1  13    3.24    0.32
   2  -1 -13    2.68    0.44
  -2  -1  13    3.11    0.34
  -2   1  13    3.77    0.33
  -2   1  13    3.24    0.36
   2   1 -13    3.66    0.31
   2   1 -13    3.88    0.44
  -2   1  13    4.31    0.34
   2   1 -13    3.16    0.32
  -2   1  13    3.39    0.33
  -2   1  13    3.49    0.40
  -1  -1  13   10.83    0.56
   1  -1 -13   11.10    0.55
   1  -1 -13   11.61    0.67
  -1  -1  13   11.48    0.60
  -1  -1  13   10.21    0.58
  -1  -1  13   10.91    0.54
   1  -1 -13   10.22    0.71
  -1  -1  13   10.44    0.69
   1   1 -13    9.79    0.71
  -1   1  13   11.42    0.60
   1   1 -13   10.25    0.56
  -1   1  13   11.24    0.72
  -1   1  13   11.51    0.55
  -1   1  13   11.01    0.64
  -1   1  13   10.93    0.54
  -1   1  13   11.06    0.60
   1   1 -13   10.25    0.69
   1   1 -13   10.33    0.58
   0  -1  13   78.91    2.27
   0  -1 -13   78.30    2.24
   0  -1  13   78.97    2.50
   0  -1  13   79.36    2.33
   0  -1  13   79.06    2.45
   0  -1  13   78.79    2.29
   0  -1 -13   80.50    2.32
   0   1  13   78.72    2.33
   0   1  13   81.43    2.48
   0   1  13   80.24    2.27
   0   1  13   79.40    2.16
   0   1 -13   78.31    2.33
   0   1  13   80.52    3.06
   0   1  13   81.36    2.45
   0   1 -13   82.06    2.31
   0   1 -13   79.92    2.53
   0   1 -13   74.47    2.97
   0   1 -13   80.74    2.37
  -1  -1 -13    6.85    0.48
   1  -1  13    7.62    0.60
   1  -1  13    6.48    0.51
  -1  -1 -13    7.12    0.50
   1  -1  13    6.97    0.44
   1  -1  13    6.84    0.45
  -1  -1 -13    6.87    0.54
  -1  -1 -13    6.78    0.49
  -1   1 -13    7.07    0.61
  -1   1 -13    6.84    0.51
   1   1  13    6.32    0.44
   1   1  13    7.23    0.50
  -1   1 -13    6.91    0.54
   1   1  13    7.91    0.54
   1   1  13    6.80    0.43
  -1   1 -13    6.61    0.51
   1   1  13    6.93    0.64
  -2  -1 -13   -0.21    0.32
   2  -1  13    0.50    0.35
  -2  -1 -13    0.23    0.28
  -2  -1 -13   -0.10    0.38
   2  -1  13    0.40    0.32
  -2   1 -13    0.18    0.27
   2   1  13   -0.28    0.34
  -2   1 -13    0.21    0.28
   2   1  13   -0.13    0.35
  -2   1 -13   -0.23    0.37
  -2   1 -13   -0.14    0.39
   2   1  13   -0.36    0.28
   3  -1  13   -0.06    0.28
   3  -1  13   -0.01    0.33
   3  -1  13   -0.14    0.18
  -3  -1 -13    0.18    0.27
  -3   1 -13   -0.29    0.27
   3   1  13   -0.23    0.32
   3   1  13    0.10    0.27
  -3   1 -13   -0.03    0.27
   4  -1  13   -0.08    0.32
  -4  -1 -13   -0.01    0.24
   4  -1  13   -0.11    0.25
   4  -1  13    0.07    0.18
  -4   1 -13    0.32    0.26
  -4   1 -13    0.16    0.26
  -5  -1 -13    6.35    0.38
   5  -1  13    6.32    0.47
   5  -1  13    6.24    0.31
  -5   1 -13    6.87    0.39
  -5   1 -13    7.10    0.40
   9  -2 -13    0.39    0.22
  -9  -2  13   -0.14    0.17
   9  -2 -13   -0.01    0.19
  -9  -2  13    0.01    0.18
   9   2 -13   -0.29    0.17
  -9   2  13    0.38    0.21
  -9   2  13   -0.12    0.17
  -9   2  13    0.10    0.16
   9   2 -13   -0.26    0.16
   8  -2 -13    0.95    0.25
   8  -2 -13    0.44    0.28
  -8  -2  13    1.06    0.22
  -8  -2  13    0.97    0.24
   8   2 -13    0.82    0.23
  -8   2  13    0.73    0.21
   8   2 -13    0.55    0.22
   8   2 -13    0.95    0.28
  -8   2  13    0.90    0.27
  -8   2  13    1.05    0.21
   8   2 -13    0.86    0.21
   7  -2 -13    0.11    0.28
  -7  -2  13    0.03    0.24
   7  -2 -13    0.37    0.32
  -7  -2  13    0.43    0.22
  -7   2  13    0.23    0.22
   7   2 -13    0.20    0.24
  -7   2  13    0.15    0.22
   7   2 -13    0.29    0.22
  -7   2  13    1.21    0.28
   7   2 -13    0.34    0.24
   7   2 -13    0.50    0.29
  -7   2  13    0.27    0.25
   6  -2 -13   33.14    1.14
  -6  -2  13   32.60    1.09
  -6  -2  13   34.02    1.07
   6  -2 -13   32.78    1.21
  -6   2  13   33.09    1.08
   6   2 -13   31.05    1.09
  -6   2  13   33.13    1.11
  -6   2  13   32.38    1.09
   6   2 -13   33.06    1.08
   6   2 -13   34.23    1.06
   5  -2 -13    1.63    0.45
   5  -2 -13    2.62    0.43
  -5  -2  13    2.76    0.32
  -5  -2  13    2.35    0.30
  -5  -2  13    2.77    0.32
   5  -2 -13    2.96    0.44
   5  -2 -13    2.47    0.38
  -5  -2  13    2.98    0.30
   5  -2 -13    2.81    0.37
  -5   2  13    2.91    0.30
   5   2 -13    2.61    0.57
  -5   2  13    2.81    0.31
  -5   2  13    3.18    0.39
   5   2 -13    2.76    0.31
  -5   2  13    2.56    0.38
   5   2 -13    2.88    0.44
  -5   2  13    2.05    0.29
   5   2 -13    3.15    0.32
  -4  -2  13    1.54    0.30
   4  -2 -13    1.51    0.45
   4  -2 -13    1.56    0.38
   4  -2 -13    2.09    0.36
   4  -2 -13    2.31    0.42
  -4  -2  13    1.65    0.27
  -4  -2  13    1.51    0.29
   4  -2 -13    2.32    0.42
  -4  -2  13    1.41    0.31
  -4   2  13    2.38    0.29
  -4   2  13    1.38    0.35
   4   2 -13    2.14    0.30
   4   2 -13    2.04    0.60
  -4   2  13    2.37    0.38
   4   2 -13    2.15    0.30
  -4   2  13    2.43    0.30
  -4   2  13    1.83    0.29
   4   2 -13    1.66    0.37
   4   2 -13    1.95    0.43
   3  -2 -13   -0.01    0.31
  -3  -2  13   -0.08    0.23
  -3  -2  13    0.00    0.28
  -3  -2  13   -0.08    0.25
   3  -2 -13    0.42    0.44
  -3  -2  13    0.31    0.26
   3  -2 -13    0.46    0.36
   3   2 -13   -0.20    0.58
  -3   2  13   -0.17    0.30
   3   2 -13   -0.07    0.27
  -3   2  13   -0.18    0.31
  -3   2  13   -0.22    0.23
   3   2 -13   -0.30    0.24
   3   2 -13   -0.37    0.40
  -3   2  13   -0.24    0.26
  -3   2  13    0.35    0.25
  -3   2  13   -0.22    0.34
  -3   2  13   -0.45    0.31
   3   2 -13   -0.26    0.31
  -2  -2  13    1.03    0.25
   2  -2 -13    0.84    0.33
   2  -2 -13    1.89    0.34
  -2  -2  13    1.26    0.29
   2  -2 -13    1.15    0.38
  -2  -2  13    1.25    0.28
   2  -2 -13    1.07    0.47
  -2   2  13    1.24    0.33
   2   2 -13    0.61    0.61
  -2   2  13    0.94    0.28
   2   2 -13    1.45    0.28
  -2   2  13    0.97    0.27
   2   2 -13    1.46    0.29
  -2   2  13    0.67    0.28
  -2   2  13    0.83    0.38
  -1  -2  13    7.65    0.49
   1  -2 -13    8.16    0.48
  -1  -2  13    7.21    0.51
   1  -2 -13    7.44    0.48
   1  -2 -13    7.24    0.53
  -1   2  13    7.12    0.48
  -1   2  13    6.98    0.64
   1   2 -13    6.45    0.73
  -1   2  13    6.68    0.45
   1   2 -13    7.10    0.51
  -1   2  13    7.97    0.46
   1   2 -13    7.19    0.49
  -1   2  13    7.84    0.56
   0  -2  13    6.49    0.45
   0  -2 -13    6.52    0.45
   0  -2  13    6.68    0.44
   0  -2  13    6.91    0.53
   0  -2 -13    7.43    0.48
   0  -2 -13    6.45    0.49
   0   2 -13    6.09    0.45
   0   2  13    7.03    0.47
   0   2 -13    5.93    0.40
   0   2  13    6.62    0.61
   0   2  13    6.76    0.45
   0   2  13    6.33    0.44
   1  -2  13    3.10    0.38
   1  -2  13    2.38    0.38
  -1  -2 -13    1.81    0.33
   1   2  13    2.41    0.42
   1   2  13    2.37    0.28
   1   2  13    2.63    0.34
  -1   2 -13    1.91    0.31
   2  -2  13   -0.25    0.31
   2  -2  13   -0.50    0.31
   2   2  13   -0.21    0.25
  -2   2 -13   -0.39    0.26
   3  -2  13    1.86    0.32
   3  -2  13    1.35    0.30
  -3   2 -13    1.75    0.28
   4  -2  13    7.89    0.47
  -4   2 -13    7.89    0.43
  -7  -3  13    0.07    0.19
   7  -3 -13    0.04    0.25
  -7  -3  13    0.06    0.16
  -7   3  13    0.04    0.19
  -7   3  13    0.10    0.22
  -7   3  13    0.00    0.17
   7   3 -13    0.11    0.18
  -6  -3  13    0.54    0.22
   6  -3 -13    0.15    0.30
   6  -3 -13    0.46    0.29
  -6  -3  13    0.72    0.22
   6   3 -13    0.65    0.21
  -6   3  13    0.11    0.23
  -6   3  13    0.80    0.25
  -6   3  13    0.46    0.22
  -6   3  13    0.21    0.25
  -5  -3  13    0.42    0.24
  -5  -3  13    0.63    0.24
   5  -3 -13    0.47    0.36
   5  -3 -13    0.11    0.33
  -5   3  13    0.69    0.30
   5   3 -13    0.28    0.23
   5   3 -13    0.78    0.27
  -5   3  13    1.02    0.25
   5   3 -13    0.60    0.22
   5   3 -13    0.92    0.31
  -5   3  13    0.70    0.21
  -5   3  13    0.83    0.27
  -5   3  13    0.57    0.24
  -5   3  13    0.89    0.29
  -5   3  13    0.59    0.25
  -4  -3  13    0.22    0.24
  -4  -3  13    0.44    0.23
   4  -3 -13   -0.06    0.36
   4   3 -13    0.01    0.23
  -4   3  13    0.15    0.23
  -4   3  13    0.52    0.32
   4   3 -13    0.38    0.33
  -4   3  13    0.10    0.25
  -4   3  13    0.14    0.30
  -4   3  13    0.36    0.23
  -4   3  13    0.35    0.23
  -3  -3  13    0.53    0.25
   3  -3 -13    0.54    0.36
  -3   3  13    0.90    0.34
  -3   3  13    0.63    0.31
  -3   3  13    0.78    0.24
   3   3 -13    0.70    0.32
  -3   3  13    0.57    0.26
   3   3 -13    0.60    0.25
  -3   3  13    0.90    0.27
  -2  -3  13    0.45    0.24
   2  -3 -13    0.83    0.37
  -2   3  13   -0.02    0.22
  -2   3  13    0.29    0.25
  -2   3  13    0.43    0.25
  -2   3  13    0.29    0.26
  -2   3  13    0.59    0.34
   2   3 -13    0.26    0.23
  -1  -3  13   -0.16    0.22
  -1   3  13    0.24    0.25
   1   3 -13   -0.16    0.23
  -1   3  13    0.24    0.22
  -1   3  13   -0.02    0.31
   0  -3  13    1.07    0.22
   0   3  13    1.28    0.22
   0   3 -13    1.08    0.24
   0   3  13    1.71    0.33
   0   3  13    1.09    0.26
   1  -3  13    0.46    0.26
   1   3  13    0.24    0.27
  -1   3 -13    0.05    0.22
  -2   3 -13    0.34    0.21
  -3  -4  13   -0.02    0.16
   3  -4 -13    0.29    0.30
   2  -4 -13   -0.09    0.28
 -10   0  14    0.13    0.15
  10   0 -14    0.06    0.18
  -9   0  14   -0.03    0.18
  -9   0  14   -0.15    0.19
   9   0 -14   -0.09    0.22
   9   0 -14    0.35    0.20
  -8   0  14    1.28    0.24
   8   0 -14    0.75    0.25
   8   0 -14    1.31    0.29
  -8   0  14    0.70    0.24
  -7   0  14   -0.21    0.24
   7   0 -14   -0.47    0.30
   7   0 -14   -0.02    0.25
   6   0 -14    0.72    0.39
  -6   0  14   -0.02    0.25
   6   0 -14    0.52    0.27
  -6   0  14    0.73    0.37
  -6   0  14    0.46    0.24
   6   0 -14    0.38    0.33
  -5   0  14    0.21    0.34
  -5   0  14    0.31    0.26
   5   0 -14   -0.20    0.32
  -5   0  14    0.19    0.26
  -5   0  14    0.25    0.26
   5   0 -14   -0.11    0.40
   5   0 -14    0.21    0.26
  -4   0  14    1.40    0.36
   4   0 -14    1.55    0.34
  -4   0  14    1.79    0.31
   4   0 -14    1.40    0.44
  -4   0  14    1.88    0.28
   4   0 -14    1.56    0.29
  -4   0  14    1.20    0.29
  -4   0  14    2.29    0.32
  -3   0  14   -0.10    0.34
  -3   0  14   -0.16    0.26
  -3   0  14   -0.19    0.24
   3   0 -14    0.07    0.26
   3   0 -14   -0.19    0.31
  -3   0  14   -0.44    0.28
   3   0 -14   -0.05    0.35
  -3   0  14   -0.04    0.28
  -2   0  14   -0.08    0.27
  -2   0  14    0.00    0.34
   2   0 -14   -0.27    0.30
   2   0 -14   -0.25    0.25
  -2   0  14   -0.15    0.29
  -2   0  14    0.25    0.29
  -2   0  14   -0.24    0.28
   1   0 -14    0.13    0.31
  -1   0  14   -0.46    0.28
   1   0 -14   -0.21    0.26
  -1   0  14    0.10    0.33
   1   0 -14   -0.30    0.36
  -1   0  14    0.30    0.31
  -1   0  14    0.47    0.29
  -1   0  14   -0.13    0.24
   0   0 -14   10.07    0.72
   0   0  14    9.30    0.58
   0   0  14   10.87    0.62
   0   0  14    9.98    0.66
   0   0  14    9.38    0.50
   0   0 -14   10.13    0.60
   0   0 -14    9.63    0.73
   0   0  14    9.66    0.53
  -1   0 -14    0.45    0.30
   1   0  14   -0.30    0.25
   1   0  14    0.48    0.32
   1   0  14    0.42    0.35
  -1   0 -14   -0.19    0.38
   1   0  14    0.13    0.19
  -1   0 -14    0.52    0.39
  -2   0 -14    0.09    0.30
   2   0  14    0.80    0.31
   2   0  14    0.43    0.35
   2   0  14    0.78    0.21
   3   0  14    0.20    0.33
   3   0  14   -0.07    0.18
  -3   0 -14    0.13    0.27
   3   0  14    0.43    0.27
   4   0  14    1.08    0.30
   4   0  14    0.72    0.18
  -4   0 -14    1.05    0.26
  -5   0 -14    0.13    0.18
   5   0  14   -0.04    0.22
   9  -1 -14    0.04    0.23
  -9  -1  14    0.40    0.18
  -9  -1  14    0.34    0.19
  -9   1  14    0.34    0.18
   9   1 -14    0.02    0.19
  -9   1  14    0.39    0.19
  -8  -1  14    1.89    0.26
  -8  -1  14    1.46    0.22
   8  -1 -14    1.74    0.30
  -8   1  14    1.11    0.24
  -8   1  14    1.25    0.22
   8   1 -14    1.59    0.26
   7  -1 -14    0.22    0.31
  -7  -1  14    0.25    0.26
  -7   1  14    0.54    0.25
   7   1 -14    0.28    0.30
  -7   1  14    0.11    0.28
   7   1 -14   -0.03    0.26
   6  -1 -14    4.72    0.46
  -6  -1  14    3.88    0.32
   6  -1 -14    4.98    0.43
  -6  -1  14    5.13    0.35
  -6  -1  14    4.65    0.32
  -6  -1  14    4.52    0.37
  -6   1  14    6.04    0.42
  -6   1  14    5.01    0.35
   6   1 -14    4.36    0.36
  -6   1  14    4.68    0.41
   6   1 -14    5.19    0.48
   6   1 -14    4.89    0.32
  -6   1  14    4.79    0.32
   6   1 -14    3.27    0.55
   5  -1 -14   14.91    0.79
   5  -1 -14   13.22    0.72
  -5  -1  14   13.59    0.64
  -5  -1  14   13.09    0.56
  -5  -1  14   13.38    0.60
  -5  -1  14   14.11    0.61
  -5  -1  14   13.20    0.62
   5  -1 -14   13.37    0.72
  -5   1  14   13.65    0.60
   5   1 -14   13.40    0.64
   5   1 -14   13.54    0.58
  -5   1  14   13.60    0.59
  -5   1  14   14.07    0.74
  -5   1  14   12.61    0.60
  -5   1  14   14.32    0.59
   5   1 -14   11.63    0.95
   5   1 -14   14.45    0.81
   4  -1 -14   -0.16    0.32
  -4  -1  14    0.31    0.25
   4  -1 -14    0.49    0.38
   4  -1 -14    0.11    0.33
  -4  -1  14    0.77    0.33
  -4  -1  14   -0.07    0.29
  -4  -1  14    0.22    0.24
   4  -1 -14    0.68    0.37
  -4  -1  14    0.41    0.28
   4   1 -14    0.80    0.41
   4   1 -14    0.51    0.26
  -4   1  14    0.61    0.34
  -4   1  14    0.28    0.27
  -4   1  14    0.61    0.26
  -4   1  14    0.40    0.27
   4   1 -14    0.78    0.59
   4   1 -14    0.34    0.27
  -4   1  14    0.24    0.25
  -3  -1  14    0.96    0.36
  -3  -1  14    1.77    0.29
  -3  -1  14    1.26    0.32
   3  -1 -14    1.86    0.42
  -3  -1  14    1.43    0.26
   3  -1 -14    1.99    0.36
   3  -1 -14    1.48    0.26
   3   1 -14    1.32    0.42
  -3   1  14    1.47    0.29
  -3   1  14    1.61    0.29
  -3   1  14    1.74    0.28
   3   1 -14    1.39    0.62
   3   1 -14    1.39    0.30
  -3   1  14    1.47    0.30
  -3   1  14    1.91    0.34
  -3   1  14    1.85    0.36
   3   1 -14    1.51    0.29
  -2  -1  14    0.69    0.29
   2  -1 -14    1.24    0.34
  -2  -1  14    1.33    0.36
   2  -1 -14    0.26    0.33
   2  -1 -14    0.83    0.26
  -2  -1  14    0.86    0.25
  -2  -1  14    1.14    0.30
  -2   1  14    0.92    0.34
   2   1 -14    1.24    0.62
  -2   1  14    1.46    0.28
  -2   1  14    0.58    0.28
   2   1 -14    0.71    0.28
  -2   1  14    1.11    0.33
  -2   1  14    1.07    0.27
   2   1 -14    0.70    0.35
   2   1 -14    1.32    0.28
  -1  -1  14   11.90    0.62
   1  -1 -14   12.13    0.65
  -1  -1  14   10.95    0.56
   1  -1 -14   11.59    0.70
  -1  -1  14   10.15    0.57
  -1  -1  14   10.79    0.69
  -1  -1  14   11.17    0.56
   1  -1 -14   11.19    0.56
   1   1 -14   10.99    0.97
  -1   1  14   12.05    0.56
  -1   1  14   12.16    0.62
  -1   1  14   12.11    0.55
   1   1 -14   11.74    0.57
   1   1 -14   10.58    0.58
   1   1 -14   10.45    0.76
   1   1 -14   11.52    0.74
  -1   1  14   11.72    0.59
  -1   1  14   11.91    0.68
   0  -1  14   34.23    1.21
   0  -1 -14   35.61    1.13
   0  -1 -14   33.49    1.19
   0  -1  14   34.56    1.27
   0  -1  14   34.01    1.12
   0   1  14   35.43    1.11
   0   1  14   34.86    1.05
   0   1 -14   35.03    1.24
   0   1  14   35.44    1.20
   0   1 -14   34.07    1.15
   0   1  14   34.26    1.49
   0   1 -14   36.51    1.13
   0   1  14   35.75    1.25
   0   1 -14   34.54    1.33
   0   1  14   34.13    1.17
   1  -1  14    1.90    0.36
   1  -1  14    1.94    0.39
  -1  -1 -14    2.12    0.38
  -1  -1 -14    2.77    0.33
  -1  -1 -14    2.39    0.42
   1   1  14    2.94    0.35
  -1   1 -14    1.86    0.44
  -1   1 -14    1.68    0.32
  -1   1 -14    1.71    0.30
   1   1  14    2.07    0.37
   1   1  14    2.31    0.27
   1   1  14    1.54    0.39
  -2  -1 -14    0.13    0.27
   2  -1  14    0.27    0.31
   2  -1  14    0.53    0.35
   2   1  14   -0.16    0.31
   2   1  14   -0.03    0.27
  -2   1 -14    0.55    0.28
  -2   1 -14    0.59    0.30
  -3  -1 -14    0.62    0.26
   3  -1  14    0.26    0.27
   3  -1  14    0.56    0.33
   3   1  14    0.14    0.24
   3   1  14    0.91    0.30
  -3   1 -14    0.57    0.27
  -3   1 -14    0.16    0.26
  -4  -1 -14    1.25    0.23
   4  -1  14    0.90    0.16
   4  -1  14    0.85    0.30
  -4   1 -14    1.30    0.25
  -4   1 -14    1.32    0.24
   8  -2 -14    0.02    0.21
   8  -2 -14    0.11    0.24
  -8  -2  14    0.11    0.20
  -8  -2  14   -0.25    0.17
  -8   2  14    0.12    0.16
  -8   2  14   -0.05    0.18
  -8   2  14   -0.03    0.20
   8   2 -14    0.12    0.18
   8   2 -14    0.18    0.19
   7  -2 -14   -0.01    0.29
  -7  -2  14   -0.21    0.23
   7  -2 -14   -0.11    0.25
   7   2 -14    0.63    0.27
  -7   2  14   -0.01    0.21
  -7   2  14    0.18    0.24
   7   2 -14    0.10    0.21
  -7   2  14    0.21    0.22
   7   2 -14    0.07    0.22
  -6  -2  14   31.27    1.05
  -6  -2  14   33.00    1.03
   6  -2 -14   31.79    1.08
   6  -2 -14   31.57    1.14
  -6   2  14   31.20    1.01
   6   2 -14   31.57    1.03
  -6   2  14   31.81    1.05
  -6   2  14   32.53    1.03
   6   2 -14   30.72    1.01
   5  -2 -14   26.92    1.04
  -5  -2  14   26.95    0.93
  -5  -2  14   25.15    0.92
   5  -2 -14   26.57    0.98
  -5   2  14   26.69    0.86
  -5   2  14   26.81    0.90
  -5   2  14   29.52    0.99
  -5   2  14   26.65    0.91
   5   2 -14   27.52    0.92
   5   2 -14   27.12    0.91
  -4  -2  14   -0.15    0.27
  -4  -2  14    0.09    0.25
   4  -2 -14    0.32    0.33
   4  -2 -14   -0.14    0.35
  -4   2  14    0.05    0.30
  -4   2  14    0.25    0.23
  -4   2  14   -0.15    0.24
  -4   2  14    0.23    0.25
   4   2 -14    0.04    0.25
   4   2 -14   -0.31    0.26
  -4   2  14    0.08    0.32
   3  -2 -14    0.48    0.32
  -3  -2  14    0.70    0.29
   3  -2 -14    0.01    0.35
  -3  -2  14   -0.02    0.24
   3  -2 -14    0.04    0.34
  -3   2  14    0.28    0.23
  -3   2  14    0.45    0.32
  -3   2  14    0.43    0.30
   3   2 -14    0.36    0.26
   3   2 -14    0.54    0.57
   3   2 -14    0.49    0.27
  -3   2  14    0.30    0.25
  -3   2  14    0.42    0.26
  -3   2  14    0.12    0.31
   2  -2 -14    0.71    0.33
   2  -2 -14    0.11    0.35
  -2  -2  14    0.96    0.28
  -2  -2  14    0.57    0.26
   2   2 -14    0.67    0.26
  -2   2  14    0.74    0.32
   2   2 -14    0.82    0.28
  -2   2  14    0.75    0.27
  -2   2  14    0.73    0.25
  -2   2  14    0.39    0.24
   2   2 -14    0.57    0.58
   1  -2 -14    3.87    0.39
  -1  -2  14    3.57    0.32
  -1   2  14    3.72    0.33
   1   2 -14    3.58    0.31
  -1   2  14    4.50    0.40
   1   2 -14    3.11    0.33
  -1   2  14    4.05    0.32
   0  -2  14   10.03    0.51
   0  -2  14   11.28    0.59
   0  -2 -14   11.27    0.60
   0   2 -14   10.63    0.54
   0   2  14   11.32    0.61
   0   2  14   11.27    0.52
   0   2  14   11.23    0.52
   0   2 -14   11.16    0.56
   1  -2  14   -0.03    0.29
  -1  -2 -14    0.08    0.31
  -1   2 -14    0.14    0.26
   1   2  14   -0.21    0.27
   2  -2  14    0.59    0.28
   2  -2  14    0.16    0.26
   2   2  14    0.38    0.25
  -2   2 -14    1.02    0.26
   3  -2  14   -0.04    0.23
  -3   2 -14    0.12    0.22
  -7  -3  14    0.23    0.18
   7  -3 -14    0.03    0.22
   7   3 -14    0.03    0.16
   6  -3 -14    1.04    0.28
  -6  -3  14    0.89    0.20
  -6  -3  14    0.73    0.19
  -6   3  14    0.85    0.20
   6   3 -14    0.92    0.20
  -6   3  14    0.60    0.20
  -5  -3  14    0.74    0.22
   5  -3 -14    0.37    0.29
   5  -3 -14    0.43    0.31
  -5  -3  14    0.33    0.20
  -5   3  14    0.69    0.19
  -5   3  14    0.58    0.27
  -5   3  14    0.42    0.20
   5   3 -14    0.67    0.21
  -4  -3  14   -0.08    0.22
  -4  -3  14    0.15    0.20
   4  -3 -14    0.07    0.34
  -4   3  14    0.18    0.27
  -4   3  14    0.19    0.21
  -4   3  14   -0.07    0.22
  -4   3  14    0.52    0.28
   4   3 -14    0.18    0.21
  -4   3  14    0.02    0.20
   3  -3 -14    0.54    0.34
  -3  -3  14    0.31    0.22
  -3   3  14   -0.23    0.19
  -3   3  14   -0.37    0.21
   3   3 -14   -0.31    0.21
  -3   3  14   -0.10    0.26
  -3   3  14   -0.10    0.27
  -3   3  14   -0.31    0.23
  -2  -3  14   -0.29    0.20
   2  -3 -14    0.10    0.33
  -2   3  14    0.32    0.21
  -2   3  14   -0.50    0.21
   2   3 -14    0.22    0.22
  -2   3  14    0.43    0.30
  -2   3  14    0.43    0.25
   1  -3 -14   -0.34    0.32
  -1  -3  14    0.02    0.19
   1   3 -14    0.15    0.22
  -1   3  14   -0.02    0.19
  -1   3  14   -0.23    0.23
  -1   3  14    0.13    0.28
   0   3 -14    3.46    0.28
   0   3  14    3.69    0.25
  -1   3 -14    1.06    0.21
   9   0 -15    1.10    0.19
   9   0 -15    0.75    0.20
  -9   0  15    0.58    0.15
  -9   0  15    0.57    0.18
   8   0 -15   -0.20    0.21
  -8   0  15    0.00    0.20
   8   0 -15   -0.11    0.24
   7   0 -15    0.02    0.23
   7   0 -15   -0.01    0.28
  -7   0  15    0.22    0.23
  -6   0  15    0.29    0.24
   6   0 -15   -0.39    0.30
  -6   0  15   -0.06    0.22
   6   0 -15    0.08    0.25
   5   0 -15    0.42    0.27
  -5   0  15    0.21    0.26
  -5   0  15   -0.10    0.24
  -5   0  15   -0.23    0.34
   5   0 -15   -0.13    0.31
  -5   0  15   -0.18    0.22
   5   0 -15   -0.07    0.36
  -4   0  15   -0.10    0.23
  -4   0  15   -0.16    0.25
  -4   0  15    0.23    0.32
   4   0 -15    0.07    0.37
   4   0 -15   -0.45    0.25
   4   0 -15   -0.49    0.32
  -4   0  15    0.18    0.27
   3   0 -15    0.09    0.27
  -3   0  15   -0.24    0.26
  -3   0  15    0.12    0.27
  -3   0  15   -0.21    0.32
  -3   0  15    0.10    0.28
   3   0 -15   -0.34    0.31
  -2   0  15    0.51    0.28
   2   0 -15   -0.13    0.26
  -2   0  15    0.06    0.26
  -2   0  15   -0.01    0.29
   2   0 -15   -0.01    0.35
   2   0 -15    0.00    0.33
  -2   0  15   -0.26    0.33
   1   0 -15    3.20    0.44
  -1   0  15    3.05    0.29
   1   0 -15    2.68    0.37
   1   0 -15    3.15    0.32
  -1   0  15    2.97    0.38
  -1   0  15    2.79    0.33
  -1   0  15    2.94    0.40
   0   0  15    0.22    0.32
   0   0 -15   -0.36    0.28
   0   0  15    0.15    0.32
   0   0  15    0.12    0.25
   0   0  15    0.19    0.21
   0   0 -15    0.59    0.33
   1   0  15  127.64    3.75
  -1   0 -15  129.32    3.56
   1   0  15  120.84    3.30
   1   0  15  124.28    3.78
   2   0  15   -0.03    0.28
   2   0  15   -0.12    0.31
  -2   0 -15    0.52    0.29
   3   0  15    0.07    0.28
  -3   0 -15    0.45    0.25
   4   0  15   -0.20    0.22
  -4   0 -15    0.22    0.19
  -9  -1  15    2.10    0.19
   9  -1 -15    2.48    0.23
  -9   1  15    2.18    0.19
   9   1 -15    2.67    0.22
   8  -1 -15    0.61    0.25
  -8  -1  15    0.74    0.21
  -8   1  15    0.30    0.20
   8   1 -15    0.61    0.23
  -7  -1  15    1.12    0.24
   7  -1 -15    1.07    0.30
   7   1 -15    0.44    0.24
  -7   1  15    1.12    0.24
  -7   1  15    1.52    0.30
  -6  -1  15    5.11    0.34
   6  -1 -15    5.09    0.42
  -6  -1  15    4.43    0.34
  -6   1  15    4.75    0.37
  -6   1  15    4.34    0.34
   6   1 -15    4.25    0.35
  -6   1  15    5.25    0.41
  -5  -1  15    4.97    0.36
  -5  -1  15    4.54    0.35
   5  -1 -15    5.17    0.42
  -5  -1  15    4.38    0.42
  -5   1  15    5.25    0.34
  -5   1  15    4.52    0.35
  -5   1  15    4.27    0.31
  -5   1  15    5.46    0.41
   5   1 -15    4.64    0.37
  -4  -1  15   -0.02    0.33
  -4  -1  15    0.65    0.28
  -4  -1  15   -0.19    0.24
   4  -1 -15    0.78    0.34
  -4  -1  15    0.35    0.25
   4  -1 -15    0.64    0.33
  -4  -1  15    0.22    0.26
  -4   1  15    0.61    0.25
   4   1 -15    0.78    0.39
  -4   1  15    0.27    0.26
  -4   1  15    0.13    0.32
   4   1 -15    0.83    0.25
  -4   1  15    0.46    0.30
   4   1 -15    0.52    0.27
  -4   1  15    0.36    0.25
   4   1 -15    0.51    0.58
   3  -1 -15    0.45    0.23
  -3  -1  15    0.53    0.27
  -3  -1  15    0.47    0.34
   3  -1 -15    0.43    0.33
  -3  -1  15    0.09    0.22
  -3   1  15    0.50    0.31
  -3   1  15    0.39    0.27
  -3   1  15    0.66    0.28
   3   1 -15    0.47    0.39
   3   1 -15    0.96    0.60
  -3   1  15    0.44    0.26
  -3   1  15    0.40    0.28
   3   1 -15    0.67    0.27
   3   1 -15    0.47    0.27
   2  -1 -15    0.69    0.35
  -2  -1  15    0.65    0.36
   2  -1 -15    0.72    0.25
  -2  -1  15    0.56    0.27
   2   1 -15    0.25    0.27
  -2   1  15    0.50    0.25
  -2   1  15    0.37    0.31
   2   1 -15    0.26    0.27
  -2   1  15    0.54    0.27
  -2   1  15    0.55    0.32
   2   1 -15    0.22    0.60
  -2   1  15    0.32    0.25
   1  -1 -15    0.23    0.33
  -1  -1  15   -0.01    0.23
  -1  -1  15    0.40    0.33
  -1  -1  15   -0.39    0.28
   1  -1 -15   -0.06    0.24
   1   1 -15   -0.06    0.26
  -1   1  15    0.31    0.26
   1   1 -15   -0.04    0.26
  -1   1  15    0.30    0.22
  -1   1  15   -0.28    0.32
  -1   1  15    0.24    0.31
   0  -1  15    4.37    0.43
   0  -1  15    4.08    0.30
   0  -1 -15    4.57    0.34
   0  -1 -15    4.82    0.42
   0  -1  15    5.27    0.42
   0   1 -15    3.96    0.35
   0   1  15    4.06    0.30
   0   1  15    4.74    0.42
   0   1  15    4.95    0.40
   0   1 -15    4.51    0.35
   0   1  15    4.09    0.32
   1  -1  15    0.70    0.31
  -1  -1 -15    0.42    0.25
   1  -1  15    1.33    0.34
  -1   1 -15    0.29    0.26
   1   1  15    0.66    0.22
   1   1  15    0.62    0.29
   1   1  15    0.45    0.31
  -1   1 -15    0.25    0.25
  -2  -1 -15    2.22    0.28
   2  -1  15    1.87    0.35
   2  -1  15    2.56    0.30
   2   1  15    3.04    0.33
  -2   1 -15    2.31    0.28
  -2   1 -15    2.22    0.29
   2   1  15    2.74    0.32
  -3  -1 -15    1.63    0.23
   3  -1  15    0.99    0.30
  -3   1 -15    1.22    0.23
  -3   1 -15    1.76    0.25
  -8  -2  15    0.23    0.16
  -8   2  15    0.17    0.16
  -7  -2  15    0.42    0.20
   7  -2 -15    0.26    0.26
   7  -2 -15    0.30    0.23
  -7   2  15    0.41    0.20
   7   2 -15    0.44    0.19
   7   2 -15   -0.09    0.19
   6  -2 -15   18.03    0.74
  -6  -2  15   17.74    0.63
  -6  -2  15   16.97    0.66
   6  -2 -15   18.06    0.70
   6   2 -15   17.89    0.66
  -6   2  15   17.08    0.63
  -6   2  15   18.12    0.68
   6   2 -15   18.21    0.63
  -6   2  15   17.93    0.67
  -6   2  15   17.58    0.66
   5  -2 -15   17.19    0.71
   5  -2 -15   16.27    0.77
  -5  -2  15   15.56    0.66
  -5  -2  15   17.01    0.65
  -5   2  15   17.20    0.64
  -5   2  15   18.27    0.62
   5   2 -15   17.08    0.66
  -5   2  15   17.64    0.65
  -5   2  15   18.05    0.70
   5   2 -15   16.62    0.64
   4  -2 -15    0.00    0.29
  -4  -2  15    0.06    0.22
  -4  -2  15   -0.09    0.26
   4  -2 -15    0.26    0.34
  -4   2  15    0.34    0.28
  -4   2  15    0.11    0.23
   4   2 -15    0.10    0.23
  -4   2  15    0.21    0.30
  -4   2  15    0.26    0.21
  -4   2  15    0.28    0.24
   4   2 -15    0.47    0.24
  -3  -2  15   -0.26    0.25
   3  -2 -15    0.23    0.30
   3  -2 -15    0.74    0.35
  -3   2  15    0.54    0.31
   3   2 -15    0.22    0.25
  -3   2  15    0.27    0.24
   3   2 -15    0.62    0.26
  -3   2  15    0.24    0.26
  -3   2  15    0.26    0.25
  -2  -2  15   -0.23    0.24
   2  -2 -15    0.07    0.30
  -2   2  15    0.00    0.20
  -2   2  15   -0.20    0.23
   2   2 -15    0.02    0.26
  -2   2  15   -0.51    0.29
   2   2 -15    0.39    0.24
  -2   2  15   -0.22    0.24
  -1  -2  15    5.39    0.39
   1  -2 -15    6.23    0.43
  -1   2  15    5.97    0.41
  -1   2  15    5.99    0.42
  -1   2  15    6.01    0.43
   1   2 -15    5.86    0.42
   1   2 -15    6.50    0.46
   0  -2 -15   -0.20    0.29
   0  -2  15   -0.29    0.25
   0   2  15   -0.12    0.21
   0   2 -15   -0.21    0.22
   0   2  15   -0.21    0.27
   0   2  15    0.08    0.22
   0   2 -15    0.19    0.25
  -1  -2 -15    2.15    0.31
   1  -2  15    2.49    0.32
   1   2  15    2.58    0.30
  -1   2 -15    2.08    0.26
  -2  -2 -15    0.12    0.24
  -2   2 -15    0.15    0.21
   5  -3 -15    6.33    0.43
  -5  -3  15    5.94    0.33
   5   3 -15    5.86    0.34
  -5   3  15    6.16    0.32
  -5   3  15    6.60    0.34
  -4  -3  15    0.44    0.20
   4  -3 -15    0.55    0.29
   4  -3 -15    0.08    0.26
  -4   3  15    0.75    0.18
  -4   3  15    0.54    0.18
   4   3 -15    0.71    0.19
   3  -3 -15    0.00    0.29
  -3  -3  15   -0.15    0.18
  -3   3  15   -0.13    0.18
   3   3 -15    0.00    0.19
  -2  -3  15    0.48    0.19
   2  -3 -15    0.35    0.29
  -2   3  15    0.70    0.18
   2   3 -15    0.49    0.20
  -1  -3  15    0.40    0.16
   1  -3 -15    0.48    0.29
  -1   3  15    0.37    0.16
   1   3 -15    0.73    0.20
   0  -3 -15    5.92    0.43
   0   3 -15    7.57    0.35
   8   0 -16    0.00    0.21
   8   0 -16    0.12    0.18
  -8   0  16    0.20    0.18
   7   0 -16   -0.04    0.20
  -7   0  16   -0.33    0.19
   7   0 -16   -0.05    0.25
  -6   0  16    0.12    0.22
  -6   0  16   -0.11    0.21
   6   0 -16   -0.36    0.22
   6   0 -16   -0.05    0.27
  -5   0  16   -0.24    0.23
  -5   0  16    0.05    0.33
  -5   0  16   -0.27    0.22
   5   0 -16    0.30    0.29
  -5   0  16   -0.18    0.21
   5   0 -16   -0.17    0.24
  -4   0  16   25.19    0.81
  -4   0  16   26.49    0.88
  -4   0  16   26.22    0.99
  -4   0  16   24.21    0.85
   4   0 -16   24.86    0.94
   4   0 -16   25.95    0.89
   3   0 -16   -0.21    0.25
   3   0 -16   -0.12    0.31
  -3   0  16   -0.16    0.31
  -3   0  16    0.10    0.24
  -3   0  16    0.34    0.25
  -2   0  16    0.51    0.24
  -2   0  16    0.34    0.26
   2   0 -16    0.72    0.31
  -2   0  16    0.38    0.26
  -2   0  16    0.66    0.33
   2   0 -16    0.56    0.27
  -1   0  16   -0.32    0.23
  -1   0  16    0.23    0.27
   1   0 -16    0.01    0.31
   1   0 -16   -0.31    0.25
  -1   0  16   -0.22    0.20
  -1   0  16    0.23    0.32
   0   0  16   69.04    2.19
   0   0 -16   69.18    2.11
   0   0  16   69.23    2.15
   0   0 -16   72.81    2.05
   0   0  16   69.89    1.90
  -1   0 -16    0.13    0.24
   1   0  16    0.37    0.26
  -1   0 -16    0.40    0.28
   1   0  16    0.03    0.28
   1   0  16   -0.19    0.19
  -2   0 -16    3.63    0.29
  -2   0 -16    3.42    0.31
   2   0  16    2.83    0.32
   3   0  16    0.27    0.21
  -8  -1  16    0.10    0.16
   8  -1 -16    0.06    0.20
   8   1 -16    0.08    0.18
  -8   1  16    0.22    0.16
   7  -1 -16    0.03    0.25
  -7  -1  16   -0.20    0.18
   7   1 -16    0.14    0.21
  -7   1  16   -0.05    0.19
   6  -1 -16    1.27    0.30
  -6  -1  16    0.89    0.23
  -6  -1  16    0.81    0.22
   6   1 -16    1.02    0.25
  -6   1  16    1.04    0.21
  -6   1  16    0.79    0.22
  -6   1  16    0.96    0.30
  -5  -1  16    0.83    0.24
  -5  -1  16    0.24    0.22
   5  -1 -16    0.60    0.31
  -5   1  16    0.32    0.21
  -5   1  16    0.83    0.32
  -5   1  16    0.69    0.22
  -5   1  16    0.43    0.23
   5   1 -16    0.57    0.25
  -4  -1  16    1.01    0.25
  -4  -1  16    1.33    0.27
  -4  -1  16    1.34    0.33
   4  -1 -16    1.97    0.34
  -4   1  16    1.58    0.26
  -4   1  16    0.96    0.33
   4   1 -16    0.73    0.28
  -4   1  16    1.23    0.32
  -4   1  16    0.97    0.22
  -4   1  16    1.61    0.26
   3  -1 -16   -0.17    0.31
  -3  -1  16    0.21    0.24
  -3  -1  16   -0.15    0.30
   3  -1 -16    0.60    0.32
  -3  -1  16   -0.03    0.24
   3   1 -16   -0.12    0.25
  -3   1  16   -0.16    0.27
  -3   1  16   -0.20    0.23
  -3   1  16    0.35    0.30
  -3   1  16   -0.07    0.25
  -3   1  16    0.00    0.24
   2  -1 -16    1.05    0.24
   2  -1 -16    1.01    0.33
  -2  -1  16    0.99    0.25
  -2  -1  16    1.13    0.28
  -2  -1  16    0.96    0.33
  -2   1  16    0.72    0.23
   2   1 -16    0.96    0.27
   2   1 -16    1.31    0.26
  -2   1  16    0.77    0.29
  -2   1  16    1.07    0.32
  -2   1  16    1.01    0.24
  -2   1  16    0.75    0.26
  -1  -1  16    0.96    0.29
   1  -1 -16    0.83    0.34
  -1  -1  16    0.43    0.26
  -1  -1  16    1.13    0.33
  -1  -1  16    0.34    0.22
   1  -1 -16    0.60    0.24
  -1   1  16    0.94    0.24
   1   1 -16    0.58    0.26
  -1   1  16    0.90    0.31
   1   1 -16    0.87    0.25
  -1   1  16    1.14    0.32
  -1   1  16    0.82    0.22
   0  -1 -16    0.24    0.24
   0  -1  16    0.37    0.24
   0  -1 -16    0.02    0.31
   0  -1  16    0.38    0.27
   0  -1  16   -0.22    0.28
   0   1  16    0.17    0.29
   0   1 -16    0.22    0.25
   0   1  16    0.21    0.22
   0   1  16    0.20    0.18
   0   1  16   -0.08    0.29
   0   1 -16    0.54    0.24
   1  -1  16    0.31    0.28
   1  -1  16    0.03    0.25
  -1  -1 -16    0.49    0.29
  -1  -1 -16    0.02    0.22
   1   1  16    0.09    0.26
   1   1  16    0.27    0.28
  -1   1 -16    0.29    0.23
  -1   1 -16   -0.22    0.21
   2  -1  16    0.86    0.26
  -2  -1 -16    0.76    0.27
  -2  -1 -16    0.80    0.20
   2   1  16    0.74    0.23
  -2   1 -16    1.07    0.22
  -2   1 -16    0.59    0.19
  -7  -2  16   -0.03    0.15
  -7   2  16   -0.09    0.16
   6  -2 -16    5.74    0.42
  -6  -2  16    5.56    0.33
  -6  -2  16    6.00    0.35
   6  -2 -16    6.51    0.41
   6   2 -16    6.42    0.35
  -6   2  16    6.10    0.33
  -6   2  16    6.06    0.36
   6   2 -16    5.94    0.33
   5  -2 -16    1.35    0.31
  -5  -2  16    1.19    0.22
   5  -2 -16    0.71    0.26
  -5  -2  16    0.81    0.20
  -5   2  16    0.67    0.20
   5   2 -16    1.54    0.23
  -5   2  16    0.91    0.28
   5   2 -16    0.78    0.21
  -5   2  16    1.60    0.23
  -4  -2  16    0.47    0.22
   4  -2 -16   -0.07    0.30
   4  -2 -16    0.38    0.27
   4   2 -16    0.41    0.23
  -4   2  16    0.26    0.22
  -4   2  16    0.69    0.23
  -4   2  16    0.56    0.19
  -4   2  16    0.44    0.27
   4   2 -16    0.65    0.22
   3  -2 -16    0.22    0.27
  -3  -2  16    0.20    0.21
   3  -2 -16    0.33    0.31
   3   2 -16    0.47    0.23
  -3   2  16    0.07    0.22
  -3   2  16   -0.09    0.26
   3   2 -16   -0.05    0.22
  -3   2  16   -0.08    0.21
  -3   2  16    0.14    0.24
  -2  -2  16    1.41    0.22
   2  -2 -16    1.63    0.30
   2  -2 -16    1.69    0.34
  -2   2  16    1.59    0.24
   2   2 -16    1.56    0.24
  -2   2  16    1.60    0.31
  -2   2  16    1.61    0.23
   2   2 -16    1.44    0.25
   1  -2 -16    0.13    0.27
  -1  -2  16   -0.06    0.17
  -1   2  16    0.12    0.20
   1   2 -16   -0.43    0.20
   1   2 -16    0.38    0.23
  -1   2  16    0.53    0.27
   0  -2 -16    0.87    0.27
   0   2 -16    0.73    0.22
  -1  -2 -16    0.13    0.23
  -1   2 -16    0.21    0.18
  -7   0  17    0.35    0.18
   7   0 -17   -0.05    0.18
   7   0 -17   -0.17    0.20
   6   0 -17    0.02    0.23
   6   0 -17   -0.23    0.20
  -6   0  17   -0.24    0.18
  -6   0  17    0.19    0.19
   5   0 -17   12.73    0.54
  -5   0  17   12.74    0.52
  -5   0  17   12.60    0.52
   5   0 -17   13.49    0.60
   4   0 -17   -0.41    0.25
  -4   0  17    0.12    0.19
   4   0 -17   -0.48    0.24
  -4   0  17    0.07    0.30
  -4   0  17    0.05    0.22
  -3   0  17    0.13    0.30
  -3   0  17   -0.14    0.20
   3   0 -17   -0.08    0.24
  -3   0  17   -0.31    0.20
   3   0 -17    0.15    0.27
  -2   0  17   -0.11    0.21
   2   0 -17   -0.35    0.24
   2   0 -17   -0.24    0.26
  -2   0  17    0.49    0.30
  -2   0  17   -0.25    0.23
  -2   0  17   -0.01    0.20
  -1   0  17    2.14    0.24
  -1   0  17    2.92    0.33
  -1   0  17    2.12    0.22
  -1   0  17    2.64    0.28
   1   0 -17    2.67    0.30
   0   0 -17   -0.01    0.24
   0   0  17   -0.01    0.28
   0   0 -17    0.32    0.24
  -1   0 -17   37.98    1.23
   1   0  17   39.85    1.29
  -1   0 -17   41.62    1.20
   7  -1 -17    1.29    0.23
  -7  -1  17    0.09    0.16
  -7   1  17    0.66    0.16
   7   1 -17    0.07    0.17
  -6  -1  17   -0.02    0.17
   6  -1 -17    0.13    0.23
  -6  -1  17    0.12    0.17
   6   1 -17    0.55    0.21
  -6   1  17    0.32    0.17
  -6   1  17    0.37    0.17
  -5  -1  17    0.12    0.20
  -5  -1  17    0.30    0.17
   5  -1 -17    0.04    0.26
  -5   1  17    0.08    0.19
  -5   1  17    0.25    0.18
   5   1 -17    0.43    0.23
  -5   1  17    0.46    0.28
  -4  -1  17    0.08    0.27
  -4  -1  17    0.04    0.21
   4  -1 -17   -0.09    0.26
  -4  -1  17   -0.04    0.21
  -4   1  17   -0.14    0.28
  -4   1  17    0.12    0.19
   4   1 -17   -0.46    0.23
  -4   1  17   -0.04    0.21
   3  -1 -17    1.11    0.29
  -3  -1  17    0.88    0.21
  -3  -1  17    0.62    0.27
  -3  -1  17    0.70    0.22
  -3   1  17    0.77    0.25
  -3   1  17    0.98    0.30
  -3   1  17    0.81    0.28
   3   1 -17    1.01    0.25
  -3   1  17    1.04    0.22
  -3   1  17    0.92    0.22
  -2  -1  17    0.22    0.19
   2  -1 -17    0.22    0.27
  -2  -1  17    0.06    0.27
  -2  -1  17    0.14    0.21
  -2   1  17    0.08    0.24
  -2   1  17    0.42    0.27
  -2   1  17    0.11    0.19
   2   1 -17    0.26    0.23
  -2   1  17    0.39    0.22
  -1  -1  17    0.32    0.16
   1  -1 -17    0.49    0.27
   1  -1 -17    0.95    0.23
  -1  -1  17    0.50    0.26
  -1  -1  17    0.35    0.22
   1   1 -17    0.74    0.24
  -1   1  17    0.48    0.26
  -1   1  17    0.25    0.16
   0  -1 -17    2.38    0.29
   0  -1 -17    2.22    0.24
   0  -1  17    2.43    0.29
   0   1 -17    2.68    0.26
   0   1  17    2.54    0.28
   1  -1  17   12.49    0.55
  -1  -1 -17   13.95    0.55
  -1   1 -17   13.81    0.52
  -5  -2  17    0.09    0.16
   5  -2 -17   -0.02    0.22
  -5   2  17   -0.08    0.18
   4  -2 -17    0.51    0.27
  -4  -2  17   -0.35    0.17
   4  -2 -17   -0.12    0.22
  -4   2  17   -0.12    0.18
   4   2 -17   -0.04    0.18
   4   2 -17    0.06    0.16
   3  -2 -17    0.25    0.23
  -3  -2  17    0.29    0.17
   3  -2 -17    0.36    0.27
   3   2 -17    0.59    0.18
  -3   2  17    0.13    0.18
   3   2 -17    0.75    0.20
  -2  -2  17    0.18    0.15
   2  -2 -17    0.44    0.23
   2  -2 -17    0.50    0.27
  -2   2  17    0.43    0.17
   2   2 -17    0.13    0.18
   5   0 -18    0.09    0.19
   5   0 -18    0.21    0.21
  -5   0  18   -0.17    0.16
   4   0 -18   10.17    0.49
   4   0 -18   11.28    0.47
  -4   0  18   10.62    0.54
  -4   0  18   10.63    0.44
   3   0 -18   -0.27    0.21
  -3   0  18   -0.02    0.26
   3   0 -18   -0.39    0.21
  -3   0  18    0.07    0.17
   2   0 -18    0.15    0.21
  -2   0  18    0.02    0.16
   2   0 -18   -0.01    0.21
  -2   0  18    0.37    0.25
  -1   0  18    0.22    0.23
   1   0 -18   -0.42    0.20
  -5  -1  18    0.90    0.16
   5  -1 -18    0.48    0.21
  -5   1  18    0.65    0.16
   5   1 -18    0.88    0.19
  -4  -1  18    2.38    0.20
   4  -1 -18    1.98    0.26
   4   1 -18    2.27    0.23
  -4   1  18    2.16    0.20
  -3  -1  18    1.88    0.18
  -3  -1  18    2.17    0.25
   3  -1 -18    1.99    0.25
  -3   1  18    2.08    0.19
   3   1 -18    2.17    0.23
   2  -1 -18    0.18    0.22
  -2  -1  18   -0.03    0.20
  -2  -1  18    0.09    0.14
   2   1 -18    0.42    0.20
  -2   1  18    0.21    0.15
  -2   1  18    0.23    0.23
   0   0   0    0.00    0.00
;
_shelx_hkl_checksum              66522
loop_
_space_group_symop_operation_xyz
'x, y, z'
'-x+1/2, y+1/2, -z+1/2'
'-x, -y, -z'
'x-1/2, -y-1/2, z-1/2'
loop_
_atom_site_label
_atom_site_type_symbol
_atom_site_fract_x
_atom_site_fract_y
_atom_site_fract_z
_atom_site_U_iso_or_equiv
_atom_site_adp_type
_atom_site_occupancy
_atom_site_site_symmetry_order
_atom_site_calc_flag
_atom_site_refinement_flags_posn
_atom_site_refinement_flags_adp
_atom_site_disorder_assembly
_atom_site_disorder_group
C1 C 0.2928(2) 1.4897(5) 1.11323(14) 0.0267(5) Uani 1 1 d . . A 1
H1 H 0.3468 1.6282 1.1531 0.032 Uiso 1 1 calc R U A 1
C2 C 0.3452(2) 1.3662(5) 1.05062(14) 0.0267(5) Uani 1 1 d . . A 1
H2 H 0.4359 1.4182 1.0483 0.032 Uiso 1 1 calc R U A 1
C3 C 0.3184(2) 1.0359(5) 0.92039(14) 0.0277(5) Uani 1 1 d . . A 1
H3 H 0.4070 1.0914 0.9151 0.033 Uiso 1 1 calc R U A 1
C4 C 0.2419(2) 0.8375(5) 0.86247(14) 0.0269(5) Uani 1 1 d . . A 1
H4 H 0.2788 0.7560 0.8181 0.032 Uiso 1 1 calc R U A 1
C5 C 0.0264(2) 0.5424(5) 0.80817(14) 0.0266(5) Uani 1 1 d . . A 1
H5 H 0.0615 0.4580 0.7634 0.032 Uiso 1 1 calc R U A 1
C6 C -0.1012(2) 0.4623(5) 0.81472(14) 0.0264(5) Uani 1 1 d . . A 1
H6 H -0.1531 0.3214 0.7748 0.032 Uiso 1 1 calc R U A 1
C7 C 0.2681(2) 1.1615(5) 0.98861(14) 0.0238(5) Uani 1 1 d . . A 1
C8 C 0.1081(2) 0.7501(4) 0.86720(13) 0.0240(5) Uani 1 1 d . . A 1
C9 C -0.1580(2) 0.5852(4) 0.88001(13) 0.0241(5) Uani 1 1 d . . A 1
C10 C 0.1345(2) 1.0809(4) 0.99398(13) 0.0218(5) Uani 1 1 d . . A 1
C11 C 0.0545(2) 0.8746(4) 0.93340(13) 0.0216(5) Uani 1 1 d . . A 1
C12 C -0.07963(19) 0.7928(4) 0.93967(13) 0.0211(5) Uani 1 1 d . . A 1
loop_
_atom_site_aniso_label
_atom_site_aniso_U_11
_atom_site_aniso_U_22
_atom_site_aniso_U_33
_atom_site_aniso_U_23
_atom_site_aniso_U_13
_atom_site_aniso_U_12
C1 0.0240(10) 0.0243(11) 0.0265(11) 0.0036(9) -0.0013(9) -0.0021(9)
C2 0.0184(10) 0.0275(11) 0.0317(12) 0.0063(9) 0.0031(9) -0.0026(9)
C3 0.0225(10) 0.0286(11) 0.0334(12) 0.0065(10) 0.0101(9) -0.0003(9)
C4 0.0270(11) 0.0280(11) 0.0276(11) 0.0042(10) 0.0109(9) 0.0050(9)
C5 0.0303(11) 0.0259(11) 0.0225(10) 0.0004(9) 0.0057(8) 0.0050(10)
C6 0.0276(11) 0.0230(11) 0.0241(11) 0.0009(9) -0.0001(9) 0.0005(9)
C7 0.0198(10) 0.0227(11) 0.0274(11) 0.0063(9) 0.0043(8) 0.0013(9)
C8 0.0241(10) 0.0225(11) 0.0246(10) 0.0043(9) 0.0055(8) 0.0039(9)
C9 0.0239(10) 0.0214(10) 0.0241(11) 0.0047(9) 0.0020(8) 0.0022(8)
C10 0.0215(10) 0.0200(10) 0.0218(10) 0.0047(9) 0.0030(8) 0.0006(8)
C11 0.0215(10) 0.0192(10) 0.0226(10) 0.0062(8) 0.0038(8) 0.0036(8)
C12 0.0197(10) 0.0197(10) 0.0215(10) 0.0060(8) 0.0020(8) 0.0029(8)
loop_
_atom_type_symbol
_atom_type_description
_atom_type_scat_dispersion_real
_atom_type_scat_dispersion_imag
_atom_type_scat_source
C C 0.0181 0.0091 'International Tables Vol C Tables 4.2.6.8 and 6.1.1.4'
H H 0.0000 0.0000 'International Tables Vol C Tables 4.2.6.8 and 6.1.1.4'
loop_
_geom_angle_atom_site_label_1
_geom_angle_atom_site_label_2
_geom_angle_atom_site_label_3
_geom_angle
_geom_angle_site_symmetry_1
_geom_angle_site_symmetry_3
C2 C1 C9 121.0(2) . 3_577
C2 C1 H1 119.5 . .
C9 C1 H1 119.5 3_577 .
C1 C2 C7 121.74(19) . .
C1 C2 H2 119.1 . .
C7 C2 H2 119.1 . .
C4 C3 C7 121.34(19) . .
C4 C3 H3 119.3 . .
C7 C3 H3 119.3 . .
C3 C4 C8 121.3(2) . .
C3 C4 H4 119.3 . .
C8 C4 H4 119.3 . .
C6 C5 C8 121.1(2) . .
C6 C5 H5 119.4 . .
C8 C5 H5 119.4 . .
C5 C6 C9 121.2(2) . .
C5 C6 H6 119.4 . .
C9 C6 H6 119.4 . .
C10 C7 C2 118.63(19) . .
C10 C7 C3 118.42(19) . .
C2 C7 C3 122.95(18) . .
C11 C8 C5 118.86(18) . .
C11 C8 C4 118.55(19) . .
C5 C8 C4 122.58(19) . .
C12 C9 C6 119.05(19) . .
C12 C9 C1 118.63(19) . 3_577
C6 C9 C1 122.3(2) . 3_577
C7 C10 C11 120.24(19) . .
C7 C10 C12 119.90(19) . 3_577
C11 C10 C12 119.86(18) . 3_577
C8 C11 C10 120.10(18) . .
C8 C11 C12 119.98(19) . .
C10 C11 C12 119.93(18) . .
C9 C12 C11 119.72(19) . .
C9 C12 C10 120.07(18) . 3_577
C11 C12 C10 120.21(19) . 3_577
loop_
_geom_bond_atom_site_label_1
_geom_bond_atom_site_label_2
_geom_bond_distance
_geom_bond_site_symmetry_2
C1 C2 1.358(3) .
C1 C9 1.427(3) 3_577
C1 H1 0.9500 .
C2 C7 1.418(3) .
C2 H2 0.9500 .
C3 C4 1.364(3) .
C3 C7 1.423(3) .
C3 H3 0.9500 .
C4 C8 1.422(3) .
C4 H4 0.9500 .
C5 C6 1.362(3) .
C5 C8 1.421(3) .
C5 H5 0.9500 .
C6 C9 1.419(3) .
C6 H6 0.9500 .
C7 C10 1.414(3) .
C8 C11 1.414(3) .
C9 C12 1.413(3) .
C9 C1 1.427(3) 3_577
C10 C11 1.423(3) .
C10 C12 1.427(3) 3_577
C11 C12 1.426(3) .
C12 C10 1.427(3) 3_577
