#------------------------------------------------------------------------------
#$Date: 2019-11-15 00:12:39 +0200 (Fri, 15 Nov 2019) $
#$Revision: 227801 $
#$URL: file:///home/coder/svn-repositories/cod/cif/4/51/62/4516224.cif $
#------------------------------------------------------------------------------
#
# This file is available in the Crystallography Open Database (COD),
# http://www.crystallography.net/
#
# All data on this site have been placed in the public domain by the
# contributors.
#
data_4516224
loop_
_publ_author_name
'Wu, Bo'
'Lai, Yuan'
'Qi, Xiufang'
'Du, Huiying'
'Pei, Chonghua'
_publ_section_title
;
 Facile Synthesis and Accelerated Combustion Effect of
 Micro-/Nanostructured Amorphous and Crystalline Metal Coordination
 Compounds Based on N,N-Bis[1H-tetrazol-5-yl]amine
;
_journal_name_full               'ACS Applied Energy Materials'
_journal_paper_doi               10.1021/acsaem.9b01743
_journal_year                    2019
_chemical_formula_moiety         'C4 H8 N18 O2 Zn, 2(H2 O)'
_chemical_formula_sum            'C4 H12 N18 O4 Zn'
_chemical_formula_weight         441.69
_space_group_crystal_system      monoclinic
_space_group_IT_number           14
_space_group_name_Hall           '-P 2ybc'
_space_group_name_H-M_alt        'P 1 21/c 1'
_atom_sites_solution_hydrogens   difmap
_audit_creation_method           SHELXL-2014/7
_cell_angle_alpha                90
_cell_angle_beta                 107.247(4)
_cell_angle_gamma                90
_cell_formula_units_Z            2
_cell_length_a                   7.5459(8)
_cell_length_b                   15.0295(13)
_cell_length_c                   6.8209(6)
_cell_measurement_reflns_used    1481
_cell_measurement_temperature    173(2)
_cell_measurement_theta_max      25.23
_cell_measurement_theta_min      3.14
_cell_volume                     738.78(12)
_computing_structure_refinement  'SHELXL-2014/7 (Sheldrick, 2014)'
_diffrn_ambient_temperature      173(2)
_diffrn_measured_fraction_theta_full 0.995
_diffrn_measured_fraction_theta_max 0.993
_diffrn_measurement_device_type  'PHOTON 100 CMOS detector'
_diffrn_measurement_method       'omega scan'
_diffrn_radiation_type           MoK\a
_diffrn_radiation_wavelength     0.71073
_diffrn_reflns_av_R_equivalents  0.0619
_diffrn_reflns_av_unetI/netI     0.0574
_diffrn_reflns_Laue_measured_fraction_full 0.995
_diffrn_reflns_Laue_measured_fraction_max 0.993
_diffrn_reflns_limit_h_max       9
_diffrn_reflns_limit_h_min       -9
_diffrn_reflns_limit_k_max       18
_diffrn_reflns_limit_k_min       -15
_diffrn_reflns_limit_l_max       7
_diffrn_reflns_limit_l_min       -8
_diffrn_reflns_number            4290
_diffrn_reflns_point_group_measured_fraction_full 0.995
_diffrn_reflns_point_group_measured_fraction_max 0.993
_diffrn_reflns_theta_full        25.242
_diffrn_reflns_theta_max         25.369
_diffrn_reflns_theta_min         3.135
_diffrn_source                   'fine-focus sealed tube'
_exptl_absorpt_coefficient_mu    1.732
_exptl_absorpt_correction_T_max  0.7452
_exptl_absorpt_correction_T_min  0.6716
_exptl_absorpt_correction_type   multi-scan
_exptl_absorpt_process_details   'SADABS (Bruker, 2014)'
_exptl_crystal_density_diffrn    1.986
_exptl_crystal_description       column
_exptl_crystal_F_000             448
_exptl_crystal_size_max          0.210
_exptl_crystal_size_mid          0.130
_exptl_crystal_size_min          0.120
_refine_diff_density_max         1.019
_refine_diff_density_min         -0.432
_refine_diff_density_rms         0.112
_refine_ls_extinction_method     none
_refine_ls_goodness_of_fit_ref   1.049
_refine_ls_hydrogen_treatment    refxyz
_refine_ls_matrix_type           full
_refine_ls_number_parameters     142
_refine_ls_number_reflns         1347
_refine_ls_number_restraints     5
_refine_ls_restrained_S_all      1.047
_refine_ls_R_factor_all          0.0729
_refine_ls_R_factor_gt           0.0464
_refine_ls_shift/su_max          0.000
_refine_ls_shift/su_mean         0.000
_refine_ls_structure_factor_coef Fsqd
_refine_ls_weighting_details
'w=1/[\s^2^(Fo^2^)+(0.0484P)^2^+2.6082P] where P=(Fo^2^+2Fc^2^)/3'
_refine_ls_weighting_scheme      calc
_refine_ls_wR_factor_gt          0.1052
_refine_ls_wR_factor_ref         0.1154
_reflns_Friedel_coverage         0.000
_reflns_number_gt                1016
_reflns_number_total             1347
_reflns_threshold_expression     'I > 2\s(I)'
_cod_data_source_file            1873236.cif
_cod_data_source_block           1873236
_cod_original_sg_symbol_H-M      'P 21/c'
_cod_database_code               4516224
_shelx_shelxl_version_number     2014/7
_shelx_space_group_comment
;
The symmetry employed for this shelxl refinement is uniquely defined
by the following loop, which should always be used as a source of
symmetry information in preference to the above space-group names.
They are only intended as comments.
;
_shelx_estimated_absorpt_t_min   0.712
_shelx_estimated_absorpt_t_max   0.819
_shelx_res_file
;

    1.res created by SHELXL-2014/7

TITL 1 in P2(1)/c
CELL 0.71073   7.5459  15.0295   6.8209  90.000 107.247  90.000
ZERR    2.00   0.0008   0.0013   0.0006   0.000   0.004   0.000
LATT 1
SYMM -X, 0.5+Y, 0.5-Z
SFAC C  H  N  O  Zn
UNIT 8 24 36 8 2
L.S. 10
BOND $h
acta
size 0.21 0.13 0.12
omit 1 5 3
FMAP 2
PLAN 20
sadi .02 n1 h1 n9 h9
dfix .82 o2 h2a o2 h2b o1 h1a o1 h1b
TEMP -100.150
WGHT    0.048400    2.608200
FVAR       0.18055
MOLE 1
C1    1    0.422426    0.961671    0.220690    11.00000    0.01096    0.01332 =
         0.01034    0.00082    0.00068   -0.00267
C2    1    0.256136    0.826839    0.091659    11.00000    0.01187    0.00885 =
         0.01031    0.00000    0.00197    0.00207
N1    3    0.404277    0.869981    0.217933    11.00000    0.01235    0.00862 =
         0.02145    0.00020   -0.00315    0.00255
H1    2    0.497578    0.837295    0.304072    11.00000   -1.20000
N2    3    0.281837    1.018828    0.148062    11.00000    0.01315    0.01020 =
         0.01968   -0.00118    0.00343    0.00069
N3    3    0.363887    1.099539    0.181257    11.00000    0.01277    0.01235 =
         0.02436   -0.00289    0.00270   -0.00371
N4    3    0.541352    1.089756    0.269597    11.00000    0.01406    0.01106 =
         0.02278   -0.00112    0.00362    0.00046
N5    3    0.584515    1.001741    0.297082    11.00000    0.01379    0.01318 =
         0.01972   -0.00289    0.00367    0.00059
N6    3    0.099807    0.863436   -0.029222    11.00000    0.00911    0.01184 =
         0.01523    0.00226   -0.00028   -0.00147
N7    3   -0.005358    0.793103   -0.127216    11.00000    0.01174    0.01098 =
         0.01831   -0.00192    0.00322    0.00086
N8    3    0.080350    0.719049   -0.068351    11.00000    0.01209    0.01021 =
         0.02145   -0.00230    0.00341   -0.00226
N9    3    0.245357    0.738734    0.068506    11.00000    0.00974    0.00907 =
         0.01854   -0.00234   -0.00024    0.00252
H9    2    0.321320    0.692504    0.133490    11.00000   -1.20000
O1    4   -0.047982    0.960531    0.280527    11.00000    0.02212    0.02302 =
         0.02531    0.01420    0.01616    0.01814
H1A   2   -0.012953    0.912529    0.326738    11.00000   -1.20000
H1B   2   -0.149703    0.969966    0.289966    11.00000   -1.20000
MOLE 2
O2    4    0.644239    0.766789    0.505978    11.00000    0.02148    0.01541 =
         0.02433   -0.00858   -0.00382    0.00555
H2A   2    0.727622    0.784659    0.604902    11.00000   -1.20000
H2B   2    0.669304    0.719623    0.460641    11.00000   -1.20000
MOLE 1
ZN1   5    0.000000    1.000000    0.000000    10.50000    0.00757    0.01001 =
         0.01465    0.00040    0.00102    0.00095
HKLF 4

REM  1 in P2(1)/c
REM R1 =  0.0464 for    1016 Fo > 4sig(Fo)  and  0.0729 for all    1347 data
REM    142 parameters refined using      5 restraints

END

WGHT      0.0293      2.7738

REM Highest difference peak  1.019,  deepest hole -0.432,  1-sigma level  0.112
Q1    1   0.0179  1.0068  0.3634  11.00000  0.05    1.02
Q2    1   0.5995  1.0012  0.4413  11.00000  0.05    0.52
Q3    1   0.4053  0.8780  0.3998  11.00000  0.05    0.45
Q4    1  -0.1060  0.8741  0.2279  11.00000  0.05    0.44
Q5    1   0.0547  0.6555 -0.1181  11.00000  0.05    0.42
Q6    1   0.6115  1.1313  0.2679  11.00000  0.05    0.41
Q7    1   0.2983  1.0167  0.3964  11.00000  0.05    0.40
Q8    1   0.0354  0.9450  0.2692  11.00000  0.05    0.39
Q9    1   0.3756  1.1178  0.3828  11.00000  0.05    0.36
Q10   1   0.2521  1.0466  0.2868  11.00000  0.05    0.35
Q11   1   0.6248  0.8829  0.2698  11.00000  0.05    0.35
Q12   1   0.5480  1.0798  0.4454  11.00000  0.05    0.35
Q13   1   0.6583  0.7381  0.7462  11.00000  0.05    0.35
Q14   1   0.5978  1.0039  0.0963  11.00000  0.05    0.34
Q15   1   0.7056  0.9895  0.2891  11.00000  0.05    0.34
Q16   1  -0.0911  0.9657  0.2656  11.00000  0.05    0.33
Q17   1   0.3501  1.1172  0.0264  11.00000  0.05    0.33
Q18   1   0.2959  1.0239  0.0389  11.00000  0.05    0.33
Q19   1   0.2351  0.6628 -0.0943  11.00000  0.05    0.31
Q20   1  -0.0611  0.9445  0.3226  11.00000  0.05    0.31
;
_shelx_res_checksum              9053
_shelx_hkl_file
;
   0   0  -1   -0.12    0.19
   0   0   1   -0.15    0.22
   0   0  -2    3.75    0.55
   0   0   2    4.40    0.60
   0   0   3   -0.09    0.37
   0   0  -3    0.14    0.49
   0   0  -4  137.28    3.43
   0   0  -5    0.64    1.01
   0   0  -6    8.79    1.77
   0   0  -7    2.72    1.93
   0   1  -1  241.09    2.67
   0   1   1  245.40    2.03
   0  -1   1  243.70    2.68
   0  -1  -1  237.16    2.01
   0   1  -2    4.47    0.68
   0   1   2    5.51    0.56
   0  -1  -2    4.97    0.63
   0  -1   2    4.17    0.58
   0   1   3   60.42    1.72
   0   1  -3   62.63    2.15
   0  -1   3   61.29    1.94
   0  -1  -3   60.87    1.87
   0   1   4   -0.55    0.51
   0   1  -4    1.13    0.80
   0  -1  -4    0.25    0.64
   0   1  -5   19.56    2.13
   0  -1  -5   16.73    1.88
   0  -1  -6   -0.98    1.25
   0   1  -7   31.93    3.72
   0  -1  -7   24.44    2.76
   0   2  -1    0.31    0.32
   0   2   1    0.12    0.15
   0  -2  -1    0.09    0.15
   0   2   2  178.31    2.23
   0   2  -2  182.30    3.19
   0  -2  -2  177.42    2.28
   0  -2   2  179.43    3.10
   0   2   3    5.50    0.65
   0   2  -3    5.17    0.94
   0  -2   3    5.77    0.74
   0  -2  -3    4.67    0.67
   0   2  -4   90.10    3.11
   0   2   4   89.89    2.33
   0  -2  -4   87.81    2.51
   0   2  -5    2.72    1.25
   0  -2  -5    3.03    1.00
   0   2  -6   36.92    3.29
   0  -2  -6   32.28    2.53
   0   2  -7    4.64    2.13
   0   3   0    0.27    0.21
   0   3  -1   35.10    1.29
   0   3   1   33.96    0.64
   0  -3  -1   34.33    0.66
   0   3  -2    4.79    0.81
   0   3   2    4.63    0.45
   0  -3  -2    4.13    0.51
   0   3  -3  119.25    3.22
   0   3   3  117.09    2.11
   0  -3  -3  114.85    2.19
   0   3   4    1.15    0.46
   0   3  -4    0.37    0.90
   0  -3  -4    1.05    0.60
   0   3  -5   13.23    1.90
   0  -3  -5   12.01    1.55
   0   3  -6   -2.43    1.52
   0  -3  -6    1.62    1.13
   0   3  -7   37.13    4.03
   0  -3  -7   27.62    3.18
   0   4   0  408.93    3.80
   0   4   1    0.52    0.22
   0   4  -1   -0.25    0.43
   0  -4  -1    0.44    0.23
   0   4  -2  142.10    3.16
   0   4   2  143.12    1.64
   0  -4  -2  145.56    1.67
   0   4   3    5.82    0.57
   0   4  -3    4.07    0.96
   0  -4  -3    5.79    0.70
   0   4  -4   20.79    1.92
   0   4   4   23.49    1.12
   0  -4  -4   22.96    1.35
   0   4  -5    1.47    2.21
   0  -4  -5   -0.20    0.75
   0   4  -6   23.50    3.13
   0  -4  -6   19.72    2.13
   0   4  -7    4.59    2.35
   0  -4  -7    1.54    1.52
   0   5   0    0.85    0.29
   0   5   1   17.09    0.69
   0   5  -1   17.62    1.18
   0   5  -2    7.27    1.03
   0   5   2    7.26    0.46
   0  -5  -2    7.60    0.48
   0   5   3   28.30    0.90
   0   5  -3   30.72    1.96
   0  -5  -3   28.42    0.98
   0   5   4    7.68    0.76
   0   5  -4    6.27    1.40
   0  -5  -4    6.65    0.94
   0   5  -5   -1.72    1.32
   0  -5  -5    0.47    0.76
   0   5  -6   -1.02    1.74
   0  -5  -6    3.08    1.05
   0   5  -7   27.18    3.60
   0  -5  -7   27.99    2.68
   0   6   0   47.15    1.46
   0   6   1    5.31    0.52
   0   6  -1    6.25    0.90
   0   6  -2   22.31    1.61
   0   6   2   22.99    0.71
   0  -6  -2   22.96    0.73
   0   6  -3    4.51    1.08
   0   6   3    5.74    0.52
   0  -6  -3    7.19    0.57
   0   6  -4    6.42    1.46
   0  -6  -4    8.69    0.84
   0   6  -5   13.55    2.12
   0  -6  -5   15.83    1.29
   0   6  -6   22.77    2.94
   0  -6  -6   21.96    1.82
   0   6  -7    4.09    2.72
   0  -6  -7   -0.04    1.26
   0  -6  -7    1.47    1.04
   0   7   0    0.19    0.36
   0   7   0   -0.23    0.48
   0   7   1  241.70    3.02
   0   7  -1  242.95    4.27
   0   7  -2    2.73    0.86
   0   7   2    2.04    0.33
   0   7  -3  115.03    3.74
   0   7   3  120.22    1.43
   0  -7  -3  122.72    1.45
   0  -7  -4   -0.07    0.37
   0   7  -5   34.09    3.03
   0  -7  -5   30.95    1.31
   0   7  -6   -0.94    1.89
   0  -7  -6   -0.23    0.77
   0   7  -7    4.90    3.09
   0  -7  -7    5.43    1.23
   0  -7  -7    6.01    0.93
   0   8   0  256.71    3.95
   0   8   0  258.16    4.10
   0   8  -1   85.22    2.75
   0   8  -1   83.29    2.48
   0   8   1   85.05    1.89
   0   8  -2   72.91    2.91
   0   8   2   70.69    1.39
   0   8   3   26.81    0.63
   0   8  -3   27.15    2.33
   0   8  -4   64.22    3.59
   0   8  -5    0.90    1.61
   0   8  -6   28.94    4.19
   0  -8  -6   31.82    1.19
   0  -8  -6   29.55    1.06
   0   8  -7   10.70    3.19
   0   8  -7    7.54    3.15
   0   9   0    0.24    0.64
   0   9   0   -0.29    0.47
   0   9   1    8.16    0.76
   0   9   1    6.54    0.99
   0   9  -1    7.04    1.23
   0   9  -1    8.56    1.09
   0   9  -2    1.84    1.00
   0   9   2    1.00    0.34
   0   9  -3    4.85    1.48
   0   9  -4    0.55    1.49
   0   9  -5   26.54    3.23
   0   9  -6    3.97    2.30
   0  10   0   63.04    2.18
   0  10   0   60.88    2.37
   0  10   1    3.57    0.83
   0  10   1    4.16    0.62
   0  10  -1    2.49    1.02
   0  10  -1    3.11    0.71
   0  10  -2    5.95    1.38
   0  10   2    6.56    0.94
   0  10  -2    7.58    1.21
   0  10   2    7.39    0.71
   0  10  -3   37.60    2.79
   0  10  -4    3.91    1.66
   0  10  -5    5.57    2.10
   0  10  -6   23.40    3.45
   0  10  -6   21.53    3.24
   0  11   0    0.85    0.82
   0  11   0    0.00    0.61
   0  11   1   78.36    2.19
   0  11  -1   82.50    3.19
   0  11   1   76.82    2.44
   0  11  -1   80.37    2.88
   0  11   2   29.08    1.37
   0  11  -2   30.12    2.16
   0  11  -2   26.54    2.61
   0  11   2   27.40    1.16
   0  11  -3   43.93    2.80
   0  11  -3   40.57    3.24
   0  11  -4   -1.24    1.70
   0  11  -5    3.71    2.21
   0  11  -5    1.28    1.69
   0  11  -6    0.44    2.83
   0  11  -6   -1.50    3.04
   0  12   0   18.94    1.93
   0  12   0   18.61    1.52
   0  12  -1    8.43    1.22
   0  12  -1    5.93    1.40
   0  12   1    9.08    1.20
   0  12   1    7.52    1.04
   0  12   2   37.09    1.64
   0  12  -2   35.22    2.72
   0  12   2   38.48    1.43
   0  12  -2   36.93    3.00
   0  12  -3    3.86    1.81
   0  12  -3    1.18    1.23
   0  12  -4   10.00    1.80
   0  12  -4   11.22    2.35
   0  12  -5    4.10    1.93
   0  12  -5    1.63    2.52
   0  13   0   -0.06    1.03
   0  13   0   -0.05    0.79
   0  13  -1    2.31    1.38
   0  13   1    1.31    0.92
   0  13  -1    1.46    0.98
   0  13   1    2.58    0.70
   0  13  -2    2.55    1.60
   0  13  -2    2.97    1.19
   0  13   2    2.91    0.60
   0  13   2    1.34    0.82
   0  13  -3   18.55    2.56
   0  13  -3   23.30    3.28
   0  13  -4   22.39    2.98
   0  13  -4   26.81    3.96
   0  13  -5    2.90    2.80
   0  13  -5    5.64    2.65
   0  14   0   26.95    2.44
   0  14   0   19.39    1.93
   0  14  -1   18.84    2.63
   0  14   1   16.84    1.96
   0  14  -1   12.43    1.99
   0  14   1   16.61    1.52
   0  14   2   40.63    2.02
   0  14  -2   41.49    3.46
   0  14   2   39.41    1.64
   0  14  -2   42.55    2.89
   0  14  -3   12.52    2.49
   0  14  -3    9.00    1.79
   0  14  -4    7.62    2.79
   0  14  -4   13.01    2.39
   0  15   0   -1.77    1.37
   0  15   0    1.15    1.13
   0  15   1   49.66    2.78
   0  15  -1   50.88    3.04
   0  15   1   48.86    2.36
   0  15  -1   43.72    3.40
   0  15  -2   11.89    1.80
   0  15   2   14.88    1.80
   0  15  -2   10.10    2.25
   0  15   2   14.00    1.37
   0  15  -3   38.95    3.07
   0  15  -3   40.30    3.97
   0  15  -4    4.24    2.86
   0  15  -4   -0.01    2.57
   0  16   0    2.01    1.73
   0  16   1    9.32    1.68
   0  16   1    5.34    1.19
   0  16  -1    7.48    2.04
   0  16  -1    6.82    1.60
   0  16   2   23.69    2.14
   0  16   2   21.33    1.66
   0  16  -2   20.42    2.87
   0  16  -2   20.86    2.22
   0  16  -3   -1.58    2.10
   0  16  -3   -3.57    2.37
   0  17   0   -1.91    1.83
   0  17   0   -0.60    1.51
   0  17  -1    2.98    2.03
   0  17   1    0.55    1.32
   0  17   1    3.04    1.70
   0  17  -1   -0.36    1.73
   0  17   2   -0.24    1.28
   0  17  -2    3.17    2.08
   0  17  -2    2.84    2.47
   0  18   0   15.08    2.41
   0  18   0    7.72    1.85
   1   0  -8    1.64    2.36
   1   0  -8    7.09    2.01
   1   0  -7    0.83    1.34
   1   0  -7   -0.78    1.75
   1   0  -6   26.11    2.50
   1   0  -6   32.74    2.13
   1   0  -5    0.13    0.86
   1   0  -4    7.14    1.04
   1   0  -3   -0.64    0.41
   1   0  -3    0.23    0.36
   1   0  -2 1000.00    7.11
   1   0  -1    0.10    0.21
  -1   0   1    0.14    0.23
  -1   0  -1    0.67    0.38
   1   0   1    0.34    0.33
   1   0   2   55.62    1.70
  -1   0  -2   57.37    1.88
  -1   0  -3    0.72    0.66
   1   0   3   -0.63    0.46
  -1   0  -4   36.15    2.10
   1   0   4   34.43    1.74
  -1   0  -5    0.04    1.15
   1   0   5    0.88    0.89
   1   0   6    7.93    1.39
  -1   0  -6    8.14    1.80
  -1   0  -7    2.43    2.06
   1   1  -8    8.94    2.58
   1   1  -8    6.76    2.09
   1  -1  -8    4.83    2.29
   1  -1  -8    1.12    1.87
   1   1  -7   27.94    2.51
   1   1  -7   21.60    2.61
   1  -1  -7   25.15    3.07
   1  -1  -7   22.19    2.46
   1   1  -6    6.41    1.22
   1   1  -6    6.80    1.62
   1  -1  -6    5.50    1.01
   1  -1  -6    4.71    1.34
   1   1  -5    4.94    1.13
   1  -1  -5    3.83    0.98
   1  -1  -5    5.36    0.87
   1   1  -4    0.28    0.67
   1  -1  -4   -0.16    0.56
   1   1  -3  202.45    3.55
   1   1  -3  200.32    3.43
   1  -1  -3  202.05    3.09
   1  -1  -3  198.30    2.95
   1   1  -2   91.16    1.96
   1  -1  -2   95.29    1.63
  -1   1   1  229.03    2.13
   1   1  -1  235.05    2.71
  -1  -1   1  225.99    2.64
   1  -1  -1  231.70    2.15
   1   1   0   47.79    1.36
  -1  -1   0   49.45    1.15
   1  -1   0   48.35    1.45
  -1   1  -1   34.03    1.26
   1   1   1   34.84    1.13
  -1  -1  -1   32.55    1.16
   1  -1   1   34.49    1.23
  -1   1  -2   30.26    1.46
   1   1   2   31.24    1.24
  -1  -1  -2   34.46    1.43
   1  -1   2   30.33    1.30
  -1   1  -3   89.46    2.77
   1   1   3   87.27    2.34
  -1  -1  -3   87.37    2.53
   1  -1   3   85.12    2.50
   1   1   4    7.69    1.02
  -1   1  -4    6.63    1.18
   1  -1   4    8.05    1.19
  -1  -1  -4    6.67    1.07
   1   1   5   37.40    2.05
  -1   1  -5   41.41    2.91
   1  -1   5   34.14    2.19
  -1  -1  -5   39.78    2.60
  -1   1  -6   24.06    3.18
   1   1   6   23.49    2.72
  -1   1  -7   28.08    3.95
  -1  -1  -7   21.37    2.88
   1   2  -8   25.68    3.54
   1   2  -8   15.28    3.05
   1  -2  -8   20.94    2.70
   1  -2  -8   21.37    2.98
   1   2  -7   -0.93    1.45
   1   2  -7    3.96    1.95
   1  -2  -7    1.33    1.62
   1  -2  -7   -0.30    1.20
   1   2  -6   39.18    5.03
   1   2  -6   46.59    3.22
   1  -2  -6   51.16    2.18
   1  -2  -6   56.06    2.72
   1   2  -5   -0.71    0.98
   1  -2  -5    0.09    0.75
   1  -2  -5    0.12    0.57
   1   2  -4   22.86    1.65
   1  -2  -4   19.92    1.30
   1  -2  -4   19.47    1.09
   1   2  -3   28.73    1.60
   1   2  -3   30.12    1.40
   1  -2  -3   30.47    1.17
   1  -2  -3   31.01    1.07
   1   2  -2  234.29    3.45
   1  -2  -2  239.84    2.32
  -1   2   1    0.44    0.19
   1   2  -1    0.37    0.31
   1  -2  -1    0.45    0.20
  -1  -2   1    0.33    0.33
   1   2   0    0.85    0.29
  -1   2   0    0.75    0.30
  -1  -2   0    0.64    0.31
   1  -2   0    0.59    0.26
   1   2   1   23.75    0.94
  -1   2  -1   22.54    1.14
   1  -2   1   23.79    1.08
  -1  -2  -1   25.31    1.02
   1   2   2   72.20    1.79
  -1   2  -2   72.40    2.24
   1  -2   2   71.60    2.08
  -1  -2  -2   71.54    1.90
  -1   2  -3    0.92    0.74
   1   2   3    0.93    0.42
   1  -2   3    1.42    0.54
  -1  -2  -3    0.75    0.57
   1   2   4  167.14    3.59
  -1   2  -4  171.44    4.45
  -1  -2  -4  167.16    3.83
   1  -2   4  171.42    4.16
   1   2   5   -0.30    0.79
  -1   2  -5    1.13    1.39
   1  -2   5   -0.23    0.99
  -1  -2  -5   -0.66    1.04
   1   2   6   18.69    2.07
  -1   2  -6   18.96    2.52
  -1   2  -7   -0.35    2.47
  -1  -2  -7   -1.26    2.04
   1   3  -7    8.66    2.12
   1   3  -7   12.15    1.75
   1  -3  -7    8.91    1.67
   1  -3  -7   13.94    1.91
   1   3  -6   17.80    2.17
   1   3  -6   15.68    2.18
   1  -3  -6   17.79    1.92
   1  -3  -6   16.11    1.55
   1   3  -5   17.13    1.65
   1   3  -5   12.83    1.90
   1  -3  -5   14.07    1.10
   1  -3  -5   14.32    1.41
   1   3  -4    1.64    0.82
   1  -3  -4    0.77    0.51
   1  -3  -4    1.36    0.42
   1   3  -3   72.54    2.43
   1   3  -3   66.22    2.12
   1  -3  -3   70.74    1.46
   1  -3  -3   68.52    1.36
   1   3  -2    0.04    0.32
   1  -3  -2    0.92    0.20
   1  -3  -2    1.05    0.21
   1   3  -1    8.21    0.71
  -1   3   1    7.09    0.44
  -1  -3   1    7.52    0.78
   1  -3  -1    7.28    0.43
  -1   3   0    6.33    0.60
   1   3   0    5.51    0.60
   1  -3   0    6.66    0.62
  -1  -3   0    6.06    0.63
   1   3   1   73.50    1.56
  -1   3  -1   73.14    2.02
  -1  -3  -1   72.05    1.59
   1  -3   1   75.01    1.94
   1   3   2   10.98    0.76
  -1   3  -2   10.52    1.15
   1  -3   2   10.76    0.96
  -1  -3  -2   10.50    0.91
   1   3   3   44.66    1.55
  -1   3  -3   47.37    2.36
  -1  -3  -3   44.44    1.77
   1  -3   3   45.65    1.92
  -1   3  -4   44.62    2.60
   1   3   4   45.59    1.80
   1  -3   4   45.79    2.21
  -1  -3  -4   44.89    2.12
  -1   3  -5   35.82    2.94
   1   3   5   33.93    1.87
  -1  -3  -5   36.74    2.38
   1  -3   5   33.38    3.74
  -1   3  -6    6.73    2.06
   1   3   6    3.38    1.10
  -1  -3  -6    1.58    1.43
  -1   3  -7   -0.97    2.57
  -1  -3  -7    4.26    2.00
   1   4  -7   -0.15    1.69
   1   4  -7   -0.60    2.11
   1  -4  -7   -1.31    1.03
   1  -4  -7    1.51    1.29
   1   4  -6    8.53    1.91
   1   4  -6    5.69    1.25
   1  -4  -6    6.67    0.83
   1  -4  -6    8.01    1.18
   1   4  -5    0.67    0.97
   1   4  -5    0.33    1.14
   1  -4  -5    0.36    0.64
   1  -4  -5    0.06    0.50
   1   4  -4   33.72    1.83
   1   4  -4   30.59    2.07
   1  -4  -4   29.57    1.20
   1  -4  -4   30.92    1.10
   1   4  -3   16.52    1.26
   1   4  -3   16.61    1.47
   1  -4  -3   15.94    0.63
   1  -4  -3   15.01    0.58
   1   4  -2   19.22    1.13
   1   4  -1  134.51    2.58
  -1   4   1  134.32    1.63
   1  -4  -1  138.78    1.66
  -1  -4   1  135.82    2.63
   1   4   0  168.33    2.58
  -1   4   0  162.33    2.53
   1  -4   0  159.25    2.49
  -1  -4   0  167.07    2.60
  -1   4  -1   21.47    1.27
   1   4   1   22.65    0.93
   1  -4   1   22.05    1.15
  -1  -4  -1   22.88    0.99
  -1   4  -2    1.13    0.68
   1   4   2    0.81    0.33
   1  -4   2    2.43    0.54
  -1  -4  -2    1.79    0.47
  -1   4  -3    3.67    1.01
   1   4   3    4.47    0.68
  -1  -4  -3    2.70    0.67
   1  -4   3    2.87    0.69
   1   4   4   14.42    1.15
  -1   4  -4   11.94    1.73
  -1  -4  -4   12.44    1.44
   1  -4   4   14.41    1.47
  -1   4  -5    0.33    1.39
   1   4   5   -0.93    0.72
  -1  -4  -5    0.53    0.97
   1  -4   5    0.50    1.03
  -1   4  -6    2.78    1.99
   1   4   6    4.13    1.09
  -1  -4  -6    5.92    1.44
  -1   4  -7   -2.37    2.65
   1   5  -7   13.62    2.16
   1   5  -7   11.43    2.65
   1  -5  -7   15.48    2.10
   1  -5  -7   13.68    1.62
   1   5  -6    1.57    1.76
   1   5  -6    0.93    1.33
   1  -5  -6   -0.63    0.62
   1  -5  -6    1.02    0.89
   1   5  -5   36.46    4.60
   1  -5  -5   37.65    1.50
   1  -5  -5   38.13    1.31
   1   5  -4    5.94    0.91
   1   5  -4    7.85    1.45
   1  -5  -4    6.67    0.54
   1  -5  -4    6.56    0.68
   1   5  -3   54.16    2.50
   1   5  -3   50.53    2.08
   1   5  -2    1.68    0.45
  -1   5   1   81.71    1.44
   1   5  -1   85.43    2.17
  -1  -5   1   80.18    2.22
  -1   5   0   47.12    1.52
   1   5   0   46.99    1.46
   1  -5   0   46.46    1.43
  -1  -5   0   48.16    1.54
  -1   5  -1   97.59    2.55
   1   5   1  100.96    1.97
  -1  -5  -1  102.13    2.03
   1  -5   1   97.62    2.46
   1   5   2    5.91    0.65
  -1   5  -2    6.26    1.02
  -1  -5  -2    6.85    0.79
   1  -5   2    7.24    0.99
  -1   5  -3    7.26    1.32
   1   5   3    6.59    0.77
  -1  -5  -3    7.97    1.01
   1  -5   3    7.32    1.10
  -1   5  -4    0.40    1.09
   1   5   4    0.18    0.51
   1  -5   4   -0.85    0.83
  -1  -5  -4   -1.06    0.63
  -1   5  -5   30.42    3.24
   1   5   5   30.85    1.68
  -1  -5  -5   34.40    2.14
  -1   5  -6    6.09    2.15
   1   5   6    4.51    1.12
  -1  -5  -6    5.37    1.49
  -1   5  -7   26.27    3.50
  -1  -5  -7   21.01    2.44
   1   6  -7    2.55    1.98
   1   6  -7    0.65    2.50
   1  -6  -7    0.26    1.04
   1  -6  -7    1.40    0.79
   1   6  -6   12.39    2.22
   1   6  -6   16.40    2.36
   1  -6  -6   12.54    1.31
   1  -6  -6   15.62    1.03
   1   6  -5    2.00    1.14
   1   6  -5    4.62    1.44
   1  -6  -5    3.99    0.46
   1  -6  -5    4.96    0.76
   1   6  -4   51.35    2.42
   1   6  -4   50.56    2.93
   1   6  -3   -0.44    0.59
   1   6  -3   -0.35    0.84
   1   6  -2  115.75    2.98
  -1   6   1   21.15    0.91
   1   6  -1   19.95    1.18
   1   6   0  118.72    2.44
  -1   6   0  120.46    2.53
   1  -6   0  121.50    2.49
  -1  -6   0  121.31    2.56
  -1   6  -1   -0.09    0.59
   1   6   1   -0.08    0.32
   1  -6   1   -0.63    0.44
  -1  -6  -1    0.62    0.41
   1   6   2   43.37    1.36
  -1   6  -2   41.59    2.24
  -1  -6  -2   41.89    1.44
   1  -6   2   42.20    1.87
  -1   6  -3    2.58    1.06
   1   6   3    0.16    0.40
  -1  -6  -3    0.46    0.52
   1  -6   3    0.32    0.74
  -1   6  -4   62.47    4.10
   1   6   4   67.47    1.96
  -1  -6  -4   69.28    2.25
   1   6   5   15.06    1.36
  -1   6  -5   17.09    2.39
  -1  -6  -5   20.35    1.78
  -1   6  -6   28.06    3.69
  -1  -6  -6   30.64    2.48
  -1   6  -7   -0.73    2.89
  -1  -6  -7    0.22    1.71
   1   7  -7    1.98    2.41
   1   7  -7   -1.33    1.98
   1  -7  -7    0.08    0.62
   1  -7  -7   -0.41    0.51
   1   7  -6    1.15    1.91
   1   7  -6    2.26    1.45
   1   7  -5   21.83    1.97
   1   7  -5   19.40    2.58
   1   7  -4    5.79    1.46
   1   7  -4    4.03    0.99
   1   7  -3   71.74    3.04
   1   7  -3   68.83    2.59
   1   7  -2    6.31    0.94
   1   7  -1  106.41    2.73
  -1   7   1  109.79    2.05
  -1   7   0    0.52    0.50
   1   7   0    0.60    0.39
  -1  -7   0    0.35    0.47
   1   7   1   55.42    1.62
  -1   7  -1   60.66    2.32
  -1  -7  -1   57.90    1.77
   1  -7   1   55.36    2.00
   1   7   2    1.04    0.37
  -1   7  -2    0.35    0.82
  -1  -7  -2    0.26    0.47
   1  -7   2   -0.64    0.67
  -1   7  -3   64.29    3.10
   1   7   3   67.09    1.77
  -1  -7  -3   64.92    1.85
   1   7   4    6.53    0.93
  -1   7  -4    7.16    1.61
  -1  -7  -4    6.36    0.90
   1   7   5   34.39    1.61
  -1   7  -5   36.74    3.56
  -1  -7  -5   35.59    1.96
  -1   7  -6   -2.64    2.18
  -1  -7  -6   -0.68    1.10
   1   8  -7   -1.43    2.90
   1   8  -7    2.04    2.50
   1   8  -6   15.66    2.71
   1   8  -6   19.13    2.60
   1   8  -5    6.21    1.80
   1   8  -5    4.57    1.37
   1   8  -4   10.70    1.80
   1   8  -4    9.61    1.52
   1   8  -3    2.74    1.25
   1   8  -3    2.23    0.86
  -1   8   2  163.97    1.80
   1   8  -2  158.12    3.80
  -1   8   2  161.18    1.73
   1   8  -1   26.48    1.49
  -1   8   1   26.86    1.12
  -1   8   1   25.70    1.22
   1   8   0    2.19    0.51
  -1   8   0    1.59    0.64
   1   8   1    0.52    0.39
  -1   8  -1    0.19    0.73
  -1  -8  -1    0.21    0.50
   1   8   2   68.20    1.79
  -1   8  -2   70.25    2.90
  -1  -8  -2   68.15    1.87
  -1   8  -3    0.21    1.21
   1   8   3    2.08    0.45
  -1  -8  -3    1.49    0.53
  -1   8  -4   46.17    3.44
   1   8   4   41.16    1.50
  -1  -8  -4   39.26    1.65
  -1   8  -5    5.88    2.13
   1   8   5    6.95    0.82
  -1  -8  -5    7.20    1.06
  -1   8  -6   10.84    3.04
  -1  -8  -6    9.07    1.28
   1   9  -7   14.82    3.76
   1   9  -7   22.26    5.27
   1   9  -6    5.43    2.30
   1   9  -6    2.70    1.80
   1   9  -5   24.05    2.59
   1   9  -5   21.46    2.94
   1   9  -4   -0.66    0.98
   1   9  -4    0.85    1.33
   1   9  -3   16.66    2.28
   1   9  -3   14.09    1.72
  -1   9   2    0.37    0.28
  -1   9   2    0.32    0.35
   1   9  -2   -0.19    0.71
   1   9  -1   71.39    2.48
  -1   9   1   67.95    1.96
  -1   9   1   68.37    1.85
  -1   9   0    1.55    0.68
   1   9   0    0.49    0.49
   1   9   1   49.08    1.68
  -1   9  -1   45.42    2.35
  -1  -9  -1   46.11    1.83
   1   9   2    0.73    0.43
  -1   9  -2    0.50    1.00
  -1  -9  -2   -0.22    0.53
  -1   9  -3   35.42    2.95
   1   9   3   34.80    1.30
  -1  -9  -3   37.32    1.46
  -1   9  -4    4.57    1.73
   1   9   4    5.41    0.64
  -1  -9  -4    5.02    0.77
   1   9   5   50.14    1.64
  -1   9  -5   49.46    4.28
  -1  -9  -5   45.36    1.77
  -1   9  -6   12.09    3.14
  -1  -9  -6   14.77    1.64
   1  10  -6   15.24    3.08
   1  10  -6   13.63    2.22
   1  10  -5   12.27    1.76
   1  10  -5   15.57    2.65
   1  10  -4   -2.10    1.11
   1  10  -4   -1.07    1.47
   1  10  -3    0.21    1.33
   1  10  -3    0.83    1.09
  -1  10   2   98.32    1.74
   1  10  -2   94.95    3.68
   1  10  -2  102.20    3.33
  -1  10   2   97.42    1.83
  -1  10   1   -0.67    0.61
   1  10  -1   -0.03    0.66
  -1  10   1   -0.29    0.44
  -1  10   0   17.44    1.57
   1  10   0   13.64    1.20
   1  10   1   12.15    1.06
  -1  10  -1    8.09    1.27
  -1  10  -2   66.12    3.18
   1  10   2   64.73    1.84
  -1 -10  -2   64.98    2.04
   1  10   3   11.49    0.91
  -1  10  -3    9.17    1.85
  -1 -10  -3   10.66    1.11
  -1  10  -4   13.73    2.27
   1  10   4   19.33    1.07
  -1 -10  -4   20.42    1.20
  -1  10  -5    7.11    2.31
   1  10   5    7.21    0.98
  -1 -10  -5    9.20    1.04
  -1  10  -6    4.51    3.30
   1  11  -6   -3.13    2.41
   1  11  -6    0.43    2.59
   1  11  -5   28.62    3.51
   1  11  -5   26.05    2.75
   1  11  -4    1.77    1.29
   1  11  -4    2.91    1.76
   1  11  -3   13.60    2.04
  -1  11   2    3.76    0.65
   1  11  -2    3.00    1.03
   1  11  -2    2.95    1.29
  -1  11   2    3.62    0.50
  -1  11   1   30.13    1.71
   1  11  -1   27.63    1.77
  -1  11   1   29.73    1.40
  -1  11   0    7.13    1.22
  -1  11   0    8.88    1.17
   1  11   1   26.65    1.42
  -1  11  -1   26.01    2.26
   1  11   2    3.38    0.59
  -1  11  -3    6.39    1.77
   1  11   3    3.54    0.58
  -1  11  -4    3.30    1.97
   1  11   4    5.93    0.85
  -1  11  -5   31.30    4.01
   1  12  -5    6.75    2.12
   1  12  -5    3.99    2.37
   1  12  -4   32.07    3.02
   1  12  -4   34.66    3.73
   1  12  -3    4.36    1.27
   1  12  -3    3.77    1.72
  -1  12   2   63.16    1.85
  -1  12   2   63.47    1.65
   1  12  -2   63.06    3.35
   1  12  -2   58.36    3.46
   1  12  -1   10.16    1.61
  -1  12   1   10.01    1.46
  -1  12   1    9.20    1.10
   1  12  -1    6.93    1.17
  -1  12   0   -0.73    0.95
  -1  12   0    0.74    0.73
   1  12   0   -1.24    0.71
   1  12   1    0.08    0.67
  -1  12  -1   -1.65    1.12
   1  12   2    8.37    1.11
  -1  12  -2    8.90    1.80
  -1  12  -3   -1.86    1.52
   1  12   3   -0.09    0.58
  -1  12  -4    7.29    2.32
   1  12   4    3.76    0.51
  -1  12  -5    8.23    2.84
   1  13  -5   43.22    4.62
   1  13  -5   36.80    3.76
   1  13  -4   -1.05    2.06
   1  13  -3   12.16    2.27
   1  13  -3   10.74    1.65
  -1  13   2    3.21    0.81
  -1  13   2    4.14    0.62
   1  13  -2    4.00    1.21
   1  13  -2    1.29    1.44
  -1  13   1   21.68    1.84
   1  13  -1   21.43    2.50
  -1  13   1   19.24    1.41
   1  13  -1   20.86    2.00
  -1  13   0    2.69    1.15
  -1  13   0    2.96    0.93
   1  13   0    5.38    1.01
   1  13   1   55.14    2.23
  -1  13  -1   60.05    2.88
  -1  13  -1   55.79    3.73
  -1  13  -2   11.45    2.04
   1  13   2   12.41    1.27
  -1  13  -3   11.60    2.40
   1  13   3   10.18    1.15
  -1  13  -4    1.77    2.29
  -1  13  -5   64.62    8.82
   1  14  -5   -1.48    4.41
   1  14  -5   -1.70    3.20
   1  14  -4   -0.77    2.19
   1  14  -4    4.31    2.07
   1  14  -3    6.65    2.14
   1  14  -3    6.32    1.71
   1  14  -2   21.81    3.01
  -1  14   2   20.94    1.64
  -1  14   2   21.12    1.29
   1  14  -2   19.34    2.42
  -1  14   1   20.71    2.05
  -1  14   1   17.47    1.59
   1  14  -1   14.74    2.20
   1  14  -1   20.95    2.78
   1  14   0   42.71    2.41
  -1  14   0   46.16    2.97
   1  14   0   43.22    2.97
  -1  14   0   46.44    2.47
  -1  14  -1    3.68    1.24
   1  14   1    5.72    1.31
   1  14   1    5.15    0.96
  -1  14  -1    4.30    1.60
   1  14   2   77.72    2.44
  -1  14  -2   83.72    3.55
  -1  14  -2   75.62    4.29
   1  14   3    2.25    0.92
  -1  14  -3    6.34    1.82
   1  14   3    2.56    0.71
  -1  14  -3    5.33    2.24
  -1  14  -4   13.64    3.18
   1  15  -4    6.86    2.59
   1  15  -4    6.35    2.78
   1  15  -3    0.44    2.18
   1  15  -3    5.96    1.95
   1  15  -2   -0.40    1.50
  -1  15   2    0.67    0.71
   1  15  -2    0.33    1.81
  -1  15   2    0.65    0.89
   1  15  -1   20.89    2.90
  -1  15   1   25.18    1.97
   1  15  -1   24.70    2.42
  -1  15   1   24.86    2.34
   1  15   0    1.84    1.14
  -1  15   0    2.02    1.49
   1  15   0    2.19    1.66
  -1  15   0    5.12    1.27
  -1  15  -1   50.27    3.60
   1  15   1   48.48    2.46
   1  15   1   45.56    2.86
  -1  15  -1   45.87    2.89
  -1  15  -2    1.71    1.64
   1  15   2    2.10    0.91
  -1  15  -2    1.89    1.97
   1  15   2    0.89    1.11
  -1  15  -3    7.17    1.94
  -1  15  -3    3.51    2.32
   1  15   3    3.26    1.00
   1  15   3    5.31    0.80
  -1  15  -4    4.24    3.08
  -1  15  -4    1.95    2.92
   1  16  -3    4.64    2.68
   1  16  -3    0.77    2.17
   1  16  -2    8.37    1.91
   1  16  -2   11.66    2.46
  -1  16   2   13.14    1.89
  -1  16   2   12.03    1.48
   1  16  -1    1.45    1.86
  -1  16   1    0.38    1.32
   1  16  -1   -2.62    1.52
  -1  16   1    0.49    1.11
  -1  16   0   12.96    2.01
  -1  16   0    9.03    1.98
   1  16   0    7.89    1.87
   1  16   0   11.00    1.50
   1  16   1    3.60    1.23
  -1  16  -1    0.56    1.93
  -1  16  -1    3.54    1.61
   1  16   1   -1.17    1.48
  -1  16  -2    8.52    2.42
  -1  16  -2    7.52    2.01
   1  16   2   12.39    1.65
   1  16   2   11.00    1.28
  -1  16  -3    3.47    2.37
  -1  16  -3    4.61    2.73
  -1  17   2    0.87    1.00
   1  17  -2   -2.08    1.96
  -1  17   2    0.75    1.22
   1  17  -2   -0.28    2.36
   1  17  -1    8.63    2.22
  -1  17   1    4.61    1.37
  -1  17   1    8.43    1.89
   1  17  -1    7.66    1.82
  -1  17   0    1.43    1.89
   1  17   0   -2.51    1.54
   1  17   0    1.27    1.88
  -1  17   0    0.23    1.54
  -1  17  -1   24.91    3.68
   1  17   1   17.34    1.88
  -1  17  -1   23.33    3.14
   1  17   1   17.87    2.44
  -1  17  -2   -1.72    2.09
  -1  17  -2   -5.43    2.40
   1  17   2    3.04    1.24
   1  17   2   -1.63    1.46
  -1  18   0   15.10    2.04
   1  18   0   14.94    2.05
   2   0  -8   29.57    4.00
   2   0  -8   18.80    2.32
   2   0  -7    0.00    2.99
   2   0  -6   -1.11    0.91
   2   0  -6   -1.77    1.10
   2   0  -5   -0.19    0.67
   2   0  -5   -0.33    0.78
   2   0  -4  221.62    3.90
   2   0  -3   -0.21    0.35
  -2   0   2  174.08    2.80
   2   0  -2  175.36    2.82
  -2   0   1   -0.07    0.39
   2   0  -1    0.35    0.33
  -2   0   0  283.19    3.71
   2   0   0  281.99    3.69
  -2   0  -1   -0.39    0.49
   2   0   1    0.62    0.36
   2   0   2   45.79    1.75
  -2   0  -2   48.02    2.02
   2   0   3    0.65    0.59
  -2   0  -3    0.71    0.84
   2   0   4   54.67    2.50
  -2   0  -4   56.00    2.95
  -2   0  -5    1.13    2.66
  -2   0  -6   55.10    3.95
   2   0   6   48.56    3.04
  -2   0  -7   -1.72    2.60
   2   1  -8    1.96    2.40
   2   1  -8   -1.51    1.88
   2  -1  -8    0.19    2.07
   2  -1  -8   -1.14    1.61
   2   1  -7   12.28    2.16
   2   1  -7    9.45    1.62
   2  -1  -7   10.96    1.51
   2  -1  -7   12.15    1.97
   2   1  -6    1.50    1.30
   2   1  -6    1.64    1.00
   2  -1  -6    0.22    0.89
   2  -1  -6    0.11    1.11
   2   1  -5   14.39    1.43
   2   1  -5   11.32    1.69
   2  -1  -5   14.19    1.51
   2  -1  -5   13.61    1.26
   2   1  -4   41.06    1.75
   2  -1  -4   45.12    1.63
   2   1  -3  216.22    3.65
   2  -1  -3  217.09    3.25
   2   1  -2  432.84    4.89
  -2   1   2  425.87    4.32
  -2  -1   2  417.78    4.79
   2  -1  -2  431.54    4.35
   2   1  -1    1.22    0.42
  -2   1   1    1.65    0.46
   2  -1  -1    1.19    0.40
  -2  -1   1    0.83    0.45
   2   1   0   62.04    1.71
  -2   1   0   61.59    1.76
   2  -1   0   61.84    1.71
  -2  -1   0   59.61    1.72
  -2   1  -1  143.39    3.01
   2   1   1  149.75    2.88
   2  -1   1  148.93    2.97
  -2  -1  -1  154.83    3.03
  -2   1  -2    3.22    0.86
   2   1   2    3.78    0.66
   2  -1   2    4.87    0.74
  -2  -1  -2    3.14    0.78
   2   1   3   89.26    2.63
  -2   1  -3   88.40    3.04
  -2  -1  -3   91.66    3.01
   2  -1   3   93.60    2.83
   2   1   4    9.76    1.28
  -2   1  -4    8.62    1.59
  -2  -1  -4    9.01    1.41
   2  -1   4    7.90    1.07
  -2   1  -5   21.37    2.81
   2   1   5   19.28    1.97
  -2  -1  -5   19.62    2.55
   2  -1   5   23.96    2.13
   2   1   6    6.07    1.45
  -2   1  -6    6.58    2.16
  -2  -1  -6    7.32    2.14
   2  -1   6    7.32    1.58
   2   1   7   19.49    2.38
  -2   1  -7   25.32    3.47
  -2  -1  -7   14.93    2.84
   2   2  -8    4.18    2.06
   2   2  -8    2.60    2.48
   2  -2  -8    4.27    2.38
   2  -2  -8    3.22    2.16
   2   2  -7   -0.74    1.72
   2   2  -7    0.02    1.42
   2  -2  -7    1.66    1.05
   2  -2  -7    0.94    1.40
   2   2  -6    1.28    1.42
   2   2  -6    1.29    1.07
   2  -2  -6    2.02    0.74
   2  -2  -6    2.57    1.06
   2   2  -5    2.52    1.04
   2   2  -5    2.51    0.83
   2  -2  -5    2.69    0.80
   2  -2  -5    3.22    0.62
   2   2  -4  265.52    4.77
   2  -2  -4  266.50    3.84
   2  -2  -4  266.98    3.93
   2   2  -3    5.65    0.69
   2  -2  -3    4.54    0.61
  -2   2   2   19.16    0.90
   2   2  -2   19.67    1.08
   2  -2  -2   18.65    0.85
  -2  -2   2   18.88    1.20
  -2   2   1    4.69    0.65
   2   2  -1    5.82    0.68
   2  -2  -1    5.14    0.60
  -2  -2   1    6.11    0.87
  -2   2   0  253.98    3.59
   2   2   0  249.51    3.52
  -2  -2   0  249.79    3.55
   2  -2   0  247.63    3.51
  -2   2  -1    6.83    0.98
   2   2   1    7.37    0.78
  -2  -2  -1    8.23    0.98
   2  -2   1    8.75    0.83
   2   2   2   53.82    1.84
  -2   2  -2   53.67    2.20
   2  -2   2   51.64    2.07
  -2  -2  -2   52.54    2.00
   2   2   3    3.93    0.76
  -2   2  -3    2.52    0.98
  -2  -2  -3    4.36    0.94
   2  -2   3    4.20    0.80
  -2   2  -4   46.49    2.97
   2   2   4   47.16    2.21
   2  -2   4   49.24    2.56
  -2  -2  -4   47.41    2.58
  -2   2  -5   -0.27    1.43
   2   2   5   -1.62    0.99
   2  -2   5    0.22    1.22
  -2  -2  -5   -1.23    1.29
  -2   2  -6    8.76    2.36
   2   2   6    7.04    1.47
   2  -2   6    7.12    1.81
  -2  -2  -6    6.96    1.99
   2   2   7    0.73    2.02
  -2   2  -7    2.07    2.74
  -2  -2  -7    5.96    2.36
   2   3  -8   -1.77    2.08
   2   3  -8   -2.48    2.42
   2  -3  -8    0.45    1.42
   2  -3  -8   -1.07    1.90
   2   3  -7   10.24    1.73
   2   3  -7   12.92    2.23
   2  -3  -7   13.93    1.73
   2  -3  -7   11.07    1.28
   2   3  -6    3.70    1.51
   2   3  -6    2.50    1.20
   2  -3  -6    5.47    1.10
   2  -3  -6    3.09    0.78
   2   3  -5   17.10    1.66
   2   3  -5   15.40    2.09
   2  -3  -5   15.49    1.14
   2  -3  -5   16.53    1.42
   2   3  -4   38.59    1.90
   2  -3  -4   41.12    1.38
   2  -3  -4   39.45    1.48
   2   3  -3  120.05    2.97
   2  -3  -3  119.25    1.97
  -2   3   2   46.67    1.21
   2   3  -2   46.67    1.74
   2  -3  -2   45.75    1.18
  -2  -3   2   44.52    1.79
   2   3  -1   48.20    1.63
  -2   3   1   45.53    1.35
  -2  -3   1   47.49    1.70
   2  -3  -1   47.60    1.36
   2   3   0   80.26    2.02
  -2   3   0   79.37    2.05
   2  -3   0   82.77    2.05
  -2  -3   0   77.58    2.04
   2   3   1   19.29    1.10
  -2   3  -1   21.26    1.42
   2  -3   1   19.73    1.13
  -2  -3  -1   20.35    1.26
   2   3   2   43.80    1.67
  -2   3  -2   43.68    2.12
  -2  -3  -2   42.91    1.82
   2  -3   2   47.31    1.91
  -2   3  -3  112.97    3.64
   2   3   3  113.31    2.89
   2  -3   3  107.83    3.29
  -2  -3  -3  114.66    3.20
  -2   3  -4    7.77    1.61
   2   3   4    7.06    0.94
   2  -3   4    7.58    1.11
  -2  -3  -4    7.37    1.29
  -2   3  -5    8.03    2.12
   2   3   5    6.80    1.07
   2  -3   5    7.29    1.44
  -2  -3  -5    6.28    1.61
  -2   3  -6    1.51    2.03
   2   3   6    3.89    1.37
   2  -3   6    5.68    1.67
  -2  -3  -6    4.12    1.82
  -2   3  -7   -2.53    2.70
   2   3   7    2.98    1.92
   2   4  -7    0.13    1.66
   2   4  -7   -0.57    1.82
   2  -4  -7    1.02    1.17
   2   4  -6   34.72    3.11
   2   4  -6   30.76    2.47
   2  -4  -6   29.54    1.51
   2  -4  -6   33.50    1.87
   2   4  -5    6.73    1.42
   2   4  -5    7.52    1.19
   2  -4  -5    7.01    0.85
   2  -4  -5    7.64    1.06
   2   4  -4   27.87    1.78
   2  -4  -4   25.88    1.00
   2  -4  -4   25.59    1.10
   2   4  -3    6.92    0.96
   2  -4  -3    6.61    0.53
   2   4  -2   38.82    1.69
  -2   4   2   40.46    1.07
   2  -4  -2   42.28    1.09
  -2  -4   2   42.85    1.90
  -2   4   1    1.00    0.39
   2   4  -1    0.47    0.42
   2  -4  -1    0.22    0.30
  -2  -4   1    0.45    0.50
   2   4   0   27.82    1.27
  -2   4   0   27.66    1.33
  -2  -4   0   27.13    1.39
   2  -4   0   26.59    1.26
   2   4   1   64.24    1.88
  -2   4  -1   63.17    2.30
   2  -4   1   63.65    2.07
  -2  -4  -1   61.99    1.98
  -2   4  -2   18.33    1.61
   2   4   2   20.67    1.18
  -2  -4  -2   20.99    1.40
   2  -4   2   20.52    1.45
   2   4   3   -0.79    0.56
  -2   4  -3   -0.27    1.04
  -2  -4  -3    0.56    0.70
   2  -4   3    0.07    0.71
   2   4   4   32.92    1.79
  -2   4  -4   22.98    3.30
  -2  -4  -4   30.03    2.13
  -2   4  -5    2.42    1.73
   2   4   5    2.35    0.96
   2  -4   5   -2.01    1.30
  -2  -4  -5   -0.40    1.27
  -2   4  -6    4.82    2.30
  -2  -4  -6    6.48    2.36
   2  -4   6    5.41    1.95
   2   5  -7   25.80    3.27
   2   5  -7   22.42    2.95
   2  -5  -7   30.58    1.64
   2  -5  -7   31.71    2.05
   2   5  -6    4.22    1.75
   2   5  -6    5.77    1.36
   2  -5  -6    3.37    0.82
   2  -5  -6    3.20    0.64
   2   5  -5   26.37    3.14
   2  -5  -5   26.09    1.17
   2  -5  -5   25.83    1.03
   2   5  -4   -0.38    0.75
   2  -5  -4   -0.06    0.31
   2  -5  -4   -0.07    0.26
   2   5  -3   66.17    2.39
   2  -5  -3   66.10    1.02
  -2   5   2   16.70    0.75
   2   5  -2   15.25    1.14
  -2  -5   2   15.48    1.40
   2  -5  -2   16.13    0.72
  -2   5   1  144.85    2.48
   2   5  -1  141.62    3.02
  -2  -5   1  144.52    3.18
   2  -5  -1  142.41    2.44
  -2   5   0    0.16    0.47
   2   5   0    0.22    0.37
   2  -5   0    0.50    0.37
  -2  -5   0    0.38    0.54
   2   5   1    6.16    0.77
  -2   5  -1    7.34    1.12
   2  -5   1    8.35    0.89
  -2  -5  -1    8.25    1.03
   2   5   2    3.45    0.61
  -2   5  -2    4.19    1.01
  -2  -5  -2    4.46    0.80
   2  -5   2    5.14    0.86
  -2   5  -3   39.60    2.60
   2   5   3   41.31    1.76
   2  -5   3   40.26    2.19
  -2  -5  -3   39.24    2.01
  -2   5  -4    4.84    1.70
   2   5   4    3.20    0.78
  -2  -5  -4    3.24    1.09
   2  -5   4    3.05    1.02
   2   5   5   17.55    1.80
  -2   5  -5   13.11    2.44
   2  -5   5   18.12    2.44
  -2  -5  -5   14.69    2.20
  -2   5  -6   -4.20    2.31
   2   5   6    1.10    1.30
  -2  -5  -6    0.31    1.65
   2  -5   6   -1.12    1.79
   2   6  -7   -1.23    2.21
   2   6  -7    2.19    1.86
   2  -6  -7    0.46    0.60
   2  -6  -7    0.60    0.79
   2   6  -6   23.41    2.29
   2   6  -6   16.47    2.34
   2  -6  -6   20.58    1.07
   2  -6  -6   18.73    0.90
   2   6  -5   10.60    1.63
   2   6  -5    8.95    1.75
   2   6  -4   53.09    2.63
   2   6  -3    4.90    0.74
   2   6  -2   79.81    2.57
  -2   6   2   78.35    1.42
  -2  -6   2   80.79    2.74
   2  -6  -2   78.79    1.43
  -2   6   1   87.19    2.03
   2   6  -1   88.45    2.49
   2  -6  -1   86.81    1.97
  -2  -6   1   87.28    2.60
   2   6   0   49.12    1.72
  -2   6   0   49.75    1.91
   2  -6   0   50.79    1.74
  -2  -6   0   48.98    1.91
   2   6   1    5.73    0.75
  -2   6  -1    4.50    0.98
  -2  -6  -1    6.94    1.01
   2  -6   1    4.30    0.70
  -2   6  -2   81.00    3.07
   2   6   2   83.05    2.28
  -2  -6  -2   80.42    2.40
   2  -6   2   82.19    2.89
   2   6   3   19.41    1.27
  -2   6  -3   15.30    2.26
   2  -6   3   14.88    1.74
  -2  -6  -3   18.57    1.61
   2   6   4   42.42    1.97
  -2   6  -4   44.11    3.20
  -2  -6  -4   41.82    2.31
   2  -6   4   45.08    2.64
  -2   6  -5    5.15    1.88
   2   6   5    4.44    0.98
  -2  -6  -5    1.00    1.25
   2  -6   5    3.23    1.53
   2   6   6   26.28    2.49
  -2   6  -6   34.37    4.20
  -2  -6  -6   25.49    3.10
   2   7  -7    0.16    2.49
   2   7  -7    3.71    1.96
   2   7  -6    2.47    1.81
   2   7  -6    0.04    1.47
   2   7  -5   16.03    2.13
   2   7  -5   22.04    2.85
   2   7  -4   11.32    1.49
   2   7  -3   58.90    2.48
   2   7  -2    0.60    0.61
  -2   7   2    0.08    0.32
   2  -7  -2   -0.29    0.28
  -2   7   1   10.29    0.98
   2   7  -1   11.39    0.99
  -2  -7   1   13.17    1.30
   2  -7  -1   10.76    0.84
  -2   7   0   49.92    2.01
   2   7   0   47.22    1.84
   2  -7   0   48.54    1.84
  -2  -7   0   48.77    1.93
  -2   7  -1   35.44    2.04
   2   7   1   33.22    1.47
   2  -7   1   32.15    1.64
  -2  -7  -1   31.71    1.65
  -2   7  -2    0.92    1.02
   2   7   2    0.82    0.53
   2  -7   2    0.18    0.76
  -2  -7  -2    0.95    0.67
   2   7   3   98.87    2.61
  -2  -7  -3   93.52    2.79
   2  -7   3   98.50    4.33
   2   7   4    0.31    0.73
  -2   7  -4   -0.53    1.47
   2  -7   4    0.12    1.17
  -2  -7  -4    0.00    0.89
   2   7   5   47.85    2.32
  -2   7  -5   49.39    3.92
   2  -7   5   53.71    3.61
  -2  -7  -5   48.22    2.78
  -2   7  -6    0.10    2.58
   2   7   6    1.91    1.31
  -2  -7  -6    1.07    1.57
   2   8  -7    2.95    2.34
   2   8  -7   -0.56    2.72
   2   8  -6    1.85    1.57
   2   8  -6    2.04    2.01
   2   8  -5   -0.43    1.21
   2   8  -5    0.53    1.57
   2   8  -4   66.19    3.51
   2   8  -4   69.51    3.21
   2   8  -3   80.50    2.98
   2   8  -2   17.05    1.46
  -2   8   2   16.54    0.90
   2   8  -1    0.00    0.57
  -2   8   1    1.72    0.57
   2  -8  -1    1.73    0.46
  -2  -8   1    2.36    0.80
  -2   8   0   23.24    1.60
   2   8   0   17.83    1.23
  -2  -8   0   20.88    1.60
   2  -8   0   22.83    1.35
   2   8   1   74.95    2.25
  -2   8  -1   76.02    2.90
  -2  -8  -1   69.73    2.40
   2  -8   1   70.30    2.58
   2   8   2   69.77    2.15
  -2   8  -2   74.16    3.35
  -2  -8  -2   70.17    2.38
   2  -8   2   73.47    2.88
  -2   8  -3   -0.21    1.35
   2   8   3    0.95    0.61
   2  -8   3    1.42    1.06
  -2  -8  -3    0.77    0.76
  -2   8  -4   14.28    2.20
   2   8   4   14.06    1.41
  -2  -8  -4   12.72    1.68
   2  -8   4   13.07    1.80
   2   8   5    2.14    0.96
  -2   8  -5    3.19    2.17
  -2  -8  -5    1.57    1.21
  -2   8  -6   34.19    4.76
   2   8   6   28.26    2.38
  -2  -8  -6   25.32    2.76
   2   9  -7    5.30    3.15
   2   9  -7    6.03    2.78
   2   9  -6   10.98    2.57
   2   9  -6   13.75    2.20
   2   9  -5   19.57    2.70
   2   9  -5   21.89    2.24
   2   9  -4    1.23    1.16
   2   9  -4    0.12    1.41
   2   9  -3   37.04    2.33
   2   9  -2   13.75    1.36
  -2   9   2   14.05    0.93
   2   9  -1  110.82    3.20
  -2   9   1  107.13    2.65
  -2  -9   1  106.38    3.38
   2   9   0    0.29    0.62
  -2   9   0   -0.31    0.64
   2  -9   0    0.01    0.57
  -2  -9   0    0.92    0.73
  -2   9  -1   51.02    2.62
   2   9   1   46.57    1.88
  -2  -9  -1   41.43    1.99
   2  -9   1   46.33    2.24
  -2   9  -2   43.25    2.89
   2   9   2   45.55    1.79
  -2  -9  -2   47.53    2.10
   2  -9   2   44.97    2.56
   2   9   3   39.75    1.72
  -2   9  -3   43.68    3.33
  -2  -9  -3   41.87    2.05
   2  -9   3   37.23    2.55
  -2   9  -4   -0.63    1.70
   2   9   4    0.61    0.78
  -2  -9  -4    0.78    0.91
   2   9   5    0.99    0.98
  -2   9  -5   -1.97    2.47
  -2  -9  -5    0.30    1.13
   2   9   6    2.13    1.26
  -2  -9  -6    1.14    1.47
   2  10  -6    0.11    2.43
   2  10  -6    3.80    2.11
   2  10  -5    7.67    2.17
   2  10  -5   10.06    1.70
   2  10  -4   31.81    2.45
   2  10  -4   27.37    2.94
   2  10  -3    3.30    1.08
  -2  10   2   23.58    1.02
  -2  10   2   23.24    1.20
   2  10  -2   22.27    1.88
  -2  10   1   44.26    1.92
   2  10  -1   48.87    2.28
  -2  10   0   76.38    2.79
   2  10   0   75.35    2.57
  -2 -10   0   76.63    2.85
   2  10   1    9.35    1.16
  -2  10  -1    9.02    1.50
  -2 -10  -1    7.62    1.18
   2 -10   1   11.36    1.50
   2  10   2   74.59    2.32
  -2  10  -2   59.83    4.23
  -2 -10  -2   69.45    2.46
   2 -10   2   56.20    4.35
  -2  10  -3    1.80    1.54
   2  10   3    2.90    0.69
  -2 -10  -3    0.05    0.86
  -2  10  -4    1.24    1.93
   2  10   4    3.02    0.85
  -2 -10  -4    4.04    1.04
  -2  10  -5    3.36    2.50
   2  10   5    0.34    0.97
  -2 -10  -5   -1.78    1.07
   2  11  -6    3.03    2.60
   2  11  -6    8.20    2.51
   2  11  -5   36.79    4.05
   2  11  -5   36.16    3.06
   2  11  -4    4.75    1.83
   2  11  -4    1.29    1.34
   2  11  -3    8.08    1.34
   2  11  -2   -0.57    1.05
  -2  11   2   -0.49    0.46
  -2  11   2    0.25    0.56
   2  11  -1   42.45    2.13
  -2  11   1   43.29    2.05
  -2  11   0    0.41    0.88
   2  11   0    0.27    0.71
  -2 -11   0    0.05    0.94
   2  11   1    1.55    0.72
  -2  11  -1    1.37    1.29
  -2 -11  -1    2.30    0.94
   2  11   2    2.23    0.74
  -2  11  -2    0.39    1.40
  -2 -11  -2    0.98    0.86
  -2  11  -3   71.20    4.05
   2  11   3   69.78    2.30
  -2 -11  -3   74.16    2.57
   2  11   4    2.01    0.86
  -2  11  -4    4.92    2.25
  -2 -11  -4    0.52    0.97
  -2  11  -5    3.08    2.90
   2  11   5    1.40    0.97
  -2 -11  -5    2.31    1.16
   2  12  -6   34.30    5.98
   2  12  -5    6.67    2.62
   2  12  -5    5.80    1.99
   2  12  -4   58.66    3.64
   2  12  -4   50.57    4.16
   2  12  -3    0.51    1.59
   2  12  -3   -0.48    1.22
   2  12  -2   22.43    2.13
  -2  12   2   19.26    1.38
  -2  12   2   18.47    1.15
   2  12  -1    5.73    1.11
  -2  12   1    6.87    1.15
  -2  12   0    2.02    1.02
   2  12   0    0.54    0.82
   2  12   1    3.00    0.82
  -2  12  -1    4.62    1.59
  -2 -12  -1    4.87    1.17
   2  12   2   14.92    1.42
  -2  12  -2   19.19    2.83
  -2 -12  -2   18.67    1.86
   2  12   3    3.48    0.85
  -2  12  -3    4.32    1.98
  -2 -12  -3    5.35    1.12
  -2  12  -4   13.94    2.98
   2  12   4   13.31    1.53
  -2 -12  -4   10.52    1.29
   2  12   5    0.61    0.94
   2  13  -5   13.54    3.18
   2  13  -5   22.99    3.45
   2  13  -4    0.21    2.04
   2  13  -4   -1.87    1.67
   2  13  -3   11.49    1.82
   2  13  -3   15.88    2.50
   2  13  -2   17.87    2.25
  -2  13   2   17.05    1.19
  -2  13   2   17.69    1.51
  -2  13   1   82.78    2.65
  -2  13   1   80.88    2.97
  -2  13   0    0.31    1.12
   2  13   0    0.87    0.96
  -2  13  -1    1.80    1.41
   2  13   1    1.91    0.92
  -2  13  -2    3.10    1.79
   2  13   2    3.10    0.91
   2  13   3   51.49    2.23
  -2  13  -3   52.21    4.11
  -2 -13  -3   58.24    2.59
   2  13   4    2.56    0.94
  -2  13  -4    0.96    2.75
  -2 -13  -4    4.91    1.15
   2  14  -5    2.95    4.45
   2  14  -5    4.26    2.98
   2  14  -4   -0.07    1.89
   2  14  -4   -5.20    2.36
   2  14  -3   44.05    3.04
   2  14  -3   42.23    3.91
  -2  14   2   27.95    1.51
  -2  14   2   26.80    1.80
   2  14  -2   29.94    2.73
   2  14  -2   33.54    3.05
   2  14  -1    0.65    1.26
  -2  14   1    2.62    1.14
  -2  14   1    0.72    0.89
  -2  14   0   52.12    3.18
   2  14   0   61.01    2.82
   2  14   1    4.34    1.05
  -2  14  -1    3.98    1.76
  -2  14  -2   50.91    3.80
   2  14   2   49.38    2.36
  -2  14  -3   -1.43    2.37
   2  14   3    1.19    1.00
  -2  14  -4    9.20    2.99
   2  14   4   10.96    1.60
   2  15  -4    2.35    2.38
   2  15  -4   -2.67    2.43
   2  15  -3    4.85    1.92
   2  15  -3    4.54    2.34
   2  15  -2    2.41    1.56
   2  15  -2    0.81    1.91
  -2  15   2    0.92    0.97
  -2  15   2   -0.97    0.79
   2  15  -1   48.80    3.06
  -2  15   1   41.39    2.38
  -2  15   1   45.85    2.82
   2  15   0    4.14    1.28
  -2  15   0    3.37    2.08
   2  15   1    9.55    1.39
  -2  15  -1   10.14    2.04
   2  15   2    2.01    1.15
  -2  15  -2   -0.34    2.19
  -2  15  -3   14.58    3.04
   2  15   3    9.81    1.21
   2  16  -3    1.57    2.44
   2  16  -3    5.68    2.11
  -2  16   2   18.52    1.68
   2  16  -2   24.09    2.54
  -2  16   2   26.52    2.12
   2  16  -2   20.95    2.96
   2  16  -1    4.69    2.14
  -2  16   1   10.29    1.83
   2  16  -1   10.34    1.62
  -2  16   1   10.75    1.41
  -2  16   0    8.74    1.58
  -2  16   0    9.10    2.02
  -2  16  -1    0.89    1.91
   2  16   1   -1.31    2.52
  -2  16  -1    2.87    1.65
   2  16   2   16.17    2.27
  -2  16  -2   12.74    2.31
  -2  16  -2   13.06    2.84
  -2  17   2    0.46    1.27
   2  17  -2    1.01    2.42
  -2  17   2    1.58    1.01
   2  17  -1   26.08    3.95
  -2  17   1   19.10    1.91
   2  17  -1   20.84    3.16
  -2  17   1   16.50    2.21
  -2  17   0    0.26    1.70
   2  17   0   -4.07    1.70
  -2  17   0   -0.22    1.95
   2  17   0    3.19    2.05
   2  17   1    5.55    2.11
  -2  17  -1    5.46    2.01
   2  17   1    3.98    1.63
  -2  17  -1    7.34    2.40
   3   0  -8    4.57    2.16
   3   0  -8   -3.50    1.75
   3   0  -6  110.37    3.75
   3   0  -6  105.67    3.39
   3   0  -5   -0.86    0.66
   3   0  -4   66.19    2.24
  -3   0   4   65.05    2.41
   3   0  -3    0.25    0.43
  -3   0   3    0.23    0.58
  -3   0   2   26.49    1.44
   3   0  -2   28.34    1.28
   3   0  -1   -0.21    0.34
  -3   0   1   -0.42    0.45
   3   0   0  398.59    5.32
  -3   0   0  415.34    5.48
   3   0   1   -0.25    0.47
  -3   0  -1    0.09    0.65
   3   0   2   90.80    2.78
  -3   0  -2  100.85    3.23
   3   0   3    0.78    0.75
  -3   0  -3    0.02    1.04
   3   0   4  163.98    5.54
   3   0   5   -0.10    1.33
  -3   0  -5    1.24    1.66
  -3   0  -6    6.33    2.39
   3   0   6   14.03    1.95
   3   1  -8   -0.03    2.14
   3   1  -8    0.89    1.91
   3  -1  -8    3.87    2.06
   3  -1  -8   -3.48    1.59
   3   1  -7   14.45    1.85
   3   1  -7   15.31    2.33
   3  -1  -7   11.80    1.56
   3  -1  -7   15.21    2.09
   3   1  -6   -1.05    1.00
   3   1  -6    1.26    1.33
   3  -1  -6    1.61    0.88
   3  -1  -6   -0.49    1.03
   3   1  -5   26.69    1.79
   3  -1  -5   25.61    1.56
   3   1  -4    0.42    0.57
  -3   1   4   -0.09    0.63
   3  -1  -4    1.21    0.49
   3   1  -3   22.86    1.29
  -3   1   3   21.57    1.32
   3  -1  -3   20.30    1.13
  -3  -1   3   21.76    1.43
   3   1  -2    1.27    0.43
  -3   1   2    1.98    0.60
  -3  -1   2    3.16    0.70
   3  -1  -2    1.33    0.39
  -3   1   1   20.17    1.28
   3   1  -1   20.85    1.20
  -3  -1   1   22.52    1.41
   3  -1  -1   21.98    1.20
   3   1   0    1.74    0.48
  -3   1   0    1.12    0.59
   3  -1   0    1.84    0.48
  -3  -1   0    0.52    0.61
   3   1   1  173.18    3.62
  -3   1  -1  177.42    3.92
   3  -1   1  174.12    3.72
  -3  -1  -1  178.48    3.84
  -3   1  -2   21.77    1.90
   3   1   2   20.59    1.37
  -3  -1  -2   23.18    1.84
   3  -1   2   21.14    1.43
   3   1   3   20.45    1.51
  -3   1  -3   22.50    2.33
  -3  -1  -3   23.96    2.02
   3  -1   3   21.38    1.71
   3   1   4    7.22    1.31
  -3   1  -4   11.20    2.01
  -3  -1  -4    8.55    1.61
   3  -1   4   11.09    1.74
  -3   1  -5   26.45    3.33
   3   1   5   22.93    2.19
   3  -1   5   22.78    2.55
  -3  -1  -5   22.66    3.16
   3   1   6    1.46    1.78
  -3   1  -6    0.79    2.40
   3  -1   6   -1.83    1.92
  -3  -1  -6    0.62    2.24
   3   2  -8    1.54    1.87
   3   2  -8    1.19    2.40
   3  -2  -8   -1.75    2.69
   3   2  -7   -0.47    1.66
   3   2  -7   -0.10    1.40
   3  -2  -7   -1.04    1.32
   3  -2  -7    1.43    1.09
   3   2  -6   90.69    4.10
   3   2  -6   86.50    3.49
   3  -2  -6   89.66    2.78
   3  -2  -6   85.97    3.03
   3   2  -5   -1.53    0.83
   3  -2  -5   -0.12    0.57
  -3   2   4   42.23    1.79
   3   2  -4   44.48    2.04
   3  -2  -4   43.98    1.63
  -3   2   3   12.26    1.07
   3   2  -3   12.53    1.09
  -3  -2   3   13.74    1.37
   3  -2  -3   12.82    0.90
   3   2  -2   97.46    2.63
  -3   2   2   94.85    2.29
  -3  -2   2   96.15    2.69
   3  -2  -2   97.84    2.26
  -3   2   1    1.76    0.62
   3   2  -1    1.12    0.45
   3  -2  -1    1.47    0.44
  -3  -2   1    2.59    0.70
   3   2   0   28.06    1.38
  -3   2   0   29.81    1.62
   3  -2   0   31.73    1.51
  -3  -2   0   30.88    1.64
  -3   2  -1    1.35    0.70
   3   2   1    0.67    0.49
   3  -2   1    0.13    0.49
  -3  -2  -1    0.44    0.64
   3   2   2    1.92    0.59
  -3   2  -2    3.25    1.09
  -3  -2  -2    3.05    0.92
   3  -2   2    2.52    0.69
   3   2   3    0.74    0.70
  -3   2  -3    0.88    1.16
   3  -2   3    0.26    0.85
  -3  -2  -3    0.44    0.93
  -3   2  -4   12.64    2.10
   3   2   4   11.11    1.70
  -3  -2  -4   15.82    2.37
   3  -2   4   11.26    1.68
   3   2   5   20.90    2.29
  -3   2  -5   20.38    2.99
  -3  -2  -5   19.52    2.55
   3  -2   5   21.68    2.55
   3   2   6    3.61    1.80
  -3   2  -6    1.69    2.44
  -3  -2  -6    2.57    2.05
   3  -2   6    5.96    1.94
   3   3  -8    2.42    2.12
   3   3  -8   -0.48    2.39
   3  -3  -8   -1.31    1.79
   3  -3  -8   -3.04    1.37
   3   3  -7   16.38    2.39
   3   3  -7   17.07    2.49
   3  -3  -7   13.30    1.79
   3  -3  -7   15.75    2.29
   3   3  -6    0.71    1.50
   3   3  -6    4.21    1.26
   3  -3  -6    2.38    0.99
   3  -3  -6    1.81    0.74
   3   3  -5   46.08    2.32
   3  -3  -5   42.82    1.89
   3  -3  -5   41.36    1.66
   3   3  -4   -0.15    0.68
   3  -3  -4   -0.18    0.41
   3   3  -3  174.95    3.82
  -3   3   3  174.49    2.98
   3  -3  -3  181.74    2.99
  -3  -3   3  173.58    3.90
  -3   3   2    2.94    0.60
   3  -3  -2    2.77    0.53
  -3  -3   2    2.82    0.76
   3   3  -1    2.60    0.53
  -3   3   1    3.20    0.71
   3  -3  -1    2.68    0.54
  -3  -3   1    2.95    0.75
   3   3   0   41.56    1.67
  -3   3   0   44.40    1.91
   3  -3   0   43.98    1.78
  -3  -3   0   42.80    1.95
   3   3   1  188.10    3.77
  -3   3  -1  190.72    4.23
   3  -3   1  186.38    3.95
  -3  -3  -1  191.86    3.98
  -3   3  -2   -1.18    0.80
   3   3   2   -0.31    0.53
  -3  -3  -2    0.11    0.73
   3   3   3   40.09    2.06
  -3   3  -3   39.28    2.71
   3  -3   3   42.45    2.34
  -3  -3  -3   44.11    2.52
  -3   3  -4   18.19    2.75
   3   3   4   17.15    1.78
   3  -3   4   15.27    1.84
  -3  -3  -4   16.40    2.34
  -3   3  -5   14.43    2.56
   3   3   5   11.91    1.57
  -3  -3  -5   13.19    2.08
   3  -3   5   12.70    1.87
  -3   3  -6    4.35    2.79
   3   3   6    2.71    1.78
   3  -3   6    4.05    2.13
  -3  -3  -6    4.64    2.19
   3   4  -8   13.75    2.95
   3   4  -8   14.92    2.62
   3  -4  -8   16.63    2.06
   3  -4  -8   15.95    2.11
   3   4  -7    0.62    1.66
   3   4  -7    0.40    1.99
   3  -4  -7   -1.13    1.09
   3  -4  -7   -2.12    0.89
   3   4  -6   33.57    3.21
   3   4  -6   34.99    2.62
   3  -4  -6   33.44    1.90
   3  -4  -6   35.04    1.60
   3   4  -5    1.63    0.97
   3  -4  -5    3.92    0.79
   3  -4  -5    3.24    0.59
   3   4  -4   39.77    2.17
   3  -4  -4   38.86    1.36
   3   4  -3    1.53    0.57
  -3   4   3    2.56    0.56
  -3  -4   3    3.38    0.95
   3  -4  -3    1.57    0.39
  -3   4   2   46.85    1.61
   3   4  -2   46.08    1.92
   3  -4  -2   48.44    1.55
  -3  -4   2   49.15    2.11
  -3   4   1    0.44    0.56
   3   4  -1    0.42    0.49
   3  -4  -1    0.32    0.40
  -3  -4   1    0.15    0.60
  -3   4   0  193.80    3.85
   3   4   0  200.42    3.86
  -3  -4   0  197.68    3.92
   3  -4   0  197.07    3.81
  -3   4  -1   22.85    1.84
   3   4   1   22.17    1.39
  -3  -4  -1   23.02    1.58
   3  -4   1   20.36    1.50
   3   4   2  126.67    3.27
  -3   4  -2  135.22    3.99
  -3  -4  -2  127.92    3.53
   3  -4   2  129.26    3.72
   3   4   3    4.57    0.90
  -3   4  -3    7.51    1.98
   3  -4   3    4.22    1.02
  -3  -4  -3    3.65    1.12
  -3   4  -4   48.06    3.63
   3   4   4   46.40    2.47
   3  -4   4   51.03    2.81
  -3  -4  -4   48.23    3.06
  -3   4  -5   -0.14    2.04
   3   4   5    0.70    1.25
   3  -4   5    1.27    1.66
  -3  -4  -5    0.49    1.57
  -3   4  -6   14.24    3.40
   3   4   6   13.98    1.91
  -3  -4  -6   11.31    2.43
   3  -4   6   10.78    2.28
   3   5  -7   19.82    2.79
   3  -5  -7   16.13    1.42
   3  -5  -7   18.68    1.82
   3   5  -6    1.39    1.24
   3   5  -6   -0.99    1.66
   3  -5  -6    0.02    0.57
   3  -5  -6    0.06    0.72
   3   5  -5   18.31    2.43
   3  -5  -5   21.64    1.08
   3  -5  -5   22.31    1.24
   3   5  -4   26.10    2.00
   3  -5  -4   25.46    1.05
   3   5  -3   68.10    2.51
  -3   5   3   66.40    1.65
   3  -5  -3   69.89    1.70
  -3  -5   3   68.38    2.79
   3   5  -2    0.09    0.54
  -3   5   2    1.67    0.53
  -3  -5   2    1.62    0.80
   3  -5  -2    1.18    0.41
  -3   5   1   15.31    1.25
   3   5  -1   14.89    1.22
  -3  -5   1   13.63    1.38
   3  -5  -1   13.10    0.99
  -3   5   0   12.65    1.30
   3   5   0   14.58    1.07
  -3  -5   0   14.43    1.33
   3  -5   0   12.62    1.04
   3   5   1  112.79    2.94
  -3   5  -1  116.75    3.51
   3  -5   1  112.42    3.24
  -3  -5  -1  112.52    3.15
  -3   5  -2   12.73    1.84
   3   5   2   14.13    1.28
   3  -5   2   12.65    1.55
  -3  -5  -2   13.04    1.63
   3   5   3   20.99    1.57
  -3   5  -3   17.30    2.30
  -3  -5  -3   16.26    1.95
   3  -5   3   15.69    2.18
   3   5   4    4.28    1.04
  -3   5  -4    4.61    1.81
   3  -5   4    4.88    1.30
  -3  -5  -4    4.15    1.35
   3   5   5    5.12    2.34
  -3  -5  -5    4.25    2.03
   3  -5   5    4.62    1.71
  -3   5  -6   -2.70    2.75
   3   5   6    0.87    1.68
   3  -5   6    6.13    2.50
  -3  -5  -6    1.14    2.06
   3   6  -7   -0.67    2.07
   3   6  -7    0.78    1.82
   3  -6  -7    0.25    0.57
   3  -6  -7    1.44    0.71
   3   6  -6   18.80    2.40
   3   6  -6   13.85    2.36
   3  -6  -6   17.51    0.92
   3  -6  -6   18.44    1.04
   3   6  -5    1.58    1.12
   3  -6  -5    0.67    0.39
   3  -6  -5    0.19    0.43
   3   6  -4   24.96    1.96
   3  -6  -4   27.70    0.94
   3   6  -3    0.59    0.68
  -3   6   3    0.73    0.41
  -3  -6   3    0.01    0.95
   3  -6  -3    0.70    0.37
   3   6  -2   13.38    1.33
  -3   6   2   13.12    1.03
  -3  -6   2   13.67    1.55
   3  -6  -2   13.06    0.91
   3   6  -1    0.41    0.55
  -3   6   1    0.64    0.60
  -3  -6   1    1.32    0.74
   3  -6  -1    1.05    0.47
  -3   6   0   45.65    2.14
   3   6   0   41.52    1.81
   3  -6   0   44.03    1.89
  -3  -6   0   46.89    2.17
  -3   6  -1    6.08    1.16
   3   6   1    6.82    0.96
   3  -6   1    6.40    0.96
  -3  -6  -1    7.56    1.15
   3   6   2   20.68    1.47
  -3   6  -2   19.81    2.14
   3  -6   2   18.10    1.80
  -3  -6  -2   18.75    1.77
   3   6   3   20.66    1.58
  -3   6  -3   20.92    2.69
  -3  -6  -3   15.08    1.97
   3  -6   3   17.35    1.86
   3   6   4   11.57    1.71
  -3   6  -4   11.29    2.10
  -3  -6  -4   12.65    1.78
   3  -6   4   10.00    1.52
   3   6   5   -0.61    1.61
  -3   6  -5    2.92    2.18
   3  -6   5    1.16    1.77
  -3   6  -6   -1.06    3.08
   3   6   6    0.46    1.73
   3  -6   6   -2.21    2.76
  -3  -6  -6    1.93    2.08
   3   7  -7    6.27    2.47
   3   7  -7    5.65    2.04
   3   7  -6    3.09    1.89
   3   7  -6    1.93    1.44
   3   7  -5   25.30    2.17
   3   7  -4   -0.10    1.07
   3   7  -3    9.60    1.34
  -3   7   3   14.49    0.85
   3  -7  -3   13.31    0.77
  -3  -7   3   13.82    2.00
  -3   7   2    2.90    0.63
   3   7  -2    2.66    0.77
   3  -7  -2    2.39    0.51
  -3  -7   2    4.24    1.02
   3   7  -1   20.11    1.51
  -3   7   1   21.26    1.49
  -3  -7   1   20.73    1.75
   3  -7  -1   19.38    1.24
  -3   7   0    0.11    0.72
   3   7   0   -0.01    0.60
  -3  -7   0    0.26    0.73
   3  -7   0   -1.19    0.61
  -3   7  -1   66.59    2.92
   3   7   1   72.36    2.49
   3  -7   1   70.56    2.68
  -3  -7  -1   71.71    2.70
   3   7   2    0.71    0.70
  -3   7  -2   -0.22    1.18
  -3  -7  -2    0.37    0.82
   3  -7   2    2.75    0.93
   3   7   3  109.61    3.22
  -3   7  -3  109.38    4.49
   3  -7   3  111.05    3.98
  -3  -7  -3  116.87    3.73
   3   7   4   -0.71    1.00
  -3   7  -4    2.68    2.00
  -3  -7  -4   -1.38    1.20
   3  -7   4   -3.12    1.41
  -3   7  -5   26.86    3.92
   3   7   5   29.70    2.55
  -3  -7  -5   26.35    3.05
   3  -7   5   24.13    3.43
   3   8  -7    5.76    2.86
   3   8  -7    3.42    2.17
   3   8  -6   18.31    2.64
   3   8  -6   20.65    2.98
   3   8  -5    9.16    1.52
   3   8  -4   12.25    1.52
   3   8  -3   18.56    1.73
  -3   8   3   16.15    0.86
   3  -8  -3   16.58    0.79
   3   8  -2   33.43    1.89
  -3   8   2   34.38    1.52
  -3  -8   2   32.97    2.27
   3  -8  -2   34.31    1.39
   3   8  -1    1.76    0.70
  -3   8   1    0.59    0.68
  -3  -8   1    1.24    0.98
   3  -8  -1    1.19    0.55
  -3   8   0   54.61    2.52
   3   8   0   58.87    2.40
  -3  -8   0   60.03    2.62
   3  -8   0   60.43    2.34
   3   8   1   14.37    1.28
  -3   8  -1   10.45    1.56
  -3  -8  -1   14.07    1.67
   3  -8   1   13.70    1.56
  -3   8  -2   31.17    3.24
   3   8   2   34.12    1.88
  -3  -8  -2   38.03    2.26
  -3   8  -3    3.64    1.67
   3   8   3    4.69    0.86
   3  -8   3    2.88    1.21
  -3  -8  -3    2.83    1.14
  -3   8  -4   60.86    4.39
   3   8   4   61.14    2.65
   3  -8   4   62.18    3.41
  -3  -8  -4   52.62    3.07
   3   8   5    1.65    1.37
  -3   8  -5    0.45    2.45
   3  -8   5   -1.69    2.02
  -3  -8  -5    3.86    1.72
   3   9  -7    2.52    2.79
   3   9  -7    1.13    3.15
   3   9  -6   -0.98    1.86
   3   9  -6    3.05    2.29
   3   9  -5   37.02    3.42
   3   9  -5   32.67    2.99
   3   9  -4   -0.25    1.11
  -3   9   3   30.61    0.99
   3   9  -3   26.75    2.17
   3   9  -2    5.90    1.14
  -3   9   2    5.38    0.83
  -3  -9   2    6.01    1.38
   3  -9  -2    5.67    0.85
   3   9  -1   52.51    2.43
  -3   9   1   52.27    2.23
  -3  -9   1   53.71    2.74
   3  -9  -1   53.11    2.03
   3   9   0    6.34    0.94
  -3   9   0    5.78    1.13
   3  -9   0    5.12    0.99
  -3  -9   0    5.45    1.15
   3   9   1   22.18    1.63
  -3   9  -1   23.74    2.45
   3  -9   1   26.17    1.86
  -3  -9  -1   24.12    2.03
  -3   9  -2   -0.52    1.24
   3   9   2   -0.35    0.76
  -3  -9  -2   -1.46    0.96
   3  -9   2   -0.63    1.11
  -3   9  -3    5.71    1.82
   3   9   3    1.70    0.87
  -3  -9  -3    3.68    1.19
   3  -9   3    2.14    1.31
  -3   9  -4   -1.39    2.19
   3   9   4    0.00    1.10
  -3  -9  -4    0.94    1.33
   3  -9   4    0.78    1.76
  -3   9  -5    5.49    2.82
   3   9   5    4.01    1.43
   3  -9   5    4.79    2.38
  -3  -9  -5    4.24    1.73
   3  10  -6   26.14    3.13
   3  10  -6   33.43    4.13
   3  10  -5   -1.97    1.89
   3  10  -5   -1.36    1.50
   3  10  -4    8.60    1.52
   3  10  -3    0.31    1.15
  -3  10   3    1.32    0.42
   3  10  -2   50.70    3.23
  -3  10   2   52.69    1.99
  -3 -10   2   44.15    4.79
   3 -10  -2   53.86    1.79
   3  10  -1   19.68    1.69
  -3  10   1   20.77    1.73
   3 -10  -1   19.78    1.44
  -3 -10   1   18.39    2.08
  -3  10   0   58.43    2.76
   3  10   0   55.02    2.44
   3 -10   0   55.12    2.45
  -3 -10   0   52.03    2.73
   3  10   1    4.58    0.93
  -3  10  -1    7.48    1.59
  -3 -10  -1    5.20    1.18
   3 -10   1    6.65    1.22
   3  10   2   15.57    1.62
  -3  10  -2   16.04    2.30
  -3 -10  -2   14.73    1.99
   3 -10   2   15.85    1.97
  -3  10  -3    3.66    1.82
   3  10   3    4.43    1.01
   3 -10   3    2.20    1.47
  -3 -10  -3    3.66    1.28
   3  10   4    1.20    1.16
  -3  10  -4   -0.22    2.18
  -3 -10  -4    1.17    1.38
   3 -10   4   -1.07    1.88
   3  10   5    6.57    1.47
  -3  10  -5    6.11    3.69
  -3 -10  -5    7.86    1.87
   3  11  -6    4.28    2.54
   3  11  -6   -3.92    2.52
   3  11  -5   18.98    2.33
   3  11  -5   18.31    2.99
   3  11  -4   -0.29    1.39
  -3  11   3   22.39    0.84
  -3  11   3   22.08    0.80
   3  11  -3   24.04    2.11
  -3  11   2   13.86    1.43
   3  11  -2   14.70    1.90
  -3  11   1   10.60    1.38
   3  11  -1   13.52    1.77
  -3 -11   1   14.61    2.23
   3 -11  -1    9.24    1.39
   3  11   0   14.73    1.75
  -3  11   0   17.58    2.17
   3 -11   0   21.01    1.88
  -3 -11   0   16.57    2.20
   3  11   1  127.99    3.64
  -3  11  -1  126.78    5.26
  -3 -11  -1  124.68    3.98
   3  11   2    4.08    0.99
  -3  11  -2    0.77    1.66
  -3 -11  -2    2.54    1.12
   3 -11   2    0.08    1.38
   3  11   3   22.44    1.98
  -3  11  -3   34.74    3.91
   3 -11   3   27.89    2.76
  -3 -11  -3   25.29    2.43
   3  11   4   -0.43    1.24
  -3  11  -4    4.29    2.60
  -3 -11  -4    0.35    1.40
   3  12  -5    5.35    2.16
   3  12  -5    0.47    2.44
   3  12  -4   21.35    2.65
   3  12  -3    4.06    1.41
  -3  12   2   30.15    1.84
   3  12  -2   32.95    2.30
  -3  12   1    0.78    1.00
   3  12  -1    0.61    1.05
  -3 -12   1   -0.07    1.42
   3  12   0    9.99    1.30
  -3  12   0    9.49    1.73
  -3 -12   0   11.49    1.76
  -3  12  -1    5.76    1.61
   3  12   1    5.70    1.24
   3 -12   1    7.56    1.48
  -3 -12  -1    7.41    1.51
  -3  12  -2   53.93    3.92
   3  12   2   51.83    2.57
  -3 -12  -2   48.29    2.93
   3 -12   2   53.15    3.40
  -3  12  -3    3.11    2.49
   3  12   3    3.94    1.15
  -3 -12  -3    3.36    1.35
  -3  12  -4   14.22    3.26
   3  12   4   18.30    2.31
  -3 -12  -4   11.81    1.79
   3  13  -5   16.71    3.23
   3  13  -5   14.34    2.83
   3  13  -4    1.72    2.18
   3  13  -4    6.38    2.03
   3  13  -3   25.69    3.01
  -3  13   2    5.81    1.06
   3  13  -2    5.17    1.34
   3  13  -1    3.93    1.19
  -3  13   1    4.58    1.22
  -3  13   0   12.77    1.85
   3  13   0   14.97    1.96
  -3 -13   0   14.20    2.34
   3  13   1   16.91    2.12
  -3  13  -1   19.83    2.94
  -3  13  -2    7.45    2.26
   3  13   2    7.84    1.29
  -3 -13  -2    7.84    1.72
  -3  13  -3    1.08    2.55
   3  13   3    1.86    1.24
  -3 -13  -3    2.03    1.46
   3  13   4    0.69    1.42
  -3 -13  -4    2.01    1.54
   3  14  -4    3.50    2.76
   3  14  -4    8.86    2.25
   3  14  -3   -2.16    1.75
   3  14  -2   23.56    2.77
  -3  14   2   21.49    1.98
  -3  14   2   24.51    1.68
   3  14  -1    0.46    1.36
  -3  14   1   -0.83    1.25
  -3  14   0   12.81    2.04
   3  14   0   15.90    2.19
  -3  14  -1    0.54    1.72
  -3  14  -2   18.85    2.99
   3  14   2   16.90    1.82
  -3 -14  -2   15.27    2.06
   3  14   3   -0.75    1.34
  -3  14  -3   -3.83    2.74
  -3 -14  -3    1.89    1.61
   3  15  -4    5.84    3.00
   3  15  -4   -3.34    2.61
   3  15  -3   12.83    2.26
  -3  15   2    5.33    1.03
  -3  15   2    4.03    1.21
   3  15  -2    2.21    1.81
   3  15  -1   22.23    2.66
  -3  15   1   19.68    2.78
   3  15   0   12.13    1.75
  -3  15   0   21.98    3.09
  -3  15  -1   21.63    2.85
   3  15   1   21.40    2.57
  -3  15  -2    4.05    2.40
   3  15   2   -0.96    2.28
   3  16  -3    0.59    2.81
   3  16  -3   -0.89    2.48
   3  16  -2   10.02    2.25
  -3  16   2   15.26    1.92
  -3  16   2   14.38    1.70
   3  16  -1    0.50    1.84
  -3  16   1   -2.13    1.35
  -3  16   1   -0.16    1.65
   3  16   0    9.83    1.96
  -3  16   0    8.28    2.15
   3  16   1    0.36    1.62
  -3  16  -1   -1.29    2.18
  -3  17   1    5.63    2.36
   3  17  -1   -0.28    2.20
   3  17   0    6.20    2.05
  -3  17   0    5.53    1.91
   4   0  -8   26.64    3.80
   4   0  -8   23.96    2.39
   4   0  -7    2.93    1.71
   4   0  -7   -2.28    1.35
   4   0  -6    3.42    1.12
   4   0  -5   -1.14    0.78
   4   0  -4    3.09    0.75
  -4   0   4    3.29    0.88
  -4   0   3   -0.58    0.71
   4   0  -3    0.67    0.55
   4   0  -2   28.97    1.48
  -4   0   2   29.84    1.75
   4   0  -1   -0.42    0.52
  -4   0   1   -0.55    0.65
   4   0   0   48.24    2.02
  -4   0   0   47.14    2.26
   4   0   1   -0.83    0.63
  -4   0  -1    0.83    0.89
   4   0   2   49.90    2.43
  -4   0  -2   50.57    2.83
  -4   0  -3   -0.04    1.34
   4   0   3   -0.71    1.13
  -4   0  -4   -2.26    1.42
   4   0   4    1.02    1.29
   4   0   5    0.65    1.70
  -4   0  -5    2.27    2.12
   4   1  -8   -3.56    1.84
   4   1  -8    1.37    2.24
   4  -1  -8    1.19    2.16
   4  -1  -8   -1.99    1.61
   4   1  -7   31.40    3.35
   4   1  -7   31.11    2.59
   4  -1  -7   33.29    3.04
   4  -1  -7   30.95    2.47
   4   1  -6    6.04    1.20
   4  -1  -6    5.85    1.12
   4   1  -5    1.53    0.82
   4  -1  -5    1.07    0.74
   4   1  -4   35.78    1.94
  -4   1   4   32.08    1.94
  -4  -1   4   32.32    2.08
   4  -1  -4   32.26    1.70
   4   1  -3   81.13    2.68
  -4   1   3   80.31    2.61
   4  -1  -3   81.96    2.52
  -4  -1   3   83.50    2.89
   4   1  -2    3.93    0.61
  -4   1   2    4.33    0.93
  -4  -1   2    3.72    0.87
   4  -1  -2    3.30    0.68
  -4   1   1   60.90    2.37
   4   1  -1   57.48    2.18
   4  -1  -1   60.38    2.23
  -4  -1   1   61.28    2.49
  -4   1   0    6.15    1.15
   4   1   0    8.58    1.01
   4  -1   0    7.64    1.01
  -4  -1   0    7.91    1.22
  -4   1  -1   44.39    2.41
   4   1   1   39.41    1.96
  -4  -1  -1   39.79    2.29
   4  -1   1   42.29    2.08
   4   1   2   24.36    1.73
  -4   1  -2   22.54    2.22
   4  -1   2   23.57    1.93
  -4  -1  -2   25.60    2.18
  -4   1  -3   16.11    2.36
  -4  -1  -3   17.41    3.28
   4  -1   3   16.72    1.82
   4   1   4    0.04    1.30
  -4   1  -4    0.40    1.67
  -4  -1  -4    1.19    1.73
   4  -1   4    0.83    1.28
  -4   1  -5   12.00    2.51
   4   1   5    9.38    1.87
   4  -1   5   12.50    1.93
  -4  -1  -5    8.54    2.30
   4   2  -8   32.47    4.14
   4   2  -8   26.54    3.46
   4  -2  -8   15.29    3.90
   4   2  -7    0.72    1.77
   4   2  -7    2.87    1.50
   4  -2  -7    0.92    1.18
   4  -2  -7    0.33    1.45
   4   2  -6   37.25    2.61
   4  -2  -6   37.55    2.06
   4   2  -5    1.56    0.95
   4  -2  -5    1.67    0.72
   4   2  -4  123.99    3.63
  -4   2   4  118.77    3.10
   4  -2  -4  118.51    2.99
  -4  -2   4  122.35    3.71
   4   2  -3    0.33    0.59
  -4   2   3    0.81    0.70
   4  -2  -3    0.74    0.53
  -4  -2   3    1.00    0.86
  -4   2   2  115.02    3.02
   4   2  -2  109.36    3.08
  -4  -2   2  112.56    3.24
   4  -2  -2  110.35    2.84
  -4   2   1    1.13    0.70
   4   2  -1    1.08    0.59
   4  -2  -1    1.11    0.55
  -4  -2   1    1.09    0.76
  -4   2   0   34.48    2.03
   4   2   0   36.71    1.84
  -4  -2   0   38.83    2.14
   4  -2   0   36.06    1.76
  -4   2  -1    0.99    0.91
   4   2   1    0.35    0.63
  -4  -2  -1    0.26    0.81
   4  -2   1   -0.26    0.68
   4   2   2   33.24    2.12
  -4   2  -2   35.22    2.70
  -4  -2  -2   37.81    2.63
   4  -2   2   34.20    2.14
   4   2   3    8.66    1.46
  -4   2  -3    8.98    1.81
   4  -2   3    9.11    1.31
  -4   2  -4   24.52    3.04
   4   2   4   32.27    2.51
  -4  -2  -4   28.59    3.19
   4  -2   4   25.82    2.68
   4   2   5    1.62    1.57
  -4   2  -5   -3.45    2.18
   4  -2   5   -1.40    1.72
  -4  -2  -5   -1.37    1.99
   4   3  -7   22.79    2.75
   4   3  -7   27.77    2.90
   4  -3  -7   22.82    2.01
   4  -3  -7   19.43    2.44
   4   3  -6    7.18    1.46
   4  -3  -6    8.02    1.02
   4   3  -5   37.73    2.51
   4  -3  -5   37.39    1.81
   4   3  -4    1.01    0.73
  -4   3   4    0.77    0.68
   4  -3  -4    0.23    0.56
  -4  -3   4    2.22    1.09
   4   3  -3   44.00    2.03
  -4   3   3   46.24    1.95
   4  -3  -3   43.62    1.75
  -4  -3   3   48.42    2.43
  -4   3   2   49.02    2.06
   4   3  -2   52.51    2.19
   4  -3  -2   45.16    1.85
  -4  -3   2   47.84    2.31
   4   3  -1   53.92    2.26
  -4   3   1   51.58    2.18
   4  -3  -1   52.21    2.10
  -4  -3   1   54.37    2.42
  -4   3   0   42.29    2.20
   4   3   0   42.02    1.94
  -4  -3   0   43.05    2.26
   4  -3   0   40.61    1.97
  -4   3  -1   38.53    2.40
   4   3   1   39.36    2.11
   4  -3   1   38.62    2.01
  -4  -3  -1   37.84    2.28
   4   3   2   22.21    1.79
  -4   3  -2   25.14    2.51
  -4  -3  -2   25.29    2.30
   4  -3   2   24.08    1.90
  -4   3  -3   26.00    2.94
   4   3   3   29.87    2.10
  -4  -3  -3   23.20    2.89
   4  -3   3   26.01    2.05
  -4   3  -4    4.36    1.98
   4  -3   4    8.43    1.60
  -4  -3  -4    7.47    1.97
  -4   3  -5   46.25    4.33
   4   3   5   48.69    3.50
  -4  -3  -5   46.20    4.09
   4  -3   5   59.69    3.60
   4   4  -7    4.23    2.21
   4   4  -7    2.65    1.74
   4  -4  -7    0.66    1.25
   4  -4  -7    2.88    0.99
   4   4  -6   21.40    2.41
   4  -4  -6   16.55    1.81
   4  -4  -6   18.54    1.48
   4   4  -5    0.34    1.02
   4  -4  -5    1.20    0.62
   4   4  -4    7.65    1.19
  -4   4   4    8.85    1.17
  -4  -4   4    7.31    1.35
   4  -4  -4    7.34    0.99
  -4   4   3    1.63    0.66
   4   4  -3    2.64    0.78
   4  -4  -3    1.12    0.54
  -4  -4   3    0.57    0.93
   4   4  -2   35.52    1.97
  -4   4   2   35.35    1.83
   4  -4  -2   36.41    1.66
  -4  -4   2   35.57    2.24
   4   4  -1    0.86    0.60
  -4   4   1    0.18    0.70
   4  -4  -1    0.02    0.57
  -4  -4   1    0.54    0.80
  -4   4   0  136.19    3.80
   4   4   0  138.80    3.63
   4  -4   0  136.29    3.57
  -4  -4   0  138.10    3.75
   4   4   1   -0.02    0.68
  -4   4  -1    2.39    1.13
   4  -4   1    0.73    0.79
  -4  -4  -1    1.08    0.89
   4   4   2   24.66    1.82
   4  -4   2   27.87    2.20
  -4  -4  -2   24.34    2.36
   4   4   3    0.98    0.99
  -4   4  -3    2.00    1.56
   4  -4   3    0.07    1.12
  -4  -4  -3    0.42    1.41
  -4   4  -4   11.91    2.36
   4   4   4   11.99    1.63
   4  -4   4   16.54    2.33
  -4  -4  -4   13.71    2.18
   4   4   5    1.55    1.71
  -4   4  -5    1.07    2.42
  -4  -4  -5    4.08    2.15
   4  -4   5    3.12    1.97
   4   5  -7   17.40    3.04
   4   5  -7   28.13    3.23
   4  -5  -7   20.41    2.00
   4  -5  -7   20.49    1.59
   4   5  -6    1.25    1.44
   4  -5  -6    0.60    0.70
   4  -5  -6    0.96    0.85
   4   5  -5   32.58    2.34
   4  -5  -5   32.30    1.47
  -4   5   4    7.66    1.17
   4  -5  -4    8.52    1.01
  -4  -5   4    5.11    1.67
   4   5  -3   31.98    1.96
  -4   5   3   31.84    1.65
   4  -5  -3   35.78    1.54
  -4  -5   3   32.89    2.34
   4   5  -2    7.59    1.13
  -4   5   2    5.58    0.92
  -4  -5   2    8.68    1.28
   4  -5  -2    5.40    0.81
   4   5  -1  199.42    4.50
  -4   5   1  192.54    4.12
  -4  -5   1  196.38    4.53
   4  -5  -1  197.01    4.10
  -4   5   0   32.26    2.09
   4   5   0   30.38    1.75
   4  -5   0   30.29    1.84
  -4  -5   0   34.35    2.15
  -4   5  -1  108.53    3.80
   4   5   1  107.07    3.27
  -4  -5  -1  105.43    3.58
   4  -5   1  106.19    3.43
  -4   5  -2   -2.18    1.24
   4   5   2    0.50    0.89
   4  -5   2    0.50    1.15
  -4  -5  -2   -0.80    1.10
  -4   5  -3    1.23    1.56
   4   5   3    4.17    1.13
  -4  -5  -3    2.43    1.55
   4  -5   3    5.68    1.27
   4   5   4    2.16    1.29
  -4   5  -4    5.28    2.19
   4  -5   4    3.98    1.72
  -4  -5  -4    4.16    1.82
  -4   5  -5   32.49    4.25
   4   5   5   30.67    2.90
   4  -5   5   24.39    3.31
  -4  -5  -5   20.27    2.75
   4   6  -7   -3.06    2.28
   4   6  -7   -4.18    1.84
   4  -6  -7   -0.65    0.84
   4  -6  -7   -0.65    0.70
   4   6  -6   26.06    2.50
   4  -6  -6   20.85    1.43
   4  -6  -6   23.06    1.25
   4   6  -5    0.24    1.11
   4  -6  -5    0.12    0.55
   4   6  -4   23.18    1.99
  -4   6   4   22.66    1.31
   4  -6  -4   22.06    1.26
  -4  -6   4   23.23    2.47
   4   6  -3   10.96    1.61
  -4   6   3   10.29    1.21
  -4  -6   3   11.76    1.76
   4  -6  -3   11.54    1.07
  -4   6   2   69.26    2.38
   4   6  -2   68.96    2.73
  -4  -6   2   67.51    2.95
   4  -6  -2   69.96    2.27
   4   6  -1    0.39    0.69
  -4   6   1   -0.13    0.82
  -4  -6   1    0.69    0.92
   4  -6  -1    0.46    0.64
  -4   6   0   65.17    2.83
   4   6   0   71.12    2.75
   4  -6   0   64.24    2.63
  -4  -6   0   67.51    2.86
   4   6   1   13.68    1.49
  -4   6  -1   14.32    1.88
   4  -6   1   11.79    1.66
  -4  -6  -1   13.04    1.95
   4   6   2   31.85    1.98
  -4   6  -2   29.31    2.71
  -4  -6  -2   33.37    2.60
   4  -6   2   31.93    2.36
   4   6   3   13.96    1.87
  -4   6  -3   11.14    2.03
  -4  -6  -3   11.32    1.87
   4  -6   3   11.37    1.48
  -4   6  -4    6.62    2.24
   4   6   4    4.46    1.41
  -4  -6  -4    6.90    2.01
   4  -6   4    6.60    1.74
   4   6   5    3.35    1.79
  -4   6  -5    2.54    2.84
  -4  -6  -5    5.33    2.25
   4  -6   5    3.41    2.23
   4   7  -7   -1.78    2.47
   4   7  -7   -1.90    2.18
   4   7  -6    0.99    1.70
   4   7  -5    3.53    1.36
   4  -7  -5    2.84    0.53
   4   7  -4    1.93    1.05
  -4   7   4    3.25    0.62
  -4  -7   4    4.23    1.63
   4  -7  -4    3.95    0.61
  -4   7   3   12.40    1.29
  -4   7   2   22.51    1.63
   4   7  -2   20.38    1.73
   4  -7  -2   21.07    1.38
  -4  -7   2   21.18    2.14
   4   7  -1   15.88    1.43
  -4   7   1   12.84    1.65
   4  -7  -1   13.41    1.33
  -4  -7   1   16.86    1.94
   4   7   0    2.29    0.83
  -4   7   0    2.02    1.05
  -4  -7   0    2.11    1.09
   4  -7   0    3.02    0.82
  -4   7  -1   16.43    2.29
   4   7   1   16.28    1.62
   4  -7   1   16.32    1.89
  -4  -7  -1   16.09    2.11
  -4   7  -2    3.02    1.55
   4   7   2    0.39    0.95
   4  -7   2   -0.06    1.13
  -4  -7  -2    1.25    1.28
   4   7   3   13.97    1.89
  -4   7  -3   15.84    2.46
   4  -7   3   20.23    2.27
  -4  -7  -3   17.72    2.61
   4   7   4    1.61    1.36
  -4   7  -4    3.60    2.35
  -4  -7  -4   -1.18    1.70
   4  -7   4    3.41    1.82
   4   7   5   23.56    2.39
  -4   7  -5   18.23    3.70
  -4  -7  -5   31.15    3.99
   4  -7   5   30.03    4.38
   4   8  -7   -1.09    2.66
   4   8  -7   -0.81    2.91
   4   8  -6    4.07    1.77
   4   8  -5    8.13    1.56
   4   8  -4   13.81    2.07
  -4   8   4   13.71    1.00
   4  -8  -4   12.84    0.94
  -4   8   3    3.96    0.78
   4   8  -3    4.52    1.16
  -4  -8   3    4.30    1.46
   4  -8  -3    3.63    0.64
   4   8  -2   23.88    2.05
  -4   8   2   26.00    1.74
   4  -8  -2   24.44    1.49
  -4  -8   2   23.83    2.80
   4   8  -1    1.96    0.89
  -4   8   1    1.10    0.89
  -4  -8   1   -0.40    1.05
   4  -8  -1    0.40    0.73
  -4   8   0    3.31    1.20
   4   8   0    1.78    0.91
  -4  -8   0    1.67    1.20
   4  -8   0    1.74    0.85
   4   8   1    1.38    0.92
  -4  -8  -1    1.47    1.17
   4  -8   1    1.59    1.11
  -4   8  -2   36.53    3.07
   4   8   2   39.22    2.40
  -4  -8  -2   37.67    2.92
   4  -8   2   47.61    2.79
  -4   8  -3    5.55    2.01
   4   8   3    7.28    1.52
  -4  -8  -3    8.76    3.06
   4  -8   3    8.65    1.62
  -4   8  -4    4.80    2.42
   4   8   4    4.47    1.44
   4  -8   4    7.36    2.08
  -4  -8  -4    1.30    1.83
   4   8   5   -2.90    1.83
  -4  -8  -5   -0.84    2.12
   4   9  -6    0.53    1.95
   4   9  -5   41.29    3.08
  -4   9   4   12.38    0.83
   4   9  -4    9.84    1.58
   4  -9  -4   11.78    0.78
   4   9  -3   25.24    2.06
  -4   9   3   25.44    1.53
   4  -9  -3   25.47    1.33
  -4  -9   3   24.90    2.62
  -4   9   2    5.56    1.03
   4   9  -2    6.14    1.12
  -4  -9   2    5.92    1.49
   4  -9  -2    5.38    0.86
  -4   9   1  104.71    3.47
   4   9  -1  105.26    3.74
  -4  -9   1  100.98    3.93
   4  -9  -1  106.05    3.20
  -4   9   0    5.13    1.39
   4   9   0    4.66    1.03
   4  -9   0    6.09    1.10
  -4  -9   0    4.24    1.33
  -4   9  -1    1.94    1.46
   4   9   1    3.28    0.95
   4  -9   1    5.59    1.21
  -4  -9  -1    3.88    1.33
  -4   9  -2    3.41    1.70
   4   9   2    3.58    1.09
  -4  -9  -2    0.96    1.30
   4  -9   2    0.94    1.36
  -4   9  -3   32.80    3.54
   4   9   3   22.31    3.18
   4  -9   3   27.25    2.82
   4   9   4    5.03    1.56
  -4   9  -4    2.30    2.42
   4  -9   4    9.64    2.39
  -4  -9  -4    4.38    1.90
   4  10  -6    4.38    2.72
   4  10  -6    8.24    2.54
   4  10  -5    0.60    1.70
   4  10  -4   32.87    2.90
   4  10  -3   20.97    2.05
  -4  10   3   18.60    1.45
   4 -10  -3   19.39    1.23
  -4 -10   3   17.51    2.35
  -4  10   2   36.59    2.07
   4  10  -2   35.24    2.70
  -4 -10   2   32.41    2.79
   4 -10  -2   34.28    1.82
  -4  10   1    3.15    1.17
   4  10  -1    4.13    1.09
   4 -10  -1    3.79    0.93
  -4 -10   1    3.15    1.41
  -4  10   0   40.71    2.83
   4  10   0   31.23    2.62
   4 -10   0   37.40    2.36
   4  10   1    9.37    1.36
  -4  10  -1    8.86    1.83
  -4 -10  -1    8.66    1.68
   4 -10   1    8.72    1.48
  -4  10  -2   28.18    3.15
   4  10   2   28.90    2.38
   4 -10   2   29.51    2.81
  -4 -10  -2   28.17    3.41
  -4  10  -3   -1.61    2.09
   4  10   3   -3.25    1.44
   4 -10   3   -2.72    1.74
  -4 -10  -3   -0.18    1.64
   4  10   4    9.72    1.70
  -4  10  -4   10.75    3.30
  -4 -10  -4   10.30    2.30
   4 -10   4    6.60    2.58
   4  11  -6   -1.50    2.66
   4  11  -6    1.55    2.82
   4  11  -5   25.64    3.36
   4  11  -4    2.50    1.61
   4  11  -3    5.93    1.42
  -4  11   3    7.19    0.98
   4  11  -2   19.24    2.12
  -4  11   2   23.35    1.92
  -4 -11   2   20.25    2.60
   4 -11  -2   19.65    1.56
   4  11  -1  123.56    4.18
  -4  11   1  123.79    3.91
  -4 -11   1  126.61    4.62
   4 -11  -1  118.45    3.56
   4  11   0    2.23    1.08
  -4 -11   0    3.16    1.60
   4 -11   0    3.61    1.16
   4  11   1    1.29    1.42
  -4  11  -1    0.75    1.63
  -4 -11  -1    3.64    1.65
   4 -11   1    4.22    1.33
  -4  11  -2   -1.70    1.89
   4  11   2    0.33    1.56
  -4 -11  -2    1.78    1.73
   4 -11   2    0.40    1.47
   4  11   3   43.89    2.91
  -4  11  -3   45.09    4.77
  -4 -11  -3   54.34    3.76
   4 -11   3   48.74    4.01
  -4  11  -4    4.28    5.21
   4  11   4    2.70    1.74
  -4 -11  -4   -1.43    1.95
   4  12  -5    0.06    2.04
   4  12  -4   43.27    3.16
   4  12  -3   -0.92    1.50
  -4  12   3    0.60    0.77
   4  12  -2   29.56    2.71
  -4  12   2   28.26    2.19
   4 -12  -2   26.41    1.86
  -4 -12   2   28.97    3.02
  -4  12   1    6.37    1.48
   4  12  -1    3.79    1.22
   4 -12  -1    4.72    1.16
  -4 -12   1    6.09    1.75
  -4  12   0   41.28    3.21
   4  12   0   45.73    2.76
  -4 -12   0   46.35    3.36
   4 -12   0   42.69    2.82
   4  12   1    0.39    1.24
  -4  12  -1   -2.03    1.65
   4 -12   1    0.82    1.39
  -4 -12  -1    1.51    1.60
  -4  12  -2   22.86    3.45
   4  12   2   18.99    2.41
   4 -12   2   25.08    3.16
  -4 -12  -2   24.58    3.09
   4  12   3   -1.20    1.46
  -4  12  -3   -0.98    2.53
  -4 -12  -3    2.64    1.98
   4 -12   3   -4.89    2.30
   4  13  -5   53.02    6.09
  -4  13   3    7.89    1.05
   4  13  -3    5.82    1.80
   4  13  -2    6.25    1.71
  -4  13   2    7.89    1.43
  -4  13   1   71.89    3.56
   4  13  -1   80.30    3.48
   4 -13  -1   72.17    3.11
  -4 -13   1   74.02    4.22
   4  13   0    6.12    1.39
  -4  13   0    3.36    1.78
   4 -13   0    1.96    1.40
  -4 -13   0    4.75    1.81
   4  13   1    1.63    1.42
  -4  13  -1    3.32    1.94
  -4 -13  -1   -0.04    1.61
   4 -13   1    1.34    1.64
   4  13   2   -2.09    1.52
  -4  13  -2    2.11    2.52
   4 -13   2   -1.09    1.96
  -4 -13  -2   -0.15    1.75
  -4  13  -3   21.29    3.52
   4  13   3   25.18    2.98
  -4 -13  -3   29.15    3.47
   4 -13   3   24.27    3.59
   4  14  -4    3.92    2.60
  -4  14   3    1.02    0.91
  -4  14   3    1.36    0.73
   4  14  -3    1.88    1.95
  -4  14   2    0.51    1.26
   4  14  -2    1.27    1.71
   4  14  -1    0.40    1.58
  -4  14   1    0.21    1.57
  -4 -14   1   -1.13    1.88
  -4  14   0    4.80    1.92
   4  14   0    3.74    1.59
  -4 -14   0    4.04    1.90
   4  14   1   -1.26    1.53
  -4  14  -1    4.24    2.25
  -4 -14  -1    0.79    1.91
  -4  14  -2   18.07    3.28
   4  14   2   16.91    2.02
  -4 -14  -2   10.63    2.34
   4  15  -3   -0.10    2.25
  -4  15   3   -1.05    0.80
  -4  15   3    1.03    0.91
   4  15  -2    7.85    2.22
  -4  15   2    1.34    1.42
  -4  15   1   11.89    2.20
   4  15  -1   16.50    2.22
  -4  15   0    2.25    2.05
   4  15   0   -0.60    1.81
  -4 -15   0    3.02    2.17
  -4  15  -1   10.67    2.73
   4  15   1    7.99    1.91
  -4 -15  -1    8.63    2.18
  -4  16   2   22.44    2.82
  -4  16   2   17.23    2.34
   4  16  -2   18.00    2.72
   4  16  -1    2.43    2.16
  -4  16   1    2.81    1.99
   4  16   0    1.21    2.05
  -4  16   0    8.25    2.51
   5   0  -7    0.11    1.46
   5   0  -5    0.83    0.92
  -5   0   5    0.32    1.18
  -5   0   4   29.73    2.24
   5   0  -4   28.24    1.97
  -5   0   3   -0.38    0.94
   5   0  -3    0.41    0.74
  -5   0   2   17.12    1.73
   5   0  -2   16.13    1.59
  -5   0   1    0.18    0.91
   5   0   0   65.53    2.75
  -5   0   0   68.51    3.13
  -5   0  -1   -0.75    1.34
   5   0   1    0.00    0.89
  -5   0  -2    4.91    1.66
   5   0   2    2.24    1.15
   5   0   3    0.08    1.21
  -5   0  -3   -2.91    1.58
   5   0   4   25.07    2.67
  -5   0  -4   19.68    2.85
   5   0   5   -4.77    2.28
  -5   0  -5    3.15    2.65
   5   1  -7    4.02    1.59
   5  -1  -7    1.53    1.40
   5   1  -6   11.22    1.54
   5  -1  -6   16.92    2.03
  -5   1   5   10.29    1.53
   5   1  -5   13.60    1.78
   5  -1  -5   10.55    1.61
  -5  -1   5   15.01    2.14
   5   1  -4    1.57    0.91
  -5   1   4    0.88    0.92
  -5  -1   4    0.38    1.07
   5  -1  -4    1.67    0.81
  -5   1   3   90.16    3.20
   5   1  -3   90.93    3.14
   5  -1  -3   92.17    3.01
  -5  -1   3   91.98    3.42
  -5   1   2    9.37    1.41
   5   1  -2    9.09    1.18
  -5  -1   2    9.34    1.47
   5  -1  -2    7.02    1.00
   5   1  -1    4.04    0.85
  -5   1   1    2.50    0.97
  -5  -1   1    4.21    1.20
   5  -1  -1    3.39    0.87
  -5   1   0   57.12    2.92
   5   1   0   58.03    2.57
   5  -1   0   62.19    2.71
  -5  -1   0   59.19    2.99
   5   1   1   56.43    2.79
  -5  -1  -1   52.09    3.63
   5  -1   1   56.24    2.93
   5   1   2    5.71    1.11
  -5   1  -2    7.82    1.73
  -5  -1  -2    4.73    1.52
  -5   1  -3    8.35    1.98
   5   1   3    7.50    1.42
   5  -1   3    9.59    1.55
  -5  -1  -3    5.41    1.78
   5   1   4    3.74    1.59
  -5   1  -4    3.21    2.25
   5  -1   4    2.00    1.73
  -5  -1  -4   -0.40    1.93
   5   1   5   14.97    2.57
  -5   1  -5   18.04    3.41
   5  -1   5   16.86    2.57
  -5  -1  -5   17.30    3.36
   5   2  -7   -1.42    1.69
   5  -2  -7    0.07    1.30
   5   2  -6   19.20    2.37
   5  -2  -6   19.34    1.95
  -5   2   5    0.92    1.05
   5  -2  -5    2.23    0.92
  -5  -2   5    1.76    1.38
  -5   2   4   20.97    1.98
   5   2  -4   14.75    1.87
   5  -2  -4   20.73    1.62
  -5  -2   4   20.53    2.13
   5   2  -3    1.16    0.85
  -5   2   3    0.98    0.86
   5  -2  -3   -1.30    0.71
  -5  -2   3   -0.38    0.94
   5   2  -2   34.42    1.97
  -5   2   2   33.65    2.13
   5  -2  -2   34.82    1.93
  -5  -2   2   34.50    2.31
   5   2  -1    0.79    0.79
  -5   2   1    1.24    0.97
   5  -2  -1    1.26    0.70
  -5  -2   1    2.41    1.12
   5   2   0   64.91    2.88
  -5   2   0   67.41    3.18
   5  -2   0   64.53    2.72
  -5  -2   0   60.89    3.03
   5   2   1    2.42    0.94
  -5  -2  -1    3.89    1.61
   5  -2   1    4.86    1.29
   5   2   2   14.32    1.75
  -5   2  -2   20.11    2.56
  -5  -2  -2   17.71    2.64
   5  -2   2   16.18    1.91
   5   2   3    8.39    1.51
  -5   2  -3    8.21    2.07
  -5  -2  -3    9.15    2.06
   5  -2   3    9.06    1.62
   5   2   4   69.79    3.58
  -5   2  -4   66.30    4.79
  -5  -2  -4   71.96    4.68
   5  -2   4   71.03    3.95
  -5   2  -5    7.72    3.05
   5   2   5    6.01    2.29
  -5  -2  -5    3.03    2.61
   5  -2   5    0.25    2.37
   5   3  -7   13.87    2.12
   5  -3  -7   19.98    2.80
   5  -3  -7   22.90    2.25
   5  -3  -6   -0.35    1.02
  -5   3   5    8.43    1.31
   5   3  -5    8.77    1.35
   5  -3  -5    9.52    1.44
  -5  -3   5   11.05    1.98
  -5   3   4    1.11    0.95
   5   3  -4    1.11    0.97
  -5  -3   4    0.14    1.95
   5  -3  -4    0.00    0.74
  -5   3   3  105.18    3.31
   5   3  -3  108.76    3.70
  -5  -3   3  110.15    3.83
   5  -3  -3  108.04    3.16
   5   3  -2   42.27    2.28
  -5   3   2   40.23    2.31
   5  -3  -2   42.58    2.10
  -5  -3   2   42.26    2.70
   5   3  -1   12.06    1.41
  -5   3   1   10.86    1.63
  -5  -3   1   15.17    2.10
   5  -3  -1   12.51    1.37
   5   3   0    4.70    1.01
  -5   3   0    4.93    1.39
  -5  -3   0    5.91    1.40
   5  -3   0    6.54    1.12
   5   3   1   32.70    2.41
  -5   3  -1   35.20    2.94
  -5   3  -2   14.51    2.16
   5   3   2   12.47    1.58
   5  -3   2   11.63    1.77
  -5  -3  -2   10.95    1.95
  -5   3  -3   68.64    4.30
   5   3   3   73.30    3.27
   5  -3   3   69.34    3.37
  -5  -3  -3   70.29    3.94
  -5   3  -4   -1.12    2.28
   5   3   4    1.08    1.62
  -5  -3  -4    3.21    1.97
   5  -3   4    3.33    1.94
   5   3   5   16.72    2.51
  -5   3  -5   17.46    3.60
  -5  -3  -5   29.69    4.49
   5  -3   5   13.98    3.25
   5   4  -7   -2.18    1.74
   5  -4  -7   -0.15    1.34
   5  -4  -7   -0.35    1.15
   5   4  -6   27.81    2.73
   5  -4  -6   30.78    1.94
  -5   4   5    7.21    1.21
   5   4  -5    6.34    1.42
   5  -4  -5    5.71    0.95
  -5  -4   5    4.77    1.63
  -5   4   4   28.76    2.04
   5   4  -4   30.19    2.32
   5  -4  -4   31.08    1.80
  -5  -4   4   33.43    2.62
   5   4  -3    0.59    0.90
  -5   4   3    3.20    0.98
   5  -4  -3    1.81    0.75
  -5  -4   3    2.32    1.20
  -5   4   2  102.24    3.34
   5   4  -2  101.21    3.45
   5  -4  -2  101.57    3.17
  -5  -4   2  102.09    3.71
  -5   4   1    2.97    1.03
   5   4  -1    3.14    0.86
  -5  -4   1    3.87    1.33
   5  -4  -1    2.60    0.85
  -5   4   0   52.19    2.96
   5   4   0   49.36    2.63
  -5  -4   0   54.46    2.91
   5  -4   0   49.16    2.63
   5   4   1   11.02    2.25
  -5   4  -1   10.52    1.87
   5  -4   1    9.23    1.43
  -5   4  -2   17.49    2.55
   5   4   2   20.12    1.82
   5  -4   2   17.16    2.29
  -5  -4  -2   18.66    2.70
   5   4   3    2.22    1.29
  -5   4  -3    1.13    1.79
  -5  -4  -3    1.48    1.64
   5  -4   3    3.75    1.53
   5   4   4   43.93    3.25
  -5   4  -4   42.19    4.50
   5  -4   4   35.17    3.56
  -5  -4  -4   34.32    3.92
   5   5  -7    8.65    2.05
   5  -5  -7   10.70    1.23
   5  -5  -7   10.61    1.55
   5   5  -6    5.38    1.66
  -5   5   5    3.30    0.95
   5   5  -5    2.68    1.40
  -5  -5   5    3.70    1.75
   5  -5  -5    3.13    0.83
   5   5  -4    2.32    1.09
  -5   5   4    2.65    0.93
  -5  -5   4    3.27    1.39
   5  -5  -4    3.77    0.83
  -5   5   3   77.57    2.81
  -5  -5   3   75.38    3.65
   5  -5  -3   78.79    2.67
   5   5  -2    8.48    1.29
  -5   5   2    6.23    1.24
   5  -5  -2    5.04    0.94
  -5  -5   2    6.16    1.46
   5   5  -1  108.15    3.72
  -5   5   1   99.59    3.47
  -5  -5   1  101.72    3.77
   5  -5  -1  102.12    3.37
  -5   5   0    2.44    1.22
   5   5   0    2.95    1.00
  -5  -5   0    1.23    1.26
   5  -5   0    1.90    0.97
  -5   5  -1   14.90    2.25
   5  -5   1   12.79    1.63
  -5  -5  -1   15.08    2.37
  -5   5  -2    5.40    1.71
   5   5   2    4.84    1.32
  -5  -5  -2    8.26    1.84
   5  -5   2    9.80    1.53
  -5   5  -3   33.79    3.58
   5   5   3   40.75    2.51
  -5  -5  -3   29.03    3.42
   5  -5   3   30.96    3.25
  -5   5  -4    1.03    2.57
   5   5   4    1.95    1.69
  -5  -5  -4    0.98    2.04
   5  -5   4    5.00    2.06
   5   6  -7    5.37    2.18
   5  -6  -7    1.22    0.98
   5  -6  -7    2.12    1.15
   5   6  -6    7.15    1.84
   5  -6  -6    6.27    0.91
   5   6  -5    8.17    1.51
  -5   6   5    6.65    1.10
  -5  -6   5    3.38    1.92
   5  -6  -5    6.91    0.90
   5   6  -4   24.07    2.31
  -5   6   4   24.91    1.83
  -5  -6   4   18.91    2.53
   5  -6  -4   20.78    1.57
  -5   6   3    1.50    0.95
   5   6  -3    2.22    1.13
  -5  -6   3   -0.56    1.30
   5  -6  -3    0.66    0.73
  -5   6   2   26.98    2.07
   5   6  -2   22.07    2.83
   5  -6  -2   28.20    1.81
  -5  -6   2   24.59    2.73
   5   6  -1    0.78    1.50
  -5   6   1    0.74    1.11
   5  -6  -1    1.02    0.86
  -5   6   0   34.54    2.75
   5  -6   0   32.30    2.15
  -5   6  -1   11.05    1.88
   5   6   1   12.77    1.67
  -5  -6  -1   11.35    1.89
   5  -6   1   14.34    2.06
  -5   6  -2    4.32    1.64
   5   6   2    2.70    1.22
   5  -6   2    2.87    1.31
  -5  -6  -2    5.91    1.86
   5   6   3    7.34    1.52
  -5   6  -3    6.53    2.24
  -5  -6  -3    6.86    2.05
   5  -6   3    5.28    1.71
  -5   6  -4   25.05    3.48
   5   6   4   32.29    3.29
   5  -6   4   26.51    4.04
  -5  -6  -4   40.12    4.23
   5   7  -7    6.43    2.62
   5   7  -6    0.02    1.70
   5  -7  -6    1.37    0.74
   5   7  -5   21.92    2.77
  -5   7   5   21.45    1.63
   5  -7  -5   20.54    1.48
   5   7  -4    0.63    1.29
  -5   7   4    0.97    0.85
  -5  -7   4   -0.89    1.47
   5  -7  -4    1.02    0.72
  -5   7   3   40.63    2.21
   5   7  -3   42.01    2.55
  -5  -7   3   39.01    2.96
   5  -7  -3   39.63    1.99
  -5   7   2    0.55    0.95
   5   7  -2   -0.14    0.96
   5  -7  -2    1.12    0.88
  -5  -7   2    0.44    1.28
   5   7  -1    9.57    1.46
  -5   7   1    8.65    1.49
  -5  -7   1    8.53    1.66
   5  -7  -1    8.32    1.24
   5   7   0   26.55    2.28
  -5  -7   0   26.53    2.74
   5  -7   0   29.78    2.65
   5   7   1   -0.15    1.03
  -5   7  -1    1.94    1.51
  -5  -7  -1   -0.11    1.41
   5  -7   1    0.98    1.22
   5   7   2    0.45    1.18
  -5   7  -2    0.79    1.75
  -5  -7  -2   -1.18    1.51
   5  -7   2    0.08    1.37
  -5   7  -3   36.93    3.94
   5   7   3   34.24    2.87
   5  -7   3   25.75    3.01
  -5  -7  -3   31.16    3.47
  -5   7  -4    9.62    3.17
   5   7   4   11.08    1.95
   5  -7   4   11.37    2.63
  -5  -7  -4    9.14    2.55
   5   8  -6    8.33    2.15
  -5   8   5   -0.22    0.74
   5   8  -5    1.72    1.53
   5  -8  -5    0.93    0.69
  -5   8   4   44.17    2.02
   5   8  -4   48.65    2.94
  -5  -8   4   44.92    3.67
   5  -8  -4   44.07    1.90
   5   8  -3    1.69    1.19
  -5   8   3    1.59    1.00
   5  -8  -3   -0.25    0.80
  -5  -8   3   -0.08    1.38
  -5   8   2    7.13    1.32
   5   8  -2    6.15    1.25
   5  -8  -2    8.02    1.12
  -5  -8   2    6.62    1.57
   5   8  -1   -0.40    1.03
  -5   8   1    0.36    1.22
   5  -8  -1    1.37    0.95
  -5  -8   1    0.13    1.45
  -5   8   0   38.32    3.03
   5   8   0   33.86    2.49
   5  -8   0   37.01    3.01
  -5  -8   0   32.78    2.98
   5   8   1   28.85    2.35
  -5   8  -1   34.51    3.28
  -5  -8  -1   28.18    2.99
   5  -8   1   25.94    2.53
  -5   8  -2    3.69    1.91
   5   8   2    5.49    1.33
   5  -8   2    4.87    1.69
  -5  -8  -2    6.11    1.85
  -5   8  -3    7.46    2.74
   5   8   3    3.87    1.48
   5  -8   3    8.40    1.91
  -5  -8  -3    6.17    2.02
   5   8   4   22.97    3.45
  -5   8  -4   18.70    3.92
   5  -8   4   13.87    4.20
  -5  -8  -4   16.21    2.80
   5   9  -6    1.51    2.19
   5   9  -5    3.17    1.82
   5  -9  -5    3.12    0.62
   5   9  -4    4.64    1.48
  -5   9   4    2.27    0.84
  -5  -9   4    3.19    1.87
   5  -9  -4    1.27    0.72
   5   9  -3   19.84    2.54
  -5   9   3   21.62    1.94
  -5  -9   3   22.89    2.98
   5  -9  -3   22.02    1.67
   5   9  -2   -1.64    1.16
  -5   9   2   -1.65    1.00
  -5  -9   2   -2.36    1.39
   5  -9  -2   -0.97    0.89
   5   9  -1   16.90    1.95
  -5   9   1   19.33    2.43
   5  -9  -1   19.83    2.04
  -5  -9   1   16.98    2.29
  -5   9   0   -0.99    1.39
   5   9   0    1.74    1.18
   5  -9   0    2.54    1.23
  -5  -9   0    3.55    1.54
   5   9   1   44.64    2.95
  -5   9  -1   46.60    3.64
   5  -9   1   53.55    2.98
  -5  -9  -1   39.94    3.34
  -5   9  -2   33.07    3.91
   5   9   2   31.25    2.65
   5  -9   2   26.55    2.85
  -5  -9  -2   31.38    3.34
  -5   9  -3   21.23    3.46
   5   9   3   22.43    2.89
   5  -9   3   20.57    2.70
  -5  -9  -3   17.27    2.77
   5  10  -6    5.70    2.82
   5  10  -5    5.25    2.12
  -5  10   4   10.77    1.45
   5  10  -4    6.10    1.68
   5 -10  -4    8.45    0.93
  -5 -10   4    5.17    2.42
  -5  10   3    0.66    1.01
   5  10  -3   -1.31    1.41
  -5 -10   3    2.24    1.67
   5 -10  -3   -0.75    0.86
   5  10  -2    9.02    1.58
  -5  10   2    8.34    1.43
   5 -10  -2   11.57    1.73
  -5 -10   2   12.71    2.21
  -5  10   1   24.31    2.62
   5  10  -1   25.77    2.26
  -5 -10   1   24.17    2.78
   5 -10  -1   25.29    2.27
   5  10   0   40.48    2.69
  -5  10   0   34.16    3.32
  -5 -10   0   35.06    3.07
   5 -10   0   35.88    2.74
   5  10   1    2.51    1.47
  -5  10  -1    3.30    1.84
   5 -10   1    0.12    1.47
  -5 -10  -1    2.45    1.78
  -5  10  -2   28.77    3.40
   5  10   2   32.74    2.90
  -5 -10  -2   26.15    3.46
   5 -10   2   35.73    3.10
  -5  10  -3   -0.11    2.90
   5  10   3    6.46    1.74
  -5 -10  -3    8.67    2.43
   5 -10   3    5.39    2.52
   5  11  -5   10.74    2.63
  -5  11   4    0.99    0.78
   5  11  -4   -1.57    1.72
   5 -11  -4    0.51    0.68
  -5  11   3   79.59    2.94
   5  11  -3   77.33    4.20
   5 -11  -3   75.73    2.59
  -5 -11   3   78.06    4.60
   5  11  -2   -0.97    1.52
  -5  11   2    3.67    1.41
   5 -11  -2    1.49    1.11
  -5 -11   2    5.08    1.91
   5  11  -1   10.38    1.64
  -5  11   1    9.62    3.20
   5 -11  -1   11.22    1.84
  -5 -11   1    9.52    2.22
  -5  11   0    4.03    1.80
   5 -11   0    5.91    1.52
  -5 -11   0    1.19    1.66
  -5  11  -1   28.14    3.68
   5  11   1   33.84    2.88
   5 -11   1   29.48    3.07
  -5 -11  -1   31.73    3.51
  -5  11  -2   -0.14    2.28
   5  11   2    0.23    1.72
  -5 -11  -2   -1.09    1.89
   5 -11   2    3.30    2.16
  -5  11  -3    7.76    3.13
   5  11   3   10.27    1.88
  -5 -11  -3   17.23    2.71
   5 -11   3    7.29    3.18
   5  12  -5    2.54    4.37
   5  12  -4   42.61    3.62
  -5  12   4   43.19    1.63
   5  12  -3    1.29    1.88
  -5  12   3    1.29    1.16
  -5 -12   3   -0.04    2.22
   5 -12  -3    0.89    0.96
  -5  12   2   55.44    3.19
   5  12  -2   58.31    3.72
  -5 -12   2   59.20    4.31
   5 -12  -2   57.07    2.75
  -5  12   1    2.79    1.74
   5  12  -1    0.20    1.47
   5 -12  -1    5.09    1.50
  -5 -12   1    6.30    1.87
   5  12   0   13.41    1.86
  -5  12   0   14.30    2.44
   5 -12   0   12.56    1.74
  -5 -12   0   14.29    2.41
  -5  12  -1    7.86    2.41
   5 -12   1    9.12    1.97
  -5 -12  -1   11.02    2.27
   5  12   2   23.11    3.05
  -5  12  -2   21.14    3.29
   5 -12   2   23.56    2.98
  -5 -12  -2   24.46    3.75
   5  13  -4    2.44    2.51
  -5  13   3   18.66    2.27
   5  13  -2    2.68    1.93
  -5  13   2    1.46    1.59
   5 -13  -2    0.42    1.24
  -5 -13   2    3.60    2.32
   5  13  -1    6.09    1.82
  -5  13   1    8.22    2.04
  -5 -13   1    6.88    2.39
   5 -13  -1    6.85    1.60
  -5  13   0    5.23    2.10
   5  13   0    8.50    1.91
  -5 -13   0    3.74    2.11
   5 -13   0    6.57    1.73
  -5  13  -1   12.70    2.87
   5  13   1   22.67    3.11
   5 -13   1   14.00    2.20
  -5 -13  -1   13.83    2.53
   5  13   2    2.40    2.06
  -5  13  -2   -1.08    2.83
  -5 -13  -2    0.41    2.20
   5 -13   2    3.93    2.53
  -5  14   3    1.09    1.31
   5  14  -3    2.49    2.40
   5  14  -2    2.76    2.23
  -5  14   2    0.40    1.67
  -5 -14   2    1.90    2.59
   5  14  -1    7.12    2.03
  -5  14   1    2.58    2.06
  -5 -14   1    2.81    2.29
   5 -14  -1   -0.08    1.69
   5  14   0   14.91    2.16
  -5  14   0   11.73    2.42
   5 -14   0    9.02    2.15
  -5 -14   0   13.99    2.77
  -5  14  -1    2.67    2.71
   5  14   1    5.39    2.00
   5 -14   1    3.51    2.23
  -5 -14  -1    6.20    2.38
  -5  15   2    3.26    2.16
   5  15  -2    2.55    2.46
   5  15  -1   20.00    2.52
  -5  15   1   18.07    2.62
  -5 -15   1   13.07    2.99
   6   0  -7    0.98    1.73
   6   0  -6   82.08    3.57
  -6   0   6   77.66    4.05
   6   0  -5    1.72    1.20
  -6   0   5    0.90    1.45
  -6   0   4    4.41    1.86
   6   0  -3    1.42    1.01
   6   0  -2   49.79    4.13
  -6   0   1   -0.70    1.20
   6   0  -1   -0.46    1.05
  -6   0   0    0.23    1.40
   6   0   0    2.34    1.13
  -6   0  -1    0.96    1.46
   6   0   1    3.77    1.24
  -6   0  -2   28.79    3.48
   6   0   2   25.49    2.90
  -6   0  -3   -0.25    1.97
   6   0   3    1.06    1.65
   6   0   4    4.95    2.51
  -6   0  -4    3.69    2.93
   6   1  -7   11.59    2.02
   6  -1  -7    8.08    1.77
   6   1  -6    3.35    1.45
  -6   1   6    1.86    1.67
  -6  -1   6    5.99    1.94
   6  -1  -6    2.16    1.39
   6   1  -5   24.29    2.35
  -6   1   5   27.32    3.37
  -6  -1   5   24.32    2.88
  -6   1   4    6.58    1.66
   6   1  -4    4.07    1.20
   6  -1  -4    4.40    1.20
  -6  -1   4    9.35    1.84
  -6   1   3   18.76    2.30
   6  -1  -3   18.76    1.93
  -6  -1   3   18.72    2.29
  -6   1   2    7.12    1.77
  -6  -1   2    4.01    1.42
   6  -1  -2    6.17    1.15
   6   1  -1   20.74    2.01
  -6   1   1   27.07    2.47
  -6  -1   1   25.25    2.53
   6  -1  -1   21.07    2.17
  -6   1   0    7.52    1.75
   6   1   0   10.67    1.62
   6  -1   0   11.16    1.70
  -6  -1   0    9.48    1.81
  -6   1  -1   20.37    2.83
   6   1   1   20.17    2.03
   6  -1   1   19.37    2.31
  -6  -1  -1   19.04    2.49
   6   1   2    7.95    1.49
  -6   1  -2    7.24    2.13
  -6  -1  -2    7.71    2.04
   6  -1   2    7.43    1.53
   6   1   3   19.80    2.69
  -6   1  -3   23.02    3.53
  -6  -1  -3   16.66    2.85
   6  -1   3   16.24    2.25
  -6   1  -4    0.73    2.62
   6   1   4    5.44    2.42
   6  -1   4    0.84    2.45
  -6  -1  -4   -2.08    2.64
   6   2  -7    3.82    1.90
   6  -2  -7    3.47    1.64
   6   2  -6    7.95    1.74
  -6   2   6    8.50    1.90
   6  -2  -6    5.32    2.52
  -6  -2   6   10.69    2.27
  -6   2   5    1.57    1.31
   6   2  -5    0.11    1.34
  -6  -2   5    0.57    1.47
   6  -2  -5   -1.15    1.10
  -6   2   4    7.45    1.61
   6   2  -4   10.75    1.53
   6  -2  -4    8.86    1.33
  -6  -2   4   11.96    1.92
  -6   2   3   -0.26    1.22
   6   2  -3    2.60    1.11
   6  -2  -3    3.49    1.08
  -6  -2   3    1.45    1.45
  -6   2   2   70.36    3.50
   6   2  -2   69.19    3.04
  -6  -2   2   67.68    3.41
   6  -2  -2   71.72    3.12
   6   2  -1    5.52    1.20
  -6   2   1    3.42    1.37
   6  -2  -1    2.87    1.27
  -6  -2   1    7.12    1.73
   6   2   0   17.39    2.16
  -6   2   0   17.29    2.39
  -6  -2   0   18.97    2.73
   6  -2   0   16.70    2.09
   6   2   1   13.93    1.91
  -6   2  -1   13.61    2.26
   6  -2   1   11.21    1.61
  -6  -2  -1   15.46    2.32
   6   2   2   63.99    3.55
  -6   2  -2   65.99    4.08
   6  -2   2   64.47    3.39
  -6  -2  -2   66.18    4.19
  -6   2  -3    3.72    2.40
   6  -2   3    3.41    1.92
  -6  -2  -3    2.22    2.19
   6   2   4    3.19    2.43
  -6   2  -4    3.79    3.05
   6  -2   4    6.79    2.87
  -6  -2  -4    3.49    2.72
   6   3  -7    0.63    1.95
  -6   3   6    4.93    1.65
   6   3  -6    4.18    1.71
   6  -3  -6    4.64    1.37
  -6  -3   6    7.61    2.20
  -6   3   5   32.14    2.69
   6   3  -5   31.90    2.55
   6  -3  -5   40.17    2.39
  -6  -3   5   40.57    3.35
  -6   3   4    8.71    1.61
   6   3  -4    8.03    1.34
   6  -3  -4    7.47    1.25
  -6  -3   4   11.18    1.93
   6   3  -3   52.85    2.77
  -6   3   3   46.57    2.83
   6  -3  -3   48.69    2.61
  -6  -3   3   48.92    3.14
   6   3  -2    5.31    1.29
  -6   3   2    7.53    1.63
   6  -3  -2    5.38    1.16
  -6  -3   2    6.31    1.58
  -6   3   1    8.88    1.74
   6   3  -1    8.66    1.45
   6  -3  -1    8.14    1.56
  -6  -3   1    9.97    1.81
  -6   3   0    5.66    1.56
   6   3   0    3.65    1.14
   6  -3   0    6.60    1.27
  -6  -3   0    6.16    1.67
   6   3   1   80.93    3.63
  -6   3  -1   76.21    3.99
   6  -3   1   72.32    3.39
  -6  -3  -1   79.52    4.04
   6   3   2    4.12    1.57
  -6   3  -2    8.28    2.21
   6  -3   2    6.79    1.69
  -6  -3  -2    6.32    1.97
   6   3   3   22.63    2.96
  -6   3  -3   20.00    3.21
   6  -3   3   16.72    2.32
  -6  -3  -3   16.26    2.75
   6   3   4    2.07    2.24
  -6   3  -4    2.79    3.07
  -6  -3  -4   -1.14    2.83
   6  -3   4    3.73    3.33
   6   4  -7   -2.96    2.14
   6  -4  -7    0.77    1.47
  -6   4   6   18.76    2.60
   6  -4  -6   15.49    2.27
  -6   4   5    0.52    1.30
   6   4  -5   -2.90    1.39
  -6  -4   5   -1.08    1.64
   6  -4  -5   -0.29    1.11
  -6   4   4   35.16    2.65
   6   4  -4   39.74    2.83
  -6  -4   4   39.43    3.07
   6  -4  -4   38.97    2.35
  -6   4   3   17.44    2.32
   6   4  -3   22.36    2.25
  -6  -4   3   19.51    2.55
   6  -4  -3   16.17    1.98
  -6   4   2   26.99    2.49
   6   4  -2   30.03    2.43
  -6  -4   2   32.53    2.77
   6  -4  -2   30.28    2.16
   6   4  -1    0.97    1.14
  -6   4   1    0.59    1.33
   6  -4  -1    0.37    1.26
  -6  -4   1    0.68    1.37
  -6   4   0   22.21    2.79
   6   4   0   17.86    2.28
   6  -4   0   18.51    2.05
  -6  -4   0   22.88    2.83
  -6   4  -1    0.96    1.68
   6   4   1    0.64    1.28
   6  -4   1    1.11    1.35
  -6  -4  -1    2.24    1.66
  -6   4  -2   56.88    4.27
   6   4   2   52.52    3.23
  -6  -4  -2   51.73    4.19
   6  -4   2   53.25    3.59
  -6   4  -3    2.65    2.58
   6   4   3    1.00    1.82
   6  -4   3    4.49    2.10
  -6  -4  -3    4.55    2.46
   6   4   4   13.98    2.61
  -6  -4  -4   10.65    3.17
   6   5  -7   -1.78    2.21
   6  -5  -7    4.56    1.45
   6   5  -6   -0.56    1.72
  -6   5   6   -2.31    1.35
   6  -5  -6    2.37    1.23
  -6   5   5   18.15    2.18
   6   5  -5   21.70    2.72
  -6  -5   5   14.06    2.33
   6  -5  -5   18.49    2.08
   6   5  -4    4.01    1.37
  -6   5   4    5.05    1.35
   6  -5  -4    4.27    1.11
  -6  -5   4    3.07    1.62
   6   5  -3   35.35    2.71
  -6   5   3   30.45    2.54
  -6  -5   3   39.03    3.27
   6  -5  -3   34.28    2.30
   6   5  -2    6.46    1.37
  -6   5   2    4.29    1.38
  -6  -5   2    2.78    1.40
   6  -5  -2    3.33    1.09
   6   5  -1    8.00    1.42
  -6   5   1    5.90    1.63
  -6  -5   1    9.97    1.98
   6  -5  -1   12.14    1.66
   6   5   0    4.12    1.23
  -6   5   0    2.70    1.61
  -6  -5   0    2.52    1.55
   6  -5   0    3.17    1.22
   6   5   1   90.73    3.75
  -6   5  -1   93.16    4.64
   6  -5   1   92.26    4.03
  -6  -5  -1   94.54    4.69
   6   5   2    2.37    1.55
  -6   5  -2   -0.85    2.08
  -6  -5  -2    4.56    1.92
   6  -5   2   -1.45    1.69
  -6   5  -3   10.66    2.79
   6   5   3    6.70    2.06
   6  -5   3    7.39    2.16
  -6  -5  -3    6.21    2.41
   6   6  -6   12.53    2.23
   6  -6  -6   17.44    2.01
   6   6  -5    4.17    1.58
   6  -6  -5    3.87    1.15
  -6  -6   5    7.73    2.29
  -6   6   4   21.66    2.25
   6   6  -4   17.02    2.55
   6  -6  -4   22.43    2.00
  -6  -6   4   23.03    3.06
   6   6  -3    2.69    1.29
  -6   6   3    1.60    1.26
  -6  -6   3    2.58    1.53
   6  -6  -3    2.52    1.08
  -6   6   2   20.53    2.49
   6   6  -2   20.33    2.30
   6  -6  -2   17.15    1.99
  -6  -6   2   20.06    2.91
  -6   6   1    5.35    1.57
   6   6  -1    6.08    1.42
   6  -6  -1    7.84    1.40
  -6  -6   1    7.33    1.80
  -6   6   0    6.28    1.80
   6   6   0    5.18    1.33
  -6  -6   0    7.90    1.93
   6  -6   0    7.17    1.39
   6   6   1   -0.23    1.40
  -6   6  -1   -2.23    1.70
   6  -6   1   -0.13    1.44
  -6  -6  -1   -1.77    1.63
  -6   6  -2   34.23    4.08
   6   6   2   36.85    3.15
   6  -6   2   41.77    3.34
  -6  -6  -2   41.47    3.66
   6   6   3    1.98    1.94
  -6   6  -3    0.25    2.52
  -6  -6  -3    3.52    2.43
   6  -6   3    3.22    2.47
   6   7  -6    2.31    2.16
   6  -7  -6    3.31    1.12
  -6   7   5   46.92    2.54
   6   7  -5   42.08    3.21
  -6  -7   5   40.70    3.94
   6  -7  -5   38.59    2.32
   6   7  -4   -1.27    1.52
  -6   7   4    1.25    1.13
  -6  -7   4    2.11    1.86
   6  -7  -4   -0.93    1.06
  -6   7   3   26.91    2.48
   6   7  -3   20.11    2.59
   6  -7  -3   24.83    2.10
  -6  -7   3   22.89    2.75
   6   7  -2    0.50    1.25
  -6   7   2    0.05    1.31
  -6  -7   2    0.96    1.65
   6  -7  -2   -1.41    1.13
  -6   7   1    1.41    1.44
   6   7  -1    1.93    1.23
  -6  -7   1    2.38    1.68
   6  -7  -1    1.28    1.20
   6   7   0    0.86    1.45
  -6   7   0    1.54    1.68
  -6  -7   0    0.99    1.78
   6  -7   0    4.31    1.32
  -6   7  -1   11.50    2.27
   6   7   1    7.60    1.71
   6  -7   1   10.29    1.85
  -6  -7  -1    6.00    2.06
  -6   7  -2    2.74    2.21
   6   7   2   -3.51    1.59
  -6  -7  -2    1.41    2.03
   6  -7   2    0.48    1.99
  -6   7  -3   11.91    3.34
   6   7   3   17.99    2.29
  -6  -7  -3   19.82    3.21
   6  -7   3   15.46    3.02
   6   8  -6   14.32    2.92
   6  -8  -6   15.76    1.71
  -6   8   5    2.94    1.15
   6   8  -5    0.64    1.92
   6  -8  -5    2.21    1.07
  -6  -8   5    2.30    2.35
  -6   8   4   20.33    2.24
   6   8  -4   18.54    2.67
   6  -8  -4   16.46    2.03
  -6  -8   4   23.40    3.56
   6   8  -3   22.54    2.79
  -6   8   3   19.59    2.50
  -6  -8   3   20.74    2.70
   6  -8  -3   22.79    2.13
   6   8  -2   23.49    2.40
  -6   8   2   26.38    3.20
  -6  -8   2   25.72    3.25
   6  -8  -2   28.34    2.38
  -6   8   1    2.52    1.58
   6   8  -1   -0.51    1.37
  -6  -8   1    1.30    1.60
   6  -8  -1   -1.19    1.28
  -6   8   0    1.27    1.73
   6   8   0    2.76    1.45
  -6  -8   0    4.73    1.79
   6  -8   0    3.64    1.46
   6   8   1    1.24    1.54
  -6   8  -1    0.47    2.05
   6  -8   1   -1.53    1.67
  -6  -8  -1    3.20    1.85
  -6   8  -2   23.22    3.23
   6   8   2   17.76    2.53
  -6  -8  -2   16.27    2.74
   6  -8   2   17.93    2.57
   6   8   3   -0.23    2.05
  -6   8  -3    5.10    4.01
   6  -8   3    0.19    4.88
  -6  -8  -3    1.08    2.56
  -6   9   5   13.04    1.90
   6   9  -5    7.43    2.45
  -6  -9   5    5.75    2.89
   6  -9  -5    7.76    1.10
  -6   9   4    3.81    1.31
   6   9  -4    5.18    1.94
   6  -9  -4    7.08    1.17
  -6  -9   4    0.72    2.09
   6   9  -3    2.83    1.76
  -6   9   3    4.64    1.58
  -6  -9   3    2.31    1.93
   6  -9  -3    4.87    1.24
   6   9  -2    7.55    1.69
  -6  -9   2    9.71    2.12
   6  -9  -2    9.14    1.87
   6   9  -1   75.51    3.63
  -6   9   1   76.36    4.09
  -6  -9   1   77.96    4.58
   6  -9  -1   77.34    3.65
   6   9   0    0.69    1.65
  -6   9   0    2.91    1.96
  -6  -9   0    3.94    1.98
   6  -9   0    0.88    1.46
  -6   9  -1   25.18    3.79
   6   9   1   23.09    3.12
   6  -9   1   21.13    3.23
  -6  -9  -1   28.04    3.64
   6   9   2    1.31    1.92
  -6   9  -2    1.26    2.66
  -6  -9  -2    4.19    2.35
   6  -9   2    1.71    2.37
   6  10  -5   -0.70    2.52
  -6  10   5    3.86    1.11
   6 -10  -5    2.13    0.93
   6  10  -4   13.49    2.25
  -6  10   4   10.00    1.54
   6 -10  -4   14.06    1.97
  -6 -10   4   14.73    2.79
   6  10  -3    2.29    1.78
  -6  10   3    7.89    1.67
   6 -10  -3    5.33    1.23
  -6 -10   3    8.35    2.30
   6  10  -2   14.00    1.93
  -6  10   2   13.95    2.23
   6 -10  -2   10.90    3.15
  -6 -10   2   20.74    2.89
  -6  10   1    3.68    1.79
   6  10  -1    3.38    1.65
  -6 -10   1    3.87    2.04
   6 -10  -1    4.82    1.56
  -6  10   0   50.91    4.04
   6  10   0   49.35    3.57
   6 -10   0   43.87    3.24
  -6 -10   0   48.76    4.25
   6  10   1   -0.33    1.92
  -6  10  -1    4.52    2.29
   6 -10   1   -3.93    1.96
  -6 -10  -1    1.91    2.22
  -6  10  -2    9.28    3.09
   6  10   2    9.81    2.10
   6 -10   2    8.98    2.81
  -6 -10  -2   13.16    2.85
  -6  11   5   60.14    2.39
  -6  11   4    4.61    1.37
   6  11  -4    4.66    2.52
   6 -11  -4    6.03    1.19
  -6 -11   4    3.93    2.83
   6  11  -3    3.01    2.07
  -6  11   3    6.06    1.70
   6 -11  -3    4.17    1.30
  -6 -11   3    5.45    2.48
  -6  11   2   -1.59    1.61
   6 -11  -2    1.56    1.45
  -6 -11   2   -2.10    2.23
   6  11  -1   28.71    3.32
  -6  11   1   27.31    3.42
   6 -11  -1   33.10    2.99
  -6 -11   1   29.13    3.59
   6  11   0    3.03    1.89
  -6  11   0   -0.76    2.13
   6 -11   0   -2.52    1.90
  -6 -11   0    2.79    2.24
   6  11   1    3.01    2.04
  -6  11  -1    4.07    2.61
   6 -11   1    2.47    2.16
  -6 -11  -1    3.45    2.47
   6  12  -4   64.61    8.78
  -6  12   4   39.48    2.61
  -6 -12   4   35.53    4.64
   6 -12  -4   39.28    2.19
  -6  12   3   -0.85    1.65
   6  12  -3   -2.05    2.26
   6 -12  -3   -0.80    1.39
  -6 -12   3    3.20    2.50
   6  12  -2    2.72    1.96
  -6  12   2    4.78    1.93
  -6 -12   2    5.98    2.50
   6 -12  -2    4.06    1.66
  -6  12   1   -0.01    1.96
   6  12  -1   -3.32    1.92
   6 -12  -1    1.52    1.79
  -6 -12   1    0.19    2.45
   6  12   0   13.06    2.12
  -6  12   0   16.76    3.06
  -6 -12   0   17.54    2.87
   6 -12   0   15.09    2.40
   6  12   1    0.46    2.15
  -6  12  -1    2.33    2.77
  -6 -12  -1   -3.49    2.53
   6 -12   1    3.60    2.54
   6  13  -3    1.05    2.83
  -6  13   3    3.37    1.87
  -6 -13   3    9.83    3.25
   6 -13  -3    5.62    1.46
  -6  13   2    7.66    2.12
   6  13  -2    2.28    2.45
  -6 -13   2    6.56    2.92
   6 -13  -2    5.81    1.69
   6  13  -1   37.02    4.01
   6 -13  -1   36.13    3.30
  -6 -13   1   29.76    3.54
  -6  13   0    0.22    2.51
   6  13   0    0.72    2.35
   6 -13   0   -3.29    2.24
  -6 -13   0    2.92    2.68
   7   0  -6   18.36    2.80
  -7   0   6   16.13    2.62
  -7   0   5    3.10    1.69
   7   0  -5    3.59    1.50
  -7   0   4    6.06    1.89
   7   0  -4    4.95    1.46
  -7   0   3   -0.22    1.44
   7   0  -3    0.89    1.41
  -7   0   2   -0.14    1.51
   7   0  -2   -0.82    1.22
   7   0  -1    0.10    1.35
  -7   0   1   -0.67    1.49
   7   0   0   33.65    2.85
  -7   0   0   27.74    3.27
   7   0   1   -0.33    1.64
  -7   0  -1   -0.63    1.92
  -7   0  -2    3.71    2.40
   7   0   2    1.49    2.04
   7   0   3    0.27    3.19
  -7   0  -3    0.00    3.01
  -7   1   6    1.14    1.88
   7   1  -6    2.23    1.82
  -7  -1   6   -1.76    2.05
   7  -1  -6   -1.46    1.73
   7   1  -5    3.23    1.54
  -7   1   5    5.72    1.81
  -7  -1   5    5.70    1.95
   7  -1  -5    7.30    1.61
   7   1  -4    1.61    1.43
  -7   1   4    0.14    1.66
   7  -1  -4   -0.90    1.35
  -7  -1   4    2.97    1.78
   7   1  -3   38.99    2.94
  -7   1   3   34.17    3.20
   7  -1  -3   38.14    2.54
  -7  -1   3   37.91    3.16
  -7   1   2    6.78    1.87
   7   1  -2    6.67    1.47
   7  -1  -2    4.96    1.35
  -7  -1   2   10.05    1.96
  -7   1   1    7.12    1.90
  -7  -1   1    9.53    2.12
   7  -1  -1    7.24    1.60
   7   1   0   11.12    1.75
  -7   1   0   10.17    2.29
   7  -1   0   15.09    2.10
  -7  -1   0   18.08    2.57
  -7   1  -1   51.10    4.41
   7   1   1   59.45    3.52
  -7  -1  -1   52.85    4.18
   7  -1   1   49.57    3.62
   7   1   2    3.06    2.10
  -7   1  -2   -2.66    2.30
  -7  -1  -2    4.16    2.57
   7  -1   2   -1.81    1.91
   7   1   3    3.15    2.97
  -7   1  -3   -0.94    3.29
   7  -1   3    7.26    5.00
  -7  -1  -3    5.55    3.01
  -7   2   6   18.52    2.51
   7   2  -6   19.99    2.57
   7  -2  -6   21.79    2.86
  -7  -2   6   17.80    2.88
   7   2  -5   -0.17    1.60
  -7   2   5   -1.25    1.57
   7  -2  -5   -1.53    1.47
  -7  -2   5    2.37    1.90
   7   2  -4   47.60    3.01
  -7   2   4   46.68    3.41
   7  -2  -4   42.16    2.86
  -7  -2   4   49.49    3.89
  -7   2   3    1.77    1.72
   7   2  -3    1.89    1.46
   7  -2  -3    0.50    1.34
  -7  -2   3    0.34    1.71
  -7   2   2   39.36    3.34
   7   2  -2   30.05    2.61
  -7  -2   2   34.81    3.33
   7  -2  -2   37.89    2.74
   7   2  -1    6.70    1.49
  -7   2   1    5.29    1.95
   7  -2  -1    4.14    1.35
  -7  -2   1    7.47    2.01
  -7   2   0   72.53    4.38
   7   2   0   75.07    3.83
  -7  -2   0   67.22    4.44
   7  -2   0   68.99    3.77
   7   2   1    0.72    1.62
  -7   2  -1   -1.86    1.90
  -7  -2  -1    1.97    2.08
   7  -2   1    1.94    1.66
   7   2   2   17.57    2.43
  -7   2  -2   10.94    2.61
  -7  -2  -2   10.86    2.80
   7  -2   2    9.77    2.41
   7   2   3   -2.15    2.72
  -7  -2  -3   -2.43    2.81
   7   3  -6    5.67    2.13
  -7   3   6    1.68    1.88
  -7  -3   6    8.46    2.56
   7   3  -5   14.69    1.95
  -7   3   5   26.08    3.15
  -7  -3   5   19.73    2.81
   7  -3  -5   18.28    2.60
  -7   3   4    3.68    1.58
   7   3  -4    2.99    1.61
  -7  -3   4    4.90    2.03
   7  -3  -4    1.67    1.40
   7   3  -3   17.69    2.45
  -7   3   3   24.59    3.02
  -7  -3   3   26.88    3.01
   7  -3  -3   27.96    2.53
   7   3  -2    2.17    1.47
  -7   3   2   -0.15    1.49
   7  -3  -2    0.58    1.36
  -7  -3   2    1.24    1.63
   7   3  -1   18.26    2.22
  -7   3   1   21.50    3.18
   7  -3  -1   18.59    2.66
  -7  -3   1   20.56    2.90
   7   3   0    3.06    1.48
  -7   3   0    3.90    2.01
  -7  -3   0    1.97    1.95
   7  -3   0    0.33    1.55
   7   3   1    7.29    1.76
  -7   3  -1    6.71    2.11
  -7  -3  -1    7.76    2.36
   7  -3   1    8.82    1.81
   7   3   2    3.20    2.14
  -7   3  -2    1.72    2.31
   7  -3   2    2.10    2.09
  -7  -3  -2   -0.84    2.31
  -7   4   6   15.52    2.26
   7   4  -6   14.46    2.50
  -7  -4   6    6.50    2.75
   7  -4  -6   13.50    1.78
   7   4  -5   -0.58    1.71
  -7   4   5    0.89    1.67
  -7  -4   5   -2.54    1.88
   7  -4  -5    2.26    1.53
  -7   4   4    1.12    1.60
   7   4  -4    1.28    1.67
   7  -4  -4   -1.89    1.31
  -7  -4   4    2.86    2.02
  -7   4   3    2.08    1.69
   7   4  -3    3.23    1.47
  -7  -4   3    3.09    1.88
   7  -4  -3    2.32    1.32
  -7   4   2    4.24    1.64
   7   4  -2    4.06    1.50
   7  -4  -2    2.48    1.39
  -7  -4   2    2.04    1.78
  -7   4   1    0.71    1.62
   7   4  -1   -0.80    1.48
  -7  -4   1    1.93    1.72
   7  -4  -1    1.65    1.41
  -7   4   0   35.58    3.70
   7   4   0   30.19    2.87
  -7  -4   0   37.87    3.88
   7  -4   0   36.21    2.77
   7   4   1   -0.77    1.76
  -7   4  -1    3.62    2.11
  -7  -4  -1    5.59    2.29
   7  -4   1    1.65    1.73
  -7   4  -2    7.27    2.66
   7   4   2    3.72    2.22
   7  -4   2    2.02    2.40
  -7  -4  -2    8.29    2.78
  -7   5   6    3.26    1.82
   7   5  -6   -1.28    2.27
   7  -5  -6    2.57    1.96
  -7  -5   6    0.43    2.43
   7   5  -5    9.75    2.09
  -7   5   5    8.39    2.02
  -7  -5   5   14.82    2.78
   7  -5  -5   10.87    1.72
  -7   5   4    3.64    1.68
   7  -5  -4   -0.31    1.33
  -7  -5   4    0.42    1.99
   7   5  -3    2.30    1.57
  -7   5   3    4.88    1.79
  -7  -5   3    3.40    1.99
   7  -5  -3    6.42    1.47
   7   5  -2    0.15    1.51
  -7  -5   2    3.26    1.72
   7  -5  -2    0.17    1.35
   7   5  -1   80.74    4.27
  -7   5   1   88.46    4.48
   7  -5  -1   86.23    3.79
  -7  -5   1   88.60    4.57
   7   5   0    0.61    1.61
  -7   5   0   -1.83    1.90
  -7  -5   0   -2.01    1.93
   7  -5   0   -1.75    1.68
   7   5   1   28.55    2.98
  -7   5  -1   27.28    3.76
   7  -5   1   31.23    3.08
  -7  -5  -1   28.02    3.80
  -7   5  -2   -1.83    2.54
   7   5   2   -2.41    2.03
   7  -5   2   -4.29    2.39
  -7  -5  -2   -3.55    2.63
   7   6  -6   15.54    3.30
  -7   6   6   20.75    3.10
  -7  -6   6   11.58    3.26
   7  -6  -6   18.17    2.69
  -7   6   5    0.50    3.10
   7   6  -5   -4.22    2.04
  -7  -6   5    4.94    2.46
  -7   6   4   24.35    3.07
   7   6  -4   26.98    2.86
  -7  -6   4   24.15    3.56
   7  -6  -4   26.20    2.53
  -7   6   3    4.55    1.71
   7   6  -3    4.78    1.76
  -7  -6   3    4.64    2.27
   7  -6  -3    1.87    1.45
   7   6  -2   12.14    2.09
  -7   6   2   11.47    2.06
   7  -6  -2   11.74    1.59
  -7  -6   2   11.91    2.44
   7   6  -1   20.39    3.01
  -7   6   1   17.93    2.60
   7  -6  -1   15.32    2.34
  -7  -6   1   13.97    2.65
   7   6   0   75.88    3.88
  -7   6   0   74.22    4.68
  -7  -6   0   71.57    4.53
   7  -6   0   67.41    3.72
   7   6   1   -0.73    1.88
  -7   6  -1   -1.34    2.39
  -7  -6  -1   -1.28    2.30
  -7   6  -2   18.05    3.60
   7   6   2   15.34    2.56
  -7  -6  -2   17.80    3.22
   7  -6   2   10.59    2.81
   7   7  -5   26.21    3.96
  -7   7   5   22.40    3.20
  -7  -7   5   20.45    3.23
   7  -7  -5   18.63    2.59
   7   7  -4    0.44    1.94
  -7   7   4    3.18    1.78
  -7  -7   4    0.92    2.22
   7  -7  -4   -0.09    1.69
  -7   7   3   13.63    2.20
   7   7  -3   10.96    1.85
  -7  -7   3    7.46    2.21
   7  -7  -3    9.02    1.67
  -7   7   2    9.40    2.16
   7   7  -2    4.87    1.70
  -7  -7   2    8.15    2.47
   7  -7  -2    9.61    1.71
  -7   7   1    8.27    2.22
   7   7  -1    8.06    1.69
   7  -7  -1    6.14    1.65
  -7  -7   1   11.65    2.51
  -7   7   0    1.46    2.07
   7   7   0    1.96    1.95
  -7  -7   0    1.51    2.19
   7  -7   0   -0.09    1.91
  -7   7  -1    4.93    2.43
   7   7   1    1.66    2.06
   7  -7   1    2.73    2.12
  -7  -7  -1   -1.69    2.54
   7   7   2    4.38    2.28
  -7  -7  -2   -0.98    2.88
  -7   8   5    2.99    1.75
   7   8  -5   -0.93    2.73
   7  -8  -5   -2.50    1.53
  -7  -8   5   -1.86    2.58
   7   8  -4   27.55    3.13
  -7   8   4   20.75    2.56
   7   8  -3    8.44    2.01
  -7   8   3    4.05    1.87
  -7  -8   3    0.56    2.30
  -7   8   2   -0.65    1.74
   7   8  -2   -0.26    1.85
  -7  -8   2    3.41    2.36
   7  -8  -2    0.67    1.66
   7   8  -1    0.80    1.94
  -7   8   1    3.75    1.94
   7  -8  -1    2.90    1.74
  -7  -8   1    1.87    2.33
  -7   8   0   13.44    2.81
   7   8   0   14.00    2.32
   7  -8   0   14.60    2.00
  -7  -8   0   13.85    3.00
  -7   8  -1   -1.10    2.77
   7   8   1    2.01    2.26
   7  -8   1    1.58    2.36
  -7  -8  -1    9.95    2.83
  -7   9   5    2.80    1.78
   7  -9  -5    5.38    1.56
   7   9  -4    7.60    2.48
  -7  -9   4    6.45    2.70
   7  -9  -4    4.95    1.89
   7   9  -3   42.04    3.80
  -7   9   3   36.78    3.64
  -7  -9   3   43.38    4.37
   7  -9  -3   43.90    3.08
  -7   9   2    5.24    2.00
   7   9  -2   -0.85    2.03
  -7  -9   2    1.27    2.22
   7  -9  -2    6.25    1.70
   7   9  -1   34.80    3.92
  -7   9   1   33.18    3.80
  -7  -9   1   31.27    4.56
   7  -9  -1   31.66    3.47
   7   9   0   14.97    2.36
  -7   9   0    9.76    2.70
   7  -9   0   14.44    2.26
  -7  -9   0   15.88    3.05
  -7   9  -1   17.14    3.47
  -7  -9  -1   13.31    3.25
   7  -9   1   18.15    3.24
  -7 -10   4   22.15    3.97
   7 -10  -4   21.46    2.85
  -7  10   3    0.82    1.95
   7  10  -3    0.33    2.51
  -7 -10   3    3.74    2.74
   7 -10  -3    3.12    1.71
  -7  10   2   16.90    2.63
   7  10  -2   15.55    2.50
  -7 -10   2   19.41    2.97
  -7  10   1   -1.60    2.06
   7  10  -1    5.72    2.39
  -7 -10   1    6.42    2.70
   7 -10  -1    0.58    2.07
   7  10   0   23.52    2.70
  -7  10   0   24.59    3.40
   7 -10   0   25.51    3.04
  -7 -10   0   37.26    4.86
  -7  11   3    8.78    2.26
   7 -11  -3    7.51    1.84
  -7 -11   3   10.79    3.59
  -7  11   2    0.82    2.21
   7  11  -2    1.68    2.83
   7 -11  -2    6.84    1.97
  -7 -11   2    4.66    2.85
  -7  11   1    1.62    2.42
   7  11  -1    1.60    2.64
  -7 -11   1    2.03    2.66
   7 -11  -1    0.85    2.14
  -8   0   5   -0.36    2.06
   8   0  -5   -3.52    2.05
   8   0  -4   -0.62    1.86
  -8   0   4   -0.05    2.06
   8   0  -3    3.59    1.80
  -8   0   3    0.51    2.16
   8   0  -2   95.11    4.69
  -8   0   2  101.95    5.09
  -8   0   1   -1.30    2.12
   8   0  -1   -3.38    1.90
   8   0   0   44.21    3.80
  -8   0   0   28.17    4.07
  -8   0  -1   -1.69    2.70
   8   0   1    2.46    2.53
   8   1  -5   23.82    2.74
  -8   1   5   18.32    2.97
   8  -1  -5   16.53    2.38
  -8  -1   5   29.63    4.14
  -8   1   4    2.85    2.16
   8   1  -4    3.23    1.83
  -8  -1   4    3.75    2.35
   8  -1  -4    2.69    1.74
   8   1  -3    7.23    1.86
  -8   1   3   11.22    2.54
  -8  -1   3    8.02    2.41
   8  -1  -3    9.90    1.85
   8   1  -2   -0.04    1.78
  -8   1   2    2.33    2.13
  -8  -1   2    5.62    2.42
   8  -1  -2    5.11    1.96
  -8   1   1   38.24    4.49
   8   1  -1   43.22    3.35
  -8  -1   1   46.15    4.49
   8  -1  -1   45.52    3.35
   8   1   0   -1.15    1.99
  -8   1   0    0.76    2.40
   8  -1   0    3.89    2.04
  -8  -1   0   -1.43    2.20
   8   1   1    7.86    2.72
  -8   1  -1   14.39    3.25
  -8  -1  -1   12.88    3.39
   8  -1   1    4.90    2.88
  -8   2   5    3.80    2.33
   8   2  -5   -1.10    2.10
   8  -2  -5    5.00    2.00
  -8  -2   5    0.58    2.21
   8   2  -4   -3.17    2.04
  -8   2   4    3.25    2.20
   8  -2  -4    1.06    1.96
  -8  -2   4    4.51    2.49
  -8   2   3    3.91    2.26
   8   2  -3    8.18    2.01
  -8  -2   3    3.69    2.17
   8  -2  -3    7.41    1.81
   8   2  -2   31.63    3.52
  -8   2   2   26.93    3.54
   8  -2  -2   28.65    3.33
  -8  -2   2   29.23    3.76
  -8   2   1   -1.81    2.32
   8   2  -1    0.44    1.95
   8  -2  -1   -0.67    1.80
  -8  -2   1    5.26    2.35
   8   2   0    0.36    2.01
  -8   2   0   -0.08    2.56
  -8  -2   0    0.31    2.38
   8  -2   0    2.66    1.99
  -8   2  -1    2.95    2.92
   8   2   1   -0.87    2.57
   8  -2   1    5.04    2.77
  -8  -2  -1    2.75    2.90
   8   3  -5    5.38    2.26
  -8   3   5    8.62    2.54
  -8  -3   5   12.65    2.92
   8  -3  -5    8.93    2.01
  -8   3   4    3.52    2.07
   8   3  -4   -1.42    2.02
  -8  -3   4   -1.16    2.40
   8  -3  -4    0.56    1.75
   8   3  -3   25.30    3.56
  -8   3   3   29.87    3.70
  -8  -3   3   27.16    3.85
   8  -3  -3   32.42    3.23
   8   3  -2   -0.07    1.86
  -8   3   2    1.46    2.07
   8  -3  -2    2.91    1.80
  -8  -3   2    0.47    2.26
   8   3  -1    2.16    2.07
  -8   3   1    3.24    2.39
  -8  -3   1    4.50    2.46
   8  -3  -1    1.23    1.89
  -8   3   0   -2.53    2.48
   8   3   0    2.06    2.09
  -8  -3   0   -0.58    2.70
   8  -3   0    1.15    2.28
  -8   3  -1   12.70    3.52
   8   3   1    6.78    2.95
   8  -3   1   11.67    3.88
  -8  -3  -1   11.57    3.50
  -8   4   5   11.63    2.43
   8   4  -5    3.61    2.44
  -8  -4   5    6.68    2.90
   8  -4  -5    5.57    1.97
  -8   4   4    3.62    2.17
   8   4  -4   -2.93    2.14
  -8  -4   4    3.48    2.59
   8  -4  -4   -1.44    1.76
  -8   4   3    3.10    2.17
   8   4  -3    3.00    2.05
  -8  -4   3    2.28    2.41
   8  -4  -3    6.86    1.96
   8   4  -2   44.35    3.74
  -8   4   2   53.08    4.46
   8  -4  -2   51.47    3.78
  -8  -4   2   47.65    4.67
  -8   4   1    3.32    2.42
   8   4  -1   -2.45    2.16
   8  -4  -1    4.45    1.96
  -8  -4   1    0.39    2.34
  -8   4   0   10.51    3.01
   8   4   0    6.17    2.39
   8  -4   0   12.76    2.57
  -8  -4   0   10.48    2.90
   8   4   1   -1.67    3.32
  -8   4  -1    6.57    5.07
  -8  -4  -1   -1.44    2.99
  -8   5   5    4.46    2.31
   8   5  -5    1.99    2.81
   8  -5  -5   -2.03    1.93
  -8  -5   5   -1.51    2.69
  -8   5   4    2.42    2.14
   8   5  -4   -2.00    2.35
   8  -5  -4    3.18    1.84
  -8  -5   4   -2.78    2.52
  -8   5   3   27.07    3.75
   8   5  -3   27.99    3.84
  -8  -5   3   24.60    3.46
   8  -5  -3   24.55    3.29
   8   5  -2    4.50    2.13
  -8   5   2    2.54    2.38
  -8  -5   2    1.21    2.37
   8  -5  -2   -0.38    1.84
   8   5  -1   12.32    2.67
  -8   5   1   12.87    2.75
   8  -5  -1   11.81    2.32
  -8  -5   1   12.62    3.08
   8   5   0    0.00    2.54
  -8   5   0   -4.88    2.45
  -8  -5   0    1.91    2.57
   8  -5   0    2.19    2.43
   8   6  -4    2.83    2.58
  -8   6   4    3.54    2.20
  -8  -6   4    1.65    2.75
   8  -6  -4    2.16    1.85
  -8   6   3   -0.14    2.10
   8   6  -3   -0.15    2.26
   8  -6  -3    6.12    1.96
  -8  -6   3    3.68    2.71
  -8   6   2   30.17    3.94
   8   6  -2   40.99    4.30
  -8  -6   2   29.89    3.61
   8  -6  -2   27.64    2.88
  -8   6   1    4.00    2.58
   8   6  -1    8.11    2.58
   8  -6  -1    5.78    2.10
  -8  -6   1    6.06    2.94
  -8   6   0   11.08    3.03
   8   6   0    4.28    2.91
   8  -6   0   10.46    2.79
  -8  -6   0   12.42    3.22
  -8   7   4    3.26    2.27
  -8  -7   4    1.63    4.43
   8  -7  -4    2.29    1.95
   8   7  -3   41.02    4.90
  -8   7   3   34.50    4.18
  -8  -7   3   46.34    5.20
   8  -7  -3   36.99    3.69
   8   7  -2   -0.22    2.44
  -8   7   2    0.05    2.45
   8  -7  -2   -5.11    2.13
  -8  -7   2    1.27    2.89
  -8   7   1   16.83    3.01
   8   7  -1   14.83    3.17
  -8  -7   1   17.91    3.37
   8  -7  -1   13.64    2.46
  -8   7   0   -2.45    2.78
  -8  -7   0    2.54    3.73
   8  -7   0    4.10    2.62
  -8   8   3    7.77    2.49
   8  -8  -3   10.58    2.26
  -8   8   2   18.21    3.21
  -8  -8   2   21.04    3.71
   8  -8  -2   20.98    2.45
  -8   8   1    2.82    2.65
  -8  -8   1    6.40    3.57
   8  -8  -1    6.63    2.54
  -9   0   3   -2.63    2.73
   9   0  -3   -0.19    2.60
  -9   0   2   50.01    5.49
   9   0  -2   58.75    5.24
   9   1  -3   29.25    3.76
  -9   1   3   34.16    5.05
   9  -1  -3   23.55    3.42
  -9  -1   3   20.55    3.53
   9   1  -2    2.18    4.63
  -9   1   2   -3.28    2.76
  -9  -1   2   -2.65    3.44
   9  -1  -2    1.07    2.80
  -9   2   3   -2.53    2.86
   9  -2  -3   -2.16    2.59
  -9  -2   3    5.11    3.55
  -9   2   2    6.67    2.87
   9  -2  -2    1.59    2.57
   0   0   0    0.00    0.00
;
_shelx_hkl_checksum              22545
loop_
_space_group_symop_operation_xyz
'x, y, z'
'-x, y+1/2, -z+1/2'
'-x, -y, -z'
'x, -y-1/2, z-1/2'
loop_
_atom_site_label
_atom_site_type_symbol
_atom_site_fract_x
_atom_site_fract_y
_atom_site_fract_z
_atom_site_U_iso_or_equiv
_atom_site_adp_type
_atom_site_occupancy
_atom_site_site_symmetry_order
_atom_site_calc_flag
_atom_site_refinement_flags_posn
_atom_site_refinement_flags_adp
_atom_site_refinement_flags_occupancy
C1 C 0.4224(6) 0.9617(3) 0.2207(7) 0.0121(10) Uani 1 1 d . . .
C2 C 0.2561(6) 0.8268(3) 0.0917(7) 0.0106(10) Uani 1 1 d . . .
N1 N 0.4043(6) 0.8700(3) 0.2179(6) 0.0159(9) Uani 1 1 d D . .
H1 H 0.498(6) 0.837(3) 0.304(7) 0.019 Uiso 1 1 d D U .
N2 N 0.2818(5) 1.0188(3) 0.1481(6) 0.0147(9) Uani 1 1 d . . .
N3 N 0.3639(6) 1.0995(3) 0.1813(7) 0.0171(10) Uani 1 1 d . . .
N4 N 0.5414(5) 1.0898(3) 0.2696(7) 0.0164(9) Uani 1 1 d . . .
N5 N 0.5845(5) 1.0017(3) 0.2971(6) 0.0158(9) Uani 1 1 d . . .
N6 N 0.0998(5) 0.8634(3) -0.0292(6) 0.0129(9) Uani 1 1 d . . .
N7 N -0.0054(5) 0.7931(3) -0.1272(6) 0.0139(9) Uani 1 1 d . . .
N8 N 0.0803(5) 0.7190(3) -0.0684(6) 0.0149(9) Uani 1 1 d . . .
N9 N 0.2454(5) 0.7387(3) 0.0685(6) 0.0134(9) Uani 1 1 d D . .
H9 H 0.321(6) 0.693(3) 0.133(7) 0.016 Uiso 1 1 d D U .
O1 O -0.0480(5) 0.9605(2) 0.2805(6) 0.0215(9) Uani 1 1 d D . .
H1A H -0.013(8) 0.913(2) 0.327(8) 0.026 Uiso 1 1 d D U .
H1B H -0.150(4) 0.970(4) 0.290(9) 0.026 Uiso 1 1 d D U .
O2 O 0.6442(5) 0.7668(2) 0.5060(6) 0.0227(9) Uani 1 1 d D . .
H2A H 0.728(6) 0.785(4) 0.605(6) 0.027 Uiso 1 1 d D U .
H2B H 0.669(8) 0.720(2) 0.461(8) 0.027 Uiso 1 1 d D U .
Zn1 Zn 0.0000 1.0000 0.0000 0.0112(2) Uani 1 2 d S . P
loop_
_atom_site_aniso_label
_atom_site_aniso_U_11
_atom_site_aniso_U_22
_atom_site_aniso_U_33
_atom_site_aniso_U_23
_atom_site_aniso_U_13
_atom_site_aniso_U_12
C1 0.011(2) 0.013(2) 0.010(2) 0.001(2) 0.0007(19) -0.0027(19)
C2 0.012(2) 0.009(2) 0.010(2) 0.0000(19) 0.0020(19) 0.0021(18)
N1 0.012(2) 0.009(2) 0.021(2) 0.0002(18) -0.0031(18) 0.0025(17)
N2 0.013(2) 0.010(2) 0.020(2) -0.0012(17) 0.0034(17) 0.0007(15)
N3 0.013(2) 0.012(2) 0.024(2) -0.0029(19) 0.0027(18) -0.0037(17)
N4 0.014(2) 0.011(2) 0.023(2) -0.0011(18) 0.0036(18) 0.0005(16)
N5 0.014(2) 0.013(2) 0.020(2) -0.003(2) 0.0037(16) 0.0006(19)
N6 0.009(2) 0.012(2) 0.015(2) 0.0023(17) -0.0003(16) -0.0015(16)
N7 0.012(2) 0.011(2) 0.018(2) -0.0019(18) 0.0032(17) 0.0009(16)
N8 0.012(2) 0.010(2) 0.021(2) -0.0023(19) 0.0034(18) -0.0023(16)
N9 0.010(2) 0.009(2) 0.019(2) -0.0023(18) -0.0002(17) 0.0025(16)
O1 0.022(2) 0.023(2) 0.025(2) 0.0142(17) 0.0162(17) 0.0181(16)
O2 0.021(2) 0.015(2) 0.024(2) -0.0086(17) -0.0038(16) 0.0056(15)
Zn1 0.0076(4) 0.0100(4) 0.0146(4) 0.0004(4) 0.0010(3) 0.0009(3)
loop_
_atom_type_symbol
_atom_type_description
_atom_type_scat_dispersion_real
_atom_type_scat_dispersion_imag
_atom_type_scat_source
C C 0.0033 0.0016 'International Tables Vol C Tables 4.2.6.8 and 6.1.1.4'
H H 0.0000 0.0000 'International Tables Vol C Tables 4.2.6.8 and 6.1.1.4'
N N 0.0061 0.0033 'International Tables Vol C Tables 4.2.6.8 and 6.1.1.4'
O O 0.0106 0.0060 'International Tables Vol C Tables 4.2.6.8 and 6.1.1.4'
Zn Zn 0.2839 1.4301 'International Tables Vol C Tables 4.2.6.8 and 6.1.1.4'
loop_
_geom_angle_atom_site_label_1
_geom_angle_atom_site_label_2
_geom_angle_atom_site_label_3
_geom_angle
_geom_angle_site_symmetry_1
_geom_angle_site_symmetry_3
N5 C1 N2 113.0(4) . .
N5 C1 N1 122.3(4) . .
N2 C1 N1 124.7(4) . .
N9 C2 N6 108.8(4) . .
N9 C2 N1 124.0(4) . .
N6 C2 N1 127.1(4) . .
C2 N1 C1 122.9(4) . .
C2 N1 H1 119(3) . .
C1 N1 H1 118(3) . .
C1 N2 N3 103.9(4) . .
C1 N2 Zn1 132.3(3) . .
N3 N2 Zn1 123.7(3) . .
N4 N3 N2 109.5(4) . .
N3 N4 N5 110.1(4) . .
C1 N5 N4 103.4(4) . .
C2 N6 N7 105.1(4) . .
C2 N6 Zn1 125.8(3) . .
N7 N6 Zn1 126.5(3) . .
N8 N7 N6 110.4(4) . .
N7 N8 N9 107.5(4) . .
C2 N9 N8 108.1(4) . .
C2 N9 H9 133(3) . .
N8 N9 H9 119(3) . .
Zn1 O1 H1A 119(4) . .
Zn1 O1 H1B 116(4) . .
H1A O1 H1B 110(6) . .
H2A O2 H2B 113(6) . .
N2 Zn1 N2 180.0 3_575 .
N2 Zn1 O1 91.33(15) 3_575 3_575
N2 Zn1 O1 88.67(15) . 3_575
N2 Zn1 O1 88.67(15) 3_575 .
N2 Zn1 O1 91.33(15) . .
O1 Zn1 O1 180.0 3_575 .
N2 Zn1 N6 98.96(14) 3_575 .
N2 Zn1 N6 81.04(14) . .
O1 Zn1 N6 91.39(14) 3_575 .
O1 Zn1 N6 88.61(14) . .
N2 Zn1 N6 81.04(14) 3_575 3_575
N2 Zn1 N6 98.96(14) . 3_575
O1 Zn1 N6 88.61(14) 3_575 3_575
O1 Zn1 N6 91.39(14) . 3_575
N6 Zn1 N6 180.0(2) . 3_575
loop_
_geom_bond_atom_site_label_1
_geom_bond_atom_site_label_2
_geom_bond_distance
_geom_bond_site_symmetry_2
C1 N5 1.324(6) .
C1 N2 1.341(6) .
C1 N1 1.384(6) .
C2 N9 1.333(6) .
C2 N6 1.341(6) .
C2 N1 1.357(6) .
N1 H1 0.91(4) .
N2 N3 1.350(5) .
N2 Zn1 2.086(4) .
N3 N4 1.304(6) .
N4 N5 1.362(6) .
N6 N7 1.371(5) .
N6 Zn1 2.216(4) .
N7 N8 1.290(5) .
N8 N9 1.349(5) .
N9 H9 0.93(4) .
O1 Zn1 2.134(4) .
O1 H1A 0.80(2) .
O1 H1B 0.80(2) .
O2 H2A 0.82(2) .
O2 H2B 0.82(2) .
Zn1 N2 2.085(4) 3_575
Zn1 O1 2.134(4) 3_575
Zn1 N6 2.216(4) 3_575
