#------------------------------------------------------------------------------
#$Date: 2019-11-22 19:34:49 +0200 (Fri, 22 Nov 2019) $
#$Revision: 231347 $
#$URL: file:///home/coder/svn-repositories/cod/cif/4/51/65/4516501.cif $
#------------------------------------------------------------------------------
#
# This file is available in the Crystallography Open Database (COD),
# http://www.crystallography.net/
#
# All data on this site have been placed in the public domain by the
# contributors.
#
data_4516501
loop_
_publ_author_name
'Kole, Goutam Kumar'
'Chanthapally, Anjana'
'Tan, Geok Kheng'
'Vittal, Jagadese J.'
_publ_section_title
;
 Solid State Packing and Photoreactivity of Alkali Metal Salts
 oftrans,trans-Muconate
;
_journal_issue                   11
_journal_name_full               'Crystal Growth &amp; Design'
_journal_page_first              5555
_journal_paper_doi               10.1021/acs.cgd.5b01213
_journal_volume                  15
_journal_year                    2015
_chemical_formula_sum            'C6 H4 K2 O4'
_chemical_formula_weight         218.29
_space_group_crystal_system      monoclinic
_space_group_IT_number           14
_space_group_name_Hall           '-P 2yn'
_space_group_name_H-M_alt        'P 1 21/n 1'
_atom_sites_solution_hydrogens   geom
_audit_creation_method           SHELXL-2014/6
_cell_angle_alpha                90
_cell_angle_beta                 117.978(2)
_cell_angle_gamma                90
_cell_formula_units_Z            2
_cell_length_a                   10.765(2)
_cell_length_b                   3.9739(7)
_cell_length_c                   11.261(2)
_cell_measurement_reflns_used    2223
_cell_measurement_temperature    100(2)
_cell_measurement_theta_max      30.53
_cell_measurement_theta_min      3.59
_cell_volume                     425.43(13)
_computing_cell_refinement       'Bruker SMART'
_computing_data_collection       'Bruker SMART'
_computing_data_reduction        'Bruker SAINT'
_computing_molecular_graphics    'Bruker SHELXTL'
_computing_publication_material  'Bruker SHELXTL'
_computing_structure_refinement  'SHELXL-2014/6 (Sheldrick, 2014)'
_computing_structure_solution    'Bruker SHELXTL'
_diffrn_ambient_temperature      100(2)
_diffrn_measured_fraction_theta_full 0.990
_diffrn_measured_fraction_theta_max 0.988
_diffrn_measurement_device_type  'CCD area detector'
_diffrn_measurement_method       'phi and omega scans'
_diffrn_radiation_type           MoK\a
_diffrn_radiation_wavelength     0.71073
_diffrn_reflns_av_R_equivalents  0.0265
_diffrn_reflns_av_unetI/netI     0.0268
_diffrn_reflns_Laue_measured_fraction_full 0.990
_diffrn_reflns_Laue_measured_fraction_max 0.988
_diffrn_reflns_limit_h_max       11
_diffrn_reflns_limit_h_min       -13
_diffrn_reflns_limit_k_max       4
_diffrn_reflns_limit_k_min       -5
_diffrn_reflns_limit_l_max       14
_diffrn_reflns_limit_l_min       -14
_diffrn_reflns_number            2695
_diffrn_reflns_point_group_measured_fraction_full 0.990
_diffrn_reflns_point_group_measured_fraction_max 0.988
_diffrn_reflns_theta_full        25.242
_diffrn_reflns_theta_max         27.472
_diffrn_reflns_theta_min         2.160
_exptl_absorpt_coefficient_mu    1.082
_exptl_absorpt_correction_T_max  0.7461
_exptl_absorpt_correction_T_min  0.6122
_exptl_absorpt_correction_type   multi-scan
_exptl_absorpt_process_details   'SADABS (Sheldrick, 2011)'
_exptl_crystal_colour            Colourless
_exptl_crystal_density_diffrn    1.704
_exptl_crystal_density_meas      ?
_exptl_crystal_density_method    'not measured'
_exptl_crystal_description       Block
_exptl_crystal_F_000             220
_exptl_crystal_size_max          0.60
_exptl_crystal_size_mid          0.40
_exptl_crystal_size_min          0.30
_refine_diff_density_max         0.621
_refine_diff_density_min         -0.434
_refine_diff_density_rms         0.109
_refine_ls_extinction_coef       0.108(15)
_refine_ls_extinction_expression Fc^*^=kFc[1+0.001xFc^2^\l^3^/sin(2\q)]^-1/4^
_refine_ls_extinction_method     SHELXL
_refine_ls_goodness_of_fit_ref   1.096
_refine_ls_hydrogen_treatment    constr
_refine_ls_matrix_type           full
_refine_ls_number_parameters     56
_refine_ls_number_reflns         962
_refine_ls_number_restraints     0
_refine_ls_restrained_S_all      1.096
_refine_ls_R_factor_all          0.0382
_refine_ls_R_factor_gt           0.0372
_refine_ls_shift/su_max          0.000
_refine_ls_shift/su_mean         0.000
_refine_ls_structure_factor_coef Fsqd
_refine_ls_weighting_details
'w=1/[\s^2^(Fo^2^)+(0.0790P)^2^+0.2914P] where P=(Fo^2^+2Fc^2^)/3'
_refine_ls_weighting_scheme      calc
_refine_ls_wR_factor_gt          0.1183
_refine_ls_wR_factor_ref         0.1205
_reflns_Friedel_coverage         0.000
_reflns_number_gt                930
_reflns_number_total             962
_reflns_threshold_expression     'I > 2\s(I)'
_cod_data_source_file            cg5b01213_si_002.cif
_cod_data_source_block           b629jj
_cod_depositor_comments
;
The following automatic conversions were performed:

data item '_exptl_absorpt_correction_type' value 'Multi-scan' was
changed to 'multi-scan' in accordance with the
/home/saulius/struct/COD-crude-data/automatic-downloads/DataCite-retrospective/ACS/depositions/lib/dictionaries/cif_core.dic
dictionary named 'cif_core.dic' version 2.4.2 last updated on
2011-04-26.

data item '_exptl_crystal_density_meas' value 'Not Measured' was
changed to '?' -- the value is perceived as not measured.

Automatic conversion script
Id: cif_fix_values 6909 2019-04-08 15:41:33Z antanas 
;
_cod_original_sg_symbol_H-M      'P 21/n'
_cod_database_code               4516501
_shelx_space_group_comment
; 
The symmetry employed for this shelxl refinement is uniquely defined 
by the following loop, which should always be used as a source of 
symmetry information in preference to the above space-group names. 
They are only intended as comments. 
;
_exptl_absorpt_special_details
;
 ?
;
_shelxl_version_number           2014/6
_shelx_res_file
; 
TITL b629 in P2(1)/n 
CELL 0.71073  10.7651   3.9739  11.2609  90.000 117.978  90.000 
ZERR    2.00   0.0020   0.0007   0.0021   0.000   0.002   0.000 
LATT 1 
SYMM 0.5-X, 0.5+Y, 0.5-Z 
SFAC C  H  O  K 
UNIT 12 8 8 4 
OMIT  -1.00  55.00 
TEMP -173 
ACTA 
L.S. 8 
FREE K1   C3 
FREE K1   C1 
HTAB 
WGHT    0.079000    0.291400 
EXTI    0.108374 
FVAR       0.45035 
K1    4    0.815008    0.707785    0.430127    11.00000    0.02841    0.02713 = 
         0.01965    0.00095    0.00801    0.00023 
O1    3    0.429930    0.293309    0.109597    11.00000    0.03497    0.03981 = 
         0.01427   -0.00309    0.00416    0.00275 
O2    3    0.635247    0.184978    0.288515    11.00000    0.02910    0.03882 = 
         0.02321    0.00098    0.01141    0.00588 
C1    1    0.511654    0.294446    0.233946    11.00000    0.02710    0.02243 = 
         0.01763   -0.00093    0.00924   -0.00156 
C2    1    0.456966    0.444195    0.322701    11.00000    0.02997    0.03318 = 
         0.02353   -0.00253    0.01280    0.00293 
AFIX  43 
H2    2    0.368929    0.557174    0.281395    11.00000   -1.20000 
AFIX   0 
C3    1    0.525407    0.426880    0.456213    11.00000    0.03290    0.03109 = 
         0.02582   -0.00203    0.01750   -0.00004 
AFIX  43 
H3    2    0.612974    0.311786    0.496940    11.00000   -1.20000 
  
AFIX   0 
HKLF 4 
  
REM  b629 in P2(1)/n 
REM R1 =  0.0372 for     930 Fo > 4sig(Fo)  and  0.0382 for all     962 data 
REM     56 parameters refined using      0 restraints 
  
END 
  
WGHT      0.0534      0.2969 
  
REM No hydrogen bonds found for HTAB generation 
  
REM Highest difference peak  0.621,  deepest hole -0.434,  1-sigma level  0.109 
Q1    1   0.8858  0.7282  0.4997  11.00000  0.05    0.62 
Q2    1   0.6404 -0.2808  0.2540  11.00000  0.05    0.60 
Q3    1   0.9767  0.7437  0.5962  11.00000  0.05    0.60 
Q4    1   0.7210  0.7134  0.3405  11.00000  0.05    0.58 
Q5    1   0.5561  0.7239  0.1669  11.00000  0.05    0.55 
Q6    1   0.6891  0.2508  0.3753  11.00000  0.05    0.42 
Q7    1   0.2793  0.2394 -0.0400  11.00000  0.05    0.37 
Q8    1   0.3689  0.2662  0.0224  11.00000  0.05    0.36 
Q9    1   0.5015  0.4539  0.3855  11.00000  0.05    0.29 
Q10   1   0.6824  0.3382  0.4996  11.00000  0.05    0.22 
Q11   1   0.8403  0.1746  0.3719  11.00000  0.05    0.18 
Q12   1   0.6707  0.0828  0.5078  11.00000  0.05    0.17 
Q13   1   0.6931  0.3947  0.6074  11.00000  0.05    0.17 
Q14   1   0.2202  0.4440  0.1993  11.00000  0.05    0.16 
Q15   1   0.9241  0.9704  0.4987  11.00000  0.05    0.15 
Q16   1   0.4316  0.0789 -0.0020  11.00000  0.05    0.15 
Q17   1   0.7728  0.2905  0.5869  11.00000  0.05    0.15 
Q18   1   0.3081  0.4332  0.2605  11.00000  0.05    0.14 
Q19   1   0.9774  0.6194  0.5027  11.00000  0.05    0.14 
Q20   1   0.6438  0.0646  0.6141  11.00000  0.05    0.14 
;
_shelx_res_checksum              10286
_shelx_hkl_file
; 
  -1   0   0   -0.14    0.01 
   1   0   0   -0.10    0.02 
   2   0   0  114.08    3.63 
  -3   0   0   -0.18    0.04 
  -4   0   0    0.63    0.11 
  -5   0   0    0.04    0.06 
  -6   0   0  221.42    7.06 
  -7   0   0    0.03    0.05 
  -8   0   0   76.75    2.70 
  -9   0   0    0.21    0.11 
 -10   0   0    5.37    0.43 
 -11   0   0   -0.01    0.08 
 -12   0   0    0.48    0.17 
   0   1   0   -0.69    0.04 
  -1  -1   0  178.93    5.56 
   1  -1   0  172.17    5.45 
   1  -1   0  186.18    5.76 
  -1  -1   0  183.79    5.65 
  -1   1   0  185.02    5.65 
   2  -1   0  356.94   11.21 
   2  -1   0  386.66   11.87 
  -2  -1   0  379.14   11.75 
   3  -1   0  317.92   10.07 
  -3  -1   0  309.90    9.92 
   3  -1   0  330.63    9.51 
  -3   1   0  314.76    9.93 
   4  -1   0  604.85   18.43 
  -4  -1   0  607.31   18.39 
  -4   1   0  543.15   18.16 
  -5  -1   0    0.54    0.12 
   5  -1   0    0.55    0.12 
  -5   1   0    0.89    0.14 
  -6  -1   0    9.30    0.49 
   6  -1   0    9.57    0.48 
  -6   1   0    9.35    0.49 
  -7  -1   0   -0.01    0.05 
   7  -1   0   -0.04    0.06 
  -7   1   0    0.04    0.06 
   8  -1   0   23.43    1.01 
  -8  -1   0   23.47    1.03 
  -8   1   0   24.55    1.05 
  -9  -1   0    0.11    0.10 
  -9   1   0    0.03    0.07 
 -10  -1   0    1.71    0.28 
 -10   1   0    2.15    0.32 
 -11  -1   0    3.75    0.38 
 -11   1   0    3.99    0.40 
 -12  -1   0   36.07    1.62 
 -12   1   0   37.39    1.64 
   0  -2   0  594.96   18.67 
   0   2   0  636.64   19.08 
   1  -2   0  181.91    5.49 
   1  -2   0  183.28    5.82 
   1   2   0  184.61    5.69 
  -1   2   0  171.11    5.67 
   2  -2   0   84.89    2.87 
  -2  -2   0   86.65    2.79 
   2  -2   0   86.11    2.64 
  -2  -2   0   86.20    2.74 
  -2   2   0   84.04    2.79 
   3  -2   0    4.69    0.30 
  -3  -2   0    4.97    0.28 
   3  -2   0    4.80    0.20 
  -3   2   0    4.86    0.28 
   4  -2   0   25.62    0.97 
  -4  -2   0   25.57    0.95 
   4  -2   0   25.29    0.76 
  -4   2   0   20.40    0.92 
   5  -2   0   14.88    0.66 
  -5  -2   0   13.47    0.64 
  -5   2   0   14.13    0.65 
   6  -2   0   52.57    1.92 
  -6  -2   0   54.41    1.92 
  -6   2   0   51.67    1.90 
   7  -2   0   13.22    0.66 
  -7  -2   0   12.92    0.66 
  -7   2   0   13.15    0.68 
  -8  -2   0   36.24    1.46 
   8  -2   0   35.52    1.44 
  -8   2   0   36.36    1.48 
  -9  -2   0   10.82    0.65 
   9  -2   0   10.49    0.62 
  -9   2   0   11.81    0.68 
  10  -2   0   12.52    0.74 
 -10  -2   0   13.76    0.77 
 -10   2   0   13.35    0.79 
 -11  -2   0    1.14    0.26 
  11  -2   0    1.32    0.27 
 -11  -2   0    1.50    0.29 
 -11   2   0    1.09    0.26 
 -12  -2   0    5.49    0.49 
 -12  -2   0    4.62    0.48 
 -12   2   0    4.88    0.49 
   0  -3   0    0.04    0.07 
   0   3   0    0.01    0.05 
  -1  -3   0    8.29    0.45 
   1  -3   0    7.55    0.46 
   1  -3   0    9.35    0.42 
  -1   3   0    8.50    0.43 
   1   3   0    7.87    0.42 
   2  -3   0   37.95    1.24 
   2  -3   0   35.66    1.39 
  -2  -3   0   35.80    1.29 
  -2  -3   0   36.06    1.34 
  -2  -3   0   35.21    1.31 
  -2   3   0   34.82    1.31 
  -3  -3   0  127.56    4.14 
   3  -3   0  128.07    4.31 
  -3  -3   0  132.64    4.19 
  -3   3   0  124.88    4.19 
   4  -3   0   76.71    2.47 
  -4  -3   0   65.25    2.35 
  -4   3   0   63.71    2.36 
   5  -3   0   24.33    1.07 
  -5  -3   0   26.10    1.05 
  -5   3   0   25.53    1.06 
   6  -3   0   10.71    0.60 
  -6  -3   0   10.66    0.58 
   7  -3   0    0.10    0.09 
  -7  -3   0    0.13    0.11 
  -7   3   0    0.01    0.09 
  -8  -3   0    3.24    0.35 
   8  -3   0    2.81    0.30 
  -8  -3   0    3.24    0.32 
  -8   3   0    3.32    0.34 
  -9  -3   0    5.21    0.46 
   9  -3   0    4.94    0.43 
  -9  -3   0    4.92    0.42 
  -9   3   0    4.88    0.45 
  10  -3   0    3.96    0.41 
 -10  -3   0    4.37    0.42 
 -10  -3   0    4.60    0.45 
 -10   3   0    5.10    0.47 
 -11  -3   0    1.80    0.33 
 -11  -3   0    1.47    0.31 
 -11   3   0    1.41    0.30 
   0  -4   0   34.66    1.33 
   1  -4   0   72.20    2.66 
  -1  -4   0   72.72    2.51 
  -2  -4   0    2.43    0.32 
   2  -4   0    2.65    0.35 
   3  -4   0    0.56    0.16 
  -3  -4   0    0.40    0.15 
   4  -4   0   -0.05    0.07 
  -4  -4   0    0.02    0.10 
   5  -4   0   14.14    0.77 
  -5  -4   0   13.75    0.78 
  -6  -4   0    4.85    0.45 
   6  -4   0    5.64    0.44 
   7  -4   0   13.95    0.80 
  -7  -4   0   14.62    0.85 
   8  -4   0    6.48    0.51 
  -8  -4   0    5.64    0.52 
   0  -5   0   -0.18    0.09 
  -2  -5   0    0.15    0.15 
   2  -5   0    0.08    0.13 
   3  -5   0   38.66    1.67 
  -3  -5   0   37.50    1.60 
  -4  -5   0    2.10    0.37 
   4  -5   0    2.18    0.36 
   5  -5   0   11.90    0.77 
  -5  -5   0   12.27    0.80 
 -13   0   1    5.60    0.51 
 -12   0   1    0.01    0.09 
 -11   0   1   97.70    3.47 
 -10   0   1   -0.03    0.05 
  -9   0   1   21.14    0.94 
  -9   0   1   20.02    0.81 
  -8   0   1   -0.07    0.04 
  -7   0   1   28.22    1.11 
  -6   0   1   -0.04    0.04 
  -5   0   1   29.30    1.07 
  -4   0   1   -0.05    0.04 
  -3   0   1  632.96   19.99 
  -2   0   1   -0.33    0.03 
  -2   0   1   -0.41    0.02 
  -1   0   1  358.65   11.20 
   0   0   1    0.01    0.01 
   0   0  -1    0.01    0.01 
   0   0   1    0.05    0.01 
   0   0   1    0.00    0.01 
   1   0   1  111.54    3.31 
  -1   0  -1  106.61    3.43 
   2   0   1   -0.38    0.05 
  -2   0  -1   -0.40    0.04 
   2   0   1   -0.42    0.04 
   3   0   1  227.58    7.39 
  -3   0  -1  238.02    7.30 
  -4   0  -1   -0.17    0.03 
  -5   0  -1  452.87   14.15 
  -6   0  -1    0.18    0.08 
  -7   0  -1  114.40    3.84 
  -8   0  -1    0.08    0.09 
  -9   0  -1   29.85    1.30 
 -10   0  -1   -0.03    0.09 
 -11   0  -1   15.83    0.89 
 -12   0  -1    0.07    0.12 
 -13  -1   1   11.60    0.77 
 -13   1   1   11.13    0.78 
 -12  -1   1    1.35    0.28 
 -12   1   1    1.86    0.32 
 -11  -1   1    0.00    0.07 
 -11  -1   1    0.08    0.11 
 -11   1   1    0.21    0.13 
 -10  -1   1    0.27    0.12 
 -10   1   1    0.22    0.12 
  -9  -1   1   25.10    1.11 
  -9   1   1   26.05    1.13 
   8  -1  -1    0.38    0.12 
  -8  -1   1    0.61    0.15 
  -8   1   1    0.52    0.14 
  -7  -1   1   70.10    2.45 
   7  -1  -1   71.16    2.47 
  -7   1   1   72.71    2.48 
   6  -1  -1   40.81    1.42 
  -6  -1   1   39.41    1.41 
  -6   1   1   38.14    1.42 
  -6   1   1   36.91    1.20 
  -5  -1   1  252.38    7.82 
   5  -1  -1  251.34    7.92 
  -5   1   1  240.30    7.83 
   4  -1  -1   35.86    1.26 
  -4  -1   1   36.74    1.25 
  -4   1   1   35.60    1.27 
   3  -1  -1   81.33    2.68 
  -3  -1   1   82.94    2.64 
  -3   1   1   82.71    2.67 
  -2  -1   1  176.40    5.69 
  -2  -1   1  187.73    5.57 
   2  -1  -1  180.32    5.80 
  -2   1   1  185.20    5.73 
   1  -1  -1  198.64    6.13 
  -1  -1   1  188.25    5.86 
  -1  -1   1  196.71    5.90 
  -1  -1   1  194.75    6.00 
  -1   1   1  188.81    6.05 
   0  -1   1  162.31    4.96 
   0   1  -1  164.10    5.09 
   0   1   1  165.61    5.14 
  -1  -1  -1  918.65   25.56 
   1  -1   1  863.53   26.37 
   1  -1   1  734.48   24.83 
  -1  -1  -1  891.60   25.91 
  -1   1  -1  726.91   25.66 
   2  -1   1   60.26    2.02 
   2  -1   1   60.24    1.86 
  -2  -1  -1   61.85    2.01 
  -2   1  -1   60.50    1.97 
   3  -1   1  371.97   11.86 
  -3  -1  -1  377.44   11.71 
   3  -1   1  384.04   11.28 
  -3   1  -1  366.98   11.68 
   4  -1   1   11.51    0.43 
   4  -1   1   11.31    0.51 
  -4  -1  -1   11.84    0.53 
  -4   1  -1   11.41    0.51 
  -5  -1  -1    9.52    0.50 
   5  -1   1   10.04    0.48 
  -5   1  -1    9.66    0.48 
   6  -1   1   11.58    0.57 
  -6  -1  -1   12.53    0.60 
  -6   1  -1   11.53    0.58 
  -7  -1  -1  116.22    3.99 
   7  -1   1  121.64    4.01 
  -7   1  -1  119.49    3.99 
   8  -1   1    8.97    0.53 
  -8  -1  -1    8.52    0.54 
  -8   1  -1    8.95    0.55 
  -9  -1  -1   48.74    1.91 
  -9   1  -1   49.50    1.92 
 -10  -1  -1    1.03    0.23 
 -10   1  -1    1.05    0.23 
 -11  -1  -1   13.49    0.82 
 -11   1  -1   13.42    0.81 
 -12  -1  -1    0.05    0.14 
 -12   1  -1    0.05    0.11 
 -12  -2   1    8.48    0.63 
 -12  -2   1    8.99    0.61 
 -12   2   1    8.78    0.65 
 -11  -2   1   31.87    1.38 
 -11  -2   1   32.19    1.42 
  11  -2  -1   32.29    1.40 
 -11   2   1   30.87    1.42 
  10  -2  -1    7.90    0.53 
 -10  -2   1    7.61    0.53 
 -10  -2   1    8.01    0.54 
 -10   2   1    6.98    0.53 
   9  -2  -1    8.16    0.52 
  -9  -2   1    7.89    0.52 
  -9  -2   1    8.15    0.53 
  -9   2   1    9.16    0.57 
   8  -2  -1    0.56    0.15 
  -8  -2   1    0.74    0.17 
  -8  -2   1    0.86    0.20 
  -8   2   1    0.55    0.15 
  -7  -2   1    1.42    0.21 
   7  -2  -1    1.36    0.21 
  -7   2   1    1.44    0.22 
   6  -2  -1   10.45    0.54 
  -6  -2   1   11.15    0.54 
  -6   2   1   10.47    0.55 
  -5  -2   1   30.08    1.10 
   5  -2  -1   28.44    1.11 
  -5   2   1   28.67    1.13 
   4  -2  -1    9.28    0.46 
  -4  -2   1    9.47    0.47 
  -4  -2   1    9.06    0.43 
  -4   2   1    8.86    0.46 
   3  -2  -1   64.92    1.97 
  -3  -2   1   63.21    2.11 
  -3  -2   1   64.44    2.12 
   3  -2  -1   62.78    2.18 
  -3   2   1   64.30    2.16 
  -2  -2   1  289.42    9.10 
   2  -2  -1  282.93    8.80 
  -2  -2   1  298.43    8.90 
   2  -2  -1  297.04    9.30 
  -1  -2   1  533.71   16.67 
   1   2  -1  574.36   17.25 
   1  -2   1   15.64    0.67 
   1  -2   1   15.66    0.58 
  -1   2  -1   15.07    0.58 
   2  -2   1    4.15    0.28 
  -2  -2  -1    3.80    0.25 
   2  -2   1    3.96    0.20 
  -2  -2  -1    4.26    0.26 
  -2   2  -1    4.08    0.23 
  -3  -2  -1   36.93    1.35 
   3  -2   1   38.00    1.19 
   3  -2   1   37.03    1.38 
  -3   2  -1   38.18    1.33 
   4  -2   1  105.14    3.23 
  -4  -2  -1  106.28    3.51 
   4  -2   1  108.36    3.56 
  -4   2  -1  104.43    3.47 
   5  -2   1  167.07    5.54 
  -5  -2  -1  171.32    5.49 
  -5   2  -1  168.47    5.47 
   6  -2   1   44.17    1.68 
  -6  -2  -1   45.36    1.69 
  -6   2  -1   46.08    1.69 
   7  -2   1   65.29    2.42 
  -7  -2  -1   67.66    2.44 
  -7   2  -1   69.38    2.43 
   8  -2   1    0.38    0.16 
  -8  -2  -1    0.36    0.14 
  -8   2  -1    0.39    0.15 
  -9  -2  -1   18.23    0.96 
   9  -2   1   18.98    0.94 
  -9   2  -1   20.00    0.98 
  10  -2   1    4.05    0.40 
 -10  -2  -1    4.55    0.42 
 -10   2  -1    3.66    0.39 
  11  -2   1    4.96    0.46 
 -11  -2  -1    5.53    0.50 
 -11   2  -1    5.72    0.50 
 -12  -2  -1    3.96    0.43 
 -12  -3   1    2.07    0.37 
  11  -3  -1    0.11    0.16 
 -11  -3   1    0.07    0.13 
 -11  -3   1    0.11    0.14 
 -11   3   1    0.04    0.12 
 -10  -3   1    0.88    0.22 
  10  -3  -1    0.94    0.23 
 -10  -3   1    1.22    0.26 
 -10   3   1    1.21    0.27 
  -9  -3   1    3.70    0.38 
   9  -3  -1    4.01    0.37 
  -9  -3   1    3.80    0.36 
  -9   3   1    3.78    0.38 
   8  -3  -1   18.33    0.89 
  -8  -3   1   17.27    0.91 
  -8  -3   1   19.05    0.88 
  -8   3   1   17.68    0.92 
   7  -3  -1   25.92    1.12 
  -7  -3   1   25.14    1.07 
  -7  -3   1   24.55    1.13 
  -7   3   1   24.59    1.12 
   6  -3  -1   14.74    0.73 
  -6  -3   1   14.74    0.70 
  -6  -3   1   14.67    0.76 
  -6   3   1   14.88    0.75 
  -5  -3   1   25.60    1.07 
   5  -3  -1   29.52    1.16 
  -5  -3   1   28.53    1.17 
  -5   3   1   27.34    1.14 
   4  -3  -1   17.22    0.79 
  -4  -3   1   17.19    0.74 
  -4  -3   1   17.64    0.81 
  -3  -3   1   -0.03    0.07 
  -3  -3   1    0.09    0.07 
   3  -3  -1    0.44    0.12 
  -3   3   1    0.11    0.08 
  -2  -3   1    2.18    0.19 
  -2  -3   1    2.10    0.18 
   2  -3  -1    2.04    0.21 
  -2  -3   1    2.36    0.23 
  -1  -3   1   13.23    0.59 
   1  -3  -1   11.91    0.54 
   1  -3  -1   11.92    0.60 
  -1   3   1   11.10    0.56 
   1   3  -1   12.66    0.53 
   0  -3   1   17.31    0.70 
   0   3   1   16.57    0.72 
   0   3  -1   16.27    0.67 
   1  -3   1   85.85    2.72 
   1  -3   1   84.25    2.95 
  -1   3  -1   83.65    2.79 
   1   3   1   85.62    2.86 
  -2  -3  -1  176.89    5.52 
   2  -3   1  172.34    5.33 
   2  -3   1  176.37    5.75 
  -2  -3  -1  173.51    5.60 
  -2   3  -1  169.93    5.54 
  -3  -3  -1   57.46    2.00 
   3  -3   1   54.97    2.05 
  -3   3  -1   54.53    1.93 
  -4  -3  -1    9.77    0.54 
   4  -3   1   10.04    0.56 
  -4   3  -1    9.41    0.50 
  -5  -3  -1    0.55    0.15 
   5  -3   1    0.47    0.14 
  -5   3  -1    0.49    0.14 
   6  -3   1   24.77    1.13 
  -6  -3  -1   27.03    1.15 
  -6   3  -1   27.88    1.14 
   7  -3   1   31.46    1.35 
  -7  -3  -1   31.61    1.35 
  -8  -3  -1   12.03    0.71 
   8  -3   1   11.69    0.69 
  -8   3  -1   11.04    0.70 
  -9  -3  -1    3.65    0.38 
   9  -3   1    3.81    0.38 
  -9   3  -1    3.70    0.39 
 -10  -3  -1   13.68    0.83 
  10  -3   1   13.22    0.81 
 -10  -3  -1   13.87    0.83 
 -10   3  -1   13.09    0.83 
   9  -4  -1    2.32    0.36 
  -9  -4   1    2.01    0.37 
   8  -4  -1    2.40    0.35 
  -8  -4   1    2.14    0.37 
  -7  -4   1    0.34    0.18 
   7  -4  -1    0.52    0.17 
  -6  -4   1    2.43    0.36 
   6  -4  -1    2.45    0.33 
  -5  -4   1    2.72    0.37 
   5  -4  -1    2.52    0.34 
   4  -4  -1    7.20    0.49 
  -4  -4   1    7.60    0.52 
  -4   4   1    7.43    0.48 
   3  -4  -1   15.78    0.82 
  -3  -4   1   15.47    0.80 
  -3   4   1   16.73    0.79 
   2  -4  -1   68.46    2.60 
  -2  -4   1   72.13    2.50 
  -2   4   1   74.59    2.53 
   1  -4  -1   14.54    0.72 
   1  -4  -1   16.89    0.83 
  -1  -4   1   15.59    0.76 
  -1   4   1   17.54    0.78 
   0  -4  -1   23.24    0.94 
   0  -4   1   21.58    0.89 
   0   4   1   17.37    0.88 
  -1  -4  -1    1.58    0.23 
  -1  -4  -1    1.48    0.22 
   1  -4   1    1.20    0.24 
  -1  -4  -1    1.22    0.23 
  -2  -4  -1    3.14    0.32 
  -2  -4  -1    3.60    0.30 
   2  -4   1    2.99    0.32 
  -2  -4  -1    3.02    0.28 
  -3  -4  -1    2.47    0.34 
   3  -4   1    2.08    0.31 
   4  -4   1   45.30    1.79 
  -4  -4  -1   43.36    1.75 
   5  -4   1    9.52    0.62 
  -5  -4  -1    9.98    0.65 
   6  -4   1   23.66    1.14 
  -6  -4  -1   24.48    1.18 
   7  -4   1    4.72    0.44 
  -7  -4  -1    5.09    0.48 
   8  -4   1    4.63    0.45 
  -8  -4  -1    4.48    0.48 
   6  -5  -1   10.21    0.68 
   5  -5  -1    2.85    0.41 
  -5  -5   1    2.81    0.42 
  -4  -5   1    7.18    0.56 
   4  -5  -1    6.66    0.54 
  -3  -5   1    1.29    0.28 
   3  -5  -1    1.12    0.26 
  -2  -5   1    6.72    0.50 
   2  -5  -1    5.98    0.51 
   1  -5  -1    0.12    0.14 
  -1  -5   1   -0.08    0.12 
   0  -5   1    9.03    0.66 
   0  -5  -1    9.40    0.65 
  -1  -5  -1    5.81    0.50 
   1  -5   1    5.21    0.49 
   2  -5   1   47.25    1.96 
  -2  -5  -1   45.74    1.85 
  -3  -5  -1   -0.04    0.13 
   3  -5   1    0.04    0.14 
   4  -5   1    2.67    0.41 
  -4  -5  -1    2.69    0.42 
  -5  -5  -1    0.05    0.17 
 -13   0   2    0.08    0.10 
 -12   0   2   38.52    1.63 
 -11   0   2    0.04    0.08 
 -10   0   2    0.15    0.09 
  -9   0   2    0.04    0.06 
  -9   0   2    0.00    0.06 
  -8   0   2   88.35    2.85 
  -8   0   2   90.84    3.05 
  -7   0   2    0.02    0.05 
  -7   0   2    0.02    0.04 
  -6   0   2  177.03    5.57 
  -6   0   2  171.55    5.32 
  -5   0   2   -0.01    0.04 
  -5   0   2    0.03    0.04 
  -4   0   2  335.51   10.08 
  -3   0   2    0.35    0.06 
  -2   0   2  150.28    4.73 
  -1   0   2   -0.37    0.03 
  -1   0   2   -0.41    0.03 
   0   0   2   13.06    0.45 
   0   0   2   13.08    0.44 
   1   0   2   -0.11    0.03 
   1   0   2   -0.13    0.03 
  -1   0  -2   -0.12    0.03 
   2   0   2  229.98    6.95 
  -2   0  -2  227.85    7.19 
   3   0   2   -0.01    0.03 
   3   0   2    0.02    0.04 
  -3   0  -2    0.11    0.05 
   4   0   2  368.56   12.11 
  -4   0  -2  396.26   11.98 
  -5   0  -2    0.03    0.06 
  -6   0  -2   18.19    0.81 
  -7   0  -2    0.06    0.07 
  -8   0  -2  123.36    4.20 
  -9   0  -2   -0.04    0.08 
 -10   0  -2   46.74    1.91 
 -11   0  -2    0.06    0.10 
 -13  -1   2    0.40    0.18 
 -13   1   2    0.53    0.20 
 -12  -1   2    2.61    0.37 
 -12   1   2    2.62    0.39 
 -11  -1   2    2.92    0.29 
 -11  -1   2    2.48    0.34 
 -11   1   2    2.83    0.38 
 -10  -1   2   85.44    3.06 
 -10   1   2   89.38    3.12 
  -9  -1   2   18.67    0.87 
  -9  -1   2   19.21    0.83 
  -9   1   2   19.57    0.91 
   8  -1  -2  130.29    4.35 
  -8  -1   2  125.86    4.29 
  -8  -1   2  131.51    4.16 
  -8   1   2  133.50    4.35 
   7  -1  -2    0.12    0.08 
  -7  -1   2    0.07    0.06 
  -7  -1   2    0.13    0.07 
  -7   1   2    0.09    0.03 
  -7   1   2    0.13    0.07 
   6  -1  -2   41.21    1.48 
  -6  -1   2   41.62    1.47 
  -6  -1   2   40.16    1.43 
  -6   1   2   41.70    1.50 
  -5  -1   2    7.46    0.38 
   5  -1  -2    7.81    0.37 
  -5  -1   2    7.83    0.37 
  -5   1   2    7.32    0.39 
  -4  -1   2  134.12    4.33 
   4  -1  -2  139.05    4.49 
  -4  -1   2  142.23    4.42 
  -4   1   2  143.51    4.47 
   3  -1  -2   16.77    0.62 
  -3  -1   2   16.45    0.59 
  -3  -1   2   16.15    0.63 
  -3   1   2   17.27    0.65 
  -3   1   2   16.60    0.54 
  -2  -1   2  121.98    3.74 
  -2  -1   2  120.81    3.70 
   2  -1  -2  122.17    3.83 
  -2   1   2  114.72    3.82 
   1  -1  -2    7.38    0.29 
  -1   1   2    6.72    0.32 
   0  -1   2  384.11   11.58 
   0   1   2  393.84   12.18 
   0   1  -2  381.23   11.97 
   1  -1   2   14.48    0.59 
   1  -1   2   14.58    0.52 
  -1  -1  -2   14.90    0.58 
  -1  -1  -2   14.60    0.59 
  -1   1  -2   15.66    0.54 
  -2  -1  -2   17.65    0.71 
   2  -1   2   17.93    0.62 
   2  -1   2   17.81    0.70 
  -2   1  -2   18.13    0.67 
   3  -1   2    0.34    0.08 
  -3  -1  -2    0.54    0.11 
   3  -1   2    0.25    0.06 
  -4  -1  -2   89.17    2.97 
   4  -1   2   88.06    2.97 
   4  -1   2   89.25    2.77 
  -4   1  -2   89.55    2.94 
   5  -1   2   11.69    0.56 
  -5  -1  -2   11.94    0.59 
  -5   1  -2   12.64    0.58 
   6  -1   2  121.89    4.05 
  -6  -1  -2  121.16    4.06 
  -6   1  -2  120.80    4.02 
   7  -1   2   11.49    0.61 
  -7  -1  -2   11.44    0.64 
  -7   1  -2   12.36    0.64 
   8  -1   2   85.44    2.99 
  -8  -1  -2   85.02    3.02 
  -8   1  -2   83.84    2.99 
  -9  -1  -2    1.46    0.26 
  -9   1  -2    1.55    0.26 
 -10  -1  -2    0.74    0.22 
 -10   1  -2    0.96    0.22 
 -11  -1  -2    1.21    0.28 
 -11   1  -2    1.10    0.25 
 -13  -2   2   11.07    0.74 
 -12  -2   2   20.54    1.03 
 -12  -2   2   20.42    1.05 
 -12   2   2   21.47    1.12 
  11  -2  -2    4.70    0.41 
 -11  -2   2    4.59    0.41 
 -11  -2   2    4.78    0.42 
 -11   2   2    4.76    0.44 
 -10  -2   2    1.44    0.25 
 -10  -2   2    2.06    0.31 
  10  -2  -2    1.55    0.26 
 -10   2   2    1.89    0.30 
   9  -2  -2    6.86    0.46 
  -9  -2   2    7.84    0.49 
  -9  -2   2    7.21    0.49 
  -9   2   2    7.66    0.52 
  -8  -2   2   61.69    2.23 
  -8  -2   2   65.31    2.24 
   8  -2  -2   62.40    2.26 
  -8   2   2   63.47    2.31 
   7  -2  -2   12.36    0.61 
  -7  -2   2   12.50    0.63 
  -7  -2   2   12.00    0.59 
  -7   2   2   12.69    0.65 
  -6  -2   2   25.55    1.01 
   6  -2  -2   25.15    0.99 
  -6  -2   2   24.36    0.96 
  -6   2   2   24.41    1.02 
  -5  -2   2   83.85    2.72 
   5  -2  -2   80.83    2.78 
  -5  -2   2   85.07    2.74 
  -5   2   2   80.98    2.80 
   4  -2  -2  265.99    8.05 
   4  -2  -2  261.94    8.59 
  -4  -2   2  266.39    8.42 
  -4  -2   2  281.33    8.28 
  -4   2   2  270.28    8.51 
   3  -2  -2    6.62    0.34 
  -3  -2   2    6.07    0.29 
  -3  -2   2    6.61    0.36 
  -2  -2   2   75.63    2.48 
   2  -2  -2   80.30    2.57 
  -2  -2   2   77.13    2.45 
  -2   2   2   74.83    2.56 
   1   2  -2    0.13    0.04 
   0  -2   2   16.52    0.61 
   0   2  -2   15.49    0.56 
   0   2   2   16.13    0.67 
   1  -2   2   10.43    0.41 
   1  -2   2    9.87    0.49 
  -1   2  -2   10.11    0.40 
   1   2   2    9.52    0.48 
   2  -2   2  103.59    3.14 
   2  -2   2  101.41    3.42 
  -2  -2  -2  101.64    3.30 
  -2  -2  -2  100.50    3.35 
  -2   2  -2  102.50    3.28 
   3  -2   2   48.68    1.86 
  -3  -2  -2   54.22    1.87 
   3  -2   2   54.05    1.67 
  -3   2  -2   53.67    1.79 
  -4  -2  -2  121.19    4.00 
   4  -2   2  123.04    4.04 
   4  -2   2  118.82    3.70 
  -4   2  -2  120.06    3.94 
   5  -2   2   26.25    1.08 
  -5  -2  -2   26.23    1.09 
   6  -2   2    7.18    0.45 
  -6  -2  -2    6.77    0.46 
  -6   2  -2    7.81    0.47 
   7  -2   2    2.33    0.26 
  -7  -2  -2    2.28    0.31 
  -7   2  -2    1.84    0.28 
  -8  -2  -2   56.00    2.23 
   8  -2   2   61.14    2.23 
  -8   2  -2   60.10    2.24 
  -9  -2  -2   26.95    1.23 
   9  -2   2   25.38    1.18 
  -9   2  -2   24.51    1.19 
 -10  -2  -2   15.32    0.87 
  10  -2   2   14.79    0.83 
 -10   2  -2   12.58    0.82 
 -11  -2  -2    2.37    0.40 
 -11   2  -2    2.21    0.37 
  11  -3  -2   11.11    0.72 
 -11  -3   2   13.37    0.80 
 -11   3   2   13.11    0.83 
  10  -3  -2   22.37    1.08 
 -10  -3   2   22.72    1.12 
 -10  -3   2   22.89    1.08 
 -10   3   2   22.16    1.15 
   9  -3  -2   21.80    1.01 
  -9  -3   2   20.63    0.97 
  -9  -3   2   22.05    1.05 
  -9   3   2   20.17    1.05 
  -8  -3   2    6.89    0.52 
  -8  -3   2    7.61    0.47 
   8  -3  -2    7.87    0.50 
  -8   3   2    7.82    0.54 
  -7  -3   2   17.36    0.76 
   7  -3  -2   15.62    0.79 
  -7  -3   2   15.71    0.82 
  -7   3   2   16.52    0.84 
  -6  -3   2    6.46    0.45 
  -6  -3   2    5.46    0.36 
   6  -3  -2    6.53    0.42 
  -6   3   2    7.04    0.46 
  -5  -3   2   58.11    1.99 
  -5  -3   2   58.43    2.08 
   5  -3  -2   57.09    2.08 
  -5   3   2   57.24    2.10 
  -4  -3   2   78.60    2.63 
   4  -3  -2   78.40    2.75 
  -4  -3   2   79.72    2.70 
  -4   3   2   81.60    2.76 
   3  -3  -2    1.79    0.20 
  -3  -3   2    1.76    0.16 
   2  -3  -2    1.24    0.19 
  -2  -3   2    1.45    0.13 
  -2  -3   2    1.41    0.20 
  -2   3   2    1.44    0.21 
  -1  -3   2   58.56    1.89 
  -1  -3   2   55.21    1.79 
  -1  -3   2   55.68    1.82 
  -1   3   2   51.21    1.94 
   0  -3   2  137.08    4.26 
   0   3   2  135.11    4.44 
   0   3  -2  133.94    4.30 
  -1  -3  -2   20.82    0.91 
   1  -3   2   21.46    0.96 
  -1  -3  -2   21.53    0.90 
   1  -3   2   22.81    0.83 
  -1   3  -2   21.35    0.81 
   2  -3   2    1.56    0.24 
   2  -3   2    1.36    0.15 
  -2  -3  -2    1.77    0.19 
  -2  -3  -2    1.71    0.23 
  -2   3  -2    1.77    0.16 
   3  -3   2    0.39    0.13 
  -3  -3  -2    0.34    0.12 
  -3   3  -2    0.47    0.11 
  -4  -3  -2   26.53    1.10 
   4  -3   2   25.61    1.11 
  -4   3  -2   24.29    1.01 
  -5  -3  -2   33.12    1.35 
   5  -3   2   31.70    1.34 
  -5   3  -2   32.23    1.27 
  -6  -3  -2    7.17    0.49 
   6  -3   2    6.22    0.46 
  -6   3  -2    7.13    0.46 
   7  -3   2   24.06    1.12 
  -7  -3  -2   23.75    1.12 
  -7   3  -2   24.09    1.10 
  -8  -3  -2   36.10    1.57 
   8  -3   2   36.27    1.55 
  -9  -3  -2   10.87    0.72 
   9  -3   2   10.82    0.70 
 -10  -3  -2    3.58    0.48 
   9  -4  -2    0.83    0.23 
  -9  -4   2    0.89    0.24 
  -9   4   2    0.89    0.24 
   8  -4  -2    1.98    0.31 
  -8  -4   2    1.66    0.32 
  -8   4   2    2.20    0.36 
  -7  -4   2   37.46    1.62 
   7  -4  -2   39.63    1.61 
  -7   4   2   38.75    1.64 
  -6  -4   2    4.24    0.40 
   6  -4  -2    4.62    0.37 
  -6   4   2    3.11    0.34 
  -5  -4   2    6.09    0.47 
   5  -4  -2    6.13    0.45 
  -4  -4   2   19.69    0.94 
   4  -4  -2   19.65    0.93 
  -4   4   2   20.11    0.93 
   3  -4  -2   36.35    1.47 
  -3  -4   2   35.24    1.42 
  -3   4   2   35.40    1.43 
   2  -4  -2    1.63    0.27 
  -2  -4   2    1.47    0.25 
  -2   4   2    1.71    0.27 
   1  -4  -2   38.09    1.43 
  -1  -4   2   38.27    1.44 
  -1   4   2   38.21    1.51 
   0  -4  -2    2.08    0.29 
   0  -4   2    2.37    0.34 
   0  -4   2    2.33    0.24 
   0   4   2    2.69    0.29 
  -1  -4  -2    2.34    0.25 
   1  -4   2    2.71    0.30 
  -1  -4  -2    2.55    0.26 
  -1  -4  -2    2.51    0.33 
   2  -4   2   18.13    0.94 
  -2  -4  -2   19.38    0.90 
  -2  -4  -2   18.47    0.87 
  -3  -4  -2   39.23    1.58 
   3  -4   2   40.12    1.65 
  -4  -4  -2    2.60    0.29 
   4  -4   2    2.81    0.32 
  -5  -4  -2   26.22    1.20 
   5  -4   2   26.60    1.23 
   6  -4   2    0.86    0.22 
  -6  -4  -2    0.59    0.19 
   7  -4   2   13.99    0.84 
  -7  -4  -2   14.18    0.82 
  -8  -4  -2    5.35    0.50 
   6  -5  -2    0.29    0.17 
  -6  -5   2    0.21    0.19 
  -5  -5   2   12.41    0.79 
   5  -5  -2   11.84    0.74 
  -4  -5   2    0.30    0.19 
   4  -5  -2    0.65    0.20 
  -3  -5   2    3.74    0.38 
   3  -5  -2    3.66    0.38 
   2  -5  -2   10.06    0.67 
  -1  -5   2   37.05    1.69 
   1  -5  -2   38.97    1.64 
   0  -5   2   -0.07    0.13 
   0  -5  -2    0.13    0.15 
   1  -5   2    2.60    0.41 
  -2  -5  -2    0.05    0.14 
   2  -5   2    0.11    0.16 
   3  -5   2    0.04    0.13 
  -3  -5  -2    0.08    0.15 
  -4  -5  -2    0.97    0.27 
 -14   0   3    0.08    0.14 
 -13   0   3    3.04    0.42 
 -12   0   3    0.04    0.09 
 -11   0   3    2.43    0.33 
 -10   0   3    0.19    0.10 
  -9   0   3  116.79    3.83 
  -9   0   3  111.09    3.58 
  -8   0   3    0.05    0.05 
  -8   0   3   -0.06    0.04 
  -7   0   3  287.15    8.94 
  -7   0   3  303.66    9.33 
  -6   0   3   -0.01    0.03 
  -6   0   3    0.12    0.06 
  -5   0   3   28.56    1.02 
  -5   0   3   26.82    0.94 
  -4   0   3   -0.02    0.02 
  -4   0   3    0.17    0.06 
  -3   0   3 1000.00   31.30 
  -2   0   3    0.04    0.02 
  -2   0   3    0.03    0.02 
  -1   0   3  239.70    7.43 
  -1   0   3  253.39    7.67 
   0   0   3   -0.30    0.03 
   0   0  -3   -0.44    0.02 
   0   0  -3   -0.41    0.03 
   0   0   3   -0.26    0.05 
  -1   0  -3  114.81    3.72 
   1   0   3  116.78    3.61 
   1   0   3  119.95    3.74 
   3   0   3   14.99    0.61 
  -3   0  -3   14.98    0.64 
  -4   0  -3   -0.01    0.05 
   4   0   3   -0.02    0.05 
  -5   0  -3   56.34    2.01 
  -6   0  -3    0.02    0.06 
  -7   0  -3   92.09    3.20 
  -8   0  -3    0.08    0.10 
  -9   0  -3   33.66    1.47 
 -10   0  -3    0.00    0.11 
 -11   0  -3    6.88    0.58 
 -14  -1   3    0.06    0.14 
 -13  -1   3   10.18    0.67 
 -13   1   3    9.55    0.68 
 -12  -1   3    2.73    0.37 
 -12   1   3    3.07    0.34 
 -11  -1   3   58.43    2.23 
 -11  -1   3   62.15    2.13 
 -11   1   3   59.14    2.27 
 -10  -1   3    4.85    0.37 
 -10   1   3    4.67    0.39 
  -9  -1   3   27.03    1.13 
  -9  -1   3   28.32    1.09 
  -9   1   3   28.04    1.17 
  -8  -1   3    0.09    0.08 
  -8  -1   3    0.08    0.07 
  -8   1   3    0.12    0.08 
   7  -1  -3  151.50    4.82 
  -7  -1   3  151.41    4.76 
  -7  -1   3  148.54    4.62 
  -7   1   3  148.72    4.80 
  -7   1   3  136.86    4.43 
  -6  -1   3   27.09    0.99 
  -6  -1   3   25.59    0.98 
   6  -1  -3   27.83    1.01 
  -6   1   3   25.62    1.03 
  -6   1   3   26.24    0.84 
  -5  -1   3  279.21    8.45 
   5  -1  -3  282.92    8.82 
  -5  -1   3  283.79    8.68 
  -5   1   3  281.55    8.75 
  -5   1   3  260.39    8.31 
   4  -1  -3   51.25    1.69 
  -4  -1   3   49.53    1.65 
  -4  -1   3   48.91    1.66 
  -4   1   3   50.71    1.56 
  -4   1   3   51.30    1.73 
  -3  -1   3  366.18   11.06 
  -3  -1   3  356.46   11.38 
   3  -1  -3  364.42   11.57 
  -3   1   3  365.41   10.99 
  -3   1   3  380.37   11.45 
   2  -1  -3    0.33    0.05 
  -2   1   3    0.49    0.09 
  -2   1   3    0.36    0.06 
   2   1  -3    0.31    0.03 
  -1   1   3    5.19    0.28 
  -1   1   3    5.07    0.26 
   0  -1   3   12.66    0.48 
   0  -1   3   12.90    0.53 
   0   1  -3   13.05    0.46 
   0   1   3   12.93    0.53 
   0   1   3   12.40    0.54 
   1  -1   3  254.88    7.73 
  -1  -1  -3  255.98    8.05 
  -1  -1  -3  255.24    7.92 
   1  -1   3  263.26    8.16 
  -1   1  -3  251.76    7.97 
  -2  -1  -3    4.46    0.28 
   2  -1   3    3.97    0.24 
   2  -1   3    4.22    0.22 
  -2   1  -3    4.16    0.23 
   3  -1   3  131.13    4.37 
   3  -1   3  134.59    4.13 
  -3  -1  -3  136.66    4.37 
   4  -1   3    6.98    0.38 
   4  -1   3    7.67    0.35 
  -4  -1  -3    6.35    0.40 
  -4   1  -3    7.66    0.40 
  -5  -1  -3   15.53    0.75 
   5  -1   3   15.64    0.65 
   5  -1   3   17.11    0.73 
  -5   1  -3   17.32    0.75 
   6  -1   3    0.31    0.13 
  -6  -1  -3    0.43    0.14 
  -6   1  -3    0.35    0.13 
   7  -1   3   52.98    1.92 
  -7  -1  -3   50.32    1.96 
  -7   1  -3   51.03    1.94 
   8  -1   3    4.17    0.36 
  -8  -1  -3    4.86    0.41 
  -8   1  -3    4.49    0.39 
  -9  -1  -3   53.38    2.12 
  -9   1  -3   54.30    2.11 
 -10  -1  -3   10.21    0.71 
 -10   1  -3   12.50    0.76 
 -11  -1  -3   13.30    0.87 
 -11   1  -3   15.07    0.89 
 -13  -2   3    1.21    0.27 
 -13  -2   3    1.98    0.33 
 -13   2   3    1.65    0.33 
 -12  -2   3    0.14    0.12 
 -12  -2   3    0.18    0.15 
 -12   2   3    0.26    0.14 
 -11  -2   3    2.53    0.34 
 -11  -2   3    2.74    0.36 
 -11   2   3    3.32    0.36 
 -10  -2   3    2.49    0.27 
  10  -2  -3    2.36    0.26 
 -10  -2   3    2.85    0.30 
 -10   2   3    1.98    0.32 
  -9  -2   3   57.04    2.05 
   9  -2  -3   55.90    2.06 
  -9  -2   3   55.92    2.04 
  -9   2   3   56.21    2.14 
  -8  -2   3   56.97    2.05 
   8  -2  -3   57.09    2.07 
  -8  -2   3   59.62    2.05 
  -8   2   3   56.62    2.13 
   7  -2  -3   83.67    2.88 
  -7  -2   3   85.49    2.84 
  -7  -2   3   84.87    2.84 
  -7   2   3   84.35    2.93 
  -6  -2   3   18.66    0.78 
   6  -2  -3   14.75    0.70 
  -6  -2   3   17.57    0.70 
  -6   2   3   17.71    0.79 
  -5  -2   3   25.71    0.92 
  -5  -2   3   25.50    1.00 
   5  -2  -3   25.26    0.98 
  -5   2   3   25.78    1.04 
   4  -2  -3   13.90    0.59 
  -4  -2   3   13.63    0.53 
  -4  -2   3   14.22    0.62 
  -3  -2   3  432.82   13.48 
   3  -2  -3  450.02   13.78 
  -3  -2   3  435.20   13.21 
  -3   2   3  427.12   13.65 
  -2  -2   3  155.47    4.81 
   2  -2  -3  152.20    4.99 
  -2  -2   3  158.32    4.82 
  -2   2   3  154.77    4.99 
  -1  -2   3   41.15    1.42 
  -1   2   3   43.37    1.52 
   0  -2   3    5.78    0.28 
   0   2   3    4.97    0.32 
   0   2  -3    5.26    0.22 
  -1  -2  -3   77.95    2.61 
  -1  -2  -3   81.12    2.66 
   1  -2   3   77.96    2.47 
   1  -2   3   77.97    2.69 
  -1   2  -3   78.14    2.51 
  -2  -2  -3    1.59    0.21 
   2  -2   3    1.47    0.20 
  -2  -2  -3    1.59    0.21 
   2  -2   3    1.70    0.14 
  -2   2  -3    1.94    0.15 
   3  -2   3   13.64    0.65 
  -3  -2  -3   12.80    0.64 
   3  -2   3   13.08    0.52 
  -3   2  -3   14.12    0.59 
  -4  -2  -3    3.93    0.32 
   4  -2   3    4.02    0.31 
   4  -2   3    3.66    0.23 
  -4   2  -3    3.94    0.28 
  -5  -2  -3   69.63    2.48 
   5  -2   3   69.94    2.47 
  -5   2  -3   68.13    2.41 
   6  -2   3   33.31    1.32 
  -6  -2  -3   30.96    1.33 
  -7  -2  -3   13.54    0.76 
   7  -2   3   12.97    0.71 
  -7   2  -3   13.44    0.72 
  -8  -2  -3    1.40    0.27 
   8  -2   3    1.80    0.29 
  -8   2  -3    1.82    0.30 
   9  -2   3   35.67    1.52 
  -9  -2  -3   35.61    1.58 
  -9   2  -3   35.53    1.54 
 -10  -2  -3   11.02    0.76 
  10  -2   3   11.51    0.73 
 -10   2  -3   11.05    0.73 
 -11   2  -3   -0.05    0.13 
  12  -3  -3    8.30    0.60 
 -12  -3   3    8.37    0.62 
 -12   3   3    8.11    0.66 
  11  -3  -3    8.01    0.56 
 -11  -3   3    7.52    0.57 
 -11   3   3    7.87    0.62 
  10  -3  -3   16.29    0.85 
 -10  -3   3   16.25    0.89 
 -10   3   3   16.00    0.92 
   9  -3  -3   14.84    0.77 
  -9  -3   3   15.33    0.83 
  -9   3   3   15.07    0.85 
  -8  -3   3    0.22    0.12 
   8  -3  -3    0.11    0.09 
  -8   3   3    0.45    0.17 
   7  -3  -3   72.01    2.57 
  -7  -3   3   73.20    2.57 
  -7   3   3   72.05    2.64 
   6  -3  -3   76.83    2.68 
  -6  -3   3   77.79    2.66 
  -6   3   3   75.86    2.73 
   5  -3  -3    1.68    0.22 
  -5  -3   3    1.43    0.23 
  -4  -3   3   31.74    1.24 
   4  -3  -3   31.17    1.23 
  -4   3   3   32.56    1.28 
   3  -3  -3  134.58    4.70 
  -3  -3   3  149.42    4.57 
  -3   3   3  145.18    4.71 
  -2  -3   3   38.45    1.40 
   2  -3  -3   37.58    1.43 
  -2   3   3   39.06    1.47 
  -1  -3   3    6.83    0.38 
  -1   3   3    6.29    0.42 
   0  -3   3   47.19    1.61 
   0  -3   3   45.65    1.78 
   0   3   3   48.24    1.75 
   1  -3   3   22.89    0.87 
   1  -3   3   24.05    1.04 
  -1  -3  -3   24.10    0.98 
  -1  -3  -3   22.74    0.99 
  -2  -3  -3   25.71    1.06 
  -2  -3  -3   25.67    1.08 
   2  -3   3   24.67    0.91 
   2  -3   3   25.24    1.10 
  -3  -3  -3   30.62    1.28 
   3  -3   3   30.57    1.28 
  -4  -3  -3    6.55    0.47 
   4  -3   3    7.71    0.50 
   5  -3   3   12.93    0.71 
  -5  -3  -3   12.93    0.73 
   6  -3   3   20.06    0.98 
  -6  -3  -3   20.23    1.00 
  -7  -3  -3    1.14    0.25 
   7  -3   3    1.29    0.26 
  -8  -3  -3    3.02    0.42 
   9  -3   3    7.71    0.58 
  -9  -3  -3    7.43    0.60 
  10  -4  -3   15.78    0.88 
 -10   4   3   15.18    0.94 
  -9  -4   3    5.23    0.49 
   9  -4  -3    6.10    0.48 
  -9   4   3    5.30    0.51 
   8  -4  -3    7.93    0.53 
  -8  -4   3    7.16    0.56 
  -8   4   3    6.83    0.56 
   7  -4  -3    4.76    0.39 
  -7  -4   3    4.33    0.42 
  -7   4   3    4.78    0.44 
  -6  -4   3   64.61    2.36 
   6  -4  -3   64.73    2.36 
  -6   4   3   62.28    2.39 
   5  -4  -3    1.15    0.22 
  -5  -4   3    0.93    0.22 
  -5   4   3    0.68    0.20 
  -4  -4   3   51.63    1.98 
   4  -4  -3   52.87    2.01 
  -4   4   3   56.89    2.07 
  -3  -4   3    8.27    0.52 
   3  -4  -3    9.46    0.56 
  -3   4   3    8.40    0.55 
   2  -4  -3   17.64    0.86 
  -2  -4   3   19.19    0.86 
  -2   4   3   18.43    0.90 
   1  -4  -3   11.51    0.64 
  -1  -4   3   11.58    0.59 
  -1   4   3   11.41    0.66 
   0  -4   3   40.05    1.46 
   0  -4   3   37.23    1.63 
   0   4   3   42.06    1.61 
   1  -4   3    6.89    0.51 
  -1  -4  -3    6.50    0.46 
  -1  -4  -3    7.01    0.48 
  -2  -4  -3    3.89    0.36 
  -2  -4  -3    3.47    0.33 
   2  -4   3    3.73    0.36 
  -3  -4  -3    1.02    0.23 
   3  -4   3    0.94    0.22 
   4  -4   3    0.91    0.22 
  -4  -4  -3    0.88    0.23 
   5  -4   3    9.41    0.63 
  -5  -4  -3    8.82    0.62 
  -6  -4  -3   14.85    0.85 
   6  -4   3   14.20    0.83 
  -7  -4  -3    3.19    0.44 
   7  -5  -3    0.28    0.17 
  -6  -5   3   23.62    1.19 
   6  -5  -3   23.88    1.15 
   5  -5  -3    3.03    0.34 
  -5  -5   3    2.76    0.41 
  -4  -5   3   14.36    0.82 
  -3  -5   3    0.29    0.15 
  -1  -5   3    0.99    0.28 
   0  -5   3    5.20    0.50 
   1  -5   3    0.66    0.24 
   2  -5   3   19.00    1.06 
  -2  -5  -3   19.03    1.03 
  -3  -5  -3    4.54    0.48 
 -14   0   4    4.43    0.45 
 -13   0   4   -0.03    0.10 
 -12   0   4   10.22    0.64 
 -11   0   4    0.06    0.07 
 -10   0   4   44.05    1.69 
  -9   0   4   -0.03    0.05 
  -9   0   4    0.03    0.06 
  -8   0   4   83.31    2.66 
  -8   0   4   84.37    2.85 
  -7   0   4    1.07    0.13 
  -6   0   4   30.07    1.08 
  -6   0   4   27.98    0.98 
  -5   0   4    0.02    0.03 
  -5   0   4    0.05    0.04 
  -4   0   4  994.13   31.04 
  -3   0   4   -0.32    0.05 
  -3   0   4   -0.43    0.03 
  -2   0   4  358.11   10.95 
  -2   0   4  342.50   10.62 
  -1   0   4   -0.12    0.02 
  -1   0   4   -0.15    0.04 
  -1   0   4   -0.13    0.04 
   0   0  -4    0.04    0.05 
   0   0   4    0.24    0.05 
   0   0  -4    0.06    0.05 
   0   0   4    0.18    0.07 
  -1   0  -4    0.01    0.04 
   1   0   4   -0.02    0.03 
   1   0   4   -0.04    0.04 
   2   0   4  121.78    3.75 
  -2   0  -4  119.97    3.87 
   2   0   4  116.80    3.86 
   3   0   4    0.01    0.05 
  -3   0  -4   -0.01    0.04 
   3   0   4    0.02    0.05 
   4   0   4  458.70   13.32 
  -4   0  -4  418.97   13.77 
  -5   0  -4    0.05    0.07 
  -6   0  -4   17.37    0.84 
  -7   0  -4    0.12    0.11 
  -8   0  -4   53.61    2.09 
  -9   0  -4    0.03    0.10 
 -10   0  -4   24.53    1.24 
 -14  -1   4    8.78    0.64 
 -14   1   4    8.36    0.65 
 -13  -1   4    0.64    0.20 
 -13   1   4    0.59    0.19 
 -12  -1   4    1.59    0.27 
 -12   1   4    1.74    0.29 
 -11  -1   4    0.37    0.13 
 -11  -1   4    0.25    0.13 
 -11   1   4    0.31    0.13 
 -10  -1   4    0.05    0.07 
 -10   1   4    0.81    0.18 
  -9  -1   4    0.73    0.15 
  -9  -1   4    0.67    0.15 
  -9   1   4    0.56    0.14 
  -8  -1   4  155.28    4.80 
  -8  -1   4  152.20    4.94 
  -8   1   4  150.13    5.01 
  -7  -1   4   34.48    1.27 
  -7  -1   4   35.15    1.26 
  -7   1   4   34.98    1.12 
  -7   1   4   35.52    1.33 
   6  -1  -4   99.02    3.14 
  -6  -1   4   95.15    3.09 
  -6  -1   4   91.17    3.03 
  -6   1   4   95.15    3.17 
  -6   1   4   95.18    2.91 
  -5  -1   4    2.03    0.17 
   5  -1  -4    2.22    0.17 
  -5  -1   4    2.21    0.15 
  -4  -1   4  464.88   13.79 
  -4  -1   4  455.21   14.24 
   4  -1  -4  449.34   14.38 
  -4   1   4  447.98   13.76 
  -4   1   4  469.47   14.27 
  -3  -1   4   26.13    0.83 
  -3  -1   4   23.87    0.88 
   3  -1  -4   24.23    0.84 
  -3   1   4   26.68    0.95 
  -3   1   4   22.87    0.84 
   2  -1  -4  536.53   17.55 
  -2  -1   4  541.37   16.88 
  -2  -1   4  582.36   17.31 
  -2   1   4  575.20   17.51 
   1  -1  -4   98.85    3.06 
  -1  -1   4   97.77    3.02 
  -1   1   4   97.56    3.17 
  -1   1   4   98.52    3.06 
   1   1  -4   92.05    3.03 
   0  -1   4  567.73   16.79 
   0  -1   4  581.96   17.38 
   0   1  -4  507.97   17.09 
   0   1   4  534.18   16.60 
   0   1   4  564.99   17.15 
   1  -1   4   71.93    2.40 
   1  -1   4   74.42    2.28 
  -1  -1  -4   69.58    2.40 
   1   1   4   70.89    2.35 
  -1   1  -4   71.44    2.33 
   2  -1   4   22.60    0.88 
   2  -1   4   23.17    0.83 
  -2  -1  -4   22.63    0.93 
  -2   1  -4   24.12    0.87 
  -3  -1  -4   19.22    0.90 
   3  -1   4   23.24    0.83 
   3  -1   4   23.53    0.89 
  -3   1  -4   22.83    0.87 
   4  -1   4    2.15    0.20 
  -4  -1  -4    2.12    0.23 
   4  -1   4    1.90    0.18 
  -4   1  -4    1.93    0.19 
   5  -1   4   13.58    0.62 
   5  -1   4   14.77    0.68 
  -5  -1  -4   14.89    0.73 
  -5   1  -4   14.25    0.69 
   6  -1   4   39.16    1.50 
  -6  -1  -4   39.46    1.57 
  -6   1  -4   37.43    1.51 
  -7  -1  -4   30.08    1.32 
   7  -1   4   30.60    1.27 
  -7   1  -4   30.15    1.29 
  -8  -1  -4   50.75    1.99 
   8  -1   4   48.23    1.91 
  -8   1  -4   49.27    1.94 
  -9  -1  -4    1.72    0.31 
  -9   1  -4    2.04    0.33 
 -10  -1  -4    7.51    0.61 
 -10   1  -4    8.11    0.61 
 -14  -2   4    1.62    0.32 
 -13  -2   4    0.19    0.16 
 -13  -2   4    0.37    0.16 
 -13   2   4    0.20    0.16 
 -12  -2   4   12.39    0.73 
 -12  -2   4   13.72    0.75 
 -12   2   4   13.23    0.82 
 -11  -2   4    9.47    0.59 
 -11  -2   4    9.87    0.58 
 -11   2   4    9.49    0.65 
 -10  -2   4    6.40    0.43 
  10  -2  -4    7.20    0.46 
 -10  -2   4    6.53    0.46 
 -10   2   4    7.22    0.52 
  -9  -2   4    0.82    0.16 
   9  -2  -4    0.74    0.17 
  -9  -2   4    0.83    0.19 
  -9   2   4    0.90    0.21 
   8  -2  -4   89.55    3.06 
  -8  -2   4   88.77    2.99 
  -8  -2   4   91.20    3.01 
  -8   2   4   87.99    3.13 
  -7  -2   4   37.11    1.36 
  -7  -2   4   35.07    1.29 
   7  -2  -4   35.32    1.33 
  -7   2   4   35.37    1.42 
  -6  -2   4   98.73    3.19 
  -6  -2   4   98.11    3.22 
   6  -2  -4   98.83    3.28 
  -6   2   4   98.34    3.35 
   5  -2  -4  130.36    4.17 
  -5  -2   4  124.32    4.04 
  -5  -2   4  125.32    4.05 
  -5   2   4  130.30    4.22 
   4  -2  -4  140.53    4.46 
  -4  -2   4  137.21    4.32 
  -4  -2   4  136.62    4.35 
  -4   2   4  138.01    4.52 
   3  -2  -4   40.69    1.43 
  -3  -2   4   42.55    1.46 
  -3   2   4   42.31    1.53 
  -2  -2   4  223.28    6.79 
   2  -2  -4  218.75    7.04 
  -2   2   4  221.97    7.07 
  -1  -2   4   53.23    1.74 
  -1   2   4   51.80    1.86 
   0  -2   4    3.67    0.27 
   0  -2   4    3.39    0.22 
   0   2  -4    3.52    0.16 
   0   2   4    3.97    0.29 
   1  -2   4   11.50    0.46 
   1  -2   4   11.42    0.55 
  -1  -2  -4    8.91    0.51 
  -1  -2  -4    9.00    0.50 
  -1   2  -4   11.49    0.42 
   2  -2   4  101.08    3.23 
   2  -2   4  107.61    3.50 
  -2  -2  -4  101.89    3.47 
  -2  -2  -4  102.09    3.41 
  -2   2  -4  103.95    3.33 
   3  -2   4   70.66    2.28 
  -3  -2  -4   69.99    2.49 
   3  -2   4   71.87    2.51 
  -3   2  -4   71.92    2.39 
   4  -2   4   99.85    3.18 
  -4  -2  -4  100.40    3.45 
   4  -2   4  102.36    3.43 
  -4   2  -4   99.39    3.34 
  -5  -2  -4    4.80    0.39 
   5  -2   4    5.33    0.39 
  -5   2  -4    4.98    0.35 
  -6  -2  -4    7.08    0.51 
   6  -2   4    7.41    0.49 
  -6   2  -4    8.39    0.50 
  -7  -2  -4    1.76    0.29 
  -7   2  -4    1.42    0.24 
  -8  -2  -4    4.07    0.40 
   8  -2   4    2.98    0.34 
  -8   2  -4    2.97    0.33 
  -9   2  -4    0.81    0.22 
 -10   2  -4    3.75    0.49 
 -12  -3   4    3.20    0.43 
  12  -3  -4    3.28    0.36 
 -12   3   4    2.71    0.44 
  11  -3  -4    1.69    0.30 
 -11  -3   4    2.09    0.34 
 -11   3   4    1.70    0.33 
 -10  -3   4    5.87    0.48 
  10  -3  -4    6.55    0.46 
 -10   3   4    5.68    0.51 
   9  -3  -4   17.53    0.82 
  -9  -3   4   16.90    0.87 
  -9   3   4   14.80    0.88 
   8  -3  -4   13.09    0.67 
  -8  -3   4   12.99    0.71 
  -8   3   4   12.24    0.74 
   7  -3  -4   10.45    0.55 
  -7  -3   4   10.21    0.60 
  -7   3   4    9.91    0.62 
   6  -3  -4   40.32    1.48 
  -6  -3   4   37.26    1.50 
  -6   3   4   38.73    1.57 
  -5  -3   4   88.66    3.00 
   5  -3  -4   89.21    3.03 
  -5   3   4   89.89    3.11 
   4  -3  -4   13.47    0.62 
  -4  -3   4   12.71    0.65 
  -4   3   4   14.29    0.71 
   3  -3  -4    5.00    0.35 
  -3  -3   4    7.41    0.43 
  -3   3   4    8.50    0.49 
  -2  -3   4   37.93    1.37 
   2  -3  -4   36.27    1.38 
  -2   3   4   38.63    1.47 
  -1  -3   4   93.61    3.03 
  -1   3   4   93.84    3.22 
   0  -3   4   78.46    2.50 
   0  -3   4   75.60    2.73 
   0   3   4   75.54    2.69 
   1  -3   4   68.11    2.42 
  -1  -3  -4   64.66    2.34 
  -1  -3  -4   67.29    2.38 
   1  -3   4   65.18    2.17 
  -2  -3  -4   16.88    0.80 
   2  -3   4   16.63    0.82 
   2  -3   4   15.54    0.65 
  -2  -3  -4   16.68    0.81 
  -3  -3  -4    0.03    0.09 
   3  -3   4    0.07    0.09 
  -4  -3  -4    0.36    0.14 
   4  -3   4    0.70    0.18 
  -5  -3  -4    0.72    0.20 
   5  -3   4    0.73    0.20 
   6  -3   4   11.39    0.69 
  -6  -3  -4   10.30    0.68 
   7  -3   4   16.64    0.88 
  -7  -3  -4   15.33    0.89 
  -8  -3  -4   13.72    0.86 
   8  -3   4   11.86    0.75 
  10  -4  -4    3.13    0.41 
 -10   4   4    3.35    0.49 
  -9  -4   4   13.19    0.82 
   9  -4  -4   14.46    0.79 
  -9   4   4   14.38    0.89 
  -8  -4   4    2.25    0.35 
   8  -4  -4    1.99    0.30 
  -8   4   4    1.94    0.34 
  -7  -4   4    0.32    0.16 
   7  -4  -4    0.63    0.17 
  -7   4   4    0.66    0.20 
  -6  -4   4    5.91    0.47 
   6  -4  -4    5.85    0.42 
  -6   4   4    6.01    0.48 
  -5  -4   4   36.87    1.50 
   5  -4  -4   36.20    1.47 
  -5   4   4   37.93    1.56 
  -4  -4   4   11.21    0.64 
   4  -4  -4   11.23    0.61 
  -4   4   4   11.28    0.68 
  -3  -4   4   48.79    1.82 
   3  -4  -4   49.92    1.85 
  -3   4   4   48.32    1.91 
   2  -4  -4    7.20    0.47 
  -2  -4   4    7.34    0.46 
  -2   4   4    7.13    0.51 
  -1  -4   4   19.92    1.01 
  -1  -4   4   20.77    0.88 
  -1   4   4   19.39    0.96 
   0  -4   4    0.87    0.18 
   0  -4   4    0.67    0.19 
   0  -4  -4    0.77    0.19 
   0  -4  -4    0.76    0.19 
   1  -4   4    5.72    0.47 
  -1  -4  -4    6.21    0.47 
  -1  -4  -4    5.91    0.45 
   2  -4   4    3.46    0.38 
  -2  -4  -4    3.14    0.34 
  -2  -4  -4    4.00    0.37 
  -3  -4  -4   36.82    1.57 
   3  -4   4   36.81    1.58 
  -4  -4  -4   15.30    0.86 
   4  -4   4   14.09    0.83 
  -5  -4  -4   10.78    0.73 
   5  -4   4   12.32    0.75 
  -6  -4  -4    1.20    0.28 
   6  -4   4    0.90    0.25 
  -6  -5   4   -0.02    0.16 
  -5  -5   4   23.50    1.16 
  -4  -5   4    0.31    0.18 
  -2  -5   4    1.05    0.29 
  -1  -5   4   22.30    1.20 
   0  -5   4    1.35    0.32 
   1  -5   4   25.66    1.31 
  -2  -5  -4    0.49    0.21 
 -14   0   5    0.06    0.12 
 -13   0   5   33.73    1.47 
 -12   0   5   -0.02    0.07 
 -11   0   5    8.84    0.55 
 -10   0   5   -0.01    0.05 
 -10   0   5   -0.04    0.05 
  -9   0   5   14.79    0.61 
  -9   0   5   15.39    0.72 
  -8   0   5    0.00    0.04 
  -8   0   5    0.01    0.04 
  -7   0   5  393.21   11.99 
  -7   0   5  371.19   11.53 
  -6   0   5   -0.04    0.04 
  -6   0   5   -0.03    0.03 
  -5   0   5    0.81    0.13 
  -4   0   5    0.01    0.03 
  -4   0   5    0.09    0.05 
  -3   0   5  374.45   11.58 
  -3   0   5  393.81   11.96 
  -2   0   5    0.00    0.04 
  -2   0   5    0.04    0.03 
  -1   0   5    0.32    0.09 
  -1   0   5    0.07    0.07 
  -1   0   5   -0.06    0.03 
   0   0  -5    0.04    0.03 
   0   0   5    0.18    0.04 
   0   0  -5    0.07    0.04 
   0   0   5   -0.02    0.03 
  -1   0  -5  912.15   26.36 
   1   0   5  796.18   26.56 
   1   0   5  814.40   25.57 
   2   0   5    0.03    0.06 
   2   0   5   -0.03    0.06 
  -2   0  -5   -0.02    0.05 
   3   0   5   67.62    2.28 
   3   0   5   70.21    2.31 
  -3   0  -5   66.32    2.35 
  -4   0  -5    0.00    0.06 
   4   0   5    0.00    0.05 
  -5   0  -5    1.49    0.24 
  -6   0  -5    0.13    0.10 
  -7   0  -5   48.95    1.93 
  -8   0  -5    0.01    0.09 
  -9   0  -5   30.32    1.43 
 -10   0  -5   -0.02    0.13 
 -14  -1   5    1.86    0.33 
 -14   1   5    1.66    0.33 
 -13  -1   5    4.07    0.39 
 -13   1   5    4.00    0.41 
 -12  -1   5    0.77    0.19 
 -12  -1   5    0.66    0.16 
 -12   1   5    0.42    0.16 
 -11  -1   5   58.20    2.15 
 -11   1   5   58.76    2.22 
 -10  -1   5   25.57    1.07 
 -10  -1   5   25.73    1.02 
 -10   1   5   24.97    1.12 
  -9  -1   5    5.73    0.37 
  -9  -1   5    6.08    0.37 
  -9   1   5    5.67    0.40 
  -8  -1   5   18.29    0.77 
  -8  -1   5   18.47    0.77 
  -8   1   5   18.60    0.84 
  -7  -1   5   46.64    1.62 
  -7  -1   5   47.63    1.63 
  -7   1   5   45.54    1.50 
  -7   1   5   47.35    1.71 
  -6  -1   5   55.67    1.89 
  -6  -1   5   59.39    1.91 
  -6   1   5   56.26    1.80 
  -6   1   5   55.94    2.00 
  -5  -1   5    1.26    0.11 
  -5  -1   5    1.19    0.13 
  -5   1   5    1.31    0.18 
  -5   1   5    1.18    0.11 
  -4  -1   5   39.28    1.29 
  -4  -1   5   38.83    1.32 
  -4   1   5   39.35    1.41 
  -4   1   5   37.84    1.29 
  -3  -1   5  327.64   10.23 
  -3  -1   5  322.67   10.00 
  -3   1   5  341.26   10.38 
  -2  -1   5   62.72    1.92 
   2   1  -5   57.82    1.88 
  -2   1   5   60.81    2.03 
   2   1  -5   56.77    1.85 
  -2   1   5   58.09    1.93 
  -1  -1   5  428.01   12.62 
  -1   1   5  432.79   13.09 
  -1   1   5  406.48   12.66 
   1   1  -5  406.21   12.94 
   0  -1   5    0.49    0.09 
   0   1   5    0.06    0.06 
   0   1   5    0.27    0.08 
  -1  -1  -5    1.24    0.18 
  -1  -1  -5    1.32    0.15 
   1  -1   5    1.32    0.14 
  -1   1  -5    1.27    0.13 
   1   1   5    1.22    0.19 
   2  -1   5   13.89    0.56 
   2  -1   5   12.29    0.55 
  -2  -1  -5   10.65    0.58 
   2   1   5   12.52    0.60 
  -2   1  -5   12.93    0.55 
   3  -1   5   12.03    0.58 
   3  -1   5   15.44    0.60 
  -3  -1  -5   12.14    0.64 
  -3   1  -5   12.29    0.59 
   4  -1   5   51.76    1.83 
  -4  -1  -5   55.52    1.99 
   4  -1   5   53.78    1.92 
   5  -1   5  298.69    9.47 
  -5  -1  -5  310.27    9.89 
   5  -1   5  311.13    9.93 
  -5   1  -5  315.60    9.85 
  -6  -1  -5    0.13    0.12 
   6  -1   5    0.37    0.14 
  -6   1  -5    0.33    0.13 
   7  -1   5    4.92    0.40 
  -7  -1  -5    6.27    0.48 
  -7   1  -5    5.65    0.45 
  -8  -1  -5    0.74    0.21 
  -8   1  -5    1.21    0.26 
  -9  -1  -5    0.08    0.12 
  -9   1  -5    0.01    0.10 
 -10   1  -5    0.68    0.23 
 -13  -2   5    5.36    0.45 
 -13  -2   5    6.07    0.47 
 -13   2   5    5.31    0.50 
 -12  -2   5    0.14    0.09 
 -12  -2   5   -0.11    0.10 
 -12   2   5   -0.04    0.09 
 -11  -2   5    4.77    0.37 
 -11  -2   5    4.65    0.38 
 -11   2   5    3.79    0.39 
 -10  -2   5    0.86    0.19 
 -10  -2   5    0.83    0.17 
 -10   2   5    0.92    0.21 
  -9  -2   5    6.82    0.45 
  -9  -2   5    6.43    0.39 
   9  -2  -5    6.90    0.42 
  -9   2   5    6.56    0.48 
   8  -2  -5   13.49    0.63 
  -8  -2   5   13.24    0.60 
  -8  -2   5   13.03    0.66 
  -8   2   5   12.81    0.71 
  -7  -2   5   63.84    2.15 
   7  -2  -5   59.58    2.21 
  -7  -2   5   65.64    2.22 
  -7   2   5   69.09    2.36 
  -6  -2   5   11.08    0.47 
  -6  -2   5   10.96    0.57 
   6  -2  -5   11.33    0.51 
  -6   2   5   12.65    0.63 
  -5  -2   5   53.17    1.89 
   5  -2  -5   55.24    1.87 
  -5  -2   5   54.41    1.78 
  -5   2   5   57.60    2.01 
  -4  -2   5   45.25    1.54 
   4  -2  -5   38.32    1.48 
  -4   2   5   48.68    1.65 
   3  -2  -5   72.73    2.27 
  -3  -2   5   72.15    2.28 
  -3   2   5   61.65    2.37 
  -2  -2   5    4.19    0.27 
   2  -2  -5    4.53    0.22 
  -2   2   5    3.30    0.29 
  -1  -2   5   28.81    1.03 
  -1   2   5   28.45    1.14 
   0  -2   5   25.33    0.90 
   0  -2   5   21.62    0.98 
   0   2   5   25.76    1.03 
   0   2  -5   24.87    0.81 
   1  -2   5  196.59    6.04 
  -1  -2  -5  190.02    6.34 
   1  -2   5  202.66    6.42 
  -1  -2  -5  193.99    6.25 
  -1   2  -5  198.59    6.16 
  -2  -2  -5  142.71    4.80 
   2  -2   5  153.80    4.92 
   2  -2   5  147.68    4.61 
  -2  -2  -5  146.47    4.89 
  -2   2  -5  150.23    4.73 
   3  -2   5  106.65    3.43 
   3  -2   5  111.02    3.68 
  -3  -2  -5  103.91    3.67 
  -3   2  -5  110.81    3.55 
   4  -2   5    2.44    0.22 
  -4  -2  -5    2.62    0.28 
   4  -2   5    2.80    0.27 
  -4   2  -5    2.48    0.23 
  -5  -2  -5    7.28    0.51 
   5  -2   5    7.51    0.48 
  -5   2  -5    7.15    0.45 
   6  -2   5    1.35    0.24 
  -6  -2  -5    0.68    0.18 
  -6   2  -5    0.82    0.17 
   7  -2   5    4.85    0.41 
  -7  -2  -5    4.80    0.45 
  -8  -2  -5   16.07    0.94 
   8  -2   5   17.06    0.90 
   9  -2   5   25.71    1.24 
  -9  -2  -5   25.27    1.30 
  12  -3  -5    6.83    0.53 
 -12  -3   5    7.40    0.57 
 -12   3   5    7.52    0.63 
 -11  -3   5    8.64    0.60 
  11  -3  -5    8.44    0.56 
 -11   3   5    9.34    0.68 
  10  -3  -5   10.20    0.60 
 -10  -3   5    9.86    0.64 
 -10   3   5   10.34    0.70 
  -9  -3   5    7.58    0.53 
   9  -3  -5    8.22    0.50 
  -9   3   5    7.66    0.58 
  -8  -3   5    1.72    0.28 
   8  -3  -5    2.00    0.26 
  -8   3   5    1.95    0.32 
   7  -3  -5    8.09    0.45 
  -7  -3   5    7.26    0.49 
  -7   3   5    7.28    0.53 
   6  -3  -5    9.21    0.51 
  -6  -3   5   10.84    0.59 
  -6   3   5   10.95    0.63 
   5  -3  -5    5.68    0.33 
  -5  -3   5    4.93    0.37 
  -5   3   5    4.79    0.39 
  -4  -3   5   30.46    1.20 
   4  -3  -5   27.39    1.14 
  -4   3   5   34.67    1.32 
  -3  -3   5   63.63    2.16 
   3  -3  -5   60.96    2.15 
  -3   3   5   63.27    2.29 
  -2  -3   5   68.32    2.29 
   2  -3  -5   66.05    2.33 
  -2   3   5   70.48    2.47 
  -1  -3   5   42.52    1.49 
  -1   3   5   41.32    1.65 
   0  -3   5   39.59    1.39 
   0  -3   5   38.52    1.57 
   0   3   5   39.68    1.57 
  -1  -3  -5    1.46    0.25 
   1  -3   5    1.43    0.18 
   1  -3   5    1.61    0.26 
  -1  -3  -5    1.33    0.24 
  -2  -3  -5    3.29    0.31 
  -2  -3  -5    2.95    0.31 
   2  -3   5    2.95    0.30 
  -3  -3  -5    8.80    0.58 
   3  -3   5    8.16    0.54 
   4  -3   5   28.81    1.26 
  -4  -3  -5   28.01    1.29 
   5  -3   5   39.11    1.57 
  -5  -3  -5   34.87    1.58 
   6  -3   5   33.21    1.44 
  -6  -3  -5   31.39    1.46 
  -7  -3  -5    9.15    0.66 
   7  -3   5    9.44    0.64 
 -10   4   5    0.23    0.17 
  -9  -4   5    0.04    0.14 
  -9   4   5    0.28    0.17 
  -8  -4   5    9.32    0.64 
  -8   4   5    9.58    0.68 
  -7  -4   5   11.90    0.72 
  -7   4   5   12.64    0.77 
  -6  -4   5   15.82    0.83 
  -6   4   5   14.50    0.84 
  -5  -4   5    4.50    0.39 
  -5   4   5    4.92    0.44 
  -4  -4   5   23.92    1.04 
  -4   4   5   23.09    1.12 
  -3  -4   5    1.35    0.23 
  -3   4   5    1.71    0.30 
  -2  -4   5    0.57    0.15 
  -2   4   5    0.50    0.18 
  -1  -4   5    3.09    0.41 
  -1  -4   5    3.32    0.28 
  -1   4   5    3.20    0.34 
   0  -4  -5   25.48    1.16 
   0  -4  -5   25.03    1.18 
   0  -4   5   25.79    1.22 
  -1  -4  -5   14.01    0.77 
   1  -4   5   12.70    0.78 
  -1  -4  -5   13.73    0.78 
   2  -4   5   62.99    2.45 
  -2  -4  -5   63.81    2.44 
   3  -4   5    4.81    0.45 
  -3  -4  -5    4.65    0.44 
   4  -4   5    2.28    0.36 
  -4  -4  -5    2.33    0.39 
   5  -4   5    0.04    0.13 
  -5  -4  -5    0.06    0.12 
  -5  -5   5    1.05    0.26 
  -4  -5   5   16.63    0.88 
  -4   5   5   17.22    0.96 
  -3  -5   5    2.54    0.35 
  -3   5   5    2.67    0.42 
  -2  -5   5   22.54    1.21 
  -2   5   5   22.05    1.14 
  -1  -5   5    0.44    0.23 
   0  -5   5   11.27    0.79 
 -14   0   6    0.36    0.16 
 -13   0   6    0.02    0.08 
 -12   0   6    1.00    0.21 
 -11   0   6    0.00    0.07 
 -10   0   6  196.41    6.07 
 -10   0   6  197.64    6.41 
  -9   0   6    0.07    0.07 
  -9   0   6    0.16    0.07 
  -8   0   6   26.09    0.95 
  -8   0   6   27.05    1.06 
  -7   0   6    0.01    0.05 
  -7   0   6   -0.04    0.04 
  -6   0   6    0.26    0.09 
  -6   0   6    0.10    0.04 
  -5   0   6    0.00    0.06 
  -5   0   6   -0.06    0.03 
  -4   0   6    3.05    0.21 
  -4   0   6    2.83    0.20 
  -3   0   6    0.01    0.03 
  -3   0   6   -0.02    0.04 
  -2   0   6  173.34    5.27 
  -2   0   6  171.50    5.42 
  -2   0   6  167.13    5.40 
  -1   0   6   -0.03    0.03 
   1   0  -6   -0.09    0.03 
   1   0  -6   -0.09    0.03 
  -1   0   6   -0.07    0.05 
   0   0   6  339.53    9.75 
   0   0  -6  292.31   10.01 
   0   0   6  327.24   10.08 
   1   0   6   -0.03    0.05 
  -1   0  -6    0.03    0.05 
   1   0   6    0.03    0.04 
  -2   0  -6    5.51    0.35 
   2   0   6    5.10    0.34 
   2   0   6    5.70    0.30 
   3   0   6    0.01    0.06 
   3   0   6    0.20    0.09 
  -3   0  -6    0.07    0.06 
   4   0   6    4.98    0.36 
  -4   0  -6    4.39    0.35 
  -5   0  -6    0.06    0.09 
  -6   0  -6  159.53    5.35 
  -7   0  -6   -0.02    0.09 
  -8   0  -6   32.71    1.48 
  -9   0  -6   -0.01    0.13 
 -14  -1   6   13.78    0.81 
 -14   1   6   13.82    0.85 
 -13  -1   6   14.43    0.80 
 -13   1   6   14.98    0.86 
 -12  -1   6   58.16    2.19 
 -12  -1   6   59.08    2.06 
 -12   1   6   58.10    2.26 
 -11  -1   6    2.03    0.28 
 -11   1   6    1.89    0.30 
 -10  -1   6    3.49    0.29 
 -10  -1   6    3.16    0.27 
 -10   1   6    2.96    0.30 
  -9  -1   6    3.48    0.27 
  -9  -1   6    3.15    0.26 
  -9   1   6    3.70    0.32 
  -8  -1   6    0.61    0.13 
  -8  -1   6    0.53    0.12 
  -8   1   6    0.66    0.15 
  -7  -1   6   21.35    0.85 
  -7  -1   6   22.12    0.86 
  -7   1   6   22.70    0.95 
  -7   1   6   22.24    0.79 
  -6  -1   6  265.95    7.97 
  -6  -1   6  258.54    7.77 
  -6   1   6  260.90    7.71 
  -6   1   6  228.63    8.06 
  -4  -1   6   80.13    2.51 
  -4  -1   6   82.84    2.50 
  -4   1   6   67.11    2.48 
  -4   1   6   80.92    2.64 
  -3  -1   6    0.06    0.05 
  -3  -1   6    0.15    0.05 
  -3   1   6    0.07    0.05 
  -3   1   6    0.08    0.07 
  -2  -1   6    1.37    0.14 
  -2   1   6    2.37    0.19 
   2   1  -6    1.66    0.11 
  -2   1   6    1.99    0.19 
   2   1  -6    1.57    0.11 
  -1  -1   6   10.21    0.46 
  -1  -1   6   10.53    0.47 
  -1   1   6   10.59    0.52 
  -1   1   6    9.66    0.49 
   1   1  -6    9.94    0.41 
   0  -1   6    4.16    0.26 
   0  -1  -6    3.47    0.27 
   0  -1  -6    3.97    0.29 
   0  -1   6    4.18    0.27 
   0   1   6    5.37    0.33 
   0   1  -6    4.91    0.25 
   1  -1   6    3.82    0.26 
  -1  -1  -6    4.21    0.30 
   1  -1   6    3.63    0.25 
  -1  -1  -6    4.18    0.30 
   1   1   6    3.97    0.30 
  -1   1  -6    3.77    0.25 
   2  -1   6  151.48    5.23 
  -2  -1  -6  181.65    5.49 
  -2   1  -6  165.73    5.38 
   2   1   6  173.66    5.34 
   3  -1   6   16.71    0.74 
  -3  -1  -6   19.38    0.85 
   3  -1   6   17.21    0.74 
  -3   1  -6   16.85    0.76 
   4  -1   6  170.91    5.36 
   4  -1   6  154.74    5.12 
  -4  -1  -6  161.86    5.39 
   5  -1   6    4.32    0.34 
  -5  -1  -6    5.22    0.42 
   5  -1   6    4.99    0.37 
  -5   1  -6    5.65    0.40 
   6  -1   6    0.90    0.20 
  -6  -1  -6    1.89    0.31 
  -6   1  -6    1.49    0.26 
  -7  -1  -6    0.61    0.19 
   7  -1   6    0.34    0.16 
  -7   1  -6    0.65    0.20 
  -8  -1  -6   16.69    0.96 
  -8   1  -6   18.07    0.96 
  -9  -1  -6    2.96    0.45 
  -9   1  -6    3.22    0.45 
 -13  -2   6    0.53    0.18 
 -13   2   6    0.30    0.16 
 -12  -2   6    6.89    0.49 
 -12   2   6    6.77    0.56 
 -11  -2   6    2.43    0.32 
 -11   2   6    2.05    0.33 
 -10  -2   6   33.87    1.37 
 -10   2   6   35.24    1.50 
  -9  -2   6   50.70    1.84 
  -9   2   6   49.70    1.96 
  -8  -2   6   50.46    1.88 
   8  -2  -6   52.16    1.87 
  -8   2   6   55.45    2.02 
  -7  -2   6    3.80    0.31 
  -7   2   6    4.79    0.37 
   6  -2  -6    0.29    0.09 
  -6  -2   6    0.34    0.11 
  -6   2   6    0.25    0.12 
  -6   2   6    0.29    0.08 
   5  -2  -6    0.12    0.07 
   4  -2  -6    8.23    0.36 
  -4  -2   6    8.45    0.44 
  -4   2   6    8.67    0.50 
  -4   2   6    8.18    0.42 
  -3  -2   6    0.13    0.07 
   3  -2  -6    0.06    0.04 
  -3   2   6    0.22    0.09 
  -3   2   6    0.12    0.09 
  -2  -2   6   36.17    1.29 
  -2   2   6   36.27    1.41 
  -1  -2   6   75.33    2.65 
  -1  -2   6   75.62    2.48 
  -1   2   6   77.65    2.68 
   0  -2   6  220.95    6.68 
   0  -2   6  223.38    7.06 
   0  -2  -6  210.78    6.98 
   0  -2  -6  209.94    6.87 
   0   2   6  217.68    7.02 
   1  -2   6    7.90    0.46 
  -1  -2  -6    7.46    0.46 
  -1  -2  -6    7.63    0.48 
   1  -2   6    7.41    0.40 
  -2  -2  -6    1.99    0.29 
   2  -2   6    2.23    0.20 
   2  -2   6    2.76    0.26 
   3  -2   6    4.76    0.35 
  -3  -2  -6    3.74    0.34 
   3  -2   6    4.60    0.31 
  -4  -2  -6    0.33    0.13 
   4  -2   6    0.15    0.11 
  -5  -2  -6   23.98    1.14 
   5  -2   6   24.10    1.08 
  -6  -2  -6   78.97    2.89 
   6  -2   6   75.62    2.79 
   7  -2   6   13.94    0.78 
  -7  -2  -6   13.53    0.84 
  -8  -2  -6   14.53    0.91 
   8  -2   6   15.28    0.85 
 -12  -3   6    8.17    0.60 
 -12   3   6    8.06    0.66 
 -11  -3   6    6.20    0.49 
  11  -3  -6    6.29    0.46 
 -11   3   6    6.18    0.56 
 -10  -3   6    0.19    0.13 
  10  -3  -6    0.46    0.14 
 -10   3   6    0.52    0.20 
  -9  -3   6    1.67    0.29 
   9  -3  -6    2.43    0.25 
  -9   3   6    1.79    0.33 
   8  -3  -6    1.12    0.19 
  -8  -3   6    1.02    0.23 
  -8   3   6    1.40    0.27 
   7  -3  -6   16.36    0.75 
  -7  -3   6   17.85    0.85 
  -7   3   6   18.04    0.92 
  -6  -3   6   47.19    1.73 
  -6   3   6   45.82    1.84 
  -5  -3   6   22.13    0.96 
  -5   3   6   22.43    1.04 
  -4  -3   6   15.32    0.73 
  -4   3   6   16.31    0.83 
  -3  -3   6   18.20    0.79 
  -3   3   6   17.21    0.87 
  -2  -3   6    8.70    0.47 
  -2   3   6    9.08    0.57 
  -1  -3   6    1.38    0.20 
  -1  -3   6    1.36    0.24 
  -1   3   6    1.33    0.24 
   0  -3  -6   17.47    0.85 
   0  -3  -6   17.57    0.87 
   0  -3   6   17.63    0.74 
   0  -3   6   17.12    0.86 
   1  -3   6    0.22    0.10 
  -1  -3  -6    0.20    0.11 
  -1  -3  -6    0.09    0.08 
   1  -3   6    0.23    0.13 
   2  -3   6    7.56    0.52 
  -2  -3  -6    7.69    0.54 
   3  -3   6   91.00    3.18 
  -3  -3  -6   85.41    3.17 
   4  -3   6   58.38    2.26 
  -4  -3  -6   60.86    2.35 
   5  -3   6    5.36    0.46 
  -5  -3  -6    6.17    0.52 
  -6  -3  -6    1.68    0.33 
   6  -3   6    2.46    0.36 
   7  -3   6    0.95    0.24 
 -10   4   6    3.20    0.48 
  -9  -4   6   25.42    1.22 
  -9   4   6   25.26    1.29 
  -8  -4   6    5.61    0.48 
  -8   4   6    5.46    0.51 
  -7  -4   6    2.88    0.38 
  -7   4   6    4.29    0.42 
  -6  -4   6    0.53    0.17 
  -6   4   6    0.40    0.18 
  -4  -4   6    1.31    0.24 
  -4   4   6    1.07    0.25 
  -3  -4   6   14.68    0.74 
  -3   4   6   15.10    0.85 
  -2  -4   6   11.89    0.62 
  -2  -4   6   11.07    0.72 
  -2   4   6   11.27    0.72 
  -1  -4   6   18.34    0.82 
  -1  -4   6   18.11    0.98 
  -1   4   6   18.64    0.98 
   0  -4  -6   11.84    0.73 
   0  -4   6   11.16    0.72 
   0  -4  -6   11.23    0.70 
  -1  -4  -6   38.54    1.65 
  -1  -4  -6   39.14    1.68 
   1  -4   6   40.64    1.72 
  -2  -4  -6    0.71    0.23 
   2  -4   6    0.54    0.20 
   3  -4   6    6.29    0.53 
  -3  -4  -6    6.12    0.53 
   4  -4   6    0.12    0.15 
  -4  -4  -6    0.16    0.16 
  -6   5   6    3.40    0.49 
  -5  -5   6   16.60    0.91 
  -5   5   6   17.43    1.01 
  -4  -5   6    1.36    0.28 
  -4   5   6    1.58    0.33 
  -3   5   6    7.14    0.59 
  -2   5   6    0.20    0.18 
   1  -5  -6    0.91    0.25 
   1  -5  -6    0.66    0.23 
   0  -5  -6   -0.12    0.13 
   0  -5  -6   -0.04    0.14 
  -1  -5  -6    1.93    0.37 
 -14   0   7    0.06    0.10 
 -13   0   7   13.21    0.76 
 -12   0   7    0.15    0.11 
 -11   0   7  109.48    3.75 
 -10   0   7    0.04    0.08 
 -10   0   7   -0.03    0.06 
  -9   0   7    4.26    0.32 
  -9   0   7    4.21    0.27 
  -8   0   7    0.03    0.04 
  -8   0   7    0.23    0.09 
  -7   0   7   34.82    1.31 
  -6   0   7    0.02    0.04 
  -6   0   7    0.02    0.06 
  -5   0   7  275.32    8.60 
  -5   0   7  269.50    8.31 
  -4   0   7    0.01    0.04 
  -4   0   7    0.32    0.09 
  -3   0   7  173.96    5.55 
  -3   0   7  174.46    5.40 
  -2   0   7    0.02    0.05 
  -2   0   7    0.07    0.05 
  -2   0   7    0.08    0.03 
   1   0  -7   -0.04    0.03 
  -1   0   7    0.05    0.07 
   1   0  -7   -0.02    0.04 
  -1   0   7    0.08    0.04 
   0   0   7    0.03    0.05 
   0   0  -7    0.00    0.04 
   0   0   7    0.00    0.03 
   1   0   7   34.84    1.19 
   1   0   7   33.64    1.27 
  -1   0  -7   32.91    1.28 
   2   0   7   -0.02    0.05 
  -2   0  -7    0.02    0.06 
   2   0   7    0.03    0.06 
   3   0   7   21.44    0.96 
  -3   0  -7   23.13    0.99 
   4   0   7   -0.02    0.07 
  -4   0  -7   -0.01    0.07 
  -5   0  -7  129.25    4.40 
  -6   0  -7   -0.03    0.09 
  -7   0  -7    7.71    0.58 
  -8   0  -7    0.28    0.16 
 -15  -1   7   14.04    0.83 
 -14  -1   7    0.19    0.14 
 -14   1   7    0.06    0.14 
 -13  -1   7    4.97    0.41 
 -13   1   7    4.96    0.45 
 -12  -1   7    1.07    0.20 
 -12  -1   7    1.43    0.24 
 -12   1   7    1.49    0.28 
 -11  -1   7    0.04    0.07 
 -11  -1   7    0.05    0.08 
 -11   1   7    0.08    0.09 
 -10  -1   7    2.53    0.24 
 -10  -1   7    2.25    0.23 
 -10   1   7    2.27    0.32 
  -9  -1   7  100.87    3.32 
  -9  -1   7  100.92    3.42 
  -9   1   7  106.72    3.55 
  -8  -1   7   19.84    0.80 
  -8  -1   7   18.32    0.78 
  -8   1   7   18.71    0.73 
  -8   1   7   19.54    0.89 
  -7  -1   7  222.53    7.27 
  -7  -1   7  233.46    7.10 
  -7   1   7  236.91    7.42 
  -7   1   7  227.72    7.03 
  -6  -1   7    5.38    0.32 
  -6  -1   7    4.94    0.29 
  -6   1   7    5.86    0.31 
  -6   1   7    6.02    0.39 
  -5  -1   7    0.67    0.12 
  -5  -1   7    0.65    0.10 
  -5   1   7    0.55    0.13 
  -5   1   7    0.36    0.09 
  -4  -1   7    4.06    0.22 
  -4  -1   7    4.07    0.27 
  -4   1   7    4.08    0.30 
  -4   1   7    4.06    0.27 
  -3  -1   7   80.29    2.88 
  -3  -1   7   91.90    2.89 
  -3   1   7   94.23    3.05 
  -3   1   7   94.24    2.93 
  -2  -1   7    3.66    0.26 
  -2   1   7    3.86    0.28 
  -2   1   7    4.33    0.31 
   2   1  -7    4.18    0.22 
   2   1  -7    4.32    0.22 
  -1  -1   7   38.45    1.33 
  -1  -1   7   38.39    1.35 
  -1   1   7   39.36    1.40 
  -1   1   7   35.63    1.41 
   1   1  -7   35.71    1.29 
   0  -1  -7    6.12    0.37 
   0  -1   7    5.17    0.32 
   0  -1   7    4.84    0.29 
   0  -1  -7    4.85    0.34 
   0   1   7    5.13    0.36 
   0   1  -7    5.13    0.29 
  -1  -1  -7  147.79    4.68 
   1  -1   7  136.90    4.62 
   1  -1   7  144.74    4.48 
   1   1   7  142.29    4.57 
  -1   1  -7  136.57    4.56 
   2  -1   7    2.97    0.25 
   2  -1   7    3.18    0.26 
  -2  -1  -7    3.16    0.28 
  -2   1  -7    2.82    0.24 
   2   1   7    2.90    0.28 
  -3  -1  -7    4.54    0.37 
   3  -1   7    3.74    0.31 
  -3   1  -7    3.92    0.31 
   4  -1   7    0.55    0.15 
  -4  -1  -7    0.63    0.18 
  -4   1  -7    0.50    0.15 
   5  -1   7    7.03    0.47 
   5  -1   7    6.71    0.45 
  -5  -1  -7    6.69    0.51 
  -5   1  -7    8.07    0.51 
  -6  -1  -7    2.22    0.36 
   6  -1   7    2.54    0.29 
  -6   1  -7    2.75    0.37 
  -7  -1  -7   32.49    1.50 
  -7   1  -7   34.09    1.48 
  -8  -1  -7    2.95    0.44 
  -8   1  -7    3.07    0.43 
 -13  -2   7    2.47    0.34 
 -13   2   7    2.05    0.37 
 -12  -2   7   18.73    0.90 
 -12   2   7   18.74    1.03 
 -11  -2   7   70.06    2.47 
 -11   2   7   70.40    2.67 
 -10  -2   7    7.66    0.48 
 -10   2   7    6.79    0.53 
  -9  -2   7    0.13    0.10 
  -7  -2   7    9.47    0.52 
   7  -2  -7   10.11    0.46 
  -7   2   7    9.03    0.58 
  -6  -2   7   23.39    0.94 
  -6   2   7   22.86    0.88 
  -6   2   7   22.38    1.03 
  -5  -2   7   91.09    2.96 
  -5   2   7   89.47    2.93 
  -5   2   7   89.27    3.12 
  -4  -2   7   49.12    1.69 
  -4   2   7   47.73    1.70 
  -4   2   7   48.04    1.83 
  -3  -2   7   87.90    2.81 
  -3   2   7   83.19    2.97 
  -3   2   7   85.94    2.85 
  -2  -2   7    0.77    0.14 
  -2   2   7    0.84    0.18 
  -2   2   7    0.99    0.19 
  -1  -2   7    2.96    0.24 
  -1  -2   7    2.93    0.27 
  -1   2   7    2.66    0.27 
   0  -2   7    0.13    0.07 
   0  -2  -7    0.15    0.09 
   0  -2  -7   -0.02    0.07 
   0  -2   7    0.08    0.09 
   1  -2   7   34.86    1.38 
  -1  -2  -7   34.87    1.44 
  -1  -2  -7   36.68    1.43 
   1  -2   7   35.92    1.31 
   2  -2   7    6.10    0.41 
   2  -2   7    5.73    0.37 
  -2  -2  -7    6.09    0.46 
   3  -2   7    7.22    0.43 
   3  -2   7    6.74    0.45 
  -3  -2  -7    6.70    0.50 
   4  -2   7    7.80    0.51 
  -4  -2  -7    8.21    0.57 
   5  -2   7   71.67    2.71 
  -5  -2  -7   78.97    2.83 
   6  -2   7   11.72    0.70 
  -6  -2  -7   13.14    0.80 
  -7  -2  -7    1.61    0.33 
   7  -2   7    1.29    0.27 
 -12  -3   7   -0.05    0.12 
 -12   3   7    0.04    0.14 
 -11  -3   7    4.65    0.42 
 -11   3   7    5.08    0.50 
 -10  -3   7    2.70    0.36 
 -10   3   7    2.48    0.39 
  -9  -3   7    8.76    0.56 
  -9   3   7    9.13    0.65 
  -8  -3   7   57.42    2.09 
  -8   3   7   57.09    2.25 
  -7  -3   7   39.32    1.55 
  -7   3   7   40.70    1.68 
  -6  -3   7   13.85    0.72 
  -6   3   7   14.73    0.80 
  -5  -3   7    3.55    0.31 
  -5   3   7    3.64    0.36 
  -4  -3   7    8.80    0.51 
  -4   3   7    9.01    0.59 
  -3  -3   7   36.91    1.38 
  -3   3   7   36.76    1.54 
  -2  -3   7   18.01    0.81 
  -2   3   7   19.47    0.96 
  -1  -3   7    0.21    0.13 
  -1  -3   7    0.29    0.11 
  -1   3   7    0.34    0.14 
   0  -3  -7    8.77    0.57 
   0  -3   7    8.72    0.48 
   0  -3   7    8.70    0.57 
   0  -3  -7    9.08    0.59 
   1  -3   7   94.85    3.01 
  -1  -3  -7   89.40    3.20 
  -1  -3  -7   91.31    3.26 
   1  -3   7   88.97    3.24 
  -2  -3  -7   27.39    1.28 
   2  -3   7   27.78    1.24 
   3  -3   7    5.34    0.44 
  -3  -3  -7    4.76    0.44 
  -5  -3  -7    0.50    0.20 
   5  -3   7    1.01    0.24 
   6  -3   7    2.31    0.36 
  -9  -4   7    0.37    0.19 
  -9   4   7    0.50    0.21 
  -8  -4   7    4.83    0.44 
  -8   4   7    5.98    0.53 
  -7  -4   7    0.02    0.11 
  -7   4   7    0.12    0.13 
  -6  -4   7   18.57    0.93 
  -6   4   7   18.94    1.03 
  -5  -4   7   10.69    0.63 
  -5   4   7   10.92    0.72 
  -4  -4   7   15.76    0.79 
  -4   4   7   14.85    0.89 
  -3  -4   7    6.71    0.45 
  -3   4   7    6.69    0.55 
  -2  -4   7   34.06    1.34 
  -2  -4   7   34.85    1.54 
  -2   4   7   33.84    1.53 
   1  -4  -7    1.08    0.25 
  -1  -4   7    1.05    0.26 
   1  -4  -7    0.87    0.23 
  -1  -4   7    0.99    0.20 
   0  -4  -7   23.12    1.16 
   0  -4  -7   24.81    1.20 
   0  -4   7   23.35    1.18 
  -1  -4  -7    3.50    0.47 
   1  -4   7    3.62    0.40 
  -1  -4  -7    3.84    0.40 
  -2  -4  -7    0.36    0.21 
   2  -4   7    0.60    0.20 
  -3  -4  -7    4.32    0.46 
   3  -4   7    3.96    0.42 
  -4  -5   7    0.25    0.17 
  -4   5   7    0.22    0.18 
  -3   5   7    0.33    0.19 
   2  -5  -7   13.22    0.84 
   2  -5  -7   13.21    0.86 
 -15   0   8    0.08    0.14 
 -14   0   8   10.31    0.69 
 -13   0   8    0.10    0.11 
 -12   0   8   15.68    0.82 
 -11   0   8    0.06    0.08 
 -10   0   8    1.20    0.22 
 -10   0   8    1.54    0.20 
  -9   0   8    0.20    0.09 
  -9   0   8    0.05    0.06 
  -7   0   8    0.02    0.06 
  -7   0   8    0.00    0.06 
  -6   0   8  317.40   10.07 
  -6   0   8  320.25    9.73 
  -5   0   8   -0.04    0.05 
  -5   0   8    0.06    0.07 
  -4   0   8   51.41    1.72 
  -4   0   8   48.67    1.75 
  -3   0   8    0.05    0.03 
  -3   0   8    0.16    0.09 
  -3   0   8   -0.02    0.04 
  -2   0   8  159.22    4.84 
  -2   0   8  145.10    4.85 
  -2   0   8  155.82    4.96 
   1   0  -8    0.01    0.04 
  -1   0   8    0.03    0.06 
   1   0  -8   -0.01    0.04 
   0   0  -8   79.65    2.72 
   1   0   8    0.41    0.13 
  -1   0  -8    0.19    0.09 
  -2   0  -8   40.28    1.51 
   2   0   8   36.54    1.47 
  -3   0  -8    0.06    0.08 
   3   0   8    0.00    0.08 
   4   0   8   18.16    0.90 
  -4   0  -8   18.81    0.93 
  -5   0  -8   -0.07    0.09 
  -6   0  -8    7.12    0.55 
  -7   0  -8    0.03    0.11 
 -14  -1   8    0.66    0.20 
 -14   1   8    0.80    0.24 
 -13  -1   8    0.09    0.10 
 -13   1   8    0.22    0.14 
 -12  -1   8    2.94    0.29 
 -12   1   8    2.75    0.38 
 -11  -1   8    1.69    0.23 
 -11  -1   8    1.51    0.24 
 -11   1   8    2.05    0.31 
 -10  -1   8   93.14    3.05 
 -10  -1   8   91.86    3.15 
 -10   1   8   92.88    3.27 
  -9  -1   8    8.75    0.48 
  -9  -1   8    9.07    0.49 
  -9   1   8    8.89    0.56 
  -8  -1   8   45.12    1.58 
  -8  -1   8   42.68    1.59 
  -8   1   8   44.13    1.70 
  -8   1   8   45.59    1.53 
  -6  -1   8   17.00    0.71 
  -6  -1   8   16.43    0.67 
  -6   1   8   16.34    0.78 
  -6   1   8   15.85    0.69 
  -5  -1   8    4.76    0.31 
  -5  -1   8    4.45    0.26 
  -5   1   8    4.49    0.30 
  -5   1   8    4.34    0.33 
  -4  -1   8  254.17    7.51 
  -4  -1   8  237.48    7.62 
  -4   1   8  245.05    7.79 
  -4   1   8  236.39    7.51 
  -3  -1   8   42.57    1.49 
   3   1  -8   40.85    1.42 
   3   1  -8   41.40    1.39 
  -3   1   8   42.45    1.51 
  -3   1   8   42.47    1.58 
  -2  -1   8   79.36    2.69 
  -2  -1   8   81.10    2.64 
   2   1  -8   77.03    2.61 
  -2   1   8   82.33    2.69 
  -2   1   8   80.60    2.77 
   1  -1  -8    0.28    0.10 
  -1  -1   8    0.26    0.08 
   1  -1  -8    0.18    0.09 
  -1  -1   8    0.06    0.07 
   1   1  -8    0.07    0.06 
  -1   1   8    0.05    0.08 
   0  -1   8   42.86    1.55 
   0  -1   8   42.49    1.53 
   0  -1  -8   43.56    1.60 
   0  -1  -8   43.49    1.62 
   0   1  -8   40.98    1.51 
   0   1   8   44.33    1.63 
   1  -1   8    0.59    0.12 
  -1  -1  -8    0.43    0.15 
   1  -1   8    0.39    0.12 
  -1   1  -8    0.34    0.11 
   1   1   8    0.38    0.14 
  -2  -1  -8  108.96    3.73 
   2  -1   8  103.24    3.56 
   2  -1   8  114.94    3.65 
   2   1   8  106.45    3.66 
  -2   1  -8  111.03    3.64 
   3  -1   8   14.58    0.68 
  -3  -1  -8   14.31    0.78 
   3  -1   8   14.95    0.73 
  -3   1  -8   13.79    0.70 
  -4  -1  -8   13.63    0.79 
   4  -1   8   14.84    0.71 
   4  -1   8   13.75    0.73 
  -4   1  -8   14.73    0.75 
   5  -1   8    0.21    0.12 
  -5  -1  -8    0.40    0.16 
   5  -1   8    0.15    0.12 
  -5   1  -8    0.10    0.10 
  -6  -1  -8   20.30    1.09 
  -6   1  -8   20.70    1.04 
  -7  -1  -8    0.19    0.14 
 -13  -2   8    1.50    0.26 
 -13   2   8    1.06    0.29 
 -12  -2   8   11.78    0.66 
 -12   2   8   10.99    0.75 
 -11  -2   8    2.79    0.34 
 -11   2   8    1.94    0.34 
 -10  -2   8    2.60    0.28 
 -10   2   8    3.12    0.35 
  -9  -2   8    1.83    0.26 
  -9   2   8    2.50    0.35 
  -8  -2   8   29.46    1.18 
  -8   2   8   29.86    1.32 
  -7  -2   8   40.99    1.51 
  -7   2   8   39.93    1.63 
  -6  -2   8   98.68    3.14 
  -6   2   8   94.96    3.33 
  -6   2   8   91.82    3.10 
  -5  -2   8   22.37    0.91 
  -5   2   8   21.51    1.01 
  -5   2   8   21.56    0.91 
  -4  -2   8   52.10    1.82 
  -4   2   8   52.25    1.97 
  -3  -2   8    2.02    0.21 
  -3   2   8    2.37    0.30 
  -3   2   8    2.26    0.31 
  -2  -2   8  139.64    4.44 
  -2  -2   8  143.59    4.67 
  -2   2   8  138.32    4.69 
  -2   2   8  136.42    4.53 
  -1  -2   8   92.25    3.11 
  -1  -2   8   89.70    2.95 
  -1   2   8   87.40    3.16 
   0  -2  -8   11.76    0.67 
   0  -2   8   12.88    0.65 
   0  -2  -8   13.26    0.70 
   0  -2   8   11.64    0.59 
  -1  -2  -8    0.40    0.15 
  -1  -2  -8    0.21    0.12 
   1  -2   8    0.18    0.10 
   1  -2   8    0.46    0.14 
   2  -2   8   67.48    2.42 
  -2  -2  -8   67.39    2.52 
   2  -2   8   67.99    2.34 
   3  -2   8   13.63    0.71 
   3  -2   8   12.78    0.67 
  -3  -2  -8   13.93    0.79 
  -4  -2  -8    1.42    0.28 
   4  -2   8    1.19    0.23 
   5  -2   8    1.00    0.22 
  -6  -2  -8    3.99    0.43 
   6  -2   8    3.46    0.37 
   7  -2   8    1.79    0.33 
 -12  -3   8    0.19    0.13 
 -11  -3   8    3.30    0.35 
 -11   3   8    2.99    0.45 
 -10  -3   8   36.90    1.50 
 -10   3   8   35.82    1.65 
  -9  -3   8   31.25    1.32 
  -9   3   8   30.96    1.45 
  -8  -3   8    3.27    0.33 
  -8   3   8    3.05    0.42 
  -6  -3   8    7.91    0.50 
  -6   3   8    8.38    0.59 
  -5  -3   8   34.92    1.36 
  -5   3   8   34.68    1.51 
  -4  -3   8   15.77    0.75 
  -4   3   8   16.43    0.88 
  -3  -3   8   23.31    0.98 
  -3   3   8   23.31    1.12 
  -2  -3   8   44.97    1.64 
  -2  -3   8   44.39    1.78 
  -2   3   8   44.99    1.83 
  -1  -3   8   41.48    1.56 
  -1  -3   8   42.12    1.70 
  -1   3   8   43.48    1.78 
   0  -3   8    1.48    0.22 
   0  -3  -8    1.26    0.26 
   0  -3   8    1.46    0.27 
   0  -3  -8    1.54    0.28 
  -1  -3  -8   13.29    0.78 
   1  -3   8   13.32    0.67 
   1  -3   8   14.10    0.77 
  -1  -3  -8   13.64    0.80 
   2  -3   8   10.32    0.65 
  -2  -3  -8   10.18    0.70 
  -3  -3  -8    6.81    0.56 
   3  -3   8    7.41    0.53 
  -4  -3  -8   11.96    0.80 
   4  -3   8   11.88    0.73 
   5  -3   8    8.18    0.59 
  -9  -4   8    2.00    0.33 
  -9   4   8    2.04    0.37 
  -8  -4   8    6.21    0.50 
  -8   4   8    6.16    0.56 
  -7  -4   8   27.90    1.25 
  -7   4   8   28.26    1.39 
  -6  -4   8    4.66    0.41 
  -6   4   8    4.96    0.48 
  -5  -4   8   31.32    1.30 
  -5   4   8   29.70    1.44 
  -4  -4   8    2.34    0.32 
  -4   4   8    3.38    0.46 
  -3  -4   8    2.33    0.38 
  -3  -4   8    2.18    0.30 
  -3   4   8    2.30    0.39 
  -2  -4   8    4.27    0.36 
  -2  -4   8    5.26    0.48 
  -2   4   8    5.27    0.50 
   1  -4  -8   22.10    1.12 
   1  -4  -8   21.62    1.14 
  -1  -4   8   22.73    1.15 
   0  -4  -8    3.60    0.40 
   0  -4  -8    3.49    0.47 
   0  -4   8    3.94    0.42 
   1  -4   8   13.67    0.83 
  -1  -4  -8   13.24    0.86 
  -1  -4  -8   14.19    0.87 
  -2  -4  -8    7.40    0.62 
   2  -4   8    6.53    0.56 
 -15   0   9    2.86    0.42 
 -14   0   9   -0.10    0.09 
 -13   0   9    5.72    0.47 
 -12   0   9   -0.02    0.09 
 -11   0   9    7.87    0.52 
 -10   0   9    0.01    0.08 
 -10   0   9    0.07    0.07 
  -9   0   9   66.81    2.39 
  -8   0   9    0.10    0.08 
  -8   0   9    0.04    0.07 
  -7   0   9   30.25    1.13 
  -7   0   9   28.70    1.17 
  -6   0   9   -0.03    0.06 
  -6   0   9    0.06    0.07 
  -5   0   9   28.07    1.11 
  -5   0   9   28.68    1.09 
  -4   0   9    0.02    0.07 
  -4   0   9    0.03    0.08 
  -3   0   9  447.79   14.11 
  -3   0   9  452.93   13.71 
   2   0  -9    0.07    0.06 
  -2   0   9    0.11    0.09 
   2   0  -9    0.00    0.05 
   1   0  -9   14.50    0.68 
   0   0  -9   -0.01    0.05 
   0   0   9    0.08    0.08 
   1   0   9  102.23    3.52 
  -1   0  -9  108.66    3.59 
  -2   0  -9    0.08    0.09 
   2   0   9    0.02    0.08 
   3   0   9   71.18    2.58 
  -3   0  -9   72.41    2.61 
   4   0   9    0.04    0.10 
  -4   0  -9    0.05    0.10 
  -5   0  -9   60.48    2.34 
  -6   0  -9    0.05    0.11 
  -7   0  -9    2.53    0.41 
 -14   1   9    2.07    0.37 
 -13   1   9    3.64    0.39 
 -12  -1   9    0.03    0.10 
 -12   1   9    0.22    0.13 
 -11  -1   9   17.06    0.77 
 -11   1   9   16.83    0.90 
 -10  -1   9    4.64    0.34 
  -9  -1   9    2.93    0.26 
  -9   1   9    2.19    0.32 
  -8   1   9    1.70    0.26 
  -7  -1   9   46.59    1.64 
  -7   1   9   45.10    1.76 
  -7   1   9   46.40    1.63 
  -6  -1   9   30.57    1.14 
  -6   1   9   28.61    1.13 
  -6   1   9   29.27    1.22 
  -5  -1   9   69.49    2.35 
  -5   1   9   70.02    2.38 
  -5   1   9   69.86    2.48 
  -4  -1   9    1.82    0.24 
  -4   1   9    2.14    0.23 
  -4   1   9    2.19    0.28 
  -3  -1   9  166.59    5.29 
  -3  -1   9  166.29    5.44 
  -3   1   9  166.98    5.33 
  -3   1   9  170.97    5.51 
  -2  -1   9   40.35    1.46 
  -2  -1   9   39.38    1.43 
  -2   1   9   38.92    1.51 
  -2   1   9   39.11    1.54 
   1  -1  -9   55.95    2.08 
   1  -1  -9   58.57    2.06 
  -1  -1   9   55.21    1.98 
  -1  -1   9   58.88    2.02 
  -1   1   9   59.00    2.09 
   0  -1  -9   48.81    1.81 
   0  -1   9   48.02    1.73 
   0  -1   9   45.35    1.67 
   0  -1  -9   47.17    1.77 
   0   1   9   48.31    1.81 
   1  -1   9  122.52    3.93 
  -1  -1  -9  116.42    4.06 
   1   1   9  119.74    4.01 
   2  -1   9    1.38    0.23 
  -2  -1  -9    1.34    0.25 
   2   1   9    1.36    0.26 
  -3  -1  -9   48.04    1.92 
   3  -1   9   49.00    1.84 
  -4  -1  -9    1.14    0.25 
   4  -1   9    1.08    0.23 
  -5  -1  -9    0.38    0.17 
  -6  -1  -9    0.25    0.17 
 -14  -2   9    0.85    0.22 
 -13  -2   9    8.19    0.54 
 -13   2   9    7.65    0.64 
 -12  -2   9    5.66    0.43 
 -12   2   9    5.82    0.53 
 -11  -2   9    2.68    0.29 
 -11   2   9    2.72    0.40 
 -10  -2   9    1.16    0.22 
 -10   2   9    1.30    0.28 
  -9  -2   9   31.83    1.25 
  -9   2   9   28.83    1.36 
  -8  -2   9    7.71    0.47 
  -8   2   9    7.65    0.55 
  -7  -2   9   37.52    1.43 
  -7   2   9   38.51    1.58 
  -6  -2   9   16.02    0.73 
  -6   2   9   15.58    0.73 
  -6   2   9   14.53    0.81 
  -5  -2   9    6.68    0.42 
  -5   2   9    6.81    0.45 
  -5   2   9    6.87    0.49 
  -4  -2   9   22.98    0.99 
  -4   2   9   25.34    1.07 
  -4   2   9   24.91    1.12 
  -3  -2   9   64.99    2.26 
  -3   2   9   67.28    2.35 
  -3   2   9   64.18    2.42 
  -2  -2   9   18.09    0.79 
  -2   2   9   17.55    0.87 
  -2   2   9   16.95    0.88 
   1  -2  -9   64.15    2.34 
  -1  -2   9   62.83    2.19 
   1  -2  -9   64.01    2.30 
  -1   2   9   61.39    2.30 
   0  -2  -9   24.16    1.10 
   0  -2  -9   23.03    1.08 
   0  -2   9   24.70    1.02 
  -1  -2  -9   16.56    0.92 
   1  -2   9   20.63    0.88 
   2  -2   9    0.85    0.18 
  -2  -2  -9    1.19    0.25 
   3  -2   9   17.53    0.87 
   3  -2   9   19.46    0.91 
  -3  -2  -9   19.68    1.02 
   4  -2   9   10.24    0.63 
  -4  -2  -9   11.54    0.74 
  -5  -2  -9   21.90    1.16 
 -11  -3   9    3.37    0.35 
 -11   3   9    3.87    0.52 
 -10  -3   9    0.86    0.20 
 -10   3   9    1.47    0.31 
  -9  -3   9    1.79    0.28 
  -9   3   9    1.62    0.32 
  -7  -3   9   11.16    0.63 
  -7   3   9   10.62    0.72 
  -6  -3   9   16.61    0.81 
  -6   3   9   16.81    0.93 
  -5  -3   9   20.75    0.94 
  -5   3   9   21.33    1.08 
  -4  -3   9   30.12    1.24 
  -4   3   9   31.70    1.42 
  -3  -3   9   14.95    0.81 
  -3  -3   9   14.64    0.73 
  -3   3   9   14.91    0.87 
  -2  -3   9    5.83    0.46 
  -2  -3   9    5.59    0.40 
  -2   3   9    5.79    0.50 
  -1  -3   9    7.85    0.49 
  -1  -3   9    8.71    0.58 
   1  -3  -9    9.15    0.60 
   1  -3  -9    8.51    0.60 
   0  -3   9   35.93    1.41 
   0  -3   9   36.49    1.53 
   0  -3  -9   37.94    1.61 
   0  -3  -9   35.93    1.56 
  -1  -3  -9   23.23    1.17 
   1  -3   9   22.58    1.09 
  -2  -3  -9   17.81    1.01 
   2  -3   9   18.85    0.95 
   3  -3   9   14.03    0.79 
  -3  -3  -9   12.92    0.85 
   4  -3   9    5.34    0.48 
  -8  -4   9   12.39    0.74 
  -8   4   9   12.38    0.85 
  -7  -4   9    1.38    0.28 
  -7   4   9    1.03    0.29 
  -6  -4   9    3.31    0.35 
  -6   4   9    3.87    0.51 
  -5  -4   9    1.00    0.22 
  -5   4   9    0.95    0.27 
  -4  -4   9   13.00    0.72 
  -4   4   9   14.19    0.89 
  -3  -4   9    8.15    0.63 
  -3  -4   9    8.63    0.55 
  -3   4   9    9.38    0.69 
  -2  -4   9   22.66    1.05 
   2  -4  -9   24.10    1.23 
   2  -4  -9   25.03    1.22 
  -2  -4   9   23.28    1.19 
  -2   4   9   22.62    1.23 
   1  -4  -9    3.62    0.49 
  -1  -4   9    2.59    0.42 
   1  -4  -9    3.79    0.50 
   0  -4   9   17.93    1.00 
   0  -4  -9   18.62    1.04 
   0  -4  -9   18.92    1.07 
   1  -4   9    2.73    0.41 
 -15   0  10   -0.11    0.13 
 -14   0  10   31.23    1.43 
 -13   0  10   -0.01    0.10 
 -12   0  10   19.28    0.96 
 -11   0  10    0.02    0.08 
 -10   0  10    3.04    0.27 
 -10   0  10    2.93    0.30 
  -9   0  10    0.03    0.08 
  -9   0  10    0.01    0.08 
  -8   0  10    2.17    0.29 
  -8   0  10    2.48    0.24 
  -7   0  10   -0.01    0.06 
  -7   0  10    0.20    0.10 
  -6   0  10  179.43    5.74 
  -6   0  10  173.90    5.56 
  -5   0  10    0.06    0.08 
  -5   0  10   -0.04    0.07 
  -4   0  10    1.76    0.24 
  -4   0  10    1.66    0.24 
  -3   0  10    0.00    0.07 
  -3   0  10    0.23    0.10 
   2   0 -10  116.16    3.78 
  -2   0  10  116.46    3.83 
   2   0 -10  115.38    3.85 
  -1   0  10    0.02    0.06 
   1   0 -10    0.02    0.07 
   0   0 -10    0.03    0.06 
   1   0  10    0.00    0.08 
  -1   0 -10    0.17    0.11 
   2   0  10   92.81    3.35 
  -2   0 -10  101.94    3.42 
  -3   0 -10    0.08    0.10 
   3   0  10    0.05    0.11 
  -4   0 -10   58.29    2.22 
   4   0  10   53.22    2.15 
  -5   0 -10    0.09    0.13 
  -6   0 -10    0.10    0.16 
 -14   1  10   12.82    0.83 
 -13   1  10    0.86    0.24 
 -12  -1  10    7.91    0.49 
 -12   1  10    8.20    0.60 
 -11  -1  10    1.04    0.21 
 -11   1  10    1.28    0.26 
 -10  -1  10   31.57    1.22 
 -10   1  10   30.34    1.36 
  -9  -1  10   13.36    0.66 
  -9   1  10   13.26    0.75 
  -8  -1  10   40.43    1.51 
  -8   1  10   40.40    1.63 
  -8   1  10   41.47    1.51 
  -7  -1  10    7.56    0.46 
  -7   1  10    7.97    0.52 
  -6  -1  10    2.32    0.23 
  -6   1  10    1.76    0.28 
  -6   1  10    2.18    0.28 
  -5  -1  10   28.89    1.12 
  -5   1  10   26.98    1.17 
  -5   1  10   27.40    1.14 
  -4  -1  10   17.89    0.81 
  -4   1  10   16.96    0.85 
  -4   1  10   19.09    0.84 
  -3  -1  10   14.82    0.72 
  -3   1  10   15.05    0.77 
  -3   1  10   15.62    0.77 
  -2  -1  10  141.53    4.67 
   2  -1 -10  147.51    4.83 
   2  -1 -10  148.04    4.76 
  -2   1  10  144.89    4.75 
   1  -1 -10    1.23    0.23 
  -1  -1  10    1.17    0.21 
   1  -1 -10    1.49    0.25 
  -1   1  10    1.49    0.27 
   0  -1 -10   42.38    1.69 
   0  -1  10   44.68    1.66 
   0   1  10   41.03    1.69 
   1  -1  10    6.48    0.47 
  -1  -1 -10    7.73    0.52 
   1   1  10    7.43    0.54 
   2  -1  10   35.82    1.45 
  -2  -1 -10   34.85    1.50 
   2   1  10   34.02    1.50 
  -3  -1 -10    0.57    0.19 
   3  -1  10    0.78    0.20 
  -4  -1 -10    4.34    0.42 
   4  -1  10    3.02    0.41 
  -5  -1 -10    4.15    0.44 
 -14  -2  10    9.38    0.61 
 -13  -2  10    3.62    0.35 
 -13   2  10    3.84    0.52 
 -12  -2  10    7.66    0.51 
 -12   2  10    7.75    0.63 
 -11  -2  10    5.96    0.43 
 -11   2  10    4.88    0.48 
 -10  -2  10   13.48    0.70 
 -10   2  10   12.96    0.81 
  -9  -2  10    0.88    0.19 
  -9   2  10    0.77    0.21 
  -8  -2  10    7.20    0.46 
  -8   2  10    6.31    0.51 
  -7  -2  10    0.15    0.10 
  -7   2  10    0.24    0.13 
  -6  -2  10   18.78    0.84 
  -6   2  10   18.83    0.87 
  -6   2  10   16.85    0.92 
  -5  -2  10   23.11    1.03 
  -5   2  10   26.58    1.11 
  -5   2  10   24.67    1.15 
  -4  -2  10   41.88    1.58 
  -4   2  10   40.95    1.70 
  -4   2  10   42.97    1.66 
  -3  -2  10    0.56    0.15 
  -3  -2  10    0.97    0.20 
  -3   2  10    0.69    0.20 
  -3   2  10    0.65    0.19 
  -2  -2  10   13.04    0.68 
  -2  -2  10   14.10    0.70 
  -2   2  10   15.07    0.80 
  -2   2  10   12.46    0.76 
   1  -2 -10   18.99    0.96 
  -1  -2  10   19.30    0.89 
   1  -2 -10   20.72    0.98 
  -1  -2  10   19.06    0.88 
  -1   2  10   19.15    0.98 
   0  -2 -10   -0.01    0.11 
   0  -2 -10    0.10    0.11 
   1  -2  10   13.90    0.73 
  -1  -2 -10   12.97    0.79 
  -2  -2 -10   48.90    1.98 
   2  -2  10   47.81    1.84 
  -3  -2 -10   21.81    1.14 
  -4  -2 -10   34.82    1.60 
 -11  -3  10   11.62    0.71 
 -11   3  10   11.45    0.81 
 -10  -3  10    7.75    0.54 
 -10   3  10    7.28    0.63 
  -9  -3  10    6.57    0.48 
  -9   3  10    6.98    0.59 
  -8  -3  10    9.70    0.60 
  -8   3  10    9.92    0.71 
  -7  -3  10    4.80    0.39 
  -7   3  10    4.79    0.47 
  -6  -3  10    4.12    0.36 
  -6   3  10    3.94    0.41 
  -5  -3  10    2.44    0.32 
  -5   3  10    2.78    0.41 
  -4  -3  10    0.12    0.10 
  -4   3  10    0.10    0.12 
  -3  -3  10    2.70    0.37 
  -3  -3  10    2.45    0.32 
  -3   3  10    2.41    0.37 
   2  -3 -10   26.66    1.27 
   2  -3 -10   26.41    1.24 
  -2  -3  10   25.91    1.11 
  -2  -3  10   26.05    1.20 
  -2   3  10   25.69    1.29 
  -1  -3  10   25.38    1.10 
   1  -3 -10   24.21    1.20 
  -1  -3  10   26.16    1.19 
   1  -3 -10   24.80    1.23 
   0  -3  10   11.84    0.66 
   0  -3 -10   11.14    0.73 
   0  -3 -10   11.11    0.74 
   0  -3  10   11.88    0.70 
   1  -3  10   17.32    0.91 
  -1  -3 -10   18.03    1.02 
   2  -3  10    6.65    0.51 
  -2  -3 -10    6.24    0.55 
  -7  -4  10    2.81    0.38 
  -6  -4  10    6.36    0.50 
  -6   4  10    5.58    0.56 
  -5  -4  10   17.18    0.88 
  -5   4  10   16.44    1.01 
  -4  -4  10    4.03    0.38 
  -4  -4  10    4.35    0.46 
  -4   4  10    4.51    0.49 
  -3  -4  10    6.23    0.54 
  -3  -4  10    5.99    0.47 
  -3   4  10    6.45    0.59 
  -2  -4  10    1.11    0.25 
  -2  -4  10    1.13    0.29 
  -1  -4  10    5.77    0.53 
 -14   0  11    0.14    0.15 
 -13   0  11   15.76    0.88 
 -12   0  11    0.02    0.09 
 -11   0  11    0.01    0.09 
 -11   0  11    0.08    0.10 
 -10   0  11   -0.08    0.07 
 -10   0  11    0.12    0.10 
  -9   0  11   82.89    2.90 
  -9   0  11   81.40    2.77 
  -8   0  11   -0.03    0.08 
  -8   0  11    0.08    0.09 
  -7   0  11   72.17    2.61 
  -7   0  11   76.14    2.56 
  -6   0  11   -0.01    0.07 
  -6   0  11   -0.01    0.08 
  -5   0  11    0.03    0.08 
  -5   0  11    0.00    0.07 
  -4   0  11   -0.01    0.07 
  -4   0  11   -0.02    0.07 
   3   0 -11    1.75    0.24 
  -3   0  11    1.24    0.23 
   3   0 -11    1.32    0.21 
   2   0 -11   -0.01    0.07 
   2   0 -11    0.15    0.10 
  -2   0  11    0.00    0.07 
   1   0 -11   54.18    1.97 
  -1   0  11   52.30    1.99 
   0   0 -11    0.02    0.07 
   0   0  11    0.08    0.09 
  -1   0 -11   52.77    2.02 
   1   0  11   52.70    2.04 
  -2   0 -11    0.00    0.10 
   2   0  11   -0.04    0.09 
  -3   0 -11   12.18    0.73 
   3   0  11   10.89    0.74 
   4   0  11    0.13    0.18 
  -4   0 -11   -0.08    0.11 
 -14   1  11    0.00    0.15 
 -13   1  11   19.27    1.04 
 -12  -1  11    6.14    0.43 
 -12   1  11    5.64    0.50 
 -11  -1  11   53.42    1.93 
 -11   1  11   53.40    2.13 
 -10  -1  11    0.46    0.14 
 -10   1  11    0.39    0.15 
  -9  -1  11    3.48    0.31 
  -9   1  11    3.18    0.34 
  -9   1  11    3.56    0.31 
  -8  -1  11    1.94    0.27 
  -8   1  11    1.76    0.29 
  -7  -1  11    1.14    0.21 
  -7   1  11    0.26    0.13 
  -7   1  11    0.34    0.14 
  -6  -1  11    6.87    0.44 
  -6   1  11    6.26    0.47 
  -6   1  11    6.23    0.45 
  -5  -1  11   87.42    2.93 
  -5   1  11   85.25    2.96 
  -5   1  11   86.23    3.07 
  -4  -1  11    3.42    0.31 
  -4   1  11    3.47    0.34 
  -4   1  11    3.60    0.34 
  -3  -1  11   37.92    1.48 
  -3   1  11   37.50    1.53 
  -3   1  11   38.16    1.55 
  -2  -1  11    0.42    0.14 
   2  -1 -11    0.79    0.20 
   2  -1 -11    0.58    0.16 
  -2   1  11    0.55    0.18 
   1  -1 -11    4.64    0.39 
  -1  -1  11    4.69    0.39 
   1  -1 -11    4.82    0.40 
  -1   1  11    4.94    0.43 
   0  -1 -11    0.85    0.21 
   0  -1  11    0.94    0.22 
   0   1  11    0.84    0.22 
   1  -1  11    0.41    0.16 
  -1  -1 -11    0.44    0.16 
   1   1  11    0.29    0.15 
   2  -1  11    0.80    0.20 
   2   1  11    0.53    0.18 
   3  -1  11   18.35    0.98 
  -3  -1 -11   18.99    1.01 
  -4  -1 -11    2.88    0.42 
   4  -1  11    3.05    0.44 
 -13  -2  11   11.54    0.67 
 -12  -2  11    2.39    0.32 
 -12   2  11    2.58    0.42 
 -11  -2  11    3.85    0.34 
 -11   2  11    3.36    0.46 
 -10  -2  11    1.24    0.23 
 -10   2  11    1.11    0.26 
  -9  -2  11   13.03    0.68 
  -9   2  11   11.25    0.75 
  -8  -2  11   38.85    1.51 
  -8   2  11   38.74    1.67 
  -7  -2  11   78.72    2.65 
  -7   2  11   72.69    2.65 
  -7   2  11   76.94    2.85 
  -6  -2  11    0.15    0.09 
  -6   2  11    0.08    0.11 
  -6   2  11   -0.11    0.07 
  -5  -2  11    2.90    0.29 
  -5   2  11    3.07    0.39 
  -5   2  11    2.53    0.38 
  -4  -2  11    1.67    0.25 
  -4   2  11    1.75    0.31 
  -4   2  11    1.64    0.30 
  -3  -2  11    2.95    0.30 
  -3   2  11    2.37    0.36 
  -3   2  11    2.35    0.36 
   2  -2 -11    2.81    0.38 
  -2  -2  11    2.91    0.30 
   2  -2 -11    3.01    0.39 
  -2   2  11    2.76    0.40 
   1  -2 -11   37.65    1.57 
  -1  -2  11   35.36    1.46 
   1  -2 -11   36.67    1.54 
   0  -2  11    9.36    0.59 
   0  -2 -11    9.68    0.66 
   1  -2  11   28.34    1.25 
  -1  -2 -11   28.41    1.33 
  -2  -2 -11    6.71    0.56 
   2  -2  11    5.44    0.46 
 -10  -3  11   15.78    0.84 
 -10   3  11   16.48    1.00 
  -9  -3  11    7.13    0.51 
  -9   3  11    6.82    0.61 
  -8  -3  11    1.92    0.31 
  -8   3  11    1.74    0.35 
  -7  -3  11    4.52    0.39 
  -7   3  11    4.37    0.46 
  -6  -3  11    1.15    0.23 
  -6   3  11    1.26    0.29 
  -5  -3  11    6.10    0.46 
  -5   3  11    4.66    0.47 
  -4  -3  11   32.78    1.40 
  -4  -3  11   29.90    1.30 
  -4   3  11   29.62    1.45 
  -3  -3  11   26.10    1.21 
  -3  -3  11   25.88    1.14 
  -3   3  11   25.95    1.31 
   2  -3 -11    1.62    0.32 
  -2  -3  11    1.78    0.31 
  -2  -3  11    2.28    0.32 
   2  -3 -11    1.95    0.35 
   1  -3 -11    0.54    0.20 
  -1  -3  11    0.77    0.19 
   1  -3 -11    0.33    0.18 
   0  -3 -11    2.43    0.39 
   0  -3  11    4.19    0.38 
   0  -3 -11    2.44    0.39 
  -5  -4  11    0.10    0.17 
  -4  -4  11    1.86    0.37 
  -3  -4  11    0.43    0.21 
  -3  -4  11    0.82    0.24 
 -11   0  12    0.03    0.09 
 -10   0  12   68.23    2.40 
  -9   0  12    0.05    0.10 
  -8   0  12   29.34    1.23 
  -7   0  12    0.01    0.09 
  -7   0  12    0.07    0.09 
  -6   0  12    5.20    0.41 
  -5   0  12   -0.06    0.07 
   4   0 -12   50.55    1.88 
   4   0 -12   52.01    1.93 
  -4   0  12   56.49    2.02 
   3   0 -12   -0.03    0.07 
   3   0 -12   -0.02    0.09 
  -3   0  12    0.07    0.10 
   2   0 -12   71.83    2.65 
  -2   0  12   78.39    2.70 
  -1   0  12    0.01    0.10 
   0   0  12    5.44    0.47 
   1   0  12    0.19    0.14 
   2   0  12    4.00    0.51 
   3   0  12    0.06    0.17 
 -13   1  12    0.74    0.26 
 -12  -1  12   17.25    0.83 
 -12   1  12   15.60    0.93 
 -11  -1  12    1.95    0.28 
 -11   1  12    1.70    0.31 
 -10  -1  12    0.37    0.14 
 -10   1  12    0.12    0.13 
  -9  -1  12    0.24    0.13 
  -9   1  12    0.23    0.14 
  -9   1  12    0.37    0.14 
  -8  -1  12   24.73    1.09 
  -8   1  12   24.68    1.18 
  -8   1  12   25.98    1.13 
  -7  -1  12    7.90    0.51 
  -7   1  12    8.35    0.55 
  -7   1  12    7.87    0.55 
  -6  -1  12  134.32    4.33 
  -6   1  12  131.29    4.37 
  -6   1  12  129.51    4.50 
  -5  -1  12    3.69    0.35 
  -5   1  12    3.24    0.35 
  -5   1  12    3.71    0.36 
  -4  -1  12    1.47    0.25 
  -4   1  12    1.29    0.26 
  -4   1  12    1.31    0.26 
  -3  -1  12    0.22    0.12 
   3  -1 -12    0.50    0.16 
   3  -1 -12    0.46    0.16 
  -3   1  12    0.24    0.15 
   2  -1 -12    4.75    0.40 
   2  -1 -12    4.90    0.41 
  -2  -1  12    4.43    0.40 
  -2   1  12    5.32    0.46 
   1  -1 -12    1.28    0.25 
  -1  -1  12    1.44    0.26 
  -1   1  12    1.50    0.29 
   0  -1  12   28.94    1.30 
   0  -1 -12   28.74    1.30 
   0   1  12   30.74    1.40 
  -1  -1 -12    3.04    0.41 
   1  -1  12    2.05    0.35 
   1   1  12    2.07    0.38 
  -2  -1 -12   18.03    0.98 
   2  -1  12   17.39    0.97 
  -3  -1 -12    0.45    0.20 
   3  -1  12    0.02    0.17 
 -12  -2  12    5.36    0.44 
 -12   2  12    6.00    0.56 
 -11  -2  12   10.06    0.62 
 -11   2  12    9.95    0.72 
 -10  -2  12   30.81    1.30 
 -10   2  12   30.51    1.45 
  -9  -2  12    7.40    0.51 
  -9   2  12    8.13    0.62 
  -8  -2  12   13.28    0.72 
  -8   2  12   12.41    0.80 
  -7  -2  12    2.12    0.31 
  -7   2  12    1.35    0.27 
  -7   2  12    2.60    0.39 
  -6  -2  12    5.04    0.42 
  -6   2  12    5.23    0.48 
  -6   2  12    5.27    0.46 
  -5  -2  12    8.30    0.54 
  -5   2  12    7.81    0.60 
  -5   2  12    8.67    0.61 
  -4  -2  12   17.80    0.89 
  -4   2  12   17.17    0.97 
  -4   2  12   19.17    1.00 
   3  -2 -12   16.49    0.90 
  -3  -2  12   16.16    0.85 
   3  -2 -12   16.80    0.89 
  -3   2  12   16.27    0.93 
  -2  -2  12   45.55    1.80 
   2  -2 -12   46.95    1.90 
   2  -2 -12   46.16    1.86 
  -2   2  12   45.93    1.92 
  -1  -2  12    2.44    0.36 
   1  -2 -12    2.91    0.41 
   1  -2 -12    2.77    0.40 
   0  -2 -12    4.51    0.45 
   0  -2  12    4.81    0.44 
  -1  -2 -12    0.34    0.17 
   1  -2  12    0.41    0.20 
  -9   3  12    1.52    0.35 
  -8  -3  12    0.12    0.13 
  -8   3  12    0.05    0.14 
  -7  -3  12   16.79    0.88 
  -7   3  12   16.81    1.02 
  -6  -3  12   56.46    2.11 
  -6   3  12   53.83    2.29 
  -5  -3  12   26.49    1.20 
  -5   3  12   25.41    1.34 
  -4  -3  12    0.51    0.18 
  -4   3  12    0.71    0.27 
  -3  -3  12    2.48    0.36 
   3  -3 -12    2.33    0.39 
   3  -3 -12    2.56    0.41 
   2  -3 -12    0.13    0.14 
   2  -3 -12    0.03    0.15 
  -2  -3  12    0.30    0.17 
  -1  -3  12    3.86    0.40 
 -11   0  13   13.76    0.74 
 -10   0  13   -0.05    0.10 
  -9   0  13    0.34    0.15 
  -8   0  13   -0.02    0.09 
  -7   0  13    9.19    0.58 
  -6   0  13   -0.08    0.09 
  -5   0  13  112.07    3.82 
  -4   0  13    0.01    0.10 
  -3   0  13   22.74    1.10 
  -2   0  13   -0.07    0.09 
  -1   0  13    2.65    0.39 
   0   0  13    0.32    0.18 
   1   0  13   60.16    2.40 
 -13   1  13    1.23    0.31 
 -12  -1  13    0.73    0.19 
 -12   1  13    0.32    0.18 
 -11  -1  13    7.15    0.51 
 -11   1  13    6.89    0.56 
 -10  -1  13    3.04    0.32 
 -10   1  13    2.84    0.40 
  -9  -1  13   18.00    0.88 
  -9   1  13   18.92    0.92 
  -9   1  13   16.32    0.93 
  -8  -1  13    1.08    0.23 
  -8   1  13    1.10    0.25 
  -8   1  13    1.11    0.24 
  -7  -1  13   58.42    2.18 
  -7   1  13   59.87    2.30 
  -7   1  13   59.54    2.23 
  -6  -1  13    3.14    0.34 
  -6   1  13    3.31    0.35 
  -6   1  13    2.94    0.40 
  -5  -1  13    5.69    0.46 
  -5   1  13    6.36    0.50 
  -5   1  13    5.68    0.47 
   4  -1 -13    0.93    0.22 
  -4  -1  13    0.73    0.20 
   4  -1 -13    0.94    0.22 
  -4   1  13    1.06    0.26 
   3  -1 -13   27.67    1.23 
  -3  -1  13   28.91    1.28 
   3  -1 -13   27.47    1.25 
  -3   1  13   29.30    1.34 
  -2  -1  13    9.07    0.64 
   2  -1 -13    9.56    0.62 
   2  -1 -13    9.96    0.64 
  -2   1  13    9.76    0.69 
  -1  -1  13   45.86    1.90 
   1  -1 -13   47.70    1.93 
  -1   1  13   49.95    2.02 
   0  -1  13    0.05    0.15 
   0  -1 -13    0.16    0.13 
   0   1  13   -0.04    0.13 
  -1  -1 -13   16.69    0.94 
   1  -1  13   16.30    0.95 
 -11  -2  13   20.01    0.99 
 -11   2  13   20.56    1.14 
 -10  -2  13    9.75    0.61 
 -10   2  13    7.74    0.66 
  -9  -2  13    5.84    0.46 
  -9   2  13    5.31    0.51 
  -8  -2  13    4.26    0.40 
  -8   2  13    4.19    0.45 
  -7  -2  13    0.14    0.13 
  -7   2  13    0.79    0.23 
  -7   2  13    0.00    0.13 
  -6  -2  13    1.81    0.30 
  -6   2  13    1.63    0.33 
  -6   2  13    1.88    0.34 
  -5  -2  13   67.83    2.47 
  -5   2  13   67.58    2.58 
  -5   2  13   67.54    2.64 
  -4  -2  13   25.74    1.18 
  -4   2  13   24.48    1.24 
  -4   2  13   24.64    1.27 
   3  -2 -13   12.57    0.77 
   3  -2 -13   11.81    0.75 
  -3  -2  13   12.00    0.73 
  -3   2  13   11.76    0.80 
   2  -2 -13    1.24    0.26 
  -2  -2  13    2.53    0.36 
   2  -2 -13    1.33    0.27 
  -2   2  13    2.42    0.40 
  -1  -2  13    7.04    0.56 
   1  -2 -13    7.66    0.60 
   0  -2  13   10.50    0.71 
 -11   0  14    0.12    0.13 
 -10   0  14   33.84    1.42 
  -9   0  14   -0.08    0.09 
  -8   0  14    1.08    0.24 
  -7   0  14   -0.04    0.10 
  -6   0  14   50.00    1.98 
  -5   0  14   -0.05    0.10 
  -4   0  14    2.51    0.37 
  -3   0  14   -0.09    0.10 
  -2   0  14   49.91    2.04 
 -12  -1  14    2.50    0.35 
 -12   1  14    2.45    0.41 
 -11  -1  14    1.84    0.30 
 -11   1  14    2.22    0.38 
 -10  -1  14   21.56    1.05 
 -10   1  14   22.17    1.14 
  -9  -1  14    5.51    0.46 
  -9   1  14    6.52    0.52 
  -9   1  14    6.13    0.52 
  -8  -1  14    3.66    0.37 
  -8   1  14    3.55    0.40 
  -8   1  14    5.45    0.46 
  -7  -1  14    2.25    0.34 
  -7   1  14    2.09    0.35 
  -7   1  14    2.13    0.35 
  -6  -1  14    2.75    0.38 
  -6   1  14    2.33    0.37 
  -6   1  14    2.51    0.38 
   5  -1 -14    1.50    0.28 
   5  -1 -14    1.33    0.27 
  -5  -1  14    1.28    0.27 
  -5   1  14    1.32    0.28 
  -5   1  14    1.18    0.28 
   4  -1 -14   37.31    1.58 
  -4  -1  14   37.24    1.60 
   4  -1 -14   38.04    1.56 
  -4   1  14   38.12    1.66 
   3  -1 -14    0.44    0.18 
   3  -1 -14    0.27    0.16 
  -3  -1  14    0.23    0.16 
  -3   1  14    0.42    0.19 
   2  -1 -14   25.22    1.17 
  -2  -1  14   21.77    1.14 
  -2   1  14   21.49    1.19 
   1  -1 -14    8.95    0.63 
   0  -1 -14    0.77    0.24 
  -9   2  14   -0.07    0.14 
  -8  -2  14    9.43    0.62 
  -8   2  14    8.61    0.69 
  -7  -2  14    8.48    0.60 
  -7   2  14    8.15    0.66 
  -7   2  14    8.88    0.65 
  -6  -2  14   19.49    1.00 
  -6   2  14   19.58    1.09 
  -6   2  14   19.11    1.07 
  -5  -2  14    1.91    0.34 
  -5   2  14    1.58    0.35 
  -5   2  14    2.26    0.40 
   4  -2 -14    0.70    0.24 
   4  -2 -14    1.12    0.27 
  -4  -2  14    0.57    0.21 
  -4   2  14    1.06    0.30 
 -11   0  15    2.98    0.41 
 -10   0  15    0.01    0.13 
  -9   0  15   20.35    1.04 
  -8   0  15    0.11    0.13 
  -7   0  15    1.32    0.30 
  -6   0  15    0.10    0.14 
  -5   0  15   18.50    1.02 
  -9  -1  15   27.03    1.27 
  -9   1  15   28.00    1.30 
  -8  -1  15    0.92    0.23 
  -8   1  15    0.60    0.21 
  -7  -1  15    7.62    0.58 
  -7   1  15    9.03    0.66 
  -6  -1  15    0.22    0.15 
  -6   1  15    0.08    0.14 
  -5   1  15    6.95    0.60 
   0   0   0    0.00    0.00 
;
_shelx_hkl_checksum              86471
loop_
_space_group_symop_operation_xyz
'x, y, z'
'-x+1/2, y+1/2, -z+1/2'
'-x, -y, -z'
'x-1/2, -y-1/2, z-1/2'
loop_
_atom_site_label
_atom_site_type_symbol
_atom_site_fract_x
_atom_site_fract_y
_atom_site_fract_z
_atom_site_U_iso_or_equiv
_atom_site_adp_type
_atom_site_occupancy
_atom_site_site_symmetry_order
_atom_site_calc_flag
_atom_site_refinement_flags_posn
_atom_site_refinement_flags_adp
K1 K 0.81501(5) 0.70778(13) 0.43013(4) 0.0264(3) Uani 1 1 d . .
O1 O 0.42993(19) 0.2933(4) 0.10960(16) 0.0326(5) Uani 1 1 d . .
O2 O 0.63525(18) 0.1850(4) 0.28851(16) 0.0307(4) Uani 1 1 d . .
C1 C 0.5117(2) 0.2944(5) 0.2339(2) 0.0229(5) Uani 1 1 d . .
C2 C 0.4570(2) 0.4442(6) 0.3227(2) 0.0288(5) Uani 1 1 d . .
H2 H 0.3689 0.5572 0.2814 0.035 Uiso 1 1 calc R U
C3 C 0.5254(2) 0.4269(6) 0.4562(2) 0.0284(5) Uani 1 1 d . .
H3 H 0.6130 0.3118 0.4969 0.034 Uiso 1 1 calc R U
loop_
_atom_site_aniso_label
_atom_site_aniso_U_11
_atom_site_aniso_U_22
_atom_site_aniso_U_33
_atom_site_aniso_U_23
_atom_site_aniso_U_13
_atom_site_aniso_U_12
K1 0.0284(4) 0.0271(4) 0.0196(3) 0.00095(15) 0.0080(2) 0.00023(16)
O1 0.0350(10) 0.0398(10) 0.0143(7) -0.0031(6) 0.0042(7) 0.0028(7)
O2 0.0291(9) 0.0388(10) 0.0232(8) 0.0010(6) 0.0114(7) 0.0059(7)
C1 0.0271(11) 0.0224(10) 0.0176(9) -0.0009(7) 0.0092(8) -0.0016(7)
C2 0.0300(11) 0.0332(12) 0.0235(10) -0.0025(8) 0.0128(9) 0.0029(9)
C3 0.0329(11) 0.0311(12) 0.0258(10) -0.0020(9) 0.0175(9) 0.0000(9)
loop_
_atom_type_symbol
_atom_type_description
_atom_type_scat_dispersion_real
_atom_type_scat_dispersion_imag
_atom_type_scat_source
C C 0.0033 0.0016 'International Tables Vol C Tables 4.2.6.8 and 6.1.1.4'
H H 0.0000 0.0000 'International Tables Vol C Tables 4.2.6.8 and 6.1.1.4'
O O 0.0106 0.0060 'International Tables Vol C Tables 4.2.6.8 and 6.1.1.4'
K K 0.2009 0.2494 'International Tables Vol C Tables 4.2.6.8 and 6.1.1.4'
loop_
_geom_angle_atom_site_label_1
_geom_angle_atom_site_label_2
_geom_angle_atom_site_label_3
_geom_angle
_geom_angle_site_symmetry_1
_geom_angle_site_symmetry_3
O2 K1 O1 82.69(5) 1_565 4_676
O2 K1 O1 158.88(6) 1_565 4_666
O1 K1 O1 95.40(5) 4_676 4_666
O2 K1 O2 83.04(5) 1_565 2_655
O1 K1 O2 118.89(5) 4_676 2_655
O1 K1 O2 115.68(6) 4_666 2_655
O2 K1 O2 94.28(6) 1_565 .
O1 K1 O2 159.44(6) 4_676 .
O1 K1 O2 80.13(5) 4_666 .
O2 K1 O2 80.65(5) 2_655 .
O2 K1 O1 106.91(5) 1_565 2_655
O1 K1 O1 84.14(6) 4_676 2_655
O1 K1 O1 93.75(5) 4_666 2_655
O2 K1 O1 45.23(5) 2_655 2_655
O2 K1 O1 116.04(5) . 2_655
O2 K1 C1 91.98(6) 1_565 2_655
O1 K1 C1 99.65(6) 4_676 2_655
O1 K1 C1 109.03(6) 4_666 2_655
O2 K1 C1 22.74(5) 2_655 2_655
O2 K1 C1 100.77(5) . 2_655
O1 K1 C1 23.08(5) 2_655 2_655
O2 K1 K1 150.21(4) 1_565 3_766
O1 K1 K1 89.21(4) 4_676 3_766
O1 K1 K1 50.22(4) 4_666 3_766
O2 K1 K1 75.92(4) 2_655 3_766
O2 K1 K1 102.69(4) . 3_766
O1 K1 K1 43.53(3) 2_655 3_766
C1 K1 K1 61.09(4) 2_655 3_766
O2 K1 K1 135.83(4) 1_565 1_545
O1 K1 K1 137.64(4) 4_676 1_545
O1 K1 K1 42.24(4) 4_666 1_545
O2 K1 K1 88.12(4) 2_655 1_545
O2 K1 K1 41.56(4) . 1_545
O1 K1 K1 96.50(4) 2_655 1_545
C1 K1 K1 96.18(4) 2_655 1_545
K1 K1 K1 64.927(16) 3_766 1_545
O2 K1 K1 86.43(4) 1_565 2_645
O1 K1 K1 156.91(4) 4_676 2_645
O1 K1 K1 101.92(4) 4_666 2_645
O2 K1 K1 39.15(4) 2_655 2_645
O2 K1 K1 41.55(3) . 2_645
O1 K1 K1 79.64(4) 2_655 2_645
C1 K1 K1 60.35(4) 2_655 2_645
K1 K1 K1 90.228(17) 3_766 2_645
K1 K1 K1 61.224(8) 1_545 2_645
O2 K1 K1 41.16(4) 1_565 2_655
O1 K1 K1 102.04(4) 4_676 2_655
O1 K1 K1 156.82(4) 4_666 2_655
O2 K1 K1 41.94(4) 2_655 2_655
O2 K1 K1 88.40(4) . 2_655
O1 K1 K1 73.21(3) 2_655 2_655
C1 K1 K1 53.25(4) 2_655 2_655
K1 K1 K1 114.33(2) 3_766 2_655
K1 K1 K1 118.776(8) 1_545 2_655
K1 K1 K1 57.552(17) 2_645 2_655
O2 K1 K1 97.22(4) 1_565 3_776
O1 K1 K1 44.96(4) 4_676 3_776
O1 K1 K1 96.09(4) 4_666 3_776
O2 K1 K1 78.84(4) 2_655 3_776
O2 K1 K1 155.02(4) . 3_776
O1 K1 K1 39.18(3) 2_655 3_776
C1 K1 K1 56.84(4) 2_655 3_776
K1 K1 K1 58.417(18) 3_766 3_776
K1 K1 K1 123.344(15) 1_545 3_776
K1 K1 K1 117.16(2) 2_645 3_776
K1 K1 K1 85.826(15) 2_655 3_776
C1 O1 K1 132.15(14) . 4_575
C1 O1 K1 132.44(14) . 4_565
K1 O1 K1 95.40(5) 4_575 4_565
C1 O1 K1 87.44(14) . 2_645
K1 O1 K1 95.87(6) 4_575 2_645
K1 O1 K1 86.25(5) 4_565 2_645
C1 O2 K1 148.57(15) . 1_545
C1 O2 K1 99.04(13) . 2_645
K1 O2 K1 99.70(6) 1_545 2_645
C1 O2 K1 108.39(13) . .
K1 O2 K1 94.28(6) 1_545 .
K1 O2 K1 96.51(6) 2_645 .
O2 C1 O1 124.9(2) . .
O2 C1 C2 117.98(19) . .
O1 C1 C2 117.1(2) . .
O2 C1 K1 58.22(11) . 2_645
O1 C1 K1 69.48(13) . 2_645
C2 C1 K1 160.75(15) . 2_645
C3 C2 C1 123.4(2) . .
C2 C3 C3 124.1(3) . 3_666
loop_
_geom_bond_atom_site_label_1
_geom_bond_atom_site_label_2
_geom_bond_distance
_geom_bond_site_symmetry_2
K1 O2 2.6436(17) 1_565
K1 O1 2.6833(18) 4_676
K1 O1 2.6897(17) 4_666
K1 O2 2.7558(17) 2_655
K1 O2 2.7765(18) .
K1 O1 3.001(2) 2_655
K1 C1 3.201(2) 2_655
K1 K1 3.8970(11) 3_766
K1 K1 3.9739(7) 1_545
K1 K1 4.1276(10) 2_645
K1 K1 4.1276(10) 2_655
K1 K1 4.2253(11) 3_776
O1 C1 1.257(3) .
O1 K1 2.6832(17) 4_575
O1 K1 2.6897(17) 4_565
O1 K1 3.001(2) 2_645
O2 C1 1.253(3) .
O2 K1 2.6435(17) 1_545
O2 K1 2.7557(17) 2_645
C1 C2 1.501(3) .
C1 K1 3.201(2) 2_645
C2 C3 1.330(3) .
C3 C3 1.455(4) 3_666
