#------------------------------------------------------------------------------
#$Date: 2019-11-24 21:46:52 +0200 (Sun, 24 Nov 2019) $
#$Revision: 239508 $
#$URL: file:///home/coder/svn-repositories/cod/cif/4/51/67/4516749.cif $
#------------------------------------------------------------------------------
#
# This file is available in the Crystallography Open Database (COD),
# http://www.crystallography.net/
#
# All data on this site have been placed in the public domain by the
# contributors.
#
data_4516749
loop_
_publ_author_name
'Jaffe, Adam'
'Lin, Yu'
'Beavers, Christine M.'
'Voss, Johannes'
'Mao, Wendy L.'
'Karunadasa, Hemamala I.'
_publ_section_title
;
 High-Pressure Single-Crystal Structures of 3D Lead-Halide Hybrid
 Perovskites and Pressure Effects on their Electronic and Optical
 Properties.
;
_journal_issue                   4
_journal_name_full               'ACS central science'
_journal_page_first              201
_journal_page_last               209
_journal_paper_doi               10.1021/acscentsci.6b00055
_journal_volume                  2
_journal_year                    2016
_chemical_formula_sum            'C H6 I3 N Pb'
_chemical_formula_weight         619.96
_chemical_name_common            MAPbI3
_space_group_crystal_system      cubic
_space_group_IT_number           204
_space_group_name_Hall           '-I 2 2 3'
_space_group_name_H-M_alt        'I m -3'
_atom_sites_solution_primary     direct
_atom_sites_solution_secondary   difmap
_audit_creation_method           SHELXL-2014/7
_cell_angle_alpha                90
_cell_angle_beta                 90
_cell_angle_gamma                90
_cell_formula_units_Z            8
_cell_length_a                   12.3053(9)
_cell_length_b                   12.3053(9)
_cell_length_c                   12.3053(9)
_cell_measurement_reflns_used    4328
_cell_measurement_temperature    296(2)
_cell_measurement_theta_max      14.6
_cell_measurement_theta_min      2.33
_cell_volume                     1863.3(2)
_computing_cell_refinement       'SAINT V8.34A(Bruker, 2013)'
_computing_data_collection       'Apex2 v2014.11-0 (Bruker, 2014)'
_computing_data_reduction        SAINT
_computing_molecular_graphics
;
     	SHELXTL 5.1, XP (Sheldrick, 1994)
	ShelXle Rev 699 (Hubschle, 2011)
;
_computing_publication_material  SHELXL-2014/7
_computing_structure_refinement  'SHELXL-2014/7 (Sheldrick, 2014)'
_computing_structure_solution    'SHELXT (Sheldrick, 2012)'
_diffrn_ambient_temperature      296(2)
_diffrn_detector_area_resol_mean 5
_diffrn_measured_fraction_theta_full 0.949
_diffrn_measured_fraction_theta_max 0.948
_diffrn_measurement_device_type  'Perkin-Elmer a-Si Detector'
_diffrn_measurement_method       \f
_diffrn_radiation_monochromator  silicon(111)
_diffrn_radiation_source         'Advanced Light Source Beamline 12.2.2'
_diffrn_radiation_type           synchrotron
_diffrn_radiation_wavelength     0.35424
_diffrn_reflns_av_R_equivalents  0.0608
_diffrn_reflns_av_unetI/netI     0.0274
_diffrn_reflns_Laue_measured_fraction_full 0.949
_diffrn_reflns_Laue_measured_fraction_max 0.948
_diffrn_reflns_limit_h_max       7
_diffrn_reflns_limit_h_min       -7
_diffrn_reflns_limit_k_max       16
_diffrn_reflns_limit_k_min       -16
_diffrn_reflns_limit_l_max       16
_diffrn_reflns_limit_l_min       -16
_diffrn_reflns_number            5640
_diffrn_reflns_point_group_measured_fraction_full 0.949
_diffrn_reflns_point_group_measured_fraction_max 0.948
_diffrn_reflns_theta_full        12.271
_diffrn_reflns_theta_max         13.629
_diffrn_reflns_theta_min         1.650
_exptl_absorpt_coefficient_mu    11.456
_exptl_absorpt_correction_T_max  0.4221
_exptl_absorpt_correction_T_min  0.2323
_exptl_absorpt_correction_type   multi-scan
_exptl_absorpt_process_details   'SADABS-2014/5 (Sheldrick, 2014)'
_exptl_crystal_colour            black
_exptl_crystal_density_diffrn    4.420
_exptl_crystal_description       lath
_exptl_crystal_F_000             2080
_exptl_crystal_size_max          0.020
_exptl_crystal_size_mid          0.020
_exptl_crystal_size_min          0.010
_refine_diff_density_max         4.672
_refine_diff_density_min         -3.224
_refine_diff_density_rms         0.553
_refine_ls_extinction_coef       0.066(16)
_refine_ls_extinction_expression Fc^*^=kFc[1+0.001xFc^2^\l^3^/sin(2\q)]^-1/4^
_refine_ls_extinction_method     'SHELXL-2014/7 (Sheldrick 2014'
_refine_ls_goodness_of_fit_ref   1.145
_refine_ls_hydrogen_treatment    undef
_refine_ls_matrix_type           full
_refine_ls_number_parameters     51
_refine_ls_number_reflns         418
_refine_ls_number_restraints     38
_refine_ls_restrained_S_all      1.200
_refine_ls_R_factor_all          0.1138
_refine_ls_R_factor_gt           0.0949
_refine_ls_shift/su_max          0.000
_refine_ls_shift/su_mean         0.000
_refine_ls_structure_factor_coef Fsqd
_refine_ls_weighting_details
'w=1/[\s^2^(Fo^2^)+(0.2000P)^2^+35.0000P] where P=(Fo^2^+2Fc^2^)/3'
_refine_ls_weighting_scheme      calc
_refine_ls_wR_factor_gt          0.2824
_refine_ls_wR_factor_ref         0.3255
_reflns_Friedel_coverage         0.000
_reflns_number_gt                251
_reflns_number_total             418
_reflns_threshold_expression     'I > 2\s(I)'
_cod_data_source_file            oc6b00055_si_004.cif
_cod_data_source_block           MAPbI3_0p7GPa
_cod_original_cell_volume        1863.3(4)
_cod_original_formula_sum        'C H6 N I3 Pb'
_cod_database_code               4516749
_shelx_shelxl_version_number     2014/7
_shelx_space_group_comment
;
The symmetry employed for this shelxl refinement is uniquely defined
by the following loop, which should always be used as a source of
symmetry information in preference to the above space-group names.
They are only intended as comments.
;
_shelx_estimated_absorpt_t_min   0.803
_shelx_estimated_absorpt_t_max   0.894
_exptl_absorpt_special_details
;
Additional spherical absorption correction applied with mu*r =  0.6000
;
_shelx_res_file
;

    sad8_y.res created by SHELXL-2014/7


TITL sad7_a.res in Im-3
REM Old TITL sad7 in Im-3

REM SHELXT solution in Im-3
REM R1 0.272,  Rweak 0.001,  Alpha 0.005,  Orientation as input
REM Formula found by SHELXT:  I3 Pb

CELL  0.35424  12.3053  12.3053  12.3053   90.000   90.000   90.000
ZERR    8.000   0.0009   0.0009   0.0009    0.000    0.000    0.000
LATT  2
SYMM -X, -Y, Z
SYMM -X, Y, -Z
SYMM X, -Y, -Z
SYMM Z, X, Y
SYMM Z, -X, -Y
SYMM -Z, -X, Y
SYMM -Z, X, -Y
SYMM Y, Z, X
SYMM -Y, Z, -X
SYMM Y, -Z, -X
SYMM -Y, -Z, X
SFAC C H N I PB
DISP $C -0.00053  0.00034  4.57161!source kissel
DISP $H -0.00003  0.00000  0.62751!source kissel
DISP $N -0.00022  0.00070  6.11009!source kissel
DISP $I -1.98446  3.21726 6584.02776!source kissel
DISP $Pb -0.67162  3.28917 6916.16902!source kissel
UNIT 8 48 8 24 8
LIST 6 ! automatically inserted. Change 6 to 4 for CHECKCIF!!
OMIT 0 0 4
OMIT 0 0 14
OMIT 0 0 10
OMIT 6 8 8
OMIT 0 1 1
TEMP 23.000
L.S. 30
Shel 999 0.75
size 0.020 0.020 0.01 !black lath
BOND
ACTA
REM LIST 6
FMAP 2
PLAN 20
EXYZ C2 N2
EADP C2 N2
SIMU C1 N1
DFIX 1.53 0.06 N1 C1
ISOR 0.01 I1a I1b I1c I1d I1E I1F
REM SUMP 1.00000 0.00001 1 2 1 3 1 4 1 5 1 6 1 7
WGHT    0.200000   35.000000
EXTI    0.065603
FVAR       0.21170   0.20634   0.15058   0.28857   0.16269   0.08731   0.10451
PB1   5    0.250000    0.250000    0.750000    10.16667    0.05866    0.05866 =
         0.05866    0.00022    0.00022   -0.00022
I1A   4    0.283371    0.500000    0.773639    10.14429    0.05994    0.06865 =
         0.06114    0.00000    0.00424    0.00000
I1B   4    0.320119    0.500000    0.766148    10.10317    0.06664    0.05842 =
         0.07721    0.00000    0.00502    0.00000
I1C   4    0.255881    0.500000    0.802229    10.08135    0.07028    0.05875 =
         0.07262    0.00000    0.00225    0.00000
I1D   4    0.298776    0.500000    0.811333    10.07529    0.06498    0.05758 =
         0.06245    0.00000   -0.01798    0.00000
I1E   4    0.204975    0.500000    0.758569    10.05225    0.08720    0.00625 =
         0.11425    0.00000   -0.00784    0.00000
I1F   4    0.292028    0.500000    0.723168    10.04365    0.06641    0.01076 =
         0.05301    0.00000    0.00941    0.00000
C1    1    0.500000    0.500000    0.500000    10.04167    0.23417
N1    3    0.623260    0.500000    0.500000    10.04167    0.23123
C2    1    0.061479    0.500000    1.000000    10.12500    0.16347
N2    3    0.061479    0.500000    1.000000    10.12500    0.16347
HKLF 4

REM  sad7_a.res in Im-3
REM R1 =  0.0949 for     251 Fo > 4sig(Fo)  and  0.1138 for all     418 data
REM     51 parameters refined using     38 restraints

END

WGHT      0.2000      0.0000

REM Highest difference peak  4.672,  deepest hole -3.224,  1-sigma level  0.553
Q1    1   0.2577  0.5000  0.6830  10.50000  0.05    2.67
Q2    1   0.0000  0.4179  1.0000  10.25000  0.05    1.70
Q3    1   0.0623  0.5000  0.7678  10.50000  0.05    1.48
Q4    1   0.0000  0.5000  1.1487  10.25000  0.05    1.22
Q5    1   0.1149  0.4654  1.0000  10.50000  0.05    1.10
Q6    1   0.1400  0.5000  1.0000  10.25000  0.05    1.07
Q7    1   0.2907  0.5000  0.6143  10.50000  0.05    1.03
Q8    1   0.2096  0.5795  0.7168  11.00000  0.05    1.03
Q9    1   0.1233  0.6017  0.7508  11.00000  0.05    0.87
Q10   1   0.1809  0.5000  0.9132  10.50000  0.05    0.83
Q11   1   0.0000  0.3392  1.0000  10.25000  0.05    0.83
Q12   1   0.2224  0.4871  1.0000  10.50000  0.05    0.81
Q13   1   0.4591  0.5150  0.8422  11.00000  0.05    0.78
Q14   1   0.3464  0.5000  0.8749  10.50000  0.05    0.68
Q15   1   0.0551  0.3639  1.0294  11.00000  0.05    0.66
Q16   1   0.6123  0.5000  0.5665  10.50000  0.05    0.65
Q17   1   0.4039  0.5538  0.7603  11.00000  0.05    0.65
Q18   1   0.5894  0.5000  0.5000  10.25000  0.05    0.63
Q19   1   0.2513  0.3525  0.7510  11.00000  0.05    0.61
Q20   1   0.1589  0.6207  0.7521  11.00000  0.05    0.59
;
_shelx_res_checksum              99456
_shelx_hkl_file
;
   0  -1  -1    0.00    0.10
   0   1   1    0.00    0.10
   0   1   1    0.00    0.10
   0  -1  -1    0.00    0.10
   0   0   2 3608.44   40.10
   0   0  -2 3638.84   37.70
   0  -2   0 4054.29   46.90
  -1   1   2    9.90    2.80
  -1   1   2   12.90    3.70
  -1   2   1    9.70    3.30
  -1  -1  -2   10.80    2.50
  -1   1   2   10.80    2.90
  -1  -2  -1   12.40    2.80
  -1  -2  -1   12.60    3.50
  -1  -1  -2   11.10    2.90
   1  -1  -2   12.10    3.40
   1   1   2    9.80    2.30
   1   1   2   10.90    2.80
   1  -2  -1   10.20    2.70
   1  -1  -2    8.50    2.40
   1   2   1    8.50    2.40
   1  -2  -1    8.90    2.70
   1  -1  -2   11.40    3.20
   0  -2  -2 1710.93   37.40
   0   2   2 1541.65   39.10
   0   2   2 1680.93   39.80
   0  -3  -1 1165.28   32.80
   0  -3   1 1172.98   26.30
   0   3  -1 1226.18   28.80
   0   3   1 1169.98   34.70
   1   0   3 1217.88   25.70
   0  -3  -1 1215.38   35.50
   1   0  -3 1134.99   29.30
  -1  -3   0 1359.96   34.80
   0  -1   3 1380.66   19.00
   0   1   3 1644.84   38.10
   1  -3   0 1574.14   36.30
   1   3   0 1718.23   38.30
  -1   3   0 1518.75   47.70
   0  -1  -3 1352.56   31.40
  -1  -3   0 1521.35   34.80
  -1   3   0 1673.23   37.10
  -1  -3  -2  927.91   36.50
   1  -3   2  841.32   22.50
   1   3  -2  907.81   22.30
  -1  -3  -2  873.11   31.90
  -1   3   2  957.50   44.80
  -1   3   2  820.82   30.60
   1   3   2  879.71   32.90
   1  -3  -2  839.52   33.50
   1  -3  -2 1015.50   49.80
  -1  -2  -3 1472.35   39.00
  -1   2   3 1600.24   55.69
  -1   2   3 1676.03   42.80
   1   2   3 1749.53   44.40
   1  -2  -3 1636.74   44.50
   2  -3  -1 1858.21   52.99
   2   3   1 1664.13   43.30
   0   3  -3  340.97   12.30
   0  -3  -3  386.76   28.00
   0  -3  -3  346.57   20.60
   0  -3   3  336.07    9.40
   0   3  -3  376.26   11.00
   0   3   3  366.96   23.00
   0  -3  -3  350.56   23.10
   0   3   3  356.06   23.70
   0   3   3  403.06   30.30
   0  -3   3  312.37   10.70
   0  -3   3  379.96   13.80
   0   3  -3  353.76   10.30
  -2  -3  -3   48.10    7.70
  -2   3   3   62.99   13.10
  -2  -3  -3   50.59    9.20
  -2   3   3   47.10    8.90
  -2   3   3   65.69   12.40
   2   3   3   44.80    7.80
   2   3   3   55.99   10.40
   2  -3  -3   53.09    8.80
   2  -3  -3   50.69    9.80
   0   0  -4 7605.74   75.89
   0  -4   0 9440.96  100.69
   0   0   4 8553.34   89.99
   0   4   0 9999.00  113.19
   0  -4   2 5745.73   67.99
   0  -4  -2 5665.63   87.99
   0   4  -2 6131.29   75.49
   0   4   2 6061.69   99.49
   1  -4   1    0.20    0.60
  -1   1   4    0.50    0.90
   1  -4   1    0.10    0.10
   1   1  -4    0.20    0.40
  -1  -1  -4    0.00    0.10
  -1   1   4    0.00    0.10
  -1   4   1    0.00    0.10
   1  -4   1    0.00    0.10
   1  -1   4    0.30    0.40
   1   1  -4    0.00    0.10
   1   4  -1    0.00    0.10
  -1  -1  -4    0.40    0.70
   1   4  -1    0.40    0.90
  -1  -4  -1    0.00    0.10
  -1  -4  -1    0.60    1.30
   1  -4  -1    0.00    0.10
  -1   4  -1    0.30    0.50
   1   1   4    0.00    0.10
  -1  -4   1    0.10    0.20
  -1  -4   1    0.30    0.60
   1  -4  -1    0.20    0.60
  -1  -1   4    0.30    0.60
  -1   1  -4    0.10    0.20
  -1   4  -1    0.10    0.10
  -1  -4   1    0.00    0.10
   1  -1  -4    0.00    0.10
   1   4   1    0.00    0.10
   1  -1  -4    0.10    0.20
  -1  -4  -3  198.68   17.60
  -1   4   3  192.28   17.80
   1  -4   3  199.18   11.10
  -1   4   3  197.98   20.50
   1   4  -3  200.38   13.10
  -1  -4  -3  191.68   19.10
  -1   4   3  187.18   20.60
   1   4  -3  216.58   11.60
   1  -4   3  190.98   12.90
   1   4   3  175.28   18.70
   1  -4  -3  182.58   19.00
  -1   4  -3  213.98   15.50
   1   4   3  193.28   17.30
   1  -4  -3  212.78   27.60
  -1  -4   3  232.88   12.40
   0  -2  -4 5017.30   77.59
   2  -4   0 6063.59   93.49
   0   2   4 5670.03   91.19
   2   4   0 5632.64   86.09
  -2  -4  -2 3515.55   70.09
  -2  -2  -4 3905.11   70.69
  -2   4   2 4065.29   85.09
   2  -2  -4 3588.34   71.09
   2  -4  -2 3879.11   78.99
   2  -2  -4 3534.55   85.49
   2   2   4 3908.21   73.29
   2   4   2 3992.20   79.29
  -1  -3  -4  464.25   27.00
  -1  -3  -4  543.55   38.80
  -1   3   4  510.05   28.10
  -1  -3  -4  491.25   29.90
  -1   3   4  454.35   30.50
   1  -3  -4  454.45   34.60
   1  -3  -4  435.76   33.50
   1  -3  -4  488.75   30.50
  -3  -4  -3  217.78   20.50
  -3   3   4  208.98   20.60
  -3  -4  -3  222.88   24.40
  -3   4   3  195.28   20.70
  -3   4   3  247.48   29.90
   3   3   4  239.18   20.20
   3  -4  -3  196.38   25.90
   3  -3  -4  214.08   21.20
   3   4   3  222.18   19.20
   3   4   3  203.28   23.10
   3  -4  -3  202.08   20.50
   3   3   4  198.78   19.90
   3   4   3  173.48   17.40
   0   4  -4 6384.26   55.29
   0  -4  -4 6670.13  105.39
  -2   4   4 6110.59  151.48
  -2   4   4 5781.52  108.19
   2  -4  -4 5903.31  113.29
   2   4   4 6814.62  115.19
   1   0  -5  296.27   16.60
   1   0   5  307.47   16.30
   0  -5   1  267.97   17.10
   0   5  -1  301.47   19.90
   0   5   1  295.57   22.30
  -1   0  -5  335.97   19.20
  -1   0   5  300.57   22.10
   0  -5   1  296.57   20.90
   0   5  -1  288.77   21.10
   1   0  -5  301.97   18.60
  -1   0   5  277.57   19.50
  -1   0   5  332.07   19.00
   0  -5  -1  300.97   20.20
   1   0   5  270.17   15.20
   1   0   5  258.77   16.60
   0  -5  -1  251.57   20.70
   0  -5   1  258.57   19.10
   1   0  -5  277.67   18.90
  -1   0  -5  305.47   15.60
   0   5  -1  276.97   22.20
  -1   0  -5  249.58   15.30
   0   5   3 3562.74   88.39
   0  -5  -3 3319.27   75.39
   0  -5   3 3167.98   52.29
   0   5  -3 3488.45   60.39
  -1  -5   0  540.05   32.00
   1   5   0  561.54   32.30
   0  -1   5  600.64   20.60
   0   1  -5  666.73   26.00
   1   5   0  599.84   27.50
   1  -5   0  546.95   36.20
   1   5   0  611.54   29.10
   0   1   5  598.34   33.70
  -1  -5   0  693.83   36.20
   0  -1   5  646.04   19.40
   0  -1  -5  605.94   24.50
   1  -5   0  641.24   37.70
   1  -5   0  568.64   30.90
  -1   5   0  612.94   28.50
  -1   5   0  561.34   32.20
   0   1   5  618.94   28.80
  -1  -5   0  585.14   27.60
   0   1   5  623.44   29.00
  -1   5   2   43.90   10.20
  -2  -1  -5   50.89    8.60
  -1  -5  -2   42.00    9.30
  -1   5   2   44.10   10.90
   1  -5   2   38.60    7.90
   1  -5   2   46.30    7.70
   1   5  -2   42.30    6.70
  -2   1   5   40.00    7.90
  -1  -5  -2   40.90    9.50
  -1  -5  -2   43.00    8.20
  -2  -1  -5   42.10    5.80
  -1   5   2   44.50    8.80
   1  -5   2   37.90    6.60
   1   5  -2   40.90    6.40
   1   5  -2   42.50    7.70
  -2   1   5   47.90    9.10
   2  -1  -5   45.60    9.00
   1   5   2   47.70    8.60
  -1  -5   2   44.40    6.80
  -1   5  -2   48.60    7.90
   2   1   5   50.09    7.40
   1  -5  -2   29.90    7.50
   2  -1  -5   46.30    7.60
   2  -1  -5   46.60   10.70
   1  -5  -2   37.90   10.80
  -1  -5   2   39.10    7.20
  -1   5  -2   48.80    6.70
   2   1   5   51.59    8.80
   2   1   5   54.09    7.90
  -1   5  -2   42.10    8.10
  -1  -5   2   46.60    6.40
   1   5  -4  105.59    8.60
   1  -5   4   88.99    9.90
  -1  -5  -4   82.19   12.70
   1   5  -4   97.59    9.70
  -1   5   4   94.39   14.10
  -1  -5  -4   84.09   14.80
   1  -5   4   96.09    8.80
  -1   5  -4   88.99    9.50
   1  -5  -4   92.19   20.30
  -1  -5   4   97.09    9.40
   1   5   4  103.59   13.90
   1  -5  -4  100.69   14.90
   1   5   4   85.59   13.60
  -1  -2  -5  441.36   30.20
   2   5  -1  445.46   22.00
   1  -2   5  470.15   12.90
  -2   5   1  500.85   41.60
  -1   2   5  449.46   28.70
  -2  -5  -1  477.45   26.50
   2  -5   1  408.86   27.00
  -2   5   1  430.56   32.70
   2  -5   1  451.65   24.60
   2   5  -1  476.75   24.80
  -1  -2  -5  431.76   25.00
  -2  -5  -1  421.26   24.20
  -1   2   5  444.86   29.40
  -2   5   1  455.45   28.20
   2  -5   1  456.25   30.60
  -1   2   5  451.85   24.50
  -1   2  -5  491.35   12.90
   1  -2  -5  451.85   33.50
  -1  -2   5  451.05   16.10
   2  -5  -1  456.15   28.10
   1   2   5  456.75   23.70
   2   5   1  488.05   28.90
   2  -5  -1  448.96   26.50
   1   2   5  486.35   25.10
   1   2   5  406.96   25.70
  -2   5  -1  464.45   26.20
   2   5   1  443.86   32.40
  -2   5  -1  407.36   28.20
   1  -2  -5  464.05   28.10
  -2  -5   1  499.55   21.10
   1  -2  -5  444.76   32.20
   2   5   1  530.25   30.70
  -2   5  -1  442.56   28.30
  -2  -5  -3  898.81   48.90
   2  -5   3  880.51   31.50
  -2  -5  -3  866.11   39.60
  -2   5   3  708.83   43.60
   2  -5   3  715.63   33.00
  -2   5   3  863.41   40.30
   3  -2  -5  856.21   43.10
   2  -5  -3  785.82   44.00
   3   2   5  912.21   36.60
  -2   5  -3  860.71   32.60
   2  -5  -3  690.83   43.60
   2   5   3  753.02   38.80
  -2  -5   3  925.61   31.40
   2  -5  -3  866.41   43.30
   3   2   5  759.52   38.50
   0   3   5 1705.53   58.59
   0  -3  -5 1613.94   49.10
   3  -5   0 1378.36   63.19
   0   3   5 1720.43   58.19
   3  -5   0 1739.03   61.39
   0  -3  -5 1856.71   63.29
  -2  -3  -5 2708.73   66.09
  -3   5   2 2489.65   80.29
  -2   3   5 2764.92   73.39
   3   5   2 2633.74   71.59
   3   5   2 2433.66   62.59
   2  -3  -5 2686.23   70.89
   3  -5  -2 2586.74   93.29
   2   3   5 2742.53   69.59
   3  -5  -2 2808.42   75.59
  -3   5   4  223.38   24.70
  -3   5   4  212.48   29.50
  -3   5   4  216.98   30.10
  -3  -5  -4  248.88   22.30
   3  -5  -4  185.18   23.20
   3   5   4  260.37   23.30
   3  -5  -4  220.68   22.00
   3   5   4  232.98   22.80
  -1  -4  -5   29.30    7.10
   1  -4   5   43.40    3.50
  -1   4   5   35.60    8.20
  -1  -4  -5   34.00    8.70
  -1   4   5   41.20   10.80
   1   4   5   37.20    9.60
   1   4   5   42.80    8.60
   1  -4  -5   40.30   10.60
   1  -4  -5   36.30    8.60
  -3   4   5 1395.86   58.79
  -3   4   5 1414.96   75.59
  -3  -4  -5 1222.48   48.60
   3   4   5 1290.27   52.09
   3  -4  -5 1397.06   65.99
   3  -4  -5 1128.99   60.39
   3   4   5 1452.25   54.19
   3  -4  -5 1330.87   54.79
   0   5  -5  152.98    9.30
   0   5  -5  165.98    8.40
   0  -5  -5  162.48   21.90
   0  -5  -5  144.19   16.90
   0   5   5  131.39   18.80
  -2   5   5  402.36   30.00
   2  -5   5  359.56   18.50
  -2  -5  -5  369.06   36.10
  -2  -5  -5  304.57   25.70
   2  -5   5  290.57   18.20
   2   5   5  322.57   31.30
   2  -5  -5  335.87   29.50
   2  -5  -5  314.87   33.80
   2   5   5  334.77   27.50
  -2   5  -5  312.07   19.70
  -4  -5  -5   72.29   12.20
   4   5   5   65.59   12.60
   4   5   5   73.19   12.20
   4  -5  -5   75.09   16.20
   4  -5  -5   62.79   12.50
   0   6   0 1062.79   44.40
   0   0  -6 1113.69   45.10
   0  -6   0 1011.30   45.60
   0  -6   0  992.30   38.70
   0   0   6 1026.40   37.40
   0   6   0  921.01   44.10
   0   6   0  917.21   48.40
   0   0   6 1013.40   33.40
   0   6   2 1210.18   52.59
  -2   0   6 1093.19   41.00
   0  -6  -2 1223.88   54.89
   0   6   2 1032.60   56.69
   0  -6   2 1118.79   37.10
   0   6  -2 1218.98   44.00
   0   6  -2 1229.28   47.50
   0   6   2 1130.59   52.19
   0  -6  -2 1107.79   44.70
   0  -6   2 1216.08   43.70
   2   0   6 1114.99   34.90
   0   6  -4 1287.17   32.70
   0  -6  -4 1180.28   50.99
   0  -6   4 1317.27   34.50
   0   6  -4 1395.56   37.70
   0   6   4 1341.57   61.39
   0   6   4 1177.48   68.19
  -1  -6  -1    0.60    1.30
   1   6  -1    0.40    0.70
   1  -1   6    0.60    0.70
  -1  -1  -6    0.50    1.00
   1   1  -6    0.60    0.80
   1  -6   1    0.50    1.10
  -1  -1  -6    0.30    0.70
  -1   6   1    0.00    0.10
  -1   6   1    0.40    1.00
   1   1  -6    0.10    0.10
   1  -1   6    0.10    0.20
   1  -6   1    0.30    0.30
   1  -6  -1    0.00    0.10
   1   1   6    0.20    0.40
  -1  -1   6    0.10    0.30
  -1  -6   1    0.30    0.50
   1  -6  -1    0.50    1.10
   1  -1  -6    0.40    0.80
  -1   6  -1    0.10    0.30
   1   6   1    0.20    0.40
   1   1   6    0.20    0.10
  -1   1  -6    0.20    0.30
  -1   6  -1    0.30    0.30
  -1   6  -1    0.80    1.40
   1  -1  -6    0.50    1.00
   1  -1  -6    0.60    0.80
  -1   6   3  111.79   15.90
   1  -6   3  122.09   12.50
  -1  -6  -3  112.99   15.40
   1   6  -3  124.69   13.40
   1   6  -3  113.39   10.20
  -3  -1  -6  114.69   13.00
   1  -6   3  104.89   12.60
  -1  -6  -3  100.89   16.20
   1  -6   3  115.89   11.50
   3   1   6  118.09   14.50
   1   6   3  106.59   15.60
   1   6   3  105.69   14.40
   1   6   3  103.29   16.40
   3   1   6  121.99   12.60
   1  -6  -3  106.59   15.30
  -1  -6   3  100.09   10.80
  -1   6  -3  124.59   11.60
   1  -6  -3  105.09   19.70
  -1  -6   3  105.99    9.70
  -1   6  -3  117.49   13.10
  -1   6  -3  119.49   13.40
  -1  -6   3  123.49   13.50
  -1   6   5   36.30   11.20
   1  -6   5   34.60    4.80
  -1   6   5   39.50   12.00
   1   6  -5   37.10    5.10
   1  -6   5   33.60    5.40
  -1   6   5   27.10    9.40
   1   6  -5   33.80    5.60
  -1  -6  -5   29.50    8.30
  -1  -6  -5   35.10   10.90
  -1   6  -5   29.40    5.30
   1  -6  -5   29.90   10.00
   1   6   5   20.90    7.70
   1   6   5   36.90    9.80
   1   6   5   41.10   12.20
   0   2   6  592.24   33.30
   0  -2   6  693.03   18.10
   0   2  -6  561.04   19.30
   0   2   6  558.54   38.70
   2  -6   0  551.34   37.40
   2   6   0  558.24   37.70
   2   6   0  619.84   34.00
  -2  -6   0  514.35   31.50
  -2  -6   0  584.14   29.00
   0  -2   6  638.14   17.40
  -2   6   0  598.94   33.20
   2  -6   0  586.14   33.30
  -2   6   0  622.44   46.70
   2  -6   0  616.64   33.70
   0  -2  -6  590.94   28.90
   0  -2  -6  512.45   30.60
   0   2  -6  619.14   17.00
  -2  -6   0  623.74   32.00
   2   6   0  548.15   29.90
   0   2   6  663.83   35.70
  -2   2   6  733.63   47.30
  -2   2   6  734.53   38.20
   2  -6   2  778.02   41.60
  -2  -6  -2  673.43   35.70
   2   6  -2  714.03   29.50
   2   6  -2  666.13   30.30
  -2  -6  -2  766.72   43.90
  -2  -2  -6  648.64   30.40
  -2   6   2  637.24   35.30
  -2  -2  -6  589.14   33.50
  -2   2   6  609.74   39.50
   2  -6   2  674.03   30.90
   2  -6   2  573.74   33.30
   2   6  -2  619.84   34.30
  -2  -6  -2  592.74   35.40
  -2   6  -2  743.83   42.90
  -2   6  -2  698.23   33.00
  -2   6  -2  599.74   35.00
   2   2   6  749.82   34.10
   2  -2  -6  579.94   36.40
   2  -2  -6  768.82   40.60
   2  -6  -2  729.73   41.80
  -2  -6   2  678.73   32.30
   2   2   6  697.93   33.50
   2  -6  -2  716.13   51.49
   2  -2  -6  664.63   34.00
   2  -6  -2  642.34   40.60
   2   6   2  674.33   38.00
  -2   6   4 1583.24   81.09
  -2  -6  -4 1647.44   61.59
  -2  -6  -4 1385.16   67.59
   2  -6   4 1582.94   40.80
  -2   6   4 1540.95   61.39
   2  -6  -4 1629.14   85.39
   2  -6  -4 1654.43   67.99
  -2   6  -4 1785.22   60.99
   2   6   4 1608.64   57.89
   2   6   4 1654.33   83.29
   2   6   4 1584.44   63.39
  -3   6   1    2.50    2.50
  -1  -3  -6    2.40    2.00
  -1   3   6    1.50    1.60
  -3   6   1    2.40    2.60
  -1  -3  -6    1.90    1.90
   3  -6   1    2.10    2.20
  -3  -6  -1    1.60    1.60
  -1   3   6    3.80    2.50
   3   6  -1    5.60    3.30
   1   3   6    2.00    1.90
   3  -6  -1    3.30    2.80
   3  -6  -1    4.40    4.50
   3   6   1    0.60    0.80
   3   6   1    1.50    1.80
   1   3   6    2.30    1.90
   1  -3  -6    4.30    3.50
  -3   6  -1    2.80    2.70
   1  -3  -6    2.60    2.50
  -3  -6  -3   11.90    5.40
  -3  -6  -3   10.40    4.60
  -3  -3  -6   14.40    6.10
   3  -6   3    8.70    4.30
  -3   6   3   14.20    7.90
  -3   6   3    6.90    4.80
  -3   3   6   12.40    5.70
  -3   3   6   15.80    7.00
   3   3   6   12.20    5.50
   3  -3  -6   14.20    6.10
   3   6   3    6.30    4.00
   3   3   6   13.20    4.80
   3  -6  -3    9.80    5.20
   3  -6  -3   12.60    6.00
   3  -6  -3   13.30    6.40
   3  -3  -6    6.30    3.80
  -3  -6  -5   22.50    8.10
  -3  -6  -5   10.80    5.90
  -3   6   5   14.20    7.20
   3  -6  -5    7.60    5.10
   3   6   5   12.40    6.10
   3   6   5   13.50    6.70
   0  -4  -6 2052.59   76.09
   0   4   6 1788.02   79.99
   0  -4  -6 2113.69   65.49
   0   4   6 2218.98   76.99
   0  -4  -6 1925.81   81.39
   2   4   6 1553.74   49.40
  -4   6   4 1623.14   91.29
  -4  -6  -4 1673.53   80.79
   4  -6  -4 1787.62   71.69
   4   6   4 1762.62   65.19
   4  -4  -6 1635.44   66.29
   4   6   4 1632.24   67.09
   4  -6  -4 1817.02  107.09
   4  -4  -6 1486.95   74.79
   4   4   6 1753.12   64.19
  -1   5   6   15.20    7.00
  -1  -5  -6   13.20    6.50
  -1  -5  -6   10.20    6.40
   1  -5   6   15.30    1.90
   1   5  -6   14.50    2.30
   1   5   6    8.70    5.90
   1   5   6   10.30    5.50
   1  -5  -6   14.50    6.70
   1  -5  -6    8.60    5.00
   1   5   6   15.00    6.50
  -3   5   6  254.47   38.70
  -3   5   6  253.97   27.60
  -3  -5  -6  225.28   25.30
  -3  -5  -6  245.98   23.30
   3   5   6  273.37   26.60
   3   5   6  265.07   26.30
   3  -5  -6  274.77   28.20
   3  -5  -6  290.47   35.20
   0   6   6 1202.38   75.19
   0   6  -6 1195.58   25.50
   0   6   6 1268.67   65.09
   0  -6  -6 1340.17   59.49
  -2   6   6 2153.38   77.39
   2  -6   6 1881.71   36.90
  -2  -6  -6 2005.70   72.69
   2  -6  -6 1881.41   95.39
   2  -6  -6 2071.39   84.09
   2   6   6 2278.07   77.59
  -2   6  -6 2272.77   53.59
  -4   6   6 1557.24   90.69
  -4   6   6 1641.04   92.49
  -4  -6  -6 1581.44   64.79
   4  -6  -6 1617.04   87.29
   4  -6  -6 1678.93   72.49
   4   6   6 1595.64   71.89
   4  -6  -6 1506.15   86.29
   4   6   6 1666.33   66.69
   0  -7   1  388.66   25.10
   1   0  -7  370.96   22.90
   0   7  -1  397.96   30.40
   0   7   1  367.96   31.40
   0  -7   1  346.67   27.00
   0   7  -1  362.16   32.80
   0   7   1  371.86   35.70
   0   7   1  362.56   29.70
  -1   0   7  418.16   26.10
   1   0   7  417.76   21.00
   1   0   7  394.26   19.10
  -1   0   7  407.76   22.70
   0  -7  -1  415.56   28.70
  -1   0   7  373.56   25.40
   1   0  -7  420.66   24.00
   1   0  -7  370.46   27.50
   1   0   7  389.66   23.50
   0  -7   1  417.66   30.60
  -1   0  -7  417.16   21.10
   0   7  -1  383.66   28.40
   0  -7  -3  111.69   15.70
   3   0   7  118.09   13.50
   0   7   3  122.19   22.50
   0  -7  -3   95.59   17.50
   0  -7   3  105.49   15.70
   0   7  -3   98.49   13.10
   0  -7   3  113.29   13.80
   3   0   7  138.49   13.40
   0   7  -3  121.69   15.50
   0   7  -3  122.69   13.50
   0   7   3  107.49   17.40
   0  -7   3  117.79   12.30
  -3   0  -7  122.49   13.00
   0  -7   5  624.34   23.20
   0  -7  -5  546.55   43.60
   0  -7   5  720.13   35.20
   0   7   5  611.54   46.10
   0   7   5  653.93   62.49
   0   7  -5  583.04   28.10
   0  -7  -5  662.93   42.50
   0   7   5  545.85   43.60
   0   7  -5  637.04   24.80
   0  -7   5  564.64   25.80
   1   7   0  786.52   37.10
   0   1   7  763.22   40.10
  -1  -7   0  723.03   45.20
   0   1  -7  776.12   26.30
  -1   7   0  744.63   44.90
   0  -1  -7  734.03   36.90
   0  -1   7  799.82   30.60
   0   1  -7  707.53   29.20
  -1  -7   0  793.02   39.70
   0   1   7  829.12   40.40
   0  -1   7  829.32   30.80
   1  -7   0  785.42   39.00
   0   1   7  832.02   36.20
   0  -1   7  842.12   26.70
  -1  -7   0  780.22   42.10
   1   7   0  711.43   41.00
   1   7   0  788.52   36.70
   0   1  -7  860.11   37.70
  -1   7   0  828.12   40.40
   1  -7   0  719.23   49.20
  -1   7   0  725.73   39.50
   1  -7   2  360.96   27.00
   1   7  -2  386.96   26.30
  -2   1   7  403.26   29.90
  -1  -7  -2  428.96   37.50
   1   7  -2  440.16   25.00
   1  -7   2  399.36   24.80
   1   7  -2  440.66   24.50
  -2   1   7  432.16   36.30
  -1   7   2  384.16   31.90
   1  -7   2  422.66   33.40
  -2  -1  -7  443.76   24.80
  -2  -1  -7  406.86   27.40
  -1   7   2  430.16   32.40
   2  -1   7  399.46   22.80
   2  -1   7  404.86   19.50
  -1  -7  -2  430.66   30.70
  -1   7  -2  416.26   24.60
  -1  -7   2  434.06   24.80
   2  -1  -7  400.66   29.90
   1  -7  -2  385.36   39.30
  -1  -7   2  420.56   28.40
   1   7   2  384.56   32.80
   2   1   7  465.25   26.70
   1  -7  -2  423.06   37.90
  -1   7  -2  397.96   28.30
   2   1   7  414.36   29.10
  -2  -1   7  431.66   24.50
   2  -1  -7  426.66   26.10
   2   1   7  373.66   20.90
   1   7   2  423.06   29.40
   1  -7  -2  399.36   30.20
  -1   7  -2  405.76   27.20
  -1  -7   2  395.36   28.40
   2  -1  -7  473.95   33.80
  -1  -7  -4  150.38   19.50
   1  -7   4  142.99   12.10
   1   7  -4  141.49   14.20
   1   7  -4  160.58   13.20
  -1   7   4  142.49   19.90
   1  -7   4  157.78   14.30
   1   7  -4  135.89   11.90
   1  -7   4  138.79   13.90
  -1   7   4  134.09   22.00
  -1  -7  -4  142.39   22.50
  -1   7  -4  147.49   15.00
  -1   7  -4  146.19   15.60
  -1   7  -4  150.58   13.60
   1   7   4  138.99   18.60
   1  -7  -4  139.89   18.80
   1   7   4  129.89   20.30
  -1  -7   4  124.19   12.30
  -1  -7   4  140.39   11.70
  -1  -7   4  149.88   14.30
   1  -7   6    0.20    0.10
   1   7  -6    0.00    0.10
   1  -7   6    0.10    0.40
  -1  -7  -6    0.20    0.90
  -1   7   6    0.20    0.80
  -1  -7  -6    0.00    0.20
   1   7  -6    0.10    0.20
  -1   7   6    0.00    0.20
   1  -7  -6    0.00    0.10
   1  -7  -6    0.00    0.20
   1  -7  -6    0.10    0.30
   1   7   6    0.00    0.20
   1   7   6    0.40    1.30
  -2   7   1  649.43   36.50
   2  -7   1  707.23   37.90
  -2  -7  -1  697.03   36.90
   2  -7   1  703.53   36.90
   1   2  -7  706.63   23.30
   2  -7   1  612.94   40.30
  -2  -7  -1  744.43   47.00
  -1   2   7  625.94   35.70
   1   2  -7  657.13   26.50
   2   7  -1  715.73   36.70
  -2  -7  -1  728.63   45.80
  -1  -2  -7  706.73   35.70
  -1   2   7  730.93   34.20
  -2   7   1  593.44   40.40
  -1  -2  -7  677.93   41.80
   1  -2   7  742.53   20.60
   2   7  -1  647.84   40.70
  -2   7   1  662.83   51.59
  -1   2   7  718.93   38.40
   2   7  -1  648.44   33.20
  -1  -2  -7  748.03   38.00
   2   7   1  679.53   39.10
  -2   7  -1  690.63   36.50
   1   2   7  656.93   37.30
  -2   7  -1  672.03   48.00
   2  -7  -1  678.03   48.00
   1  -2  -7  765.32   48.80
  -2  -7   1  582.84   33.90
   1  -2  -7  622.34   39.20
  -2  -7   1  680.43   32.40
  -2   7  -1  642.04   41.90
   1   2   7  755.62   35.30
  -1  -2   7  731.33   27.60
  -1   2  -7  774.02   25.90
   2  -7  -1  733.53   42.10
   1   2   7  659.33   32.00
   1  -2  -7  671.13   35.50
  -2   7   3   47.80   10.70
  -2   7   3   57.59   14.20
   2   7  -3   61.19   11.10
  -2  -7  -3   41.50    9.60
   2   7  -3   59.89    9.30
   2  -7   3   62.59   12.80
  -3  -2  -7   61.89   12.10
   2  -7   3   52.69    8.90
   2  -7   3   55.49   10.70
  -2  -7  -3   59.49   13.80
  -2  -7  -3   63.39   14.40
  -3   2   7   56.99   12.40
   2   7  -3   58.69    8.40
   2  -7  -3   70.99   16.60
   3  -2  -7   58.49   10.70
   3  -2  -7   59.89   12.60
   3   2   7   55.19    9.70
  -2   7  -3   57.39   10.80
   2  -7  -3   57.39   13.10
  -2   7  -3   54.39   12.10
   2   7   3   52.09   11.00
   2   7   3   54.79   13.00
  -2  -7   3   64.09   10.20
   3   2   7   62.39   12.30
   3   2   7   69.59   10.60
   2  -7   5 1494.85   42.60
  -2  -7  -5 1519.65   64.29
   2   7  -5 1563.84   44.20
   2   7  -5 1447.76   50.69
  -2  -7  -5 1255.77   65.49
  -2   7   5 1444.76   64.09
  -2  -7  -5 1619.24   84.29
  -2   7  -5 1428.36   56.19
  -2  -7   5 1412.16   40.60
   2   7   5 1436.56   61.99
   2  -7  -5 1582.24   73.59
   0  -3  -7  147.89   20.10
  -3   7   0  127.89   17.00
   3  -7   0  129.29   16.40
  -3   7   0  134.29   23.30
   3   7   0  137.99   15.70
   0   3   7  137.59   17.50
   3   7   0  127.49   16.30
   3   7   0  154.08   23.10
   0  -3  -7  144.49   16.50
   0   3   7  142.99   21.20
   0  -3  -7  125.79   17.20
   3  -7   0  127.39   19.40
  -3   7   0  122.09   19.30
   0   3   7  147.59   19.20
   3  -7   0  135.89   20.80
  -3  -7  -2   44.80   10.70
   3  -7   2   46.30    9.00
  -3   7   2   46.30   13.00
  -3  -7  -2   46.50    9.70
  -3   7   2   40.40   10.40
  -2  -3  -7   44.30    8.80
  -2   3   7   50.79   12.00
   3  -7   2   51.29   11.20
  -2  -3  -7   47.70   10.20
  -2   3   7   44.80    9.60
   2   3   7   50.39   11.70
   3  -7  -2   44.20   10.30
   2  -3  -7   48.70   12.00
   2   3   7   35.40    8.20
   2  -3  -7   39.30    9.80
   3   7   2   37.90    9.80
   3  -7  -2   49.99   13.00
   2  -3  -7   46.30   10.10
  -3   7   4  108.29   23.00
   3  -7   4  135.59   16.60
  -4  -3  -7  128.19   14.80
  -3   7   4  117.59   22.00
   3  -7   4  136.59   13.90
  -3   7   4  110.59   17.90
  -3  -7  -4  121.49   16.80
  -3  -7  -4  123.39   18.80
   4  -3  -7  140.09   22.00
  -3   7  -4  129.59   16.30
   3   7   4  125.49   19.20
   4   3   7  112.39   15.30
   4  -3  -7  130.19   18.00
   3   7   4  123.69   22.00
   3  -7  -4  144.29   21.10
   3  -7  -4  130.69   22.70
  -3  -7  -6    0.40    1.20
   3  -7   6    2.60    1.90
   3   7   6    1.80    2.30
  -3   7  -6    1.60    1.70
   3  -7  -6    0.70    1.20
  -1  -4  -7   33.90    8.50
  -1  -4  -7   26.10    8.40
  -1  -4  -7   30.60    8.70
  -1   4   7   29.40    8.00
  -1   4   7   37.20   10.60
   1   4  -7   36.40    2.80
   1  -4  -7   33.30   10.20
   1   4   7   27.60    7.50
   1   4   7   31.10    9.10
   4  -7  -1   31.10    8.60
   4   7   1   27.20    7.80
   1  -4  -7   30.90    8.40
   4   7   1   38.80   11.60
   1  -4  -7   22.90    9.40
  -3   4   7   55.49   12.70
  -3  -4  -7   57.19   12.20
  -4  -7  -3   74.79   15.80
  -4  -7  -3   88.79   15.40
  -4   7   3   61.89   18.40
  -3  -4  -7   72.19   12.30
  -3   4   7   75.19   16.30
   3   4   7   83.69   11.90
   4  -7  -3   61.99   19.50
   4  -7  -3   77.29   16.70
   4   7   3   80.69   15.00
   3  -4  -7   71.69   15.20
   3   4   7   65.09   12.30
   4  -7  -3   80.39   15.20
   3  -4  -7   81.69   14.30
   3   4   7   84.79   17.30
  -4  -7  -5   50.19   13.10
  -4   7   5   54.49   17.30
  -4  -7  -5   49.90   11.50
   4  -7  -5   35.40   13.50
   4   7   5   47.40   16.90
   4  -7  -5   46.50   14.20
   4  -7  -5   42.60   11.50
   0  -5  -7 1938.81   82.09
   0   5   7 2052.59   82.09
   0  -5  -7 1741.23   75.99
   0   5   7 2271.57   84.59
  -2   5   7  449.06   33.80
  -2   5   7  425.86   37.30
  -2  -5  -7  510.15   35.70
   2  -5  -7  449.36   38.50
   2   5   7  484.65   34.00
   2  -5  -7  451.65   45.40
   2   5   7  371.26   29.20
  -4   5   7  593.54   51.89
   4  -5  -7  537.15   54.69
   4   5   7  574.34   48.80
   4  -5  -7  624.44   43.60
   4   5   7  618.34   42.90
   4   5   7  705.63   45.30
  -5  -7  -6    5.00    5.00
   5  -7  -6    2.50    2.40
  -1  -6  -7   33.00   12.70
   1   6  -7   27.00    3.20
   1  -6   7   26.70    2.50
   1   6   7   20.60    8.50
   1   6   7   32.90   12.30
   1   6   7   16.60    7.90
   1  -6  -7   27.20    9.70
  -3  -6  -7   42.80   12.90
  -3  -6  -7   34.40    9.30
  -3   6   7   26.80   10.10
  -3   6   7   41.20   13.40
   3  -6  -7   29.30   11.50
   3  -6  -7   37.60   12.80
   3  -6  -7   33.50   10.20
   3   6   7   45.50   14.50
  -5  -6  -7   86.29   16.80
   5  -6  -7   70.79   15.50
   5   6   7   97.29   17.40
   5   6   7  100.99   20.30
   5  -6  -7  103.29   20.90
   0   7   7   22.20    9.80
   0  -7  -7   17.80    8.80
   0   7   7   15.40    7.60
  -2   7   7   26.50   10.00
  -2  -7  -7   26.60   10.10
   2  -7   7   32.60    6.10
   2   7  -7   36.10    6.60
   2  -7   7   32.20    5.10
  -2  -7  -7   34.60   11.70
   2   7  -7   32.20    5.20
   2   7   7   28.90   10.30
   2  -7  -7   38.00   13.10
   2   7   7   37.60   12.00
  -4   7   7   31.10   12.80
  -4  -7  -7   30.50   10.70
   4  -7  -7   22.70    9.90
   4   7   7   28.70   12.10
   4   7   7   24.10    8.00
   4  -7  -7   34.20   13.30
   0   0   8 4731.13   82.19
   0   8   0 5642.54  125.79
   0  -8   0 5626.44  110.49
   2   0  -8 5620.74   95.69
   2   0   8 4765.32   84.69
   0   8  -2 5914.51  114.69
   0  -8   2 5520.65  101.09
   0   8   2 6539.95  146.99
   0   8  -2 5736.03  122.39
   0   8  -4 2677.83   65.19
   0  -8  -4 2548.34   93.89
   0  -8   4 2861.21   86.79
   0   8   4 2382.56   93.79
   0  -8   4 2525.15   60.39
   0   8  -4 2635.14   65.29
   0  -8  -4 2760.22   88.59
   0  -8  -6 2070.39   82.29
   0  -8  -6 2159.48  109.69
   0  -8   6 1937.51   41.50
   0   8  -6 1908.91   47.30
   0   8   6 1951.10   93.09
   0   8   6 2073.19   90.99
   0  -8  -6 2150.58  107.99
   0   8  -6 1968.20   44.10
   0   8   6 1999.40  103.99
   0  -8   6 2193.68   55.89
   1   8  -1    0.00    0.10
  -1  -1  -8    0.00    0.10
   1  -1   8    0.00    0.10
   1  -8   1    0.00    0.10
  -1   1   8    0.00    0.10
   1   1  -8    0.00    0.10
  -1  -1  -8    0.00    0.10
   1   1  -8    0.00    0.10
   1  -1   8    0.00    0.10
   1   1  -8    0.00    0.10
   1   8  -1    0.00    0.10
  -1  -1  -8    0.00    0.10
  -1  -8  -1    0.00    0.10
  -1   8   1    0.00    0.20
   1  -8   1    0.00    0.10
   1   8  -1    0.00    0.10
  -1   1   8    0.00    0.10
  -1   8   1    0.00    0.10
  -1   1   8    0.00    0.10
  -1  -8  -1    0.00    0.20
   1  -1   8    0.00    0.10
  -1  -8  -1    0.00    0.10
   1  -8   1    0.00    0.10
  -1   8  -1    0.00    0.10
  -1  -8   1    0.00    0.10
   1   8   1    0.00    0.10
  -1   1  -8    0.00    0.10
  -1  -1   8    0.00    0.10
  -1   8  -1    0.00    0.10
   1   1   8    0.00    0.10
   1  -8  -1    0.00    0.10
   1   8   1    0.00    0.10
  -1   8  -1    0.00    0.10
  -1   1  -8    0.00    0.10
  -1   1  -8    0.00    0.10
   1   1   8    0.00    0.10
  -1  -8   1    0.00    0.10
  -1  -8   1    0.00    0.10
   1  -1  -8    0.00    0.10
   1   8   1    0.00    0.10
   1  -1  -8    0.00    0.10
   1  -1  -8    0.00    0.10
   1  -8  -1    0.00    0.10
   1   1   8    0.00    0.10
  -1  -1   8    0.00    0.10
   1  -8   3    2.30    1.90
   3  -1   8    2.90    2.00
   3  -1   8    2.60    1.70
   1   8  -3    2.10    1.70
   1   8  -3    0.80    1.10
   1   8  -3    1.60    1.90
   1  -8   3    1.10    1.80
  -1   8   3    1.50    2.10
  -1  -8  -3    2.40    3.10
   1  -8   3    2.30    2.00
  -1   8  -3    0.80    0.80
  -1   8  -3    1.80    1.70
   1   8   3    3.00    4.00
  -1  -8   3    1.90    1.70
  -1  -8   3    1.90    1.80
  -3   1  -8    3.30    2.50
   1   8   3    0.70    1.50
   3   1   8    1.50    1.60
   3   1   8    2.70    2.40
  -1  -8  -5    1.10    2.70
  -1   8   5    0.70    1.90
   1  -8   5    0.80    1.20
   1   8  -5    0.30    0.70
   1   8  -5    0.60    1.20
  -1   8   5    0.00    0.20
  -1  -8  -5    0.00    0.20
   1  -8   5    0.30    0.50
  -1  -8   5    0.50    0.90
  -1   8  -5    0.70    0.90
   1  -8  -5    1.00    2.00
   1   8   5    0.00    0.20
  -1  -8   5    0.20    0.50
   1  -8   7    9.80    3.30
  -1  -8  -7   10.50    8.40
   1   8  -7    9.20    3.50
  -1  -8  -7    9.80    6.40
   1   8  -7    8.50    3.30
  -1   8   7   12.10    7.70
   1  -8   7    9.00    2.60
   1  -8  -7    4.70    4.20
   1  -8  -7   13.60    8.50
   1   8   7    6.00    5.70
   1   8   7   13.20    8.90
  -2   8   0 4771.42  126.59
  -2   8   0 4553.64  100.29
   2  -8   0 4613.44  116.09
  -2  -8   0 4823.32   99.99
   0  -2   8 4002.20   58.29
   2  -8   0 4899.31  117.99
   0   2   8 4633.34   99.49
   2   8   0 5012.80  109.09
  -2  -8  -2 6100.79  124.79
  -2  -2  -8 5090.29   98.29
   2   8  -2 5962.10  109.99
  -2   2   8 5871.81  119.29
  -2   8   2 5873.81  126.09
   2  -8   2 5531.65  113.29
   2  -2   8 5462.05   74.49
   2  -8  -2 6129.89  142.09
   2   2   8 5461.25  102.79
   2  -2  -8 5161.48  109.19
  -2  -8   2 4907.41   91.59
  -2   8  -2 5632.34  109.99
   2  -8   4 2977.10   94.09
  -2   8   4 3406.66  128.79
   2  -8   4 2662.93   70.09
  -2  -8  -4 2942.71   91.09
   2   8  -4 2879.61   68.59
  -2   8   4 2809.72   90.79
  -2   8  -4 2923.81   83.99
   2  -8  -4 2959.90  101.19
   2   8   4 3460.45   97.69
   4   2   8 2976.80   78.89
  -2  -8   4 3094.29   83.39
   2  -8   6 2193.18   51.99
  -2  -8  -6 2335.47   86.29
  -2   8   6 2463.95   89.49
  -2   8   6 2358.06   96.29
  -2  -8  -6 2150.38   89.79
   2   8  -6 2335.17   53.69
   2  -8  -6 2033.30  100.09
   2   8   6 2417.56   87.29
   2  -8  -6 2496.55  130.79
  -2  -8   6 2612.04   67.39
   2  -8  -6 2512.65   95.59
  -2   8  -6 2553.84   66.99
   3   8  -1    0.00    0.20
  -1  -3  -8    0.00    0.10
   1   3  -8    0.00    0.10
  -3   8   1    0.00    0.20
  -3  -8  -1    0.00    0.10
   3  -8   1    0.00    0.10
  -3  -8  -1    0.00    0.10
   1  -3   8    0.00    0.10
   3   8  -1    0.00    0.10
  -1   3   8    0.00    0.10
   3  -8   1    0.00    0.10
  -3   8   1    0.00    0.10
  -1  -3  -8    0.00    0.10
  -3   8   1    0.00    0.10
  -1  -3  -8    0.00    0.10
  -1   3   8    0.00    0.10
  -1   3   8    0.00    0.10
   3  -8   1    0.10    0.60
   1   3  -8    0.00    0.10
  -3  -8  -1    0.10    0.40
  -3   8  -1    0.00    0.10
  -3  -8   1    0.00    0.10
   3  -8  -1    0.00    0.10
   1   3   8    0.00    0.10
   3   8   1    0.00    0.20
   3  -8  -1    0.00    0.20
   3   8   1    0.00    0.10
   3   8   1    0.00    0.10
  -3  -8   1    0.10    0.40
  -3   8  -1    0.10    0.30
   1   3   8    0.00    0.10
   1  -3  -8    0.00    0.10
   1  -3  -8    0.20    0.50
   1  -3  -8    0.00    0.10
   1   3   8    0.20    0.60
  -3  -8  -3   66.79   15.60
  -3   8   3   44.80   11.50
  -3  -3  -8   53.09   11.60
  -3  -3  -8   68.69   13.90
   3  -8   3   60.19   12.30
   3  -8   3   56.39    9.90
  -3   3   8   66.79   14.80
  -3  -8  -3   42.20    9.80
  -3  -8  -3   47.60   12.90
  -3  -3  -8   52.49   10.20
   3  -3  -8   61.59   12.10
   3   3   8   63.29   11.70
   3   8   3   58.49   13.10
   3   3   8   61.89   13.80
   3   3   8   58.29   10.80
   3  -3  -8   61.99   14.80
  -3   8  -3   51.59   13.30
   3   8   3   60.99   15.90
   3  -3  -8   64.89   14.60
   3  -8  -3   60.69   17.60
  -3   8   5   21.70    9.60
  -3   8   5   15.60    8.70
  -3  -8  -5   30.30   10.60
  -3   8  -5   19.60    7.50
   3  -8  -5   19.20    8.10
   3   8   5   14.00    6.60
   3  -8  -5   12.90    7.90
  -3  -8   5   10.20    3.80
   3   8   5   15.70    7.90
  -3  -8  -7   16.90    8.30
  -3  -8  -7    8.40    7.60
   3   8   7    8.70    4.70
  -3  -8   7    6.70    2.50
  -3   8  -7    7.40    3.90
   0  -4  -8 2617.74   79.59
   4   8   0 2661.23   83.99
   0   4   8 2654.83   95.29
   4  -8   0 2679.23   85.59
   0  -4  -8 2824.22  103.19
   0   4   8 2543.35   84.39
  -4  -8   0 3055.09   73.79
  -2  -4  -8 3271.57  101.19
  -4   8   2 3246.38  134.79
   2  -4   8 2722.33   36.30
  -2   4   8 3270.97   88.99
   4  -8   2 3330.47   87.49
  -2  -4  -8 3231.98   87.99
   4  -8  -2 3395.16  101.09
   2  -4  -8 3398.66  103.99
   4   8   2 3000.30   85.49
   4   8   2 3200.88   97.99
   2  -4  -8 3415.46  107.29
  -4   8  -2 3339.67  103.09
   2   4   8 3393.76   87.59
   4   8   2 2650.83  105.09
  -4  -8  -4 1125.99   66.29
  -4   8   4 1174.18   67.59
  -4   8   4 1437.26  103.89
  -4  -4  -8 1296.37   56.99
  -4   4   8 1208.08   78.39
  -4  -8  -4 1296.27   60.59
  -4  -8  -4 1362.26   70.69
   4   4   8 1235.58   59.29
   4  -8  -4 1339.87   68.29
   4   8   4 1047.60   71.69
   4   8   4 1197.08   65.69
   4   4   8 1380.56   56.29
  -4   8   6 1234.38   74.19
  -4  -8  -6 1432.86   92.09
  -4  -8  -6 1215.88   61.79
  -4   8   6 1374.76  102.79
   4  -8  -6 1418.56   90.39
   4  -8  -6 1378.56   77.29
   4   8   6 1313.57   71.09
   4   8   6 1484.05   96.99
  -1   5   8    0.00    0.20
  -1  -5  -8    0.00    0.10
  -1  -5  -8    0.00    0.10
  -1   5   8    0.00    0.10
  -1   5   8    0.00    0.10
  -1  -5  -8    0.00    0.20
   1   5   8    0.00    0.20
   1  -5  -8    0.00    0.20
   1  -5  -8    0.00    0.10
   1   5   8    0.00    0.10
   1   5   8    0.00    0.10
  -3  -5  -8   78.49   19.20
  -3  -5  -8   68.39   14.90
  -3  -5  -8   61.69   12.00
  -3   5   8   68.29   17.30
  -3   5   8   47.60   12.30
  -3   5   8   52.59   16.40
   3  -5  -8   67.49   16.90
   3  -5  -8   59.89   13.70
   3   5   8   59.29   12.90
   3   5   8   68.89   16.00
   3  -5  -8   58.99   14.20
   3   5   8   68.49   13.60
  -5   8   5   22.10   10.00
  -5  -8  -5   24.30    9.40
   5  -5  -8   26.90   11.30
   5   5   8   29.60   11.10
   5   8   5   23.10   10.90
   5   8   5   18.20    7.00
   5  -8  -5   20.70    9.70
   5  -8  -5   30.50   12.30
   5   8   7   68.89   16.20
   5  -8  -7   59.79   23.10
   5   8   7   71.79   19.20
   5  -8  -7   59.99   15.60
   0  -6  -8 1415.66   64.99
   0   6   8 1248.98   75.59
   0   6   8 1529.85   81.39
   0   6   8 1334.07   68.09
  -2   6   8 1901.71   85.49
  -2   6   8 1928.41   77.39
  -2  -6  -8 1812.02   73.19
   2  -6   8 1780.12   26.70
   2   6   8 1608.14   70.19
   2  -6  -8 1826.42   87.09
   2   6   8 1795.82   71.39
   2  -6  -8 1894.61   80.49
  -4   6   8 1071.29   63.69
  -4   6   8 1094.69   87.79
  -4  -6  -8 1049.59   55.49
   4  -6  -8  994.80   69.59
   4   6   8  941.11   65.79
   4  -6  -8 1078.19   63.59
   4   6   8 1078.09   61.49
   4   6   8  935.91   50.29
   4  -6  -8  903.11   66.09
  -1   7   8    0.00    0.20
  -1  -7  -8    0.00    0.20
  -1  -7  -8    0.00    0.10
  -1   7   8    0.00    0.10
   1   7  -8    0.00    0.10
  -1   7   8    0.00    0.10
   1  -7  -8    0.00    0.10
   1   7   8    0.00    0.10
   1  -7  -8    0.00    0.20
   1   7   8    0.00    0.20
  -3   7   8   65.99   17.80
  -3  -7  -8   68.89   17.20
  -3   7   8   41.10   11.80
   3  -7   8   60.49    8.40
   3  -7   8   58.69    7.00
   3  -7  -8   63.49   19.40
   3   7   8   58.29   15.20
  -3   7  -8   51.99    7.80
   3  -7  -8   56.69   16.70
   3  -7  -8   44.80   15.50
  -5  -7  -8    2.70    4.10
   5   7   8    1.00    2.10
   0   8   8  546.05   56.39
   0   8   8  486.05   44.60
   0  -8  -8  513.85   43.70
  -2   8   8  677.83   54.59
  -2  -8  -8  673.43   48.40
  -2  -8  -8  658.33   56.49
   2   8  -8  638.94   25.90
   2  -8   8  624.94   19.50
  -2   8   8  693.43   49.70
  -2  -8   8  708.03   28.30
   2  -8  -8  706.43   52.39
  -2   8  -8  714.53   27.20
   2  -8  -8  651.53   62.49
   2   8   8  699.03   50.59
  -4   8   8  302.67   46.90
  -4  -8  -8  318.47   37.40
  -4   8   8  326.97   45.20
  -4  -8  -8  351.96   34.60
  -4   8   8  280.57   35.90
   4   8   8  302.57   35.90
   4  -8  -8  362.26   41.30
   4   8   8  329.97   36.30
  -6   8   8    0.00    0.10
  -6  -8  -8    0.00    0.10
   6   8   8    0.00    0.30
   0   9   1    0.10    0.40
   1   0  -9    0.20    0.40
   1   0  -9    0.00    0.10
   1   0   9    0.00    0.10
   0   9   1    0.00    0.20
  -1   0  -9    0.00    0.10
  -1   0   9    0.10    0.10
   0  -9  -1    0.00    0.20
   0  -9   1    0.00    0.10
   0   9  -1    0.00    0.20
   1   0   9    0.20    0.60
   1   0  -9    0.10    0.10
   0  -9   1    0.10    0.50
   0  -9   3  711.73   50.79
   0  -9  -3  784.62   61.39
   0   9   3  692.03   51.19
   0   9  -3  615.64   40.70
  -3   0   9  642.34   45.50
   3   0   9  721.93   35.20
   0   9  -3  685.53   37.90
  -3   0  -9  691.23   33.00
   0  -9   3  629.94   33.30
   3   0   9  686.63   41.00
   0  -9  -3  684.63   44.50
   0   9   5  102.29   19.70
   0  -9  -5  136.19   23.70
   0  -9   5  127.39   12.60
   0  -9   5  135.59   19.70
   0  -9  -5  108.39   18.40
   0   9  -5  139.59   14.20
   0  -9   5  116.29   13.70
   0   9  -5  139.19   16.60
   0   9   5  125.49   23.70
   0   9  -7  336.77   18.50
   0   9   7  323.67   36.90
   0  -9  -7  359.56   37.00
   0  -9   7  299.37   18.70
   0  -9   7  330.97   20.30
   0   9  -7  314.77   20.70
   0   1   9   29.40    6.90
   1  -9   0   21.40    7.80
   0   1  -9   21.20    5.20
  -1   9   0   17.30    7.30
   0  -1  -9   22.10    6.00
   0  -1   9   22.60    4.70
  -1   9   0   24.00    8.90
   1   9   0   20.20    8.00
   0  -1   9   26.80    5.90
  -1  -9   0   19.60    8.30
   0   1   9   27.20    7.80
   0  -1  -9   23.00    7.00
   0   1  -9   23.00    4.90
   1   9   0   21.20    8.10
  -2  -1  -9    0.00    0.10
   1  -9   2    0.00    0.10
   1   9  -2    0.00    0.10
   2   1  -9    0.00    0.10
   1  -9   2    0.00    0.10
   1   9  -2    0.00    0.10
   2  -1   9    0.00    0.10
  -1  -9  -2    0.00    0.20
   2  -1   9    0.00    0.10
  -2  -1  -9    0.10    0.50
  -2   1   9    0.10    0.20
  -1  -9  -2    0.00    0.10
   1   9  -2    0.00    0.10
  -2   1   9    0.00    0.10
  -1   9   2    0.00    0.20
   2   1  -9    0.00    0.10
  -2  -1  -9    0.00    0.10
  -2   1   9    0.00    0.20
  -1   9   2    0.00    0.10
   1  -9   2    0.00    0.10
   1   9   2    0.00    0.10
  -1  -9   2    0.00    0.10
   1  -9  -2    0.00    0.10
  -1   9  -2    0.00    0.10
   1   9   2    0.00    0.10
   2  -1  -9    0.00    0.10
  -2  -1   9    0.00    0.10
  -1  -9   2    0.00    0.10
  -1   9  -2    0.00    0.10
   1   9   2    0.00    0.20
   2   1   9    0.00    0.10
  -1   9  -2    0.00    0.10
  -2   1  -9    0.00    0.10
   1  -9  -2    0.00    0.20
   2   1   9    0.10    0.30
   2  -1  -9    0.00    0.20
  -1  -9   2    0.00    0.10
   2  -1  -9    0.00    0.10
   2   1   9    0.00    0.10
   1  -9   4    0.00    0.10
   1   9  -4    0.00    0.10
  -1   9   4    0.00    0.20
  -1  -9  -4    0.00    0.20
  -4   1   9    0.00    0.10
  -1  -9  -4    0.00    0.10
  -1   9   4    0.00    0.10
  -4  -1  -9    0.00    0.10
  -1   9   4    0.00    0.10
   1  -9   4    0.00    0.10
   1  -9   4    0.00    0.10
   1   9  -4    0.00    0.10
   1   9  -4    0.00    0.10
   1   9   4    0.00    0.20
   4  -1  -9    0.00    0.10
   1  -9  -4    0.00    0.10
   1  -9  -4    0.00    0.20
  -1  -9   4    0.00    0.10
  -1  -9   4    0.00    0.10
   1   9   4    0.00    0.10
   4   1   9    0.00    0.10
  -1  -9   4    0.00    0.10
  -1   9  -4    0.00    0.10
   1   9   4    0.00    0.10
   4  -1  -9    0.00    0.20
   4   1   9    0.00    0.10
  -1   9  -4    0.00    0.10
  -1   9  -4    0.00    0.10
   1  -9   6    3.50    3.00
  -1   9   6    2.20    2.90
   1   9  -6    2.00    1.40
   1   9  -6    3.50    1.90
   1  -9   6    4.90    2.60
  -1   9  -6    2.50    2.40
  -1  -9   6    1.60    1.60
   1  -9  -6    1.80    2.20
   1   9   6    1.40    2.40
   1  -9   8    0.00    0.10
   1   9  -8    0.00    0.10
  -1   9   8    0.00    0.10
   1  -9   8    0.00    0.10
  -1   9   8    0.00    0.30
  -1   9   8    0.00    0.10
   1   9  -8    0.00    0.10
  -1  -9  -8    0.00    0.30
  -1  -9  -8    0.00    0.10
   1  -9  -8    0.00    0.20
   1   9   8    0.00    0.30
  -1  -9   8    0.00    0.10
  -1   9  -8    0.00    0.10
   1  -9  -8    0.00    0.20
  -2  -9  -1    5.20    4.00
   2  -9   1    3.70    3.50
  -1  -2  -9    3.10    2.70
   1  -2   9    4.70    2.40
  -1  -2  -9    5.60    3.80
  -2   9   1    3.00    2.80
  -1   2   9    1.90    2.10
   1  -2   9    5.20    2.70
   2   9  -1    3.60    3.10
  -2  -9  -1    2.00    2.20
   2   9  -1    3.90    3.20
   2   9  -1    5.10    3.80
   2  -9   1    2.40    2.80
   1   2  -9    4.70    2.30
   1   2  -9    5.50    2.40
  -1   2   9    6.40    3.80
   1  -2  -9    4.80    3.30
  -2  -9   1    4.60    3.20
   1  -2  -9    2.90    2.40
   1   2   9    5.10    3.70
  -2   9  -1    6.00    4.20
   2  -9  -1    5.40    5.30
   2   9   1    2.30    2.20
  -2   9  -1    3.00    2.60
   2   9   1    5.60    4.20
   2   9   1    2.90    2.90
  -2  -9   1    4.40    3.50
  -2   9   3  111.09   21.90
   2   9  -3  100.89   15.90
   3  -2   9  110.89   10.80
  -3  -2  -9  107.29   16.50
  -2  -9  -3   89.19   15.80
   2   9  -3   86.89   11.90
  -2  -9  -3  112.29   22.40
  -3   2   9  105.89   17.90
  -3   2   9   96.39   20.50
  -2   9   3   91.89   16.10
   2  -9   3   85.89   15.40
   2  -9   3   92.49   15.30
   2  -9   3   90.09   13.40
   3  -2  -9  104.89   21.80
   3   2   9  104.59   14.30
   2  -9  -3   97.09   17.90
  -2  -9   3   97.69   12.50
  -2  -9   3   83.89   14.60
   3  -2  -9  106.49   18.40
  -2   9  -3   78.59   12.90
  -2  -9   3  102.29   15.10
  -2   9  -3   95.49   17.00
   2  -9  -3   89.79   20.20
  -3  -2   9   94.89   12.00
  -3   2  -9   94.19    9.50
  -2   9  -3   86.09   15.30
   3   2   9  105.49   15.00
   3  -2  -9  107.59   15.80
   3   2   9  105.09   17.70
   2  -9  -3  116.09   25.20
   2   9   3   87.89   16.40
   2   9   3  114.19   21.40
  -2  -9  -5    2.00    3.00
   2  -9   5    0.50    0.50
   2   9  -5    1.40    1.50
   2   9   5    2.20    3.50
   2  -9  -5    1.50    2.50
   2  -9  -5    0.80    2.00
  -2   9  -5    0.50    0.80
   2  -9   7   64.99    9.00
   2   9  -7   66.29    9.00
   2   9  -7   76.19    8.70
  -2  -9  -7   73.59   19.10
  -2  -9  -7   46.70   15.70
  -2  -9  -7   51.19   13.30
   2  -9   7   62.09    7.50
  -2   9   7   71.69   18.00
  -2   9   7   71.49   15.80
   2  -9  -7   52.79   14.10
   2  -9  -7   68.29   17.70
  -2   9  -7   51.89    8.90
   2   9   7   65.69   15.40
  -3  -9   0  405.26   37.20
   3  -9   0  415.86   35.10
  -3  -9   0  393.46   34.20
  -3   9   0  418.46   35.70
   0   3   9  442.86   33.50
   3  -9   0  383.96   38.70
   3   9   0  436.46   35.10
   0  -3  -9  429.26   31.50
   0   3   9  421.96   37.70
  -3   9   0  484.15   49.50
  -3   9   0  481.75   54.99
   0  -3  -9  429.96   36.60
   0   3   9  428.56   36.90
   3   9   0  455.45   34.50
   0  -3  -9  460.25   44.30
   3  -9   0  437.06   38.50
  -3  -9   0  430.26   31.00
   3  -9   2  491.45   39.80
  -2   3   9  530.65   42.20
  -3   9   2  465.75   51.69
   3   9  -2  552.34   33.90
   2   3  -9  500.25   24.10
  -2  -3  -9  508.55   36.60
  -2  -3  -9  568.84   34.90
   2   3  -9  542.35   21.30
  -3  -9  -2  506.75   41.20
  -3  -9  -2  558.14   37.50
  -2  -3  -9  540.55   40.60
   3  -9   2  542.25   47.60
  -3   9   2  557.84   42.50
   2  -3   9  506.95   22.00
   3  -9   2  546.35   37.00
   2  -3   9  583.34   20.80
  -2   3   9  545.95   36.80
  -2   3   9  542.95   42.40
  -3  -9   2  458.05   34.30
   3   9   2  488.25   43.60
   3   9   2  600.94   44.20
   3   9   2  495.15   36.20
   2   3   9  532.75   37.90
  -2  -3   9  536.25   29.30
   3  -9  -2  583.64   52.89
   2   3   9  547.05   33.10
   2  -3  -9  575.04   40.90
   2   3   9  586.34   34.60
   2  -3  -9  574.04   40.10
  -3  -9   2  534.45   37.50
  -3   9  -2  484.95   46.30
  -3   9  -2  521.35   42.00
   3  -9  -2  511.75   40.30
   2  -3  -9  578.84   48.40
   3  -9  -2  603.34   45.70
  -3   9   4   28.30   10.80
  -3  -9  -4   27.80   12.40
  -3  -9  -4   36.80   10.10
  -4   3   9   20.10    9.30
   3  -9   4   22.30    6.40
  -3  -9   4   19.40    6.30
  -3   9  -4   19.70    8.40
   3   9   4   19.90    9.30
   4   3   9   26.20   10.30
   3  -9  -4   29.60   11.50
   3  -9  -4   21.90   10.30
  -3   9   6    4.60    3.50
   3  -9   6    6.90    3.60
  -3   9   6    4.50    5.50
  -3  -9  -6    9.50    6.30
   3  -9  -6    7.10    6.10
  -3  -9   6    6.30    3.10
   3   9   6   10.80    7.40
  -3   9  -6    3.60    3.80
   3  -9   8    3.50    2.00
  -3   9  -8    1.20    1.90
  -3  -9   8    1.80    1.90
   3   9   8    4.40    3.60
   1   4  -9    0.00    0.10
  -1   4   9    0.00    0.20
   4  -9   1    0.00    0.10
   4   9  -1    0.00    0.20
   4   9  -1    0.00    0.10
  -1   4   9    0.00    0.10
  -4  -9  -1    0.00    0.10
  -1  -4  -9    0.00    0.20
  -4  -9  -1    0.00    0.10
  -4   9   1    0.00    0.10
  -1  -4  -9    0.00    0.10
  -1  -4  -9    0.00    0.10
   4  -9   1    0.00    0.20
   1  -4  -9    0.10    0.30
   4   9   1    0.00    0.10
   1  -4  -9    0.00    0.10
   4  -9  -1    0.00    0.10
   1   4   9    0.00    0.20
   4  -9  -1    0.00    0.10
   4  -9  -1    0.00    0.20
   1   4   9    0.00    0.10
   4   9   1    0.00    0.10
   1   4   9    0.00    0.10
  -4   9  -1    0.00    0.10
   4   9   1    0.00    0.20
   1  -4  -9    0.00    0.20
  -4  -9   1    0.00    0.10
  -4  -9  -3  151.68   20.60
  -3   4   9  157.98   25.20
  -4   9   3  174.88   31.30
   4  -9   3  132.09   19.20
  -4   9   3  134.49   22.80
  -4  -9  -3  134.19   21.90
   4  -9   3  155.28   18.30
  -3  -4  -9  148.59   23.20
  -3   4   9  127.39   25.60
  -3  -4  -9  163.48   19.60
  -3   4   9  138.59   21.40
   3  -4  -9  157.58   25.20
  -4   9  -3  137.09   23.70
   4   9   3  148.99   22.70
   3   4   9  161.48   20.60
   4  -9  -3  149.29   25.30
  -4  -9   3  147.49   16.30
   3  -4  -9  174.58   25.10
   4   9   3  124.69   18.10
   3   4   9  162.08   24.10
   4  -9  -3  149.39   23.00
   3  -4  -9  132.29   20.10
   4   9   3  133.29   23.00
  -4  -9  -5   39.90   15.30
   4  -9   5   52.09    9.70
  -4  -9  -5   47.10   11.80
   4  -9   5   50.29   10.60
   5   4   9   34.80    9.50
   5   4   9   53.79   14.10
   4  -9  -5   60.19   18.10
   4  -9  -5   52.59   17.80
   4   9   5   52.29   12.60
   4   9   5   30.50   12.70
   4   9   5   44.60   15.20
  -4   9  -5   44.40   11.20
  -4  -9  -7   34.70   12.30
  -4   9   7   26.30   12.70
  -4   9   7   42.90   16.10
   4  -9   7   41.40    7.60
   4  -9  -7   30.60   13.60
   4  -9  -7   19.90   10.80
   4   9   7   30.80   10.70
  -4   9  -7   29.50    8.20
   4   9   7   26.10   11.80
   0  -5  -9    6.20    7.30
   0   5   9    1.40    2.80
   0  -5  -9    0.70    0.50
  -2  -5  -9  125.69   22.30
  -2   5   9  109.19   19.70
   2  -5   9  125.79    5.90
  -2   5   9  105.29   17.00
  -2  -5  -9  110.69   19.10
  -2   5   9  111.69   19.80
  -2  -5  -9  114.29   17.70
   2  -5  -9  120.59   22.60
   2  -5  -9   90.19   16.40
   5  -9  -2   85.89   17.00
   2   5   9  120.59   17.60
   2   5   9  116.29   20.20
   5   9   2   85.89   16.80
  -5  -9  -4    1.30    2.50
  -5   9   4    0.40    1.10
  -4   5   9    1.30    2.90
   4   5   9    0.60    1.60
   4  -5  -9    0.60    1.40
   5   9   4    0.80    2.10
  -5  -9  -6   19.00    8.80
   5   9   6   29.50   13.10
   5  -9  -6   28.80   12.40
   5   9   6   26.40    9.00
  -5  -9  -8    0.00    0.20
  -5   9   8    0.00    0.10
  -5  -9  -8    0.00    0.10
  -5   9   8    0.00    0.20
   5   9   8    0.00    0.10
   5   9   8    0.00    0.30
   5  -9  -8    0.00    0.10
   5   9   8    0.00    0.10
   5  -9  -8    0.00    0.20
   5  -9  -8    0.00    0.40
  -1  -6  -9    0.00    0.10
  -1  -6  -9    0.00    0.10
  -1   6   9    0.00    0.10
  -1  -6  -9    0.00    0.20
  -1   6   9    0.00    0.10
  -1   6   9    0.00    0.20
   1  -6  -9    0.00    0.10
   1   6   9    0.00    0.20
   1   6   9    0.00    0.10
   1  -6  -9    0.00    0.20
   1   6   9    0.00    0.10
  -3  -6  -9    3.10    3.00
  -3   6   9    0.60    1.30
  -3   6   9    1.60    1.80
   3   6   9    2.40    2.70
   3   6   9    1.70    2.10
  -6  -9  -5    0.00    0.10
  -5   6   9    0.00    0.20
  -5  -6  -9    0.00    0.10
   5   6   9    0.00    0.30
   5  -6  -9    0.00    0.30
  -6   9   7    0.00    0.20
  -6  -9  -7    0.00    0.10
   6   9   7    0.00    0.30
   6   9   7    0.00    0.10
   6  -9  -7    0.00    0.40
   6  -9  -7    0.00    0.10
   0  -7  -9  171.38   32.30
   0  -7  -9  223.18   32.40
   0   7   9  194.68   32.80
   0   7   9  217.28   34.10
  -2   7   9  274.07   31.00
  -2   7   9  282.67   39.40
   2   7  -9  271.17   11.30
  -2  -7  -9  286.47   30.80
  -2  -7  -9  310.87   40.20
   2  -7   9  251.47    7.30
  -2   7   9  308.37   40.80
   2   7   9  282.87   31.40
   2  -7  -9  264.27   36.10
   2  -7  -9  235.78   29.40
   2   7   9  258.07   33.60
  -4  -7  -9    0.90    0.70
   4   7   9    0.40    0.60
   4  -7  -9    0.70    1.40
   4   7   9    1.40    2.00
  -6   7   9    0.00    0.20
   6   7   9    0.00    0.30
   6  -7  -9    0.00    0.10
  -1   8   9    0.00    0.30
  -1   8   9    1.00    2.50
  -1  -8  -9    1.10    2.10
   1   8   9    0.00    0.30
   1   8   9    0.40    1.00
  -3   8   9    0.00    0.30
  -3  -8  -9    0.00    0.20
   3  -8   9    0.00    0.10
   3   8  -9    0.00    0.10
   3  -8   9    0.00    0.10
   3   8  -9    0.00    0.10
  -3  -8   9    0.00    0.10
   3   8   9    0.00    0.10
   3  -8  -9    0.00    0.10
  -3   8  -9    0.00    0.10
   3   8   9    0.00    0.20
   3  -8  -9    0.00    0.30
  -5  -8  -9    3.60    4.60
  -5   8   9    3.30    5.00
   5   8   9    2.40    4.10
   5  -8  -9    1.40    2.20
   0  -9  -9    0.00    0.30
   0   9   9    0.00    0.10
   0   9   9    0.00    0.30
   0  -9  -9    0.00    0.10
  -2   9   9    0.00    0.10
  -2   9   9    0.00    0.30
  -2  -9  -9    0.00    0.10
   2  -9   9    0.00    0.10
   2   9  -9    0.00    0.10
  -2  -9  -9    0.00    0.30
   2   9  -9    0.00    0.10
  -2  -9  -9    0.00    0.10
   2  -9  -9    0.00    0.30
  -2  -9   9    0.00    0.10
   2  -9  -9    0.00    0.10
   2  -9  -9    0.00    0.10
   2   9   9    0.00    0.10
   2   9   9    0.00    0.30
  -4  -9  -9    0.00    0.20
   4   9  -9    0.00    0.10
   4  -9   9    0.00    0.10
  -4   9   9    0.00    0.40
  -4  -9  -9    0.00    0.10
  -4  -9  -9    0.00    0.20
   4  -9   9    0.00    0.10
  -4   9   9    0.00    0.20
   4   9   9    0.00    0.10
   4  -9  -9    0.00    0.30
   4   9   9    0.00    0.30
   4   9   9    0.00    0.10
  -4  -9   9    0.00    0.10
  -4   9  -9    0.00    0.10
   4  -9  -9    0.00    0.10
  -6   9   9    0.00    0.20
   6  -9  -9    0.00    0.10
   6  -9  -9    0.00    0.40
   6   9   9    0.00    0.40
   6   9   9    0.00    0.10
   0   0 -10    2.10    2.00
   0  10   0    0.40    0.90
   0  10   0    1.30    2.30
   0   0 -10    0.90    1.70
   0   0  10    2.10    3.20
   0   0  10    2.50    1.90
   0 -10   0    2.00    2.70
   0  10   2  309.97   39.40
   0  10   2  318.57   33.80
   2   0 -10  304.17   25.20
   0 -10  -2  294.47   34.50
   0 -10  -2  285.47   29.20
  -2   0 -10  323.77   27.50
   0  10  -2  261.57   28.60
   0  10   2  289.47   35.80
   2   0 -10  345.87   35.90
   2   0  10  328.27   22.40
   2   0 -10  301.27   29.60
   2   0  10  308.47   24.70
  -2   0  10  331.77   29.80
   0 -10  -2  267.77   34.60
   0 -10   2  274.87   28.50
   0  10  -2  298.87   32.60
   0 -10   2  321.57   26.80
   0  10  -2  304.27   27.80
   0 -10   2  301.37   36.20
   2   0  10  333.47   22.10
   0 -10   4  116.19   21.00
   0 -10   4  112.99   17.30
   0 -10  -4  104.39   22.70
  -4   0  10  132.39   18.80
   4   0  10  124.19   14.80
   0  10  -4  109.59   14.60
   0  10   4   94.49   19.40
   4   0  10  108.29   15.50
   0  10  -4   99.79   16.00
   0  10   4  114.99   24.80
   0 -10   4  107.19   14.00
   0 -10  -4  123.59   20.50
   0  10  -6  613.64   27.70
   0  10  -6  683.83   36.10
   0 -10   6  637.64   31.80
   0 -10   6  832.02   46.70
   0 -10  -6  747.53   53.89
   0  10   6  727.13   56.59
   0 -10  -6  827.52   78.59
   0 -10  -6  760.02   62.99
   0  10  -6  717.33   31.70
   0 -10   6  698.83   29.70
   0 -10  -8  287.77   45.80
   0  10   8  326.37   39.80
   0 -10  -8  324.87   37.20
   0  10   8  331.97   45.80
   1  -1  10    0.00    0.10
   1   1 -10    0.00    0.10
   1  10  -1    0.00    0.10
  -1 -10  -1    0.00    0.20
   1  10  -1    0.00    0.10
   1 -10   1    0.00    0.10
  -1   1  10    0.00    0.10
  -1  10   1    0.00    0.10
   1   1 -10    0.00    0.10
  -1  10   1    0.00    0.20
  -1 -10  -1    0.00    0.10
  -1  -1 -10    0.00    0.10
  -1   1  10    0.00    0.10
  -1 -10  -1    0.00    0.10
   1 -10   1    0.00    0.10
  -1  -1 -10    0.00    0.10
  -1  10   1    0.00    0.10
  -1  -1 -10    0.00    0.10
   1  -1  10    0.00    0.10
   1   1 -10    0.00    0.10
   1  10  -1    0.00    0.20
   1  -1  10    0.00    0.10
   1 -10   1    0.00    0.10
  -1   1  10    0.00    0.10
   1  -1 -10    0.00    0.10
  -1 -10   1    0.00    0.20
   1   1  10    0.00    0.10
   1 -10  -1    0.00    0.20
  -1 -10   1    0.00    0.10
   1  10   1    0.00    0.20
   1  -1 -10    0.00    0.10
  -1  10  -1    0.00    0.10
   1  -1 -10    0.00    0.10
   1   1  10    0.00    0.10
  -1  -1  10    0.00    0.10
  -1   1 -10    0.00    0.10
   1  10   1    0.00    0.10
  -1   1 -10    0.00    0.10
   1 -10  -1    0.00    0.10
  -1  -1  10    0.00    0.10
  -1 -10   1    0.00    0.10
  -1   1 -10    0.00    0.10
  -1  10  -1    0.00    0.20
   1  10   1    0.00    0.10
  -1  10  -1    0.00    0.10
   1   1  10    0.00    0.10
  -1 -10  -3    0.00    0.20
   1 -10   3    0.00    0.10
   3   1 -10    0.00    0.10
   1 -10   3    0.00    0.10
  -3  -1 -10    0.00    0.10
   1  10  -3    0.00    0.20
   3  -1  10    0.00    0.10
   3   1 -10    0.00    0.10
   1 -10   3    0.00    0.10
  -1 -10  -3    0.00    0.10
   3  -1  10    0.00    0.10
  -1  10   3    0.00    0.10
  -1 -10  -3    0.00    0.10
   1  10  -3    0.00    0.10
  -1  10   3    0.00    0.20
   1  10  -3    0.00    0.10
  -3   1  10    0.00    0.10
  -1 -10   3    0.00    0.10
  -3   1 -10    0.00    0.10
   3   1  10    0.00    0.10
  -1  10  -3    0.00    0.10
  -1  10  -3    0.00    0.10
  -1  10  -3    0.00    0.10
   3  -1 -10    0.00    0.20
   3   1  10    0.00    0.10
  -1 -10   3    0.00    0.10
   1 -10  -3    0.00    0.20
  -3  -1  10    0.00    0.10
   1  10   3    0.00    0.10
   3  -1 -10    0.00    0.10
   1 -10  -3    0.00    0.10
  -1 -10   3    0.00    0.10
   1  10   3    0.00    0.20
   1  10   3    0.00    0.10
   1 -10   5    0.00    0.10
   1 -10   5    0.00    0.10
  -1 -10  -5    0.00    0.10
   1  10  -5    0.00    0.10
  -1 -10  -5    0.00    0.10
   1  10  -5    0.00    0.10
  -1  10   5    0.00    0.20
  -1  10   5    0.00    0.10
  -1 -10  -5    0.00    0.20
   1  10  -5    0.00    0.10
   1 -10   5    0.00    0.10
  -1  10   5    0.00    0.30
   1 -10  -5    0.00    0.20
   1  10   5    0.00    0.30
   1 -10  -5    0.00    0.10
   1  10   5    0.00    0.10
   5   1  10    0.00    0.20
  -1  10  -5    0.00    0.10
  -1  10  -5    0.00    0.10
  -1  10  -5    0.00    0.10
   5   1  10    0.00    0.10
   1 -10  -5    0.00    0.20
  -1 -10   5    0.00    0.10
   1  10   5    0.00    0.10
  -1 -10   5    0.00    0.10
  -1 -10   5    0.00    0.10
  -1 -10  -7    0.00    0.30
   1 -10   7    0.00    0.10
  -1 -10  -7    0.00    0.10
   1  10  -7    0.00    0.10
  -1  10   7    0.00    0.10
  -1  10   7    0.00    0.30
   1  10  -7    0.00    0.10
   1 -10   7    0.00    0.10
  -1 -10  -7    0.00    0.10
   1 -10  -7    0.00    0.10
  -1 -10   7    0.00    0.10
   1 -10  -7    0.00    0.30
  -1  10  -7    0.00    0.10
  -1  10  -7    0.00    0.10
   1 -10  -7    0.00    0.20
   1  10   7    0.00    0.10
   1  10   7    0.00    0.30
  -1  10   9    0.00    0.30
  -1 -10  -9    0.00    0.10
  -1 -10  -9    0.00    0.30
  -1  10   9    0.00    0.10
   1  10  -9    0.00    0.10
  -1  10  -9    0.00    0.10
   1  10   9    0.00    0.40
   1  10   9    0.00    0.10
  -1 -10   9    0.00    0.10
   1 -10  -9    0.00    0.10
   1 -10  -9    0.00    0.30
  -2  10   0  203.48   26.20
   2  10   0  209.68   25.60
   0   2  10  234.88   22.70
   0  -2 -10  226.88   30.00
   0   2  10  240.08   26.80
  -2  10   0  201.18   26.30
  -2  10   0  205.78   23.40
   0  -2 -10  216.68   21.60
   0   2 -10  225.78   14.60
   0  -2  10  241.48   15.70
   2 -10   0  215.08   24.60
   0  -2 -10  199.48   23.20
   2 -10   0  192.58   27.00
   0   2 -10  191.18   15.00
   0  -2  10  213.08   12.50
  -2 -10   0  222.28   23.20
  -2 -10   0  209.78   24.40
   0  -2  10  218.68   17.40
   2  10   0  207.38   20.70
   0   2  10  209.68   24.40
   2  -2  10  734.23   31.30
   2  10  -2  787.52   41.30
   2 -10   2  745.73   42.00
  -2  10   2  677.93   52.49
  -2  10   2  878.41   65.09
   2 -10   2  756.32   46.40
  -2 -10  -2  775.22   48.00
   2  10  -2  765.02   40.40
   2  10  -2  646.84   41.00
  -2  -2 -10  683.33   40.80
   2   2 -10  762.92   31.90
  -2   2  10  766.82   51.99
  -2   2  10  786.42   45.20
  -2  -2 -10  835.02   48.30
  -2  10   2  793.62   50.29
   2  -2  10  796.42   28.00
  -2   2  10  780.92   49.99
   2   2 -10  717.13   36.70
  -2  -2 -10  821.62   40.90
  -2 -10  -2  742.73   55.49
  -2  10  -2  777.52   44.20
  -2  10  -2  739.73   46.50
   2   2  10  729.43   44.40
   2 -10  -2  772.32   50.09
  -2   2 -10  851.11   36.90
   2  10   2  750.62   47.50
  -2  -2  10  844.12   41.00
   2  -2 -10  714.03   49.90
  -2 -10   2  739.43   47.90
   2   2  10  792.22   39.60
  -2 -10   2  735.73   38.20
  -2  10  -2  692.23   48.40
   2  -2 -10  727.03   43.10
   2  -2 -10  763.92   47.70
  -2 -10   2  660.93   41.70
   2 -10  -2  840.82   64.99
  -2  10   4  388.16   41.10
  -2  10   4  431.16   38.20
   2  10  -4  361.06   28.40
  -2  10   4  447.36   47.20
   2  10  -4  428.36   29.30
   2 -10   4  481.85   36.80
  -4  -2 -10  477.75   32.20
   2 -10   4  424.26   28.60
  -2 -10  -4  374.56   34.90
   2  10  -4  421.66   27.20
   2 -10   4  365.46   30.40
  -4   2  10  442.06   44.80
  -2  10  -4  430.76   33.60
   2  10   4  405.76   36.70
  -2 -10   4  439.46   34.30
  -2 -10   4  346.37   29.40
  -2  10  -4  349.37   32.00
   2 -10  -4  377.36   42.90
   2 -10  -4  396.46   38.20
  -2  10  -4  430.66   32.20
   4   2  10  421.16   37.90
   4   2  10  436.06   33.00
  -2 -10  -6 1003.70   61.19
   2  10  -6 1008.20   38.30
   2 -10   6  926.31   35.10
   2  10  -6  925.31   42.90
  -2  10   6  961.40   60.59
  -2  10  -6 1026.90   45.80
   2  10   6  995.80   63.39
   2 -10  -6 1074.29   64.99
   2 -10  -6  957.90   68.59
  -2 -10   6 1135.29   48.30
  -2  10   8  385.16   43.60
   2  10  -8  403.66   22.00
   2  10  -8  337.07   22.50
  -2  10   8  375.96   39.40
   2 -10   8  343.07   21.50
  -2 -10  -8  361.66   38.30
   2 -10   8  375.56   19.50
   2 -10  -8  406.16   46.90
   2 -10  -8  397.76   39.70
   2 -10  -8  322.07   47.70
   2  10   8  449.66   45.20
  -2  10  -8  420.06   28.10
  -1   3  10    2.80    3.50
  -1  -3 -10    3.40    3.80
  -3  10   1    2.30    3.80
   1   3 -10    2.60    1.40
   3 -10   1    4.20    4.00
   3 -10   1    2.20    2.70
  -1  -3 -10    2.50    2.70
   3  10  -1    2.80    2.60
  -1   3  10    3.50    2.80
  -3  10   1    1.90    2.50
   3  10  -1    2.60    2.60
   3  10   1    2.50    3.00
  -1   3 -10    3.60    2.50
   1  -3 -10    0.80    0.90
   1   3  10    3.20    2.90
   3 -10  -1    1.90    2.50
  -1  -3  10    2.20    1.80
  -3 -10   1    1.50    2.90
   1  -3 -10    5.20    5.60
   3  10   1    4.60    5.50
  -3 -10   1    2.50    2.30
   3 -10  -1    2.10    2.10
   3  -3  10    7.10    3.00
  -3  -3 -10    8.80    5.20
   3  -3  10    8.30    3.40
   3 -10   3    5.40    4.10
  -3   3  10    8.50    5.60
  -3  -3 -10    7.10    6.30
  -3 -10  -3    3.80    3.30
   3 -10   3    6.30    4.40
  -3  10   3    8.00    6.10
  -3  -3  10    6.00    2.90
   3  -3 -10    5.80    5.30
   3   3  10    5.70    3.90
   3  10   3   10.10    6.80
  -3  10  -3    6.90    4.70
   3   3  10    7.80    4.80
   3  -3 -10    8.50    5.70
  -3  10   5   54.99   14.20
  -3 -10  -5   71.49   20.20
  -3 -10  -5   77.39   17.70
   3 -10   5   73.09   12.20
  -3 -10  -5   80.59   16.40
   3 -10   5   79.39   15.30
   3  10   5   75.29   16.60
   3 -10  -5   63.19   16.20
   3 -10  -5   62.69   16.30
   5   3  10   83.29   17.40
   3 -10  -5   86.49   22.90
   3  10   5   85.89   21.90
   3  10  -7    7.00    3.60
  -3  10   7    4.60    5.40
   3 -10   7   10.70    4.70
  -3 -10  -7   11.80    7.20
   3  10  -7    8.10    3.90
   3 -10   7    8.00    3.70
  -3 -10  -7    3.30    3.30
   3  10   7    5.80    5.00
  -3  10   9    4.90    4.60
  -3 -10  -9    8.20    6.10
  -3 -10  -9    7.30    7.00
   3  10   9    9.00    7.20
  -3  10  -9    8.50    3.40
  -3 -10   9    5.50    3.10
   0  -4 -10  220.68   33.90
   4 -10   0  197.28   29.40
  -4  10   0  179.88   34.10
   0  -4 -10  182.78   22.30
   0   4  10  194.08   24.00
   4 -10   0  188.28   24.70
  -4  10   0  201.98   30.40
   4  10   0  208.38   24.00
   0   4  10  195.08   27.70
   4 -10   0  187.08   32.40
   0   4  10  210.68   28.60
  -4 -10  -2  653.13   55.99
  -2   4  10  596.04   47.80
   2   4 -10  567.74   21.00
   2  -4  10  656.73   18.90
  -2  -4 -10  621.74   40.10
  -2  -4 -10  632.04   45.90
  -2   4  10  566.54   43.60
  -4 -10  -2  590.04   42.00
  -2   4  10  598.34   40.80
   4 -10   2  574.84   46.60
   4 -10   2  602.74   41.10
  -4  10   2  621.74   50.59
   4 -10  -2  613.24   49.40
   2  -4 -10  625.84   43.10
   2   4  10  563.04   43.10
  -4 -10   2  688.93   43.20
   2  -4 -10  613.44   46.80
  -4  10  -2  576.54   56.79
   4  10   2  582.64   54.09
   2  -4 -10  579.34   48.20
   2   4  10  678.73   42.70
   4  10   2  585.54   46.10
   4  10   2  561.34   40.80
  -2  -4  10  670.73   31.50
  -4  -4 -10  362.96   37.60
  -4 -10  -4  331.87   41.30
  -4 -10  -4  376.36   43.50
  -4  10   4  352.86   39.80
   4 -10   4  331.67   27.60
  -4  10   4  318.47   44.00
  -4  -4 -10  336.87   35.70
   4 -10   4  309.57   31.20
  -4   4  10  379.86   50.39
  -4 -10  -4  326.97   32.40
  -4  10  -4  339.97   41.00
   4 -10  -4  359.86   41.40
   4 -10  -4  331.87   38.10
   4   4  10  352.96   31.90
   4  -4 -10  375.26   47.90
   4   4  10  343.47   38.10
   4  10   4  410.56   36.70
  -4 -10   4  343.17   28.10
   4   4  10  364.56   33.00
   4  10   4  330.67   36.90
  -4  10   6  667.93   65.49
   4 -10   6  664.23   41.90
  -4 -10  -6  685.13   56.59
  -4 -10  -6  640.84   61.19
  -4  10   6  693.03   59.19
  -4 -10  -6  757.52   52.49
   4 -10   6  721.03   36.90
   4 -10  -6  751.62   69.39
   4  10   6  616.14   51.69
   4  10   6  569.44   49.40
  -4  10  -6  666.43   52.79
  -4 -10   6  742.73   41.40
   4 -10  -6  842.32   65.29
   4 -10   8  311.37   24.40
   4 -10   8  330.17   21.80
  -4  10   8  341.77   43.10
  -4 -10  -8  365.96   42.60
  -4 -10  -8  357.96   37.10
   4  10   8  366.26   46.10
   4 -10  -8  284.77   39.60
   4  10   8  324.47   37.20
  -4 -10   8  392.76   26.10
  -4  10  -8  325.97   33.30
  -1  -5 -10    4.20    4.30
  -1   5  10    4.80    4.00
   5 -10   1    4.80    4.10
  -5  10  -1    2.00    3.70
   1   5  10    4.10    3.90
   5 -10   3    2.30    3.00
  -3  -5 -10    1.20    1.20
  -3   5  10    2.50    3.90
   5 -10  -3    1.30    2.30
   3  -5 -10    0.80    1.80
   5  10   3    2.00    4.20
  -5 -10  -5   16.00    8.30
  -5   5  10   11.50   10.40
  -5  10   5    8.30    8.40
   5  10   5    6.40    5.40
   5   5  10   37.10   13.80
   5 -10  -5   13.10    8.90
   5 -10  -5   15.50   10.90
  -5  10   7    0.00    0.40
   5 -10   7    0.00    0.10
   5 -10   7    0.00    0.10
  -5 -10  -7    0.00    0.20
   5 -10  -7    0.00    0.40
   5  10   7    0.00    0.30
   5 -10  -7    0.00    0.10
   5  10   7    0.80    2.70
  -5  10   9    0.50    1.90
  -5  10   9    0.00    0.20
   5 -10   9    0.00    0.10
  -5  10   9    0.00    0.40
   5 -10   9    0.00    0.10
  -5 -10  -9    0.00    0.30
   5 -10  -9    0.00    0.10
   5  10   9    0.00    0.30
   5  10   9    0.00    0.20
   5 -10  -9    0.00    0.40
  -5  10  -9    0.00    0.10
   0   6  10  831.52   55.89
   0  -6 -10  774.12   57.69
   0  -6 -10  891.51   54.89
   0   6  10  807.52   63.59
   0   6  10  856.81   63.69
  -2  -6 -10 1180.18   62.69
  -2   6  10 1310.47   84.89
  -2   6  10 1130.59   61.49
   2   6  10 1248.18   66.59
   2  -6 -10 1059.09   69.09
   2  -6 -10 1243.48   67.09
   2  -6 -10 1176.28   72.09
   2   6  10 1097.29   71.39
  -4   6  10  695.33   53.29
  -4   6  10  793.62   69.79
  -4  -6 -10  789.12   50.29
  -4  -6 -10  760.52   58.49
   4   6  10  847.12   54.29
   4  -6 -10  749.33   56.69
   4   6  10  697.43   58.29
   4  -6 -10  807.52   65.89
   4   6  10  698.13   50.19
   4  -6 -10  731.43   65.59
  -6  10   8  222.08   44.30
   6 -10  -8  318.57   42.00
  -1  -7 -10    1.20    2.20
   1  -7 -10    0.80    2.20
   1   7  10    2.50    3.90
   1  -7 -10    4.20    3.70
   3  -7  10    2.20    1.10
  -3   7  10    1.50    3.10
  -3  -7 -10    1.70    2.30
  -5   7  10   16.10   11.40
   5   7  10   42.30   16.40
   5  -7 -10   28.80   14.40
   7  10   9    0.00    0.40
   0   8  10  536.35   55.19
   0  -8 -10  579.84   48.70
   0  -8 -10  496.35   60.69
   0   8  10  569.44   50.79
  -2  -8 -10  589.54   47.60
  -2   8  10  573.84   48.20
  -2  -8 -10  519.85   50.49
  -2   8  10  491.65   49.10
  -2   8  10  503.65   48.80
   2   8 -10  556.54   14.90
  -2  -8 -10  505.85   47.60
   2  -8 -10  505.85   44.10
   2   8  10  480.85   44.50
   2  -8 -10  493.25   54.19
  -4  -8 -10  422.06   39.50
  -4   8  10  432.16   53.79
  -4  -8 -10  401.86   47.70
   4  -8 -10  442.76   57.19
   4  -8 -10  369.46   44.50
  -6  -8 -10  357.96   41.70
   6  -8 -10  284.67   39.10
   6   8  10  317.27   45.40
   6   8  10  305.57   37.50
  -1  -9 -10    0.00    0.10
  -1   9  10    0.00    0.10
  -1  -9 -10    0.00    0.30
  -1   9  10    0.00    0.20
  -1   9  10    0.00    0.30
   1  -9 -10    0.00    0.30
   1   9  10    0.00    0.10
   1   9  10    0.00    0.40
   1  -9 -10    0.00    0.10
   1  -9 -10    0.20    0.50
  -3  -9 -10    0.00    0.10
   3  -9  10    0.00    0.10
  -3   9  10    0.00    0.30
   3   9 -10    0.00    0.10
  -3   9  10    0.00    0.10
  -3   9  10    0.00    0.20
  -3  -9 -10    0.00    0.30
   3   9 -10    0.00    0.10
   3  -9 -10    0.00    0.10
   3  -9 -10    0.00    0.30
  -3  -9  10    0.00    0.10
   3   9  10    0.00    0.30
   3   9  10    0.00    0.10
  -5  -9 -10    0.00    0.20
  -5   9  10    0.40    1.30
  -5   9  10    0.00    0.40
   5  -9 -10    0.00    0.40
   5   9  10    0.00    0.20
   5  -9 -10    0.10    0.10
   5   9  10    0.00    0.30
   5  -9 -10    0.00    0.20
   5   9  10    0.30    1.00
   7   9  10    0.00    0.10
   0  10  10  512.45   51.99
   0 -10 -10  603.54   53.89
   0 -10 -10  587.34   61.99
   0  10  10  518.05   60.19
  -2  10  10  409.86   50.49
  -2 -10 -10  462.45   45.40
  -2  10  10  516.75   49.70
   2  10 -10  486.85   19.40
  -2 -10 -10  410.56   49.00
   2 -10  10  472.15   14.80
   2 -10 -10  405.06   53.99
   2  10  10  476.45   50.09
   2 -10 -10  435.56   43.00
  -4 -10 -10  299.77   42.60
   4 -10  10  336.37   22.20
  -4  10  10  273.57   40.00
  -4  10  10  374.66   52.39
   4 -10  10  345.57   18.90
  -4 -10 -10  452.05   43.70
   4  10  10  406.66   43.40
   4 -10 -10  322.47   42.30
  -4  10 -10  335.07   28.10
   4  10  10  406.16   47.70
  -4 -10  10  357.96   20.70
  -6 -10 -10  179.28   38.50
   6 -10 -10  213.28   36.80
   6  10  10  197.48   32.30
   6  10  10  205.18   37.70
   6 -10 -10  157.38   38.70
   1   0 -11    6.40    3.30
  -1   0  11    7.40    4.20
   0 -11  -1    4.20    3.90
   0 -11   1    5.80    4.60
   0  11  -1    4.80    4.30
   1   0 -11    6.70    3.50
   1   0  11    6.90    4.10
  -1   0 -11    5.50    3.00
   1   0  11    3.80    2.90
  -1   0 -11    3.40    3.60
  -1   0  11    6.00    3.50
   1   0 -11    6.40    4.20
  -1   0 -11    7.00    3.50
  -3   0  11   10.10    7.60
   0  11   3    6.80    4.90
   0 -11  -3    8.40    5.90
   3   0  11    6.70    3.60
   0  11   3    8.10    6.40
   0  11  -3    5.90    4.00
   0 -11  -3   12.30    6.80
   0 -11   3    5.40    3.60
   0  11  -3    5.90    4.30
   0  11  -3    4.80    3.80
   0 -11   3    8.40    4.70
   0  11  -5   72.59   11.60
   0 -11  -5   69.29   16.20
   0 -11   5   66.39   10.30
   0 -11   5   64.49   11.60
   0 -11   5   56.39   14.10
   0  11  -5   75.39   13.70
   0  11   7    6.90    6.40
   0 -11   7    6.70    3.50
   0 -11   7    9.70    3.70
   0  11  -7    5.30    2.70
   0  11  -7    7.30    3.20
   0 -11  -7    2.60    3.00
   0  11   9    2.20    3.00
   0 -11  -9    2.30    3.20
   0  11   9    1.70    3.00
   0   1 -11   42.70    9.00
   0  -1  11   31.20    7.20
  -1 -11   0   35.20   12.00
   0   1 -11   36.80    8.60
   0  -1  11   43.00    8.30
   0  -1  11   37.20    6.80
   0   1 -11   42.10    7.50
   0   1  11   28.40    7.20
   0  -1 -11   44.20   10.90
   1 -11   0   30.60    8.60
  -1  11   0   39.10   12.60
   0  -1 -11   45.50    9.30
   0   1  11   44.40   10.50
   1 -11   0   33.60   10.40
  -1  11   0   31.90   11.10
  -1 -11  -2   15.50    8.50
   2  -1  11   18.30    5.50
   1  11  -2    9.30    5.60
   1 -11   2   13.90    6.50
  -2   1  11   15.70    6.80
  -1  11   2   10.80    6.70
  -2  -1 -11   19.60    6.50
  -2  -1 -11   13.00    6.00
   2   1 -11   13.30    5.10
   2  -1  11   12.30    4.40
  -2   1  11   19.50    7.20
   1 -11   2   15.20    6.60
   1  11  -2   13.80    7.10
   2   1 -11   17.90    6.30
  -1 -11  -2    8.20    6.00
  -2  -1 -11   11.70    5.20
  -2  -1  11   11.90    4.90
   1  11   2   14.60    8.00
   2   1  11   20.70    7.10
   2  -1 -11   14.30    6.00
   2  -1 -11   15.40    7.00
   1  11   2   10.00    6.90
  -1  11  -2   17.30    7.60
  -2   1 -11   14.20    5.40
   1 -11  -2    9.90    5.90
  -1 -11   2   12.80    6.00
   2  -1 -11   18.90    7.40
   2   1  11   19.50    6.80
   1 -11  -2   17.50    8.00
   1  11   2   10.50    6.00
   1  11  -4    0.50    1.10
  -1  11   4    0.80    2.30
   1 -11   4    0.00    0.10
  -1 -11  -4    0.00    0.20
   1  11  -4    0.20    0.60
  -1  11   4    0.00    0.30
   1 -11   4    0.70    1.40
   4  -1  11    0.00    0.20
   1  11  -4    0.00    0.20
   4  -1  11    0.60    1.20
   4   1 -11    0.00    0.20
   4   1  11    0.70    1.60
  -1  11  -4    0.80    1.40
  -1 -11   4    0.40    0.70
   1 -11  -4    0.70    1.90
   4  -1 -11    0.00    0.20
   1 -11  -4    0.00    0.20
  -1 -11   4    0.00    0.10
   1  11   4    0.00    0.30
  -1  11  -4    0.00    0.10
   1  11   4    1.10    2.80
   4   1  11    0.00    0.20
   1 -11   6    0.00    0.10
   1  11  -6    0.00    0.10
   1 -11   6    0.00    0.10
  -1  11   6    0.00    0.30
   1 -11   6    0.00    0.10
   1  11  -6    0.00    0.20
  -1 -11  -6    0.00    0.20
  -1  11   6    0.00    0.10
  -1 -11  -6    0.00    0.10
   1  11  -6    0.00    0.10
   1  11   6    0.00    0.30
  -1  11  -6    0.00    0.10
  -1  11  -6    0.00    0.20
  -1 -11   6    0.00    0.10
   1 -11  -6    0.00    0.30
  -1 -11   6    0.00    0.10
   1  11   6    0.00    0.10
  -1  11  -6    0.00    0.10
   1 -11  -6    0.00    0.10
   1 -11   8    0.00    0.10
  -1  11   8    0.00    0.10
   1  11  -8    0.00    0.10
  -1 -11  -8    0.00    0.10
  -1  11   8    0.00    0.20
  -1 -11  -8    0.00    0.30
   1 -11   8    0.00    0.10
   1  11  -8    0.00    0.10
  -1  11   8    0.00    0.30
   1 -11  -8    0.00    0.10
   1  11   8    0.00    0.40
   1 -11  -8    0.00    0.20
  -1  11  -8    0.00    0.10
   1  11   8    0.00    0.10
  -1 -11   8    0.00    0.10
   1  11   8    0.00    0.20
   1 -11  -8    0.00    0.30
  -1  11  10    0.00    0.10
   1  11 -10    0.00    0.10
  -1 -11 -10    0.00    0.10
  -1 -11 -10    0.00    0.40
  -1  11  10    0.00    0.20
  -1  11  10    0.00    0.40
   1 -11 -10    0.00    0.10
   1  11  10    0.00    0.10
   1 -11 -10    0.00    0.30
   1  11  10    0.00    0.40
   1 -11 -10    0.00    0.30
   1   2 -11   13.70    4.30
  -2  11   1    8.20    5.40
   2 -11   1    8.30    4.90
  -2 -11  -1   11.00    6.30
  -1  -2 -11    9.60    4.90
  -1  -2 -11   15.00    6.50
  -1   2  11   13.20    5.70
   2 -11   1   11.20    5.90
   1  -2  11   13.70    4.60
   1   2 -11   20.40    4.60
   2  11  -1   12.80    6.50
   1  -2  11   16.70    5.00
   2 -11   1    7.50    6.50
  -1   2  11   16.70    6.60
   1  -2 -11   10.30    5.40
  -2  11  -1   13.70    7.00
  -2 -11   1   12.90    5.90
   1  -2 -11   14.50    6.10
   2  11   1    6.00    4.20
   1  -2 -11   16.70    6.50
  -2 -11   1   13.00    6.20
  -2  11  -1    9.20    5.20
   1   2  11    7.30    4.80
   2 -11  -1   13.80    7.80
   1   2  11   13.80    7.30
   2  11  -3   59.19   13.10
   3  -2  11   60.99   10.00
  -2 -11  -3   54.59   13.40
  -3  -2 -11   62.09   14.30
   2 -11   3   53.79   12.00
  -3   2  11   59.29   15.40
  -3  -2 -11   62.49   14.10
  -3   2  11   66.99   15.00
   2 -11   3   59.39   11.20
   2 -11   3   62.99   13.50
   3  -2  11   64.19    9.10
   2  11  -3   67.19   12.00
  -2 -11  -3   57.29   15.60
  -2  11   3   49.10   12.70
  -2  11   3   61.19   18.60
  -3   2 -11   65.19   11.50
   3  -2 -11   65.19   13.40
  -2  11  -3   52.19   13.20
   3   2  11   64.99   13.30
   3   2  11   60.59   11.40
   2 -11  -3   60.49   16.30
  -2 -11   3   57.29   12.10
  -3  -2  11   49.30   12.40
   2  11   3   59.79   16.20
  -2 -11   3   55.29   10.40
   2  11   3   56.09   14.10
   3   2  11   49.60   10.00
  -2 -11   3   46.10   11.40
   2 -11  -3   47.40   12.80
   3  -2 -11   64.09   18.20
   3  -2 -11   69.59   16.00
  -2  11  -3   58.09   14.40
  -2  11   5  100.59   25.20
  -2 -11  -5  121.79   21.30
  -2  11   5  116.89   20.90
   2  11  -5  112.39   14.50
   2 -11   5  114.59   13.80
  -5  -2 -11  113.09   18.40
  -2 -11  -5   82.39   19.30
   2 -11   5  104.19   15.20
   2 -11   5   96.19   18.30
   2  11  -5  105.89   15.80
   2  11  -5   85.99   13.40
   2  11   5  117.69   25.50
   5   2  11   86.19   14.60
  -2  11  -5  105.69   17.00
  -2 -11   5   98.09   16.30
   5   2  11  112.99   20.10
  -2  11  -5   90.29   15.50
  -2  11  -5  115.29   15.80
  -2 -11   5  100.99   14.80
   2 -11  -5  112.59   20.90
   2 -11  -5  109.69   23.10
   2 -11  -5   79.49   25.00
   2  11   5  111.09   21.50
  -2 -11  -7    5.40    4.90
   2  11  -7   12.40    4.70
  -2  11   7   10.00    7.00
  -2 -11   7   10.40    4.70
  -2  11  -7    8.90    4.40
   2 -11  -7   15.70    9.00
   2  11   7   14.50    7.80
   2  11   7    5.80    5.90
   2  11  -9    0.30    0.20
  -2  11   9    0.00    0.30
  -2 -11  -9    0.00    0.30
   2 -11   9    1.30    1.00
  -2 -11  -9    1.40    2.60
   2  11   9    1.10    2.90
   2  11   9    0.70    1.20
   2 -11  -9    0.00    0.30
   2  11   9    0.00    0.40
  -2  11  -9    0.50    0.90
  -3 -11   0   58.69   14.30
  -3  11   0   52.79   14.90
   3 -11   0   61.39   17.90
   0   3  11   72.69   13.50
  -3  11   0   44.30   11.80
   0  -3  11   63.89    6.50
   0  -3 -11   54.09   11.60
   0  -3 -11   66.09   17.60
   3  11   0   61.09   15.90
   0   3  11   67.09   15.30
   0   3  11   66.29   15.10
   0  -3 -11   62.39   14.80
   3 -11   0   48.10   12.80
   3 -11   0   51.29   13.60
  -3  11   0   49.80   15.40
  -3 -11   0   56.99   17.20
   2  -3  11   14.20    4.20
  -2  -3 -11   10.00    5.40
   2  -3  11   12.80    3.30
  -2   3  11   15.00    7.50
  -3  11   2   15.70    9.80
   3 -11   2    7.20    4.80
   2   3 -11    9.40    3.60
  -2  -3 -11   15.30    7.20
  -2  -3 -11   12.90    5.80
  -3 -11  -2    6.40    5.10
  -3  11   2    5.20    4.60
   3  11  -2    9.10    5.40
   3 -11   2    8.10    6.50
   2   3 -11   11.10    4.10
  -2   3  11   11.50    6.10
   3 -11   2   10.40    6.80
   2  -3 -11   15.50    6.90
   2  -3 -11    7.60    5.10
   2  -3 -11   11.70    6.10
   2   3  11   10.20    5.90
  -3  11  -2   10.20    6.00
  -2  -3  11   12.30    4.10
  -3 -11   2   11.90    6.00
  -3  11  -2    8.60    5.90
   3  11   2   11.70    7.00
   2   3  11   14.10    6.90
   3 -11  -2   10.20    7.30
   3 -11  -2    7.10    6.10
  -3  11   4   21.40   10.00
   4  -3  11   26.60    5.30
   3 -11   4   15.60    6.60
   3  11  -4   28.20    8.90
  -3 -11  -4   31.40   11.10
  -3 -11  -4   25.80   10.80
   3  11  -4   25.10    7.10
   3 -11   4   29.30    9.90
  -4  -3 -11   24.30    9.40
  -4   3 -11   28.80    5.80
   3 -11  -4   21.20   10.70
   3  11   4   23.00    8.80
   4   3  11   26.80    9.70
   4   3  11   32.80   10.90
   3  11   4   22.50   10.00
  -3  11  -4   22.40    8.90
   3  11  -6    0.00    0.10
  -3  11   6    0.00    0.30
  -3 -11  -6    0.90    2.50
  -3 -11  -6    0.00    0.30
  -3 -11  -6    0.00    0.10
   3 -11   6    0.40    1.20
   3  11  -6    0.20    0.70
   3 -11   6    0.00    0.10
  -3  11   6    0.00    0.10
   3  11   6    0.00    0.30
   3 -11  -6    0.00    0.30
   3  11   6    0.10    0.10
   3 -11  -6    0.20    1.00
   3 -11  -6    0.00    0.10
   3 -11   8    0.00    0.10
  -3 -11  -8    0.00    0.10
   3  11  -8    0.50    1.00
  -3  11   8    0.00    0.20
   3  11  -8    0.00    0.10
  -3 -11  -8    0.00    0.30
  -3  11   8    0.00    0.30
  -3 -11   8    0.00    0.10
   3  11   8    0.00    0.10
   3 -11  -8    0.00    0.30
   3 -11  -8    0.50    1.90
   3 -11  -8    0.00    0.10
  -3  11  -8    0.10    0.10
   3  11   8    0.00    0.30
   3  11 -10    0.00    0.10
  -3  11  10    0.00    0.10
  -3  11  10    0.00    0.20
   3  11 -10    0.00    0.10
  -3 -11 -10    0.00    0.30
  -3 -11 -10    0.00    0.10
   3 -11  10    0.00    0.10
   3 -11  10    0.00    0.10
  -3  11  10    0.00    0.40
  -3 -11 -10    0.00    0.10
   3  11  10    0.00    0.40
   3 -11 -10    0.00    0.10
   3 -11 -10    0.00    0.30
   3 -11 -10    0.00    0.10
  -3  11 -10    0.00    0.10
  -3 -11  10    0.00    0.10
   3  11  10    0.00    0.10
   3  11  10    0.00    0.10
   4  11  -1    0.00    0.10
   4 -11   1    0.00    0.20
  -1   4  11    0.00    0.10
  -1  -4 -11    0.00    0.10
  -4 -11  -1    0.00    0.10
   1   4 -11    0.00    0.10
  -4  11   1    0.00    0.20
  -4  11   1    0.00    0.10
   4 -11   1    0.00    0.10
   4  11  -1    0.00    0.10
  -1   4  11    0.00    0.10
   4 -11   1    0.00    0.10
  -1  -4 -11    0.00    0.20
  -1   4  11    0.00    0.20
  -1  -4 -11    0.00    0.10
   4  11  -1    0.00    0.20
   1   4  11    0.00    0.10
   4 -11  -1    0.00    0.10
   4  11   1    0.00    0.10
   4  11   1    0.00    0.10
   4 -11  -1    0.00    0.30
   1  -4 -11    0.00    0.10
   1  -4 -11    0.00    0.10
  -4  11  -1    0.00    0.10
   1  -4 -11    0.00    0.20
   4 -11  -1    0.00    0.10
   1   4  11    0.00    0.20
  -4  11  -1    0.00    0.10
  -4 -11   1    0.00    0.10
   4  11   1    0.00    0.20
   1   4  11    0.00    0.10
  -3   4  11    0.40    1.10
   3  -4  11    0.60    0.80
  -4 -11  -3    1.50    3.00
   4 -11   3    0.50    1.60
  -4  11   3    0.00    0.30
  -4  11   3    0.60    2.00
   4  11   3    0.70    2.00
   4 -11  -3    0.00    0.30
  -3   4 -11    0.40    0.80
   3   4  11    1.70    2.60
   3  -4 -11    0.80    1.90
   4 -11  -3    0.50    1.90
   4  11  -5    0.00    0.20
   4 -11   5    0.00    0.20
  -4  11   5    0.00    0.20
   4 -11   5    0.00    0.10
  -5   4  11    0.00    0.10
  -4  11   5    0.00    0.30
   4  11  -5    0.00    0.10
  -5  -4 -11    0.00    0.10
  -4 -11  -5    0.00    0.20
  -4 -11  -5    0.70    1.70
   4 -11  -5    0.00    0.40
   5  -4 -11    0.00    0.30
   5   4  11    0.40    1.10
  -4  11  -5    0.00    0.10
  -4 -11   5    0.00    0.10
   5  -4 -11    0.00    0.10
   4 -11  -5    0.00    0.10
   4  11   5    0.00    0.30
   5   4  11    0.00    0.30
  -4  11   7    0.00    0.40
  -4 -11  -7    0.00    0.30
  -4  11   7    0.00    0.10
  -4 -11  -7    0.00    0.10
   4 -11   7    0.00    0.10
   4 -11   7    0.00    0.10
   4  11  -7    0.00    0.10
   4  11  -7    0.00    0.20
  -4  11   7    0.00    0.20
   4  11   7    0.00    0.30
  -4 -11   7    0.00    0.10
   4 -11  -7    0.00    0.10
   4  11   7    0.00    0.20
   4 -11  -7    0.00    0.30
   4 -11  -7    0.00    0.10
  -4  11  -7    0.00    0.10
   4 -11   9    0.00    0.10
  -4  11   9    0.00    0.10
   4 -11   9    0.00    0.10
  -4  11   9    0.00    0.40
   4  11  -9    0.00    0.10
   4  11  -9    0.00    0.10
  -4 -11  -9    0.00    0.10
  -4 -11  -9    0.00    0.30
  -4  11  -9    0.00    0.10
   4 -11  -9    0.00    0.40
   4 -11  -9    0.00    0.10
  -4 -11   9    0.00    0.10
   4  11   9    0.00    0.10
   4 -11  -9    0.00    0.10
   4  11   9    0.00    0.20
   4  11   9    0.00    0.30
  -5 -11   0  191.48   25.70
   0  -5 -11  188.38   33.50
   0  -5 -11  209.58   29.00
   5 -11   0  231.48   29.20
   0   5  11  215.98   31.00
   0   5  11  200.38   26.30
   0   5  11  205.08   30.10
   5 -11   0  231.48   34.40
   0  -5 -11  218.78   26.60
   2  -5  11   93.49    4.80
   5 -11   2   89.49   19.70
   2   5 -11   83.79    6.60
  -5  11   2   81.79   20.70
  -2  -5 -11   71.39   14.40
  -2  -5 -11   75.39   17.40
   5 -11   2   69.89   14.70
  -2   5  11   82.79   15.50
  -2   5  11   76.19   18.10
  -2  -5 -11   92.69   18.90
   5 -11  -2   92.29   23.00
  -5 -11   2   65.49   14.90
   2  -5 -11   91.19   19.00
   2   5  11   86.09   18.40
   2   5  11   88.29   16.70
   2  -5 -11   88.49   19.60
   2   5  11   67.99   12.30
   2  -5 -11   63.29   13.90
   5  11   2   83.49   17.90
  -4   5  11    9.90    8.80
  -4  -5 -11   10.60    7.60
  -5 -11  -4    6.10    5.40
   5 -11   4   18.70    7.60
   4   5  11   12.90    6.40
   4  -5 -11   14.70   10.80
   5  11   4    3.30    3.30
   5 -11  -4    7.10    6.20
   5 -11  -4   11.20    8.00
   4   5  11   17.00    8.10
  -5  11  -4    7.90    7.80
   5 -11   6    0.00    0.10
   5 -11   6    0.00    0.20
  -6  -5 -11    0.00    0.10
  -5 -11  -6    0.00    0.10
  -5  11   6    0.00    0.20
  -5  11   6    0.00    0.10
   5  11  -6    0.00    0.10
   5  11  -6    0.00    0.20
  -5  11   6    0.00    0.30
  -6   5  11    0.00    0.20
  -5  11  -6    0.00    0.10
  -5 -11   6    0.00    0.10
   5 -11  -6    0.00    0.10
   5  11   6    0.00    0.20
   5 -11  -6    0.00    0.40
   6   5  11    0.00    0.10
   5  11   6    0.00    0.30
   6   5  11    0.00    0.30
   5 -11   8    0.00    0.10
  -5 -11  -8    0.00    0.30
   5  11  -8    0.00    0.10
   5 -11   8    0.00    0.10
  -5  11   8    0.00    0.10
  -5  11   8    0.00    0.20
  -5  11   8    0.00    0.50
  -5 -11  -8    0.00    0.20
   5  11   8    0.00    0.30
   5 -11  -8    0.00    0.10
  -5  11  -8    0.00    0.10
   5 -11  -8    0.00    0.40
   5  11   8    0.00    0.10
  -5 -11   8    0.00    0.10
   5 -11  -8    0.00    0.20
   5  11   8    0.00    0.10
   5 -11  10    0.00    0.10
   5  11 -10    0.00    0.10
   5 -11  10    0.00    0.10
  -5 -11 -10    0.00    0.10
  -5 -11 -10    0.00    0.30
  -5  11  10    0.00    0.50
   5  11 -10    0.00    0.10
  -5  11  10    0.00    0.20
   5  11  10    0.00    0.20
   5  11  10    0.00    0.40
   5 -11 -10    0.00    0.40
  -5  11 -10    0.00    0.10
   5 -11 -10    0.00    0.10
  -5 -11  10    0.00    0.10
  -1   6  11    0.00    0.10
  -1   6  11    0.00    0.10
  -1   6  11    0.00    0.20
  -1  -6 -11    0.00    0.10
  -1  -6 -11    0.00    0.30
   1   6  11    0.00    0.10
   1  -6 -11    0.00    0.10
   1   6  11    0.00    0.10
   1   6  11    0.00    0.30
   1  -6 -11    0.00    0.20
   1  -6 -11    0.00    0.10
  -3   6  11    0.40    0.90
  -3  -6 -11    2.10    2.60
   6 -11  -3    1.00    2.60
   3   6  11    1.00    1.80
   3  -6 -11    3.40    4.20
  -6  11   5    0.00    0.30
  -6 -11  -5    0.00    0.10
  -5  -6 -11    0.00    0.10
  -5   6  11    0.00    0.10
  -5  -6 -11    0.00    0.20
   5   6  11    0.00    0.10
   5   6  11    0.00    0.30
   5   6  11    0.00    0.10
   6 -11  -5    0.00    0.40
   5  -6 -11    0.00    0.40
   5  -6 -11    0.00    0.10
   6  11   5    0.00    0.40
  -6  11   7    0.00    0.10
  -6 -11  -7    0.00    0.20
   6  11   7    0.00    0.10
   6 -11  -7    0.00    0.40
   6  11   7    0.00    0.40
   6  11   7    0.00    0.20
  -6  11   9    0.00    0.10
  -6 -11  -9    0.00    0.20
  -6  11   9    0.00    0.30
  -6 -11  -9    0.00    0.10
   6 -11  -9    0.00    0.50
   6  11   9    0.00    0.20
   6  11   9    0.00    0.40
   0  -7 -11    3.40    4.50
   0  -7 -11    2.30    2.70
   0   7  11    3.30    4.00
   0   7  11    1.80    2.70
  -2  -7 -11    0.90    1.50
   2   7  11    1.80    2.80
   2   7  11    0.70    1.70
   2  -7 -11    0.70    0.40
  -4  -7 -11    2.40    3.90
  -4   7  11    1.30    3.20
   4   7  11    2.50    4.00
   4  -7 -11    2.10    4.40
  -6   7  11    0.00    0.20
   6   7  11    0.00    0.40
   6  -7 -11    0.00    0.40
  -7 -11  -8    0.00    0.10
  -7 -11 -10    0.00    0.20
   7  11  10    0.00    0.40
   7 -11 -10    0.00    0.10
  -1  -8 -11    0.00    0.30
  -1   8  11    0.00    0.30
  -1   8  11    0.30    1.20
   1   8  11    0.30    1.30
   1  -8 -11    0.00    0.20
   1  -8 -11    0.00    0.30
   1   8  11    0.00    0.30
   1  -8 -11    0.20    0.70
  -3   8  11    0.00    0.30
  -3   8  11    0.00    0.10
  -3  -8 -11    0.00    0.30
  -3  -8 -11    0.00    0.10
   3   8 -11    0.00    0.10
  -3  -8 -11    0.00    0.10
  -3   8  11    0.00    0.10
   3   8  11    0.00    0.30
   3  -8 -11    0.00    0.10
   3   8  11    0.00    0.10
   3   8  11    0.00    0.10
   3  -8 -11    0.00    0.30
  -5   8  11    1.10    2.60
  -5  -8 -11    3.10    4.70
   5   8  11    1.50    3.20
  -7  -8 -11    0.00    0.10
   7   8  11    0.00    0.10
   0  -9 -11    6.50    6.20
   2   9  11    1.90    3.20
   4  -9  11    0.00    0.10
  -4   9  11    0.00    0.40
  -4  -9 -11    0.00    0.10
   4   9 -11    0.00    0.10
  -4  -9 -11    0.00    0.30
  -4  -9 -11    0.00    0.10
   4   9  11    0.00    0.30
   4  -9 -11    0.00    0.30
  -4  -9  11    0.00    0.10
   4  -9 -11    0.00    0.20
  -6  -9 -11    0.00    0.20
   6   9  11    0.00    0.10
   6  -9 -11    0.00    0.50
   6   9  11    0.00    0.30
  -1  10  11    0.00    0.10
  -1 -10 -11    0.00    0.10
  -1 -10 -11    0.00    0.40
  -1 -10 -11    0.00    0.20
  -1  10  11    0.00    0.30
  -1  10  11    0.00    0.10
   1  10  11    0.00    0.10
   1  10  11    0.00    0.10
   1  10  11    0.00    0.40
   1 -10 -11    0.00    0.30
   1 -10 -11    0.00    0.10
  -3 -10 -11    0.00    0.10
  -3  10  11    0.00    0.10
  -3  10  11    0.00    0.40
  -3 -10 -11    0.00    0.30
  -3 -10 -11    0.00    0.20
  -3  10  11    0.00    0.20
   3 -10  11    0.00    0.10
   3  10 -11    0.00    0.10
   3  10  11    0.00    0.10
   3 -10 -11    0.00    0.20
   3  10  11    0.00    0.40
   3 -10 -11    0.00    0.30
   5 -10  11    0.00    0.10
  -5 -10 -11    0.00    0.10
   5 -10  11    0.00    0.10
  -5 -10 -11    0.00    0.30
  -5 -10 -11    0.00    0.20
  -5  10  11    0.00    0.40
  -5  10  11    0.00    0.20
   5 -10 -11    0.00    0.10
   5 -10 -11    0.00    0.40
   5 -10 -11    0.00    0.20
   5  10  11    0.00    0.10
   5  10  11    0.00    0.30
  -5  10 -11    0.00    0.10
  -7 -10 -11    0.00    0.20
   7  10  11    0.00    0.40
   7  10  11    0.00    0.10
   0  11  11    0.00    0.40
   0 -11 -11    0.00    0.20
   0 -11 -11    0.00    0.40
   0  11  11    0.00    0.10
  -2  11  11    0.00    0.40
  -2 -11 -11    0.00    0.10
  -2 -11 -11    0.00    0.40
   2  11 -11    0.00    0.10
  -2  11  11    0.00    0.10
   2 -11 -11    0.00    0.10
   2  11  11    0.00    0.20
   2 -11 -11    0.00    0.30
   2  11  11    0.00    0.40
   2  11  11    0.00    0.10
  -4 -11 -11    0.00    0.30
   4 -11  11    0.00    0.10
   4  11 -11    0.00    0.10
  -4  11  11    0.00    0.10
  -4 -11 -11    0.00    0.10
   4 -11  11    0.00    0.10
  -4 -11 -11    0.00    0.10
  -4  11  11    0.00    0.40
   4  11 -11    0.00    0.10
   4  11  11    0.00    0.40
   4  11  11    0.00    0.20
   4 -11 -11    0.00    0.20
   4 -11 -11    0.00    0.40
  -4 -11  11    0.00    0.10
  -4  11 -11    0.00    0.10
  -6  11  11    0.00    0.10
  -6 -11 -11    0.00    0.10
   6 -11 -11    0.00    0.20
   6 -11 -11    0.00    0.60
   6  11  11    0.00    0.20
   6  11  11    0.00    0.40
   6  11  11    0.00    0.10
   0  12   0 1669.43   86.59
   0   0  12 1653.23   52.99
   0  12   0 1702.53   79.99
   0 -12   0 1602.54   71.99
   0   0 -12 1614.24   56.09
   0   0 -12 1478.35   62.79
   0  12   0 1410.96   82.79
   0 -12   0 1470.95   81.29
   2   0 -12 1909.81   62.49
  -2   0  12 2205.68   79.59
   2   0  12 1874.91   60.59
   0 -12   2 1849.02   99.99
   0 -12   2 1822.72   69.79
   0  12  -2 1775.52   75.59
   2   0  12 2146.99   62.99
   0  12   2 1824.42  103.29
   2   0 -12 1627.84   66.09
   0 -12  -2 1921.31   84.59
   0  12   2 1874.51   89.09
  -2   0 -12 2155.18   74.09
   0  12  -2 1820.72   80.49
   0  12  -4  748.13   49.90
   4   0  12  830.22   41.70
   0 -12  -4  953.50   80.39
   0  12   4  788.02   71.49
   0 -12  -4  878.41   60.59
   4   0  12  793.22   48.80
   0  12   4  775.92   60.29
  -4   0  12  889.71   66.29
   0  12  -4  826.92   45.40
   0 -12  -4  937.01   91.99
   0 -12   4  836.72   63.79
   0  12  -4  860.41   47.00
   0  12   4  802.52   68.19
   0 -12   4  843.32   44.20
   0 -12   4  745.73   48.10
   0  12  -6  672.83   32.90
   0  12   6  723.43   73.09
   0  12   6  709.23   61.09
   0 -12   6  599.34   33.80
   0 -12  -6  674.63   84.19
   0 -12   6  683.43   49.00
   0 -12  -6  739.33   58.89
   0 -12   6  656.33   32.80
   0  12  -6  690.83   35.50
   0  12  -6  567.24   35.80
   0  12   8  119.99   25.50
   0  12  -8  132.49   13.60
   0  12  -8  165.08   15.80
   0 -12  -8  154.08   27.80
   0  12   8  116.09   27.00
   0 -12   8  156.38   18.10
   0 -12   8  150.48   15.40
   0  12  -8  151.28   17.50
   0 -12 -10  160.38   29.70
   0  12  10  139.09   28.60
   0 -12 -10  181.58   36.60
  -1 -12  -1    0.00    0.20
  -1  -1 -12    0.00    0.10
  -1   1  12    0.00    0.10
   1  12  -1    0.00    0.10
   1 -12   1    0.00    0.20
  -1   1  12    0.00    0.10
  -1  -1 -12    0.00    0.10
  -1 -12  -1    0.00    0.10
  -1  12   1    0.00    0.20
   1 -12   1    0.00    0.10
  -1  12   1    0.00    0.20
   1  12  -1    0.00    0.20
  -1  12   1    0.00    0.10
   1  -1  12    0.00    0.10
   1  -1  12    0.00    0.10
   1  12  -1    0.00    0.10
   1  -1  12    0.00    0.10
  -1  -1 -12    0.00    0.10
   1   1 -12    0.00    0.10
  -1   1  12    0.00    0.20
   1   1 -12    0.00    0.10
   1 -12   1    0.00    0.10
   1   1 -12    0.00    0.10
   1   1  12    0.00    0.10
  -1   1 -12    0.00    0.10
   1  -1 -12    0.00    0.20
   1  -1 -12    0.00    0.10
  -1 -12   1    0.00    0.10
  -1 -12   1    0.00    0.10
   1  12   1    0.00    0.10
  -1  12  -1    0.00    0.10
   1 -12  -1    0.00    0.20
   1  -1 -12    0.00    0.10
   1   1  12    0.00    0.20
  -1   1 -12    0.00    0.10
  -1  -1  12    0.00    0.10
  -1   1 -12    0.00    0.10
  -1  12  -1    0.00    0.20
  -1  -1  12    0.00    0.10
  -1 -12   1    0.00    0.20
   1   1  12    0.00    0.10
  -1  12  -1    0.00    0.10
   1 -12  -1    0.00    0.10
   1  12   1    0.00    0.30
   1 -12   3    0.00    0.20
  -1 -12  -3    0.00    0.20
   3   1 -12    0.30    0.20
   1  12  -3    1.40    2.60
  -1  12   3    0.00    0.30
   1  12  -3    0.00    0.20
   3  -1 -12    1.60    2.90
  -1  12  -3    1.00    1.70
   3  -1 -12    0.00    0.20
   1  12   3    0.00    0.30
  -3   1 -12    0.40    1.00
   1 -12  -3    0.00    0.20
  -1  12  -3    0.30    0.10
   3   1  12    1.10    1.40
  -1  12  -3    0.00    0.20
  -1  12   5    0.00    0.30
  -1 -12  -5    1.00    2.90
   5  -1  12    0.60    1.30
   1  12  -5    0.00    0.20
   5  -1  12    0.00    0.20
  -1 -12  -5    0.00    0.30
   1 -12   5    0.30    0.80
   1  12  -5    0.50    1.40
  -1 -12  -5    0.00    0.20
  -1  12   5    0.00    0.10
   1 -12   5    0.00    0.20
  -1  12   5    0.60    1.90
   1  12   5    0.00    0.30
  -1 -12   5    0.80    1.60
  -1  12  -5    0.50    1.10
   5   1  12    0.00    0.30
   5   1  12    0.50    1.60
  -1 -12   5    0.00    0.10
   5  -1 -12    0.00    0.20
  -1  12  -5    0.00    0.20
  -1 -12   5    0.00    0.10
   1 -12  -5    0.00    0.30
   1 -12  -5    0.30    1.00
  -1  12  -5    0.10    0.10
  -1  12   7   -0.20    0.30
  -1  12   7    1.90    4.20
   1  12  -7    0.40    0.70
   1 -12   7    0.70    0.90
  -1 -12  -7    0.00    0.30
   1  12  -7    0.20    0.10
   1 -12  -7    0.00    0.30
  -1  12  -7    0.30    0.80
  -1  12  -7    0.30    0.20
   1  12   7    0.80    2.40
   1 -12  -7    1.40    3.00
   1  12   7   -0.30    0.40
  -1 -12  -9    0.00    0.40
  -1 -12  -9    0.00    0.10
  -1  12   9    0.00    0.10
  -1  12   9    0.00    0.10
   1  12  -9    0.00    0.10
  -1 -12  -9    0.00    0.10
   1  12  -9    0.00    0.10
  -1  12   9    0.00    0.40
   1 -12   9    0.00    0.10
   1 -12   9    0.00    0.10
   1 -12  -9    0.00    0.10
   1  12   9    0.00    0.10
  -1  12  -9    0.00    0.10
   1  12   9    0.00    0.10
   1  12   9    0.00    0.40
   1 -12  -9    0.00    0.20
   1 -12  -9    0.00    0.40
  -1 -12   9    0.00    0.10
  -1  12  11    0.00    0.40
  -1 -12 -11    0.00    0.40
  -1 -12 -11    0.00    0.20
  -1  12  11    0.00    0.10
  -1 -12 -11    0.00    0.30
   1 -12 -11    0.00    0.10
   1 -12 -11    0.00    0.20
   1 -12 -11    0.00    0.40
   1  12  11    0.00    0.50
   1  12  11    0.00    0.20
   0   2  12 1889.61   67.19
   2 -12   0 1760.02   73.69
   0   2 -12 2021.30   60.19
   0  -2 -12 1565.44   72.39
   2 -12   0 1764.22   88.69
  -2 -12   0 1947.11   89.89
   2  12   0 1926.31   80.29
   0  -2  12 1941.31   52.69
   0  -2 -12 2030.50  100.09
  -2 -12   0 1770.32   72.59
   2 -12   0 1601.94   81.19
  -2 -12   0 2157.78   84.29
  -2  12   0 1746.83   76.29
   0  -2  12 2013.00   50.79
   0  -2 -12 1720.03   64.79
   0   2 -12 1628.54   43.30
   0   2  12 2027.40   79.09
   2   2 -12 1759.62   57.89
  -2   2  12 2113.29   78.99
  -2   2  12 1922.51   86.19
   2  -2  12 1967.40   53.99
  -2   2  12 2365.36   92.19
  -2  12   2 1797.02   93.29
  -2  -2 -12 2281.57   85.59
   2 -12   2 2062.49   72.39
  -2 -12  -2 2076.09   86.09
  -2 -12  -2 1975.30   99.79
   2  12  -2 2154.68   79.39
  -2  -2 -12 2107.29   67.69
  -2  12   2 2206.58   92.29
   2   2 -12 2010.00   54.29
   2 -12   2 1985.40   85.09
  -2  12  -2 1938.91   83.99
   2   2  12 2360.86   80.39
   2 -12  -2 2023.30  116.09
   2  -2 -12 2154.68   87.59
   2   2  12 1844.42   80.19
   2  -2 -12 2128.59   72.79
   2 -12  -2 2108.69   86.79
   2  12   2 2316.57  118.09
   2  12   2 2154.28   91.99
  -2 -12   2 2172.98   75.09
   2 -12  -2 1856.11   94.09
  -2   2 -12 2408.26   71.19
   2   2  12 2140.29   74.49
  -2  12  -2 1798.32   84.89
  -2  12  -2 2097.29   78.59
  -2 -12   2 2099.29   87.09
   2 -12   4  879.31   42.00
  -2  12   4 1017.90   79.29
  -2 -12  -4  943.31   60.49
  -4  -2 -12  980.60   62.29
   4  -2  12  884.51   37.10
  -2  12   4  909.21   60.49
  -2 -12  -4  867.91   64.89
   2  12  -4  792.42   52.19
   2  12  -4  771.62   43.20
   2  12  -4  893.01   48.00
   4  -2  12  765.02   39.30
   2 -12   4  938.61   56.99
  -4   2  12  889.61   70.59
  -2  12  -4  884.21   55.79
  -2  12  -4  809.72   56.39
   2  12   4  847.52   61.19
   2 -12  -4  754.32   71.69
   4   2  12  955.90   49.90
  -4   2 -12  953.80   40.10
   4   2  12  836.02   53.59
   2 -12  -4  971.50   61.29
  -2 -12   4  808.22   48.10
  -2  12  -4  886.11   50.49
  -4  -2  12  880.71   56.39
  -2 -12   4  978.90   55.99
  -2 -12   4  884.61   42.70
   2 -12  -4  888.81   67.69
   2 -12   6  558.74   36.20
   2  12  -6  565.34   40.40
   2  12  -6  596.54   35.60
   2 -12   6  566.54   49.10
  -2  12   6  669.83   68.39
  -2 -12  -6  662.53   53.89
  -2  12   6  685.23   55.19
  -2 -12   6  611.14   42.90
   2 -12  -6  716.83   55.79
   2  12   6  632.64   56.19
  -2  12  -6  542.35   41.00
  -2  12  -6  588.54   43.20
   2  12   6  615.74   64.49
   2 -12  -6  641.24   61.09
   2  12  -8  126.69   15.30
  -2  12   8  123.19   24.00
  -2 -12  -8  137.49   25.40
   2  12  -8  133.49   19.00
   2 -12   8  128.19   15.50
   2 -12   8  129.99   13.10
   2  12   8  102.09   23.50
  -2  12  -8  112.59   16.50
   2 -12  -8  126.49   23.40
   2  12   8  121.49   29.00
  -2 -12   8  123.89   18.80
  -2 -12 -10  101.19   22.40
  -2 -12 -10  119.49   28.10
   2 -12  10   94.09    9.40
   2  12 -10  117.99   13.20
  -2  12  10  117.69   28.70
   2 -12  10  113.39    9.60
  -2  12  10   96.69   22.70
   2  12 -10  118.09   11.10
   2 -12 -10  126.79   28.50
  -2  12 -10  107.19   10.40
   2 -12 -10   88.39   20.70
  -3 -12  -1    0.00    0.10
   1  -3  12    0.00    0.10
  -3  12   1    0.00    0.30
  -1  -3 -12    0.00    0.20
   3 -12   1    0.00    0.10
  -1   3  12    0.00    0.10
  -1   3  12    0.00    0.20
  -3  12   1    0.00    0.10
  -3 -12  -1    0.00    0.10
  -3  12   1    0.00    0.10
  -1  -3 -12    0.00    0.10
   3 -12   1    0.00    0.20
   3  12  -1    0.00    0.10
   1   3 -12    0.00    0.10
  -1   3  12    0.00    0.10
   3 -12   1    0.00    0.10
   3  12  -1    0.00    0.10
  -3 -12  -1    0.00    0.20
  -1  -3 -12    0.00    0.10
   1  -3  12    0.00    0.10
   3  12  -1    0.00    0.20
   1   3 -12    0.00    0.10
   1   3  12    0.00    0.10
   1   3  12    0.00    0.10
   3 -12  -1    0.00    0.10
  -1   3 -12    0.00    0.10
   3 -12  -1    0.00    0.20
   3  12   1    0.00    0.10
  -3 -12   1    0.00    0.10
   3  12   1    0.00    0.10
  -3  12  -1    0.00    0.10
  -3  12  -1    0.00    0.10
  -3 -12   1    0.00    0.20
   3 -12  -1    0.00    0.10
   1  -3 -12    0.00    0.10
  -1  -3  12    0.00    0.10
  -3 -12   1    0.00    0.10
  -3  12  -1    0.00    0.30
   1  -3 -12    0.00    0.20
   3  12   1    0.00    0.20
   1   3  12    0.00    0.20
   1  -3 -12    0.00    0.10
   3  -3  12    5.40    2.50
   3   3 -12    3.40    2.20
  -3  -3 -12    0.60    1.20
   3  12  -3    1.50    2.30
  -3  12   3    1.20    2.80
   3 -12   3    2.20    3.90
  -3  -3 -12    5.30    3.70
  -3   3 -12    1.50    1.60
  -3  12  -3    1.40    2.50
  -3  12  -3    1.10    0.40
   3 -12  -3    3.00    4.30
   3  -3 -12    1.80    2.90
   3  12   3    1.70    3.40
   3   3  12    1.20    2.00
   3  12  -5    0.40    1.10
  -3  12   5    0.00    0.30
  -3  12   5    0.90    2.40
  -3 -12  -5    0.00    0.30
  -3 -12  -5    0.70    2.00
   3 -12   5    0.00    0.20
   3 -12   5    0.20    0.70
   3  12  -5    0.00    0.20
   5   3  12    0.00    0.30
   5  -3 -12    0.00    0.30
   3 -12  -5    0.00    0.30
   3  12   5    0.90    2.20
   3  12   5    0.00    0.30
   3 -12  -5    0.30    1.20
   5   3  12    0.50    1.70
  -3  12   7    0.00    0.30
   3  12  -7    0.40    0.10
  -3  12   7    0.60    2.00
   3  12  -7    1.10    1.70
  -3 -12  -7    0.00    0.30
  -3 -12  -7    2.20    4.10
   3  12   7    0.00    0.30
   3 -12  -7    0.40    1.20
   3 -12  -7    0.00    0.30
   3  12   7    0.80    2.20
  -3 -12  -9    0.00    0.10
   3 -12   9    0.00    0.10
  -3  12   9    0.00    0.10
  -3  12   9    0.00    0.20
  -3  12   9    0.00    0.40
  -3 -12  -9    0.00    0.30
   3 -12   9    0.00    0.10
  -3 -12  -9    0.00    0.20
   3  12  -9    0.00    0.10
   3  12  -9    0.00    0.10
  -3 -12   9    0.00    0.10
   3 -12  -9    0.00    0.10
  -3  12  -9    0.00    0.10
   3  12   9    0.00    0.10
   3 -12  -9    0.00    0.20
   3 -12  -9    0.00    0.30
   3  12   9    0.00    0.40
  -3 -12 -11    0.00    0.40
   3  12 -11    0.00    0.10
  -3  12  11    0.00    0.40
   3  12 -11    0.00    0.10
   3 -12  11    0.00    0.10
  -3  12  11    0.00    0.10
  -3 -12  11    0.00    0.10
   3  12  11    0.00    0.40
   3  12  11    0.00    0.10
   3 -12 -11    0.00    0.10
  -3  12 -11    0.00    0.10
   3 -12 -11    0.00    0.30
   0   4  12  809.12   50.29
   0   4  12  787.82   58.99
   0  -4 -12  725.73   47.40
   0   4  12  747.53   56.99
   4 -12   0  738.53   65.39
  -4 -12   0  683.33   54.79
  -4 -12   0  729.83   59.19
   4 -12   0  774.72   57.09
   4 -12   0  756.82   63.49
  -4  12   0  757.42   54.79
   0  -4 -12  735.73   56.49
   0  -4 -12  783.72   69.49
  -4  12   0  746.73   68.19
  -2  -4 -12  925.61   59.69
  -2   4  12  784.52   57.69
   4 -12   2  879.91   56.59
  -4 -12  -2  851.11   53.89
  -4 -12  -2  827.32   62.49
   2   4 -12  714.93   27.10
   2  -4  12  851.01   25.20
  -2  -4 -12  918.21   50.89
   4 -12   2  769.32   60.29
  -2   4  12  891.11   58.99
  -4  12   2  905.31   66.69
  -2  -4 -12  784.42   52.69
  -2   4  12  897.01   53.49
  -4 -12  -2  815.32   68.19
   2   4 -12  782.42   24.80
  -4  12   2  743.43   67.79
   2   4  12  843.32   46.80
   2  -4 -12  866.51   51.39
   2  -4 -12  878.31   59.09
   4 -12  -2  894.61   67.49
   4  12   2  861.91   59.99
  -4 -12   2  791.32   60.49
   2  -4 -12  788.02   54.89
  -4  12  -2  804.82   68.39
   4 -12  -2  854.91   66.19
  -2  -4  12  913.21   34.20
   4  12   2  787.02   64.89
   2   4  12  795.62   58.59
   2   4  12  856.91   52.19
  -4 -12  -4  414.76   45.70
   4 -12   4  404.76   40.80
  -4  -4 -12  458.55   46.60
   4  -4  12  420.56   21.10
  -4   4  12  436.66   49.40
   4 -12   4  414.56   35.30
   4  -4  12  415.06   25.50
  -4  -4 -12  420.96   41.40
  -4  12   4  399.66   53.39
  -4 -12  -4  387.86   38.00
  -4  12   4  426.56   47.40
  -4 -12  -4  381.36   46.70
  -4 -12   4  392.26   40.10
   4 -12  -4  473.35   61.19
   4  12   4  407.16   42.50
   4  -4 -12  435.66   54.39
   4  12   4  435.56   50.59
   4   4  12  426.06   42.30
   4   4  12  446.96   38.10
  -4  12  -4  396.66   44.20
   4 -12  -4  345.17   42.90
   4 -12   6  323.97   34.10
   4 -12   6  303.57   27.60
  -4 -12  -6  381.56   39.30
  -4  12   6  334.47   41.90
  -4  12   6  296.87   44.80
  -4 -12  -6  272.87   39.80
  -4  12   6  316.47   46.00
   4 -12  -6  287.37   40.00
  -4 -12   6  280.27   31.20
   6   4  12  314.27   40.20
   4  12   6  368.26   40.60
  -4  12  -6  304.37   33.70
   6   4  12  327.87   34.40
   4  12   6  287.07   36.50
  -4  12   8  128.39   34.10
  -4 -12  -8  127.09   23.80
   4 -12   8  113.99   16.50
   4  12  -8  116.69   14.40
  -4 -12  -8  132.59   28.20
   4  12  -8  119.09   17.10
   4 -12   8  103.79   13.50
   4 -12  -8  108.19   24.30
  -4 -12   8   93.39   17.00
  -4  12  -8   99.69   16.60
   4 -12  -8  136.59   32.40
   4  12   8   92.89   21.10
  -4  12  10   61.59   21.60
   4  12 -10  110.59   12.00
   4 -12  10   95.69   11.30
   4  12 -10   98.89   12.70
   4 -12  10  101.59   10.40
  -4 -12 -10  110.29   22.70
  -4  12  10  103.39   28.10
   4  12  10  103.79   23.70
   4 -12 -10   89.49   26.20
  -4  12 -10   76.49   11.80
   4 -12 -10   71.59   19.90
  -5  12   1    0.00    0.20
  -1  -5 -12    0.00    0.10
   5  12  -1    0.00    0.10
   5 -12   1    0.00    0.30
  -1   5  12    0.00    0.20
   5 -12   1    0.00    0.10
  -1  -5 -12    0.00    0.10
  -1  -5 -12    0.00    0.20
   5  12  -1    0.00    0.30
  -1   5  12    0.00    0.10
  -1   5  12    0.00    0.10
  -5 -12   1    0.00    0.10
   1   5  12    0.00    0.10
   1  -5 -12    0.00    0.20
   5 -12  -1    0.00    0.30
   5  12   1    0.00    0.30
  -5  12  -1    0.00    0.20
   1   5  12    0.00    0.10
   1  -5 -12    0.00    0.20
   5  12   1    0.00    0.10
   1   5  12    0.00    0.30
   5 -12  -1    0.00    0.10
   5 -12   3   19.10    8.80
  -3   5  12    9.60    6.40
  -3  -5 -12   30.00   10.60
  -3  -5 -12   17.10    8.30
  -3   5  12   14.30    7.60
   5  12   3   15.10    8.90
   3   5  12   17.20    7.70
   3  -5 -12   17.50    8.70
   3  -5 -12   16.30    8.10
   5  12   3   18.00    8.70
  -5 -12   3   11.20    5.60
   5 -12  -3   10.10    6.90
   3   5  12   25.10   10.20
  -3  -5  12   10.00    4.00
   5 -12   5    4.80    3.90
   5 -12  -5    1.80    3.60
   5  12   5    2.70    4.10
   5   5  12    4.50    4.40
  -5 -12   5    3.30    2.90
  -5 -12  -7    7.30    6.00
  -5 -12  -7    5.00    8.10
   5 -12   7   13.80    6.00
   5  12   7    7.50    5.80
  -5 -12   7    7.20    3.80
  -5  12   9    0.00    0.50
  -5 -12  -9    0.00    0.30
   5  12  -9    0.00    0.20
   5  12  -9    0.00    0.10
   5 -12   9    0.00    0.10
   5 -12   9    0.00    0.10
  -5 -12  -9    0.00    0.10
  -5  12   9    0.00    0.10
  -5 -12  -9    0.00    0.10
   5 -12  -9    0.00    0.50
   5 -12  -9    0.00    0.20
  -5 -12   9    0.00    0.10
   5  12   9    0.00    0.30
  -5  12  -9    0.00    0.10
   5  12   9    0.00    0.10
   5 -12  11    0.00    0.10
   5  12 -11    0.00    0.10
  -5 -12 -11    0.00    0.20
  -5  12  11    0.00    0.50
   5 -12  11    0.00    0.10
  -5 -12 -11    0.00    0.10
   5  12 -11    0.00    0.10
  -5 -12 -11    0.00    0.40
  -5  12 -11    0.00    0.10
   5  12  11    0.00    0.40
   5 -12 -11    0.00    0.40
   5 -12 -11    0.00    0.20
  -5 -12  11    0.00    0.10
   5 -12 -11    0.00    0.10
   0   6  12  576.54   47.10
   0  -6 -12  600.84   47.60
   0  -6 -12  564.64   53.89
   6 -12   0  425.96   42.70
   0  -6 -12  514.35   59.29
   0   6  12  527.55   51.59
  -2  -6 -12  536.65   50.89
  -2  -6 -12  627.64   47.50
  -2   6  12  549.65   43.50
  -2  -6 -12  547.95   50.59
  -2   6  12  526.25   49.99
  -2   6  12  532.75   50.99
   2  -6 -12  534.65   42.60
   2  -6 -12  543.75   50.09
   6 -12  -2  580.64   62.39
   2  -6 -12  550.34   52.99
   2   6  12  542.75   46.90
   6 -12  -2  587.44   53.29
  -4   6  12  333.17   37.90
  -4   6  12  329.57   44.70
  -6  12   4  259.57   52.79
  -4  -6 -12  380.86   50.09
  -4  -6 -12  357.86   35.00
   4  -6  12  348.27   15.20
   4   6  12  312.97   32.00
   4  -6 -12  302.07   38.90
   4   6  12  358.16   34.60
   6  12   4  325.27   41.00
   4   6  12  330.87   38.10
   4  -6 -12  293.97   42.30
   6 -12  -4  293.37   39.70
   6 -12  -4  337.77   49.20
   6   6  12  206.78   33.80
   6  12   6  169.48   26.10
   6  12   6  205.58   43.40
   6   6  12  159.08   25.70
   6 -12  -6  191.68   34.20
   6 -12  -6  212.38   41.70
  -6 -12  -8   37.60   16.90
   6 -12  -8   50.19   24.50
   6 -12  -8   56.09   21.90
  -6  12  10   17.50   13.20
  -6 -12 -10   16.10   14.10
   6  12  10   23.20   12.90
  -6  12 -10   20.70    8.40
  -1  -7 -12    0.00    0.10
  -1  -7 -12    0.00    0.30
  -1   7  12    0.00    0.10
  -1  -7 -12    0.00    0.10
  -1   7  12    0.00    0.30
  -1   7  12    0.00    0.20
   1  -7 -12    0.00    0.10
   1  -7 -12    0.00    0.30
   1   7  12    0.00    0.10
   1   7  12    0.00    0.30
   1  -7 -12    0.00    0.20
   1   7  12    0.00    0.10
   3   7 -12    2.30    1.10
   3  -7 -12    1.70    2.70
  -5   7  12    0.00    0.10
  -5  -7 -12    0.00    0.20
  -5  -7 -12    0.20    0.90
   5   7  12    0.20    0.70
   5  -7 -12    0.00    0.10
   5  -7 -12    0.00    0.40
   5   7  12    0.00    0.30
   5  -7 -12    0.00    0.20
  -7 -12  -7    0.00    0.20
   7   7  12    0.00    0.10
   7  12   7    0.00    0.10
   7   7  12    0.00    0.40
   7  12   7    0.00    0.40
   7 -12  -9    0.00    0.20
   7  12   9    0.00    0.10
   7  12   9    0.00    0.40
   0   8  12  126.89   23.80
   0   8  12  107.19   25.30
   0  -8 -12   93.59   19.60
   0   8  12  139.19   28.80
  -2   8  12  100.69   27.50
  -2  -8 -12  119.99   22.30
  -2   8  12  123.79   26.40
  -2  -8 -12  128.99   27.50
   2  -8 -12  123.09   24.90
   2  -8 -12   93.89   18.70
   2   8  12  104.59   22.20
   2  -8 -12   96.09   23.30
  -4  -8 -12  126.49   25.30
   4  -8  12  115.29    7.20
  -4  -8 -12  124.09   22.40
  -4   8  12   91.09   23.60
   4  -8 -12  120.39   28.20
   4   8  12  107.69   20.90
   4   8  12  120.89   26.10
   4   8  12  125.79   21.90
  -6   8  12   35.50   17.60
  -6  -8 -12   46.70   16.60
   6   8  12   59.19   16.40
  -1  -9 -12    0.00    0.10
  -1  -9 -12    0.00    0.20
  -1   9  12    0.00    0.30
  -1   9  12    0.00    0.10
  -1   9  12    0.00    0.20
  -1  -9 -12    0.00    0.30
   1   9  12    0.00    0.40
   1  -9 -12    0.00    0.30
   1  -9 -12    0.00    0.20
  -3   9  12    0.00    0.40
  -3  -9 -12    1.20    2.70
  -3   9  12    0.30    1.40
   3   9 -12    0.30    0.30
  -3  -9 -12    0.00    0.30
   3   9  12    0.00    0.30
   3  -9 -12    0.00    0.30
   3   9  12    0.40    1.50
   3  -9 -12    0.30    1.20
  -5   9  12    0.00    0.20
   5  -9 -12    0.00    0.20
   5   9  12    0.00    0.10
   5  -9 -12    0.00    0.10
   5  -9 -12    0.00    0.40
   5   9  12    0.00    0.30
   5   9  12    0.00    0.10
  -7   9  12    0.00    0.30
   7   9  12    0.00    0.10
   7   9  12    0.00    0.40
   0 -10 -12  155.78   33.00
   0  10  12  111.19   23.80
   0  10  12  142.69   31.90
   0 -10 -12  124.89   25.10
  -2 -10 -12   72.49   22.70
  -2  10  12   71.49   18.50
  -2 -10 -12   52.79   18.30
   2  10  12   48.10   18.50
   2 -10 -12   63.59   20.10
   2 -10 -12   84.49   19.60
   4 -10  12   94.49    6.10
  -4  10  12  105.09   29.70
  -4 -10 -12  109.89   22.30
   4  10 -12  100.09    8.80
   4  10  12  108.19   26.30
   4 -10 -12  104.99   26.70
   6  10  12   24.40   13.10
  -1  11  12    0.00    0.10
  -1 -11 -12    0.00    0.30
  -1  11  12    0.00    0.20
  -1 -11 -12    0.00    0.40
  -1 -11 -12    0.00    0.20
  -1  11  12    0.00    0.30
   1 -11 -12    0.00    0.10
   1  11  12    0.00    0.40
   1 -11 -12    0.00    0.20
   1  11  12    0.00    0.20
   1 -11 -12    0.00    0.40
  -3 -11 -12    0.00    0.10
  -3  11  12    0.00    0.40
  -3 -11 -12    0.00    0.40
   3  11 -12    0.00    0.10
  -3  11  12    0.00    0.10
  -3 -11 -12    0.00    0.20
   3 -11 -12    0.00    0.30
   3  11  12    0.00    0.10
   3  11  12    0.00    0.10
   3  11  12    0.00    0.40
  -5 -11 -12    0.00    0.30
   5 -11  12    0.00    0.10
  -5  11  12    0.00    0.10
  -5  11  12    0.00    0.20
  -5 -11 -12    0.00    0.20
  -5 -11 -12    0.00    0.10
   5 -11  12    0.00    0.10
  -5  11  12    0.00    0.60
  -5  11 -12    0.00    0.10
  -5 -11  12    0.00    0.10
   5  11  12    0.00    0.40
   5 -11 -12    0.00    0.10
   5 -11 -12    0.00    0.10
   5  11  12    0.00    0.10
   5 -11 -12    0.00    0.40
   5  11  12    0.00    0.10
   0  12  12    3.20    4.70
   0  12  12    8.50    7.70
   0 -12 -12   10.00    8.40
  -2 -12 -12    3.20    5.40
  -2 -12 -12    2.90    3.50
  -2  12  12    1.70    2.00
   2 -12 -12    3.90    6.40
  -4 -12 -12   11.30   11.60
  -4 -12 -12   16.60    9.90
  -4 -12  12   14.20    4.20
   4  12  12    8.10    7.20
   4 -12 -12   10.80   11.10
   4  12  12   10.10    8.70
   0  13  -1    0.20    0.70
   1   0 -13    0.30    0.30
   0 -13   1    0.40    1.10
   0  13   1    0.20    0.40
   1   0 -13    0.00    0.20
  -1   0 -13    0.60    0.90
  -1   0  13    0.00    0.20
   0 -13  -1    0.00    0.30
   0 -13   1    0.00    0.20
   0  13  -1    0.00    0.30
   0  13   1    0.00    0.30
   1   0  13    0.00    0.10
  -1   0  13    0.60    1.10
   0 -13  -1    0.40    1.30
   1   0 -13    0.90    1.50
   1   0  13    1.00    1.70
   0  13  -3   26.60   10.20
   0 -13  -3   21.20   10.60
   0  13  -3   24.60    8.10
  -3   0 -13   25.30    8.50
   0 -13   3   25.90   10.10
   0 -13  -3   26.50   12.10
   3   0 -13   18.20    7.30
   3   0  13   16.00    5.80
   0  13  -3   19.40    8.10
   3   0 -13   28.90    9.70
   0 -13   5   30.70    7.70
   5   0  13   38.00    9.80
   0 -13  -5   18.00   10.00
   0 -13   5   35.60    9.90
   5   0  13   32.70    8.30
   0  13  -5   27.20    7.40
  -5   0 -13   37.80    9.80
   0  13  -5   39.20   10.90
   0  13  -7    3.30    3.30
   0  13  -7    3.90    2.50
   0 -13   7    7.30    3.50
   0 -13   7    2.60    3.00
   0  13  -9    0.00    0.20
   0 -13  -9    0.00    0.40
   0  13   9    0.00    0.10
   0 -13  -9    0.00    0.20
   0  13   9    0.00    0.10
   0  13   9    0.00    0.40
   0 -13   9    0.00    0.10
   0 -13 -11    0.00    0.40
   0  13  11    0.00    0.50
   0  13  11    0.00    0.10
   0 -13 -11    0.00    0.20
   0 -13 -11    0.00    0.30
   0  13  11    0.00    0.20
   0   1  13    0.00    0.10
   0  -1 -13    0.00    0.10
  -1  13   0    0.00    0.10
   0   1  13    0.00    0.10
   0  -1  13    0.00    0.10
   1 -13   0    0.00    0.10
   0   1 -13    0.00    0.10
   0  -1 -13    0.00    0.10
  -1  13   0    0.00    0.20
  -1  13   0    0.00    0.20
   0   1 -13    0.00    0.10
   1  13   0    0.00    0.30
   0  -1  13    0.00    0.10
   0   1 -13    0.00    0.10
  -1 -13   0    0.00    0.10
   1 -13   0    0.00    0.20
   0  -1 -13    0.00    0.20
  -1 -13   0    0.00    0.20
   1  13   0    0.00    0.10
   0  -1  13    0.00    0.10
  -1 -13   0    0.00    0.10
   0   1  13    0.00    0.10
  -2  -1 -13    0.00    0.20
   1 -13   2    0.00    0.20
   2  -1  13    0.40    0.90
   2   1 -13    0.60    1.20
  -1  13   2    0.00    0.20
   1  13  -2    0.00    0.30
  -1  13   2    0.00    0.30
  -2  -1 -13    1.00    1.70
   2  -1  13    0.00    0.10
  -2  -1 -13    0.20    0.10
   1 -13   2    0.30    1.10
  -1 -13  -2    0.00    0.30
   2   1 -13    0.00    0.10
  -2   1  13    0.70    1.40
  -1  13  -2    1.00    2.20
   2  -1 -13    0.00    0.20
  -1  13  -2    0.00    0.20
   1 -13  -2    0.90    2.10
   1  13   2    0.30    1.00
  -1 -13   2    0.70    1.60
   1 -13  -2    0.00    0.30
   2  -1 -13    0.50    1.10
   2   1  13    0.00    0.20
   2   1  13    0.70    1.50
  -1 -13   2    0.00    0.20
   1  13   2    0.00    0.30
  -1 -13  -4    0.00    0.10
  -1 -13  -4    0.00    0.30
  -1  13   4    0.00    0.20
  -4  -1 -13    0.00    0.10
   1 -13   4    0.00    0.10
   4  -1  13    0.00    0.10
  -1  13   4    0.00    0.10
  -4   1  13    0.00    0.10
  -1 -13  -4    0.00    0.20
  -1  13   4    0.00    0.30
   4   1 -13    0.00    0.20
   1  13  -4    0.00    0.20
   1  13  -4    0.00    0.10
   4   1 -13    0.00    0.10
   1 -13   4    0.00    0.20
   1  13  -4    0.00    0.10
   1 -13   4    0.00    0.10
  -1  13  -4    0.00    0.20
   4  -1 -13    0.00    0.30
  -4  -1  13    0.00    0.10
  -1 -13   4    0.00    0.10
   4  -1 -13    0.00    0.10
   1 -13  -4    0.00    0.20
  -1 -13   4    0.10    0.30
   4   1  13    0.00    0.20
  -1  13  -4    0.00    0.10
   1 -13  -4    0.00    0.30
  -1  13  -4    0.10    0.20
   1  13   4    0.00    0.40
  -4   1 -13    0.00    0.10
  -1 -13   4    0.00    0.20
   1  13   4    0.00    0.10
   1 -13   6    0.00    0.20
  -1 -13  -6    0.00    0.20
   1 -13   6    0.00    0.10
  -1  13   6    0.00    0.10
  -1  13   6    0.00    0.30
   1  13  -6    0.00    0.10
   1  13  -6    0.00    0.10
   1  13  -6    0.00    0.20
  -1 -13  -6    0.00    0.30
  -6  -1 -13    0.00    0.10
  -1  13   6    0.00    0.20
   1 -13   6    0.00    0.10
  -1  13  -6    0.00    0.20
   6   1  13    0.00    0.30
  -1  13  -6    0.00    0.10
  -1 -13   6    0.10    0.20
   6   1  13    0.00    0.10
   1  13   6    0.00    0.10
   1  13   6    0.00    0.40
   1 -13  -6    0.00    0.30
  -1 -13   6    0.00    0.10
   1  13   6    0.00    0.10
  -1  13  -6    0.00    0.10
  -1 -13   6    0.00    0.10
   1 -13  -6    0.00    0.10
  -1 -13  -8    0.00    0.40
   1 -13   8    0.00    0.10
   1  13  -8    0.00    0.10
   1  13  -8    0.00    0.10
  -1  13   8    0.00    0.10
  -1  13   8    0.00    0.20
   1 -13   8    0.00    0.10
  -1  13   8    0.00    0.40
  -1  13  -8    0.00    0.10
  -1 -13   8    0.00    0.10
   1  13   8    0.00    0.40
   1  13   8    0.00    0.10
   1 -13  -8    0.00    0.30
   1 -13  -8    0.00    0.10
  -1  13  -8    0.00    0.10
   1  13   8    0.00    0.20
   1  13 -10    0.00    0.10
  -1  13  10    0.00    0.10
  -1  13  10    0.00    0.40
   1  13 -10    0.00    0.10
  -1 -13 -10    0.00    0.20
  -1 -13 -10    0.00    0.40
  -1 -13  10    0.00    0.10
   1 -13 -10    0.00    0.10
   1  13  10    0.00    0.20
   1 -13 -10    0.00    0.40
   1  13  10    0.00    0.50
  -1  13 -10    0.00    0.10
   2 -13   1    0.00    0.10
   1   2 -13    0.00    0.10
  -1  -2 -13    0.00    0.10
  -2 -13  -1    0.00    0.10
   2  13  -1    0.00    0.10
  -2 -13  -1    0.00    0.10
   2  13  -1    0.00    0.10
  -2  13   1    0.00    0.30
   1  -2  13    0.00    0.10
   1  -2  13    0.20    0.60
   2 -13   1    0.00    0.10
  -1  -2 -13    0.00    0.20
   2 -13   1    0.00    0.20
  -1   2  13    0.00    0.20
  -1   2  13    0.00    0.10
  -2 -13  -1    0.00    0.20
   2  13  -1    0.00    0.20
  -2  13   1    0.00    0.10
   1   2 -13    0.00    0.10
  -2  13   1    0.00    0.10
  -1  -2 -13    0.00    0.10
  -1   2  13    0.00    0.10
   1   2  13    0.00    0.10
  -1   2 -13    0.00    0.10
   2  13   1    0.00    0.10
   2  13   1    0.00    0.10
   1  -2 -13    0.00    0.10
  -2 -13   1    0.10    0.60
  -1  -2  13    0.00    0.10
  -2  13  -1    0.00    0.20
  -2  13  -1    0.00    0.10
  -2 -13   1    0.00    0.10
  -2  13  -1    0.00    0.10
   2 -13  -1    0.00    0.10
  -1   2 -13    0.00    0.10
   1  -2 -13    0.00    0.20
   1   2  13    0.00    0.20
  -2 -13   1    0.00    0.20
   2  13   1    0.00    0.30
   1  -2 -13    0.00    0.10
   1   2  13    0.00    0.10
   2 -13  -1    0.00    0.10
   2 -13  -1    0.00    0.20
   3   2 -13    3.40    2.90
  -2 -13  -3    4.80    5.70
   3  -2  13    5.10    3.00
  -2  13   3    5.70    6.30
   2  13  -3    3.00    3.40
   2 -13   3    3.80    3.30
   3   2  13    2.70    2.90
  -2  13  -3    4.30    4.70
   2 -13  -3    4.80    5.40
  -2 -13   3    4.90    3.80
   3  -2 -13    3.50    3.90
  -3   2 -13    3.10    3.10
   2 -13   5    6.50    4.00
  -5  -2 -13    3.40    3.50
   2 -13   5    8.70    6.40
  -2 -13  -5    4.30    4.20
   2  13  -5    6.10    4.00
  -2 -13  -5    5.20    6.10
  -2 -13   5    4.40    4.90
   2 -13  -5    2.70    3.10
  -5   2 -13    6.80    3.80
  -2  13  -5    3.70    3.60
   5   2  13   10.50    6.90
   2 -13  -5    2.60    4.60
  -2  13   7    0.00    0.30
  -2 -13  -7    0.00    0.30
   2  13   7    0.00    0.40
  -2  13  -7    0.50    1.20
   2  13   7    2.60    5.10
   2 -13  -7    0.00    0.30
   2 -13   9    0.20    0.50
  -2 -13  -9    0.00    0.20
  -2 -13  -9    0.00    0.10
   2  13  -9    0.10    0.40
  -2  13   9    0.00    0.40
   2 -13   9    0.00    0.10
  -2 -13  -9    0.00    0.40
  -2  13   9    0.00    0.20
   2  13  -9    0.00    0.10
   2 -13  -9    0.00    0.30
   2 -13  -9    0.00    0.10
  -2 -13   9    0.00    0.10
   2  13   9    0.00    0.50
   2  13   9    0.00    0.20
  -2  13  -9    0.00    0.10
   2 -13  -9    0.00    0.20
  -2 -13 -11    0.00    0.10
   2  13 -11    0.00    0.10
  -2  13  11    0.00    0.50
   2  13 -11    0.00    0.10
  -2  13  11    0.00    0.30
  -2 -13 -11    0.00    0.40
  -2 -13 -11    0.00    0.10
   2  13  11    0.00    0.50
   2 -13 -11    0.00    0.40
  -2 -13  11    0.00    0.10
   2 -13 -11    0.00    0.20
  -2  13 -11    0.00    0.10
   2  13  11    0.00    0.20
  -3  13   0   42.00   14.80
   3 -13   0   41.40   13.20
  -3 -13   0   27.50   10.70
   3  13   0   40.70   13.50
   0  -3 -13   44.10   12.10
   0  -3 -13   35.20   14.20
   0  -3 -13   48.30   11.30
   0   3  13   36.70    9.70
   0   3  13   37.40   11.30
   3 -13   0   39.20   13.30
   0  -3  13   36.40    6.20
  -3 -13   0   40.70   10.90
  -3  13   0   22.00   10.00
   3 -13   0   28.60   11.40
   3  13   0   29.20   11.10
  -2  -3 -13   25.20    8.90
   2  -3  13   30.00    6.60
  -3  13   2   17.50    9.50
   2   3 -13   28.80    5.90
   2   3 -13   33.70    5.70
   2  -3  13   27.50    5.30
   3  13  -2   25.90   10.10
  -2  -3 -13   19.40    8.80
  -2   3  13   19.00    8.70
  -3  13   2   16.90   12.10
  -2   3  13   31.70   11.30
   3 -13   2   27.00   10.60
   3  13  -2   18.90    8.30
   3 -13   2   22.10    9.20
  -2  -3 -13   31.10    9.60
  -3 -13   2   25.90    9.80
   2   3  13   18.90    8.60
   3 -13  -2   28.50   12.40
   2  -3 -13   27.40    9.90
   2  -3 -13   16.80    7.10
   2   3  13   29.50    9.50
   3  13   2   30.50   12.50
  -3 -13   2   18.10    7.70
  -3  13  -2   26.20   11.30
   3  13   2   22.70   10.70
   2   3  13   32.50   11.80
  -3  13   4    0.00    0.30
   3 -13   4    1.30    2.20
   4  -3  13    1.40    1.40
  -3  13   4    1.60    3.30
   3  13  -4    1.10    2.10
   4   3  13    0.50    0.20
   3  13   4    0.00    0.30
   3  13   4    0.90    2.10
  -3  13  -4    1.40    2.30
   3 -13  -4    0.90    1.90
   3 -13  -4    0.00    0.30
   4  -3 -13    0.00    0.30
   4   3  13    1.80    2.60
  -3 -13  -6    0.00    0.10
  -3 -13  -6    0.00    0.30
  -3 -13  -6    0.00    0.20
   3 -13   6    0.00    0.10
  -6  -3 -13    0.00    0.10
  -3  13   6    0.00    0.30
   3  13  -6    0.00    0.10
  -6   3  13    0.00    0.10
   3  13  -6    0.00    0.20
   3 -13   6    0.00    0.10
  -3 -13   6    0.00    0.10
   3 -13  -6    0.00    0.30
   6  -3 -13    0.00    0.10
  -3  13  -6    0.00    0.10
   3  13   6    0.00    0.40
   6   3  13    0.00    0.40
   3  13   6    0.00    0.10
   3 -13  -6    0.00    0.10
   6   3  13    0.00    0.10
   3 -13  -6    0.00    0.10
   3  13   6    0.00    0.10
   3  13  -8    0.00    0.20
  -3  13   8    0.00    0.30
  -3 -13  -8    0.00    0.30
   3  13  -8    0.00    0.10
  -3 -13  -8    0.00    0.10
   3 -13   8    0.00    0.10
   3 -13   8    0.00    0.10
  -3  13   8    0.00    0.20
  -3  13  -8    0.00    0.10
  -3 -13   8    0.00    0.10
   3 -13  -8    0.00    0.30
   3  13   8    0.00    0.10
   3  13   8    0.00    0.40
   3 -13  -8    0.00    0.10
   3  13 -10    0.00    0.20
  -3  13  10    0.00    0.10
   3 -13  10    0.00    0.10
   3  13 -10    0.00    0.10
  -3 -13 -10    0.00    0.10
   3 -13  10    0.00    0.10
  -3 -13 -10    0.00    0.20
  -3  13  10    0.00    0.10
  -3  13  10    0.00    0.40
  -3 -13 -10    0.00    0.40
  -3 -13  10    0.00    0.10
   3 -13 -10    0.00    0.10
   3  13  10    0.00    0.10
   3  13  10    0.00    0.40
   3 -13 -10    0.00    0.20
   3  13  10    0.00    0.20
   3 -13 -10    0.00    0.40
  -3  13 -10    0.00    0.10
  -4 -13  -1    0.00    0.20
   4  13  -1    0.00    0.10
   4 -13   1    0.00    0.10
  -1   4  13    0.10    0.30
  -1  -4 -13    0.00    0.20
   1   4 -13    0.00    0.10
  -1   4  13    0.00    0.20
  -4  13   1    0.00    0.40
   4  13  -1    0.00    0.10
   4 -13   1    0.00    0.30
  -4  13   1    0.00    0.10
  -1  -4 -13    0.00    0.10
   4  13  -1    0.00    0.20
  -4 -13  -1    0.00    0.10
  -1  -4 -13    0.00    0.20
   4 -13   1    0.00    0.10
  -1   4  13    0.00    0.10
  -4  13   1    0.00    0.10
   4  13   1    0.00    0.10
  -4 -13   1    0.20    0.90
   4  13   1    0.00    0.10
   4 -13  -1    0.00    0.30
   4 -13  -1    0.00    0.10
  -1  -4  13    0.00    0.10
   1  -4 -13    0.00    0.10
   1   4  13    0.00    0.10
   4  13   1    0.00    0.30
   1  -4 -13    0.00    0.20
   4 -13  -1    0.00    0.10
  -4 -13   1    0.00    0.10
   1   4  13    0.00    0.20
  -4  13  -1    0.00    0.10
   1  -4 -13    0.00    0.10
   3  -4  13    0.00    0.10
  -4 -13  -3    0.60    1.40
  -3  -4 -13    0.00    0.20
   4 -13   3    0.40    1.40
   3   4 -13    0.10    0.40
   3   4 -13    0.00    0.10
  -3  -4 -13    1.10    2.00
  -3   4  13    0.10    0.60
  -4 -13  -3    0.00    0.20
  -4  13   3    0.70    2.30
   4  13  -3    0.00    0.20
  -4  13   3    0.00    0.40
  -3   4  13    0.00    0.30
   4 -13   3    0.00    0.20
   3   4  13    0.00    0.20
  -3   4 -13    0.20    0.50
   3   4  13    0.90    2.00
   4 -13  -3    0.00    0.30
   4  13   3    0.00    0.30
   4 -13  -3    0.20    1.00
   3  -4 -13    0.60    1.40
   3  -4 -13    0.00    0.20
   4  13   3    0.90    2.20
   4 -13   5    2.60    3.70
  -4  13   5    3.40    5.30
   4 -13  -5    2.20    3.50
  -4  13   7    0.00    0.40
   4  13  -7    0.00    0.20
  -4 -13  -7    0.00    0.30
  -4 -13  -7    0.00    0.10
   4 -13   7    0.00    0.10
   4 -13   7    0.00    0.20
  -4  13   7    0.00    0.10
  -4 -13  -7    0.00    0.20
   4  13  -7    0.00    0.10
  -4  13   7    0.00    0.20
  -4 -13   7    0.00    0.10
  -4  13  -7    0.00    0.10
   4 -13  -7    0.00    0.10
   4  13   7    0.00    0.40
   4 -13  -7    0.00    0.40
   4  13   7    0.00    0.10
   4 -13   9    0.00    0.10
  -4 -13  -9    0.00    0.20
  -4 -13  -9    0.00    0.40
  -4  13   9    0.00    0.10
  -4  13   9    0.00    0.40
  -4 -13  -9    0.00    0.10
   4 -13   9    0.00    0.10
  -4  13   9    0.00    0.20
   4  13  -9    0.00    0.10
   4  13  -9    0.00    0.10
   4 -13  -9    0.00    0.40
  -4  13  -9    0.00    0.10
   4 -13  -9    0.00    0.20
   4 -13  -9    0.00    0.10
  -4 -13   9    0.00    0.10
   4  13   9    0.00    0.20
   4  13   9    0.00    0.40
  -4 -13 -11    0.00    0.40
  -4  13  11    0.00    0.20
  -4 -13 -11    0.00    0.20
   4  13 -11    0.00    0.10
   4 -13  11    0.00    0.10
   4  13 -11    0.00    0.10
   4 -13  11    0.00    0.10
  -4  13  11    0.00    0.50
   4  13  11    0.00    0.10
   4  13  11    0.00    0.50
  -4 -13  11    0.00    0.10
  -4  13 -11    0.00    0.10
   4 -13 -11    0.00    0.20
   4 -13 -11    0.00    0.40
   0  -5 -13   15.70    7.90
   0   5  13   17.00    8.10
   0   5  13    7.20    5.00
   0  -5 -13   13.00    9.40
  -5 -13   0    9.90    8.20
   5 -13   0   15.90    8.80
  -2  -5 -13   16.90    8.90
  -2   5  13   13.50    9.10
  -2  -5 -13   27.70   10.20
  -2   5  13   14.00    7.40
   5 -13   2    9.40    6.10
   2  -5 -13   23.20    9.50
   5 -13  -2   10.10   10.40
   5  13   2   12.40    6.70
   2   5  13    9.10    6.30
   2   5  13   16.20    6.60
   2  -5 -13   22.40    9.80
   5 -13   4    5.20    4.50
   4  -5  13    7.00    2.90
   4   5  13    3.60    4.20
  -4   5 -13    3.00    2.30
   5 -13  -4    5.50    7.60
  -6  -5 -13    0.00    0.10
  -5 -13  -6    0.30    1.30
   5 -13   6    0.10    0.60
  -6   5  13    0.00    0.20
  -5  13   6    0.00    0.40
  -5  13   6    0.00    0.10
   5  13  -6    0.00    0.20
   5  13  -6    0.00    0.10
  -5  13   6    0.00    0.10
  -5 -13  -6    0.00    0.30
   5 -13   6    0.00    0.20
   5  13   6    0.20    1.00
   6  -5 -13    0.00    0.40
  -5  13  -6    0.00    0.20
  -5 -13   6    0.00    0.10
   6   5  13    0.10    0.50
   5 -13  -6    0.00    0.40
   5  13   6    0.00    0.40
   6   5  13    0.00    0.40
   5  13   6    0.00    0.10
   6  -5 -13    0.00    0.10
   5 -13   8    0.00    0.10
   5  13  -8    0.00    0.10
  -5  13   8    0.00    0.10
  -5  13   8    0.00    0.20
  -5 -13  -8    0.00    0.40
   5 -13   8    0.00    0.20
   5  13  -8    0.00    0.20
  -5  13   8    0.00    0.60
  -5 -13  -8    0.00    0.20
  -5 -13  -8    0.00    0.10
   5  13   8    0.00    0.40
   5  13   8    0.00    0.20
   5 -13  -8    0.00    0.10
   5  13   8    0.00    0.10
  -5 -13   8    0.00    0.10
  -5  13  -8    0.00    0.10
   5 -13  -8    0.00    0.10
   5 -13  -8    0.00    0.40
  -5  13  10    0.00    0.20
   5 -13  10    0.00    0.10
   5  13 -10    0.00    0.10
   5  13 -10    0.00    0.20
   5 -13  10    0.00    0.10
  -5 -13 -10    0.00    0.10
  -5  13  10    0.00    0.20
  -5 -13 -10    0.00    0.40
  -5  13  10    0.00    0.60
  -5  13 -10    0.00    0.10
   5  13  10    0.00    0.10
   5 -13 -10    0.00    0.20
   5  13  10    0.00    0.20
  -5 -13  10    0.00    0.10
   5 -13 -10    0.00    0.40
   5  13  10    0.00    0.40
  -6  13   1    0.00    0.30
   6 -13   1    0.00    0.30
   6  13  -1    0.00    0.10
  -1   6  13    0.00    0.10
  -1   6  13    0.00    0.20
  -1   6  13    0.00    0.30
  -1  -6 -13    0.00    0.20
  -6 -13  -1    0.00    0.10
   6  13  -1    0.00    0.30
   6 -13   1    0.00    0.10
  -1  -6 -13    0.00    0.10
  -1  -6 -13    0.00    0.20
   1   6  13    0.00    0.10
   6 -13  -1    0.00    0.40
   1  -6 -13    0.00    0.20
  -6  13  -1    0.00    0.20
   1  -6 -13    0.00    0.10
   1  -6 -13    0.00    0.30
  -6 -13   1    0.00    0.10
   1   6  13    0.00    0.10
   6  13   1    0.00    0.30
   1   6  13    0.00    0.30
  -3  -6 -13    0.00    0.20
   6 -13   3    0.00    0.30
   3  -6  13    0.00    0.10
  -3   6  13    0.00    0.10
  -3   6  13    0.00    0.30
  -3   6  13    0.00    0.10
  -3  -6 -13    0.00    0.10
   6  13  -3    0.00    0.10
  -6  13   3    0.00    0.30
   3   6 -13    0.00    0.10
  -3  -6 -13    0.00    0.10
   6  13  -3    0.00    0.30
   6 -13   3    0.00    0.10
   3  -6 -13    0.00    0.10
   6  13   3    0.00    0.30
   3  -6 -13    0.00    0.10
  -6  13  -3    0.00    0.20
   6 -13  -3    0.00    0.10
   6 -13  -3    0.00    0.40
   3  -6 -13    0.00    0.30
   3   6  13    0.00    0.30
   6  13   3    0.00    0.10
   3   6  13    0.00    0.10
   3   6  13    0.00    0.10
  -6 -13   3    0.00    0.10
   6  13  -5    0.00    0.10
   6 -13   5    0.00    0.20
  -5  -6 -13    0.00    0.10
  -5  -6 -13    0.00    0.10
  -6 -13  -5    0.00    0.20
  -6  13   5    0.00    0.30
  -5   6  13    0.00    0.10
  -6  13   5    0.00    0.10
   6 -13   5    0.00    0.10
  -6  13  -5    0.00    0.20
   6 -13  -5    0.00    0.40
   5  -6 -13    0.00    0.40
   6  13   5    0.00    0.20
   6 -13  -5    0.00    0.10
   5  -6 -13    0.00    0.10
   5   6  13    0.00    0.30
  -6 -13   5    0.00    0.10
   6 -13  -5    0.00    0.20
   6  13   5    0.00    0.40
   5   6  13    0.00    0.10
   6 -13   7    0.00    0.20
  -6  13   7    0.00    0.10
  -6 -13  -7    0.00    0.10
  -6 -13  -7    0.00    0.10
   6  13  -7    0.00    0.10
  -7  -6 -13    0.00    0.10
   6 -13   7    0.00    0.10
   7   6  13    0.00    0.50
   6 -13  -7    0.00    0.30
   6 -13  -7    0.00    0.50
   6  13   7    0.00    0.40
  -6 -13   7    0.00    0.10
  -6  13  -7    0.00    0.20
   7   6  13    0.00    0.10
   6 -13   9    0.00    0.20
   6 -13   9    0.00    0.10
  -6  13   9    0.00    0.30
  -6 -13  -9    0.00    0.10
   6  13  -9    0.00    0.10
  -6 -13  -9    0.00    0.10
  -6  13  -9    0.00    0.20
   6 -13  -9    0.00    0.50
   6 -13  -9    0.00    0.10
   6 -13  -9    0.00    0.30
   6  13   9    0.00    0.50
  -6 -13   9    0.00    0.10
   6  13   9    0.00    0.20
   0   7  13    5.50    4.70
   0   7  13    6.70    5.00
   0  -7 -13   10.70    6.90
   2   7  13    6.50    6.40
   4  -7  13    0.00    0.10
  -4  -7 -13    0.00    0.10
  -4  -7 -13    0.00    0.30
  -4   7  13    0.00    0.20
  -4   7  13    0.00    0.40
  -4   7  13    0.00    0.10
   4  -7 -13    0.00    0.10
   4   7  13    0.00    0.30
   4   7  13    0.00    0.10
   4  -7 -13    0.00    0.20
   4  -7 -13    0.00    0.30
  -6   7  13    0.00    0.30
  -7 -13  -6    0.00    0.10
   7 -13  -6    0.00    0.50
   6  -7 -13    0.00    0.50
   7  13   6    0.00    0.10
   7 -13  -6    0.00    0.10
   6   7  13    0.00    0.30
   6  -7 -13    0.00    0.10
   6   7  13    0.00    0.10
   7  13   6    0.00    0.40
  -7 -13  -8    0.00    0.10
   7  13   8    0.00    0.50
   7 -13  -8    0.00    0.60
   7 -13  -8    0.00    0.20
  -1   8  13    0.00    0.30
  -1  -8 -13    0.00    0.30
  -1   8  13    0.00    0.10
  -1  -8 -13    0.00    0.10
  -1   8  13    0.00    0.20
   1   8  13    0.00    0.10
   1  -8 -13    0.00    0.10
   1   8  13    0.00    0.10
   1  -8 -13    0.00    0.30
   1   8  13    0.00    0.30
  -3   8  13    0.00    0.10
  -3   8  13    0.00    0.40
  -3  -8 -13    0.00    0.10
  -3  -8 -13    0.00    0.30
  -3  -8 -13    0.00    0.10
  -3   8  13    0.00    0.10
   3   8  13    0.00    0.10
   3   8  13    0.00    0.30
   3   8  13    0.00    0.10
   3  -8 -13    0.00    0.10
   3  -8 -13    0.00    0.30
  -5   8  13    0.00    0.10
  -5  -8 -13    0.00    0.10
   5  -8 -13    0.00    0.40
   5  -8 -13    0.00    0.10
   5   8  13    0.00    0.10
   5   8  13    0.00    0.30
   5  -8 -13    0.00    0.20
   5   8  13    0.00    0.10
  -7  -8 -13    0.00    0.10
  -7   8  13    0.00    0.20
   0   9  13    0.00    0.20
   0   9  13    0.00    0.10
   0  -9 -13    0.00    0.30
   0   9  13    0.00    0.30
   0  -9 -13    0.00    0.30
  -2   9  13    0.00    0.30
  -2  -9 -13    0.00    0.30
  -2  -9 -13    0.00    0.20
  -2   9  13    0.00    0.10
  -2   9  13    0.00    0.20
   2  -9 -13    0.00    0.10
   2  -9 -13    0.00    0.30
   2   9  13    0.00    0.40
  -4  -9 -13    0.00    0.10
  -4   9  13    0.00    0.50
   4   9 -13    0.00    0.10
  -4  -9 -13    0.00    0.30
  -4   9  13    0.00    0.20
   4  -9 -13    0.00    0.20
   4   9  13    0.00    0.10
   4   9  13    0.00    0.30
   4  -9 -13    0.00    0.10
   4  -9 -13    0.00    0.40
   6  -9 -13    0.00    0.50
   6  -9 -13    0.00    0.10
   6   9  13    0.00    0.40
  -1 -10 -13    0.00    0.40
  -1 -10 -13    0.00    0.10
  -1 -10 -13    0.00    0.30
  -1  10  13    0.00    0.30
   1 -10 -13    0.00    0.20
   1 -10 -13    0.00    0.40
   1 -10 -13    0.00    0.10
   1  10  13    0.00    0.10
   1  10  13    0.00    0.40
   1  10  13    0.00    0.20
  -3  10  13    0.00    0.10
  -3  10  13    0.00    0.20
  -3 -10 -13    0.00    0.40
  -3  10  13    0.00    0.40
   3 -10 -13    0.00    0.10
   3  10  13    0.00    0.20
   3 -10 -13    0.00    0.30
   3  10  13    0.00    0.40
   3  10  13    0.00    0.10
  -5 -10 -13    0.00    0.40
  -5 -10 -13    0.00    0.20
  -5 -10 -13    0.00    0.10
  -5  10  13    0.00    0.50
   5 -10  13    0.00    0.10
  -5  10  13    0.00    0.10
   5 -10 -13    0.00    0.40
  -5 -10  13    0.00    0.10
   5  10  13    0.00    0.40
   5  10  13    0.00    0.20
   5  10  13    0.00    0.10
   0 -11 -13    0.00    0.10
   0 -11 -13    0.00    0.30
   0 -11 -13    0.00    0.40
   0  11  13    0.00    0.40
   0  11  13    0.00    0.10
  -2  11  13    0.00    0.20
  -2  11  13    0.00    0.40
  -2 -11 -13    0.00    0.40
   2 -11 -13    0.00    0.10
   2  11  13    0.00    0.50
   2 -11 -13    0.00    0.40
   2  11  13    0.00    0.20
   4  11 -13    0.00    0.10
  -4 -11 -13    0.00    0.20
  -4  11  13    0.00    0.60
  -4 -11 -13    0.00    0.40
  -4 -11 -13    0.00    0.10
   4  11  13    0.00    0.20
   4  11  13    0.00    0.10
   4 -11 -13    0.00    0.40
   4 -11 -13    0.00    0.30
   4  11  13    0.00    0.40
   4 -11 -13    0.00    0.10
   0   0 -14    0.50    1.10
   0 -14   0    0.70    2.10
   0  14   0    0.40    1.50
   0  14   0    0.00    0.30
   0   0  14    1.10    1.20
   0 -14   2    5.90    7.50
  -2   0  14   11.70    5.80
   0 -14   2    9.10    5.30
   0  14  -2    6.80    4.70
   0  14   2    6.30    5.60
   2   0  14   20.60    7.70
   0 -14  -2   15.90    8.90
   0  14  -2   14.00    6.70
   0  14  -4   34.30   11.30
   4   0  14   33.50    7.90
  -4   0 -14   35.50   10.90
   0 -14   4   29.90    8.20
   0 -14   4   35.50   10.90
   0  14  -4   28.10   10.00
   0  14   4   36.10   15.80
   0  14  -4   23.40    9.20
   4   0 -14   24.00    9.20
  -4   0  14   33.40   11.30
   0 -14  -4   29.80   13.40
   0  14  -6  127.79   18.90
   0 -14   6  121.59   21.20
   0 -14  -6  105.29   23.40
   0 -14   6  134.49   15.90
   0  14  -6  135.79   17.40
   0  14   6  102.99   24.00
   0 -14   6  132.69   17.80
  -6   0 -14  120.79   18.50
   0 -14   8  101.89   16.40
   0 -14   8   88.49   11.50
   0  14   8  100.19   32.10
   0  14  -8   99.19   16.50
   0 -14  -8   85.89   21.80
   0  14  -8   99.19   13.70
   0 -14   8   97.99   14.20
   0 -14 -10   65.59   22.80
   0  14  10   48.60   18.30
   1  -1  14    0.00    0.10
  -1   1  14    0.00    0.10
  -1  -1 -14    0.00    0.10
   1  14  -1    0.00    0.30
  -1  14   1    0.00    0.30
   1   1 -14    0.00    0.10
  -1  14   1    0.00    0.20
  -1 -14  -1    0.00    0.30
   1   1 -14    0.00    0.10
  -1  14   1    0.00    0.10
   1  14  -1    0.00    0.10
   1  -1  14    0.00    0.10
  -1  -1 -14    0.00    0.20
  -1   1  14    0.00    0.20
  -1 -14  -1    0.00    0.10
   1  14  -1    0.00    0.10
   1 -14   1    0.00    0.10
   1   1 -14    0.00    0.10
  -1  -1 -14    0.00    0.10
   1  -1  14    0.00    0.10
   1 -14   1    0.00    0.10
  -1 -14  -1    0.00    0.10
   1 -14   1    0.00    0.20
  -1   1  14    0.00    0.10
  -1  14  -1    0.00    0.10
  -1   1 -14    0.00    0.10
  -1 -14   1    0.00    0.10
   1  -1 -14    0.00    0.20
  -1   1 -14    0.00    0.10
   1  14   1    0.00    0.30
  -1 -14   1    0.00    0.20
   1 -14  -1    0.00    0.10
  -1  -1  14    0.00    0.10
  -1 -14   1    0.00    0.20
   1 -14  -1    0.00    0.10
  -1  -1  14    0.00    0.10
   1  14   1    0.00    0.10
   1  -1 -14    0.00    0.10
  -1   1 -14    0.00    0.10
   1   1  14    0.00    0.10
   1   1  14    0.00    0.10
  -1  14  -1    0.00    0.20
   1 -14  -1    0.00    0.30
  -1  14  -1    0.00    0.20
   1  -1 -14    0.00    0.10
   1  14   1    0.00    0.10
   1   1  14    0.00    0.20
  -3  -1 -14    0.00    0.10
   1 -14   3    0.00    0.10
   3  -1  14    0.00    0.10
  -1  14   3    0.00    0.30
   3  -1  14    0.00    0.10
   1 -14   3    0.00    0.10
  -1  14   3    0.00    0.20
   3   1 -14    0.00    0.10
   1  14  -3    0.00    0.10
   3   1 -14    0.00    0.20
  -1 -14  -3    0.00    0.10
   1  14  -3    0.00    0.10
  -1 -14  -3    0.00    0.30
  -1  14   3    0.00    0.10
  -1 -14  -3    0.00    0.20
   1 -14   3    0.00    0.20
  -3   1  14    0.00    0.10
   1  14  -3    0.00    0.30
   1 -14  -3    0.00    0.30
   1 -14  -3    0.00    0.10
  -1 -14   3    0.00    0.20
  -3  -1  14    0.00    0.10
   1  14   3    0.00    0.10
   3  -1 -14    0.00    0.20
  -1  14  -3    0.00    0.10
   3   1  14    0.00    0.20
  -1 -14   3    0.00    0.10
  -1 -14   3    0.00    0.20
  -1  14  -3    0.00    0.10
   3   1  14    0.00    0.10
  -1  14  -3    0.00    0.20
   1  14   3    0.00    0.10
   3  -1 -14    0.00    0.10
   1  14   3    0.00    0.40
  -3   1 -14    0.00    0.10
  -1  14   5    0.00    0.40
  -1 -14  -5    0.00    0.10
  -1 -14  -5    0.00    0.40
  -5   1  14    0.00    0.20
   1 -14   5    0.00    0.10
   5  -1  14    0.00    0.30
   1  14  -5    0.00    0.10
   5  -1  14    0.00    0.10
   1  14  -5    0.00    0.20
  -5  -1 -14    0.00    0.10
  -1 -14  -5    0.00    0.10
   1  14  -5    0.00    0.10
   1 -14   5    0.00    0.10
   1 -14   5    0.00    0.20
  -1  14   5    0.00    0.10
  -1  14  -5    0.00    0.20
   1  14   5    0.00    0.10
  -1 -14   5    0.00    0.20
  -5   1 -14    0.00    0.10
   5  -1 -14    0.00    0.30
  -1  14  -5    0.00    0.10
  -1 -14   5    0.00    0.20
   5  -1 -14    0.00    0.10
   1  14   5    0.00    0.40
  -1 -14   5    0.00    0.10
   5   1  14    0.00    0.20
  -1  14  -5    0.00    0.10
   1 -14  -5    0.00    0.30
   5   1  14    0.00    0.10
  -5  -1  14    0.00    0.10
   1  14   5    0.00    0.10
  -1  14   7    0.00    0.10
   1  14  -7    0.00    0.10
   1 -14   7    0.00    0.10
  -1 -14  -7    0.00    0.40
   1  14  -7    0.00    0.10
   1 -14   7    0.00    0.10
  -1  14   7    0.00    0.20
   1 -14   7    0.00    0.10
  -1 -14  -7    0.00    0.10
   1  14  -7    0.00    0.20
  -1  14   7    0.00    0.40
  -1 -14  -7    0.00    0.20
  -1  14  -7    0.00    0.10
   1  14   7    0.00    0.10
  -1  14  -7    0.00    0.10
  -1 -14   7    0.00    0.10
  -1 -14   7    0.00    0.10
  -1  14  -7    0.00    0.20
   1  14   7    0.00    0.50
   1 -14  -7    0.00    0.40
   1  14  -9    0.00    0.10
  -1 -14  -9    0.00    0.40
  -1 -14  -9    0.00    0.20
   1  14  -9    0.00    0.10
   1 -14   9    0.00    0.10
  -1  14   9    0.00    0.40
   1 -14   9    0.00    0.10
  -1  14   9    0.00    0.10
   1  14   9    0.00    0.50
  -1  14  -9    0.00    0.10
   1 -14  -9    0.00    0.10
  -1 -14   9    0.00    0.10
   1 -14  -9    0.00    0.40
   1  14   9    0.00    0.10
   1 -14  -9    0.00    0.20
  -2 -14   0   27.10   10.60
   0  -2  14   47.20    9.20
  -2  14   0   46.40   16.20
  -2  14   0   25.60   10.70
   2 -14   0   39.20   12.80
   0   2 -14   42.70    9.70
   0   2  14   31.90    9.40
  -2 -14   0   37.80   12.50
   0   2  14   44.10   11.30
   0   2  14   32.00    8.30
   0  -2 -14   46.40   10.90
   0   2 -14   48.90    7.80
   0  -2 -14   30.00   12.50
   2  14   0   32.20   13.30
   0  -2 -14   47.50   13.30
   0   2 -14   42.80    8.00
  -2  14   2   70.79   17.10
   2   2 -14   84.49   10.80
  -2  -2 -14   89.89   16.40
   2  14  -2   63.09   16.90
  -2 -14  -2   77.79   20.00
   2   2 -14   76.89   11.60
   2 -14   2   77.69   17.30
   2 -14   2   53.49   12.20
  -2  -2 -14   75.29   13.10
  -2   2  14   78.39   16.30
  -2  -2 -14   73.69   17.90
  -2 -14  -2   84.09   18.10
   2  -2  14   80.39   12.50
   2  -2  14   78.59   10.70
  -2   2  14   62.49   15.60
  -2  14   2   75.59   20.00
   2 -14   2   58.29   15.60
   2  -2 -14   81.99   15.10
  -2 -14   2   75.19   16.30
   2  -2 -14   90.39   14.50
   2   2  14   82.59   19.20
  -2  14  -2   82.29   19.40
  -2   2 -14   66.79   15.00
   2 -14  -2   73.49   16.40
   2 -14  -2   86.39   20.30
   2  14   2   75.89   19.40
  -2  14  -2   65.89   14.50
   2  -2 -14   82.39   18.20
   2   2  14   54.09   12.60
   2  14   2   70.49   18.10
  -2 -14   2   55.79   12.50
  -2 -14  -4   61.89   16.20
   2  14  -4   70.79   17.90
   2 -14   4   66.19   14.60
   2  14  -4   62.29   13.90
   4  -2  14   95.69   12.10
  -4  -2 -14   68.89   16.90
   2 -14   4   54.29   11.50
  -2  14   4   60.29   16.60
  -2  14   4   80.19   22.00
   2  14  -4   77.19   14.00
  -4   2  14   69.79   18.20
   4   2 -14   82.29   14.90
   4   2 -14   74.29   12.10
   2 -14  -4   76.49   17.70
   4   2  14   86.39   16.50
  -2  14  -4   69.29   16.80
   4  -2 -14   88.59   21.00
   2  14   4   50.49   18.20
   2  14   4   85.89   26.90
  -4  -2  14   67.79   15.90
   4   2  14   65.79   12.40
  -2 -14   4   76.49   15.50
  -2  14  -4   69.89   14.90
  -4   2 -14   86.39   16.00
  -2 -14   4   64.19   12.20
  -2  14   6  111.89   23.50
   2 -14   6  113.59   23.60
   2 -14   6  114.99   18.00
   2  14  -6  117.49   17.20
   2  14  -6  103.59   17.00
  -2 -14  -6  114.19   23.50
   2 -14   6  120.59   16.00
  -6  -2 -14  117.29   21.40
   2  14  -6  118.79   22.30
   6   2  14  131.99   23.40
   6   2  14  119.79   18.80
   2 -14  -6   80.69   19.00
  -2  14  -6  129.89   20.60
  -2 -14   6   94.39   19.50
   2  14   6  120.29   26.90
  -2 -14  -8   87.59   24.50
   2  14  -8   72.39   14.10
  -2  14   8   47.70   18.20
  -2 -14  -8   70.19   19.00
   2  14  -8   78.99   12.70
   2 -14   8   82.29   14.20
   2 -14   8   73.99   11.20
  -2  14  -8   62.99   12.30
   2  14   8   76.29   21.40
   2 -14  -8   90.19   24.70
   2  14   8   75.19   27.80
   2 -14  -8   47.10   17.50
   2 -14  10   70.79    8.80
   2  14 -10   71.09    9.60
   2  14 -10   72.79   11.50
  -2 -14 -10   81.79   26.70
   2 -14  10   63.59    9.00
  -2  14  10   70.19   23.40
   2  14  10   64.49   26.30
   2  14  10   87.39   22.70
   2 -14 -10   78.39   24.50
  -2  14 -10   57.49    9.20
   3  14  -1    0.00    0.30
   3  14  -1    0.00    0.10
  -1  -3 -14    0.00    0.20
  -1   3  14    0.00    0.20
  -3 -14  -1    0.00    0.10
  -1  -3 -14    0.00    0.10
  -1   3  14    0.00    0.10
  -1   3  14    0.00    0.10
   1   3 -14    0.00    0.10
   1   3 -14    0.00    0.10
  -3  14   1    0.00    0.10
  -3  14   1    0.00    0.30
   3 -14   1    0.00    0.20
  -3  14   1    0.00    0.10
   3 -14   1    0.00    0.10
   3  14  -1    0.00    0.10
  -1  -3 -14    0.00    0.20
   1  -3  14    0.00    0.10
  -3 -14  -1    0.00    0.20
   3 -14   1    0.00    0.10
   1  -3  14    0.00    0.10
   1   3  14    0.00    0.10
   3  14   1    0.00    0.30
   1  -3 -14    0.00    0.20
   1   3  14    0.00    0.20
  -3 -14   1    0.00    0.20
  -1   3 -14    0.00    0.10
   3  14   1    0.00    0.10
  -3 -14   1    0.00    0.10
   1  -3 -14    0.00    0.10
  -1  -3  14    0.00    0.10
  -3 -14   1    0.00    0.10
  -3  14  -1    0.00    0.10
  -3  14  -1    0.00    0.10
   3 -14  -1    0.00    0.10
   1  -3 -14    0.00    0.10
   3 -14  -1    0.00    0.30
   3  14   1    0.00    0.10
  -3  14  -1    0.00    0.30
   1   3  14    0.00    0.10
   3 -14  -1    0.00    0.10
   3  -3  14    0.00    0.10
  -3  14   3    0.00    0.30
   3 -14   3    0.00    0.20
  -3 -14  -3    0.20    0.80
  -3  14   3    0.20    0.70
  -3  -3 -14    0.70    1.30
   3  -3  14    0.50    0.90
   3   3 -14    0.20    0.30
   3  14  -3    0.00    0.20
   3   3 -14    0.30    0.70
   3  14  -3    0.30    1.20
  -3   3  14    0.60    1.40
  -3  -3 -14    0.00    0.20
   3 -14   3    0.40    1.20
  -3 -14  -3    0.00    0.30
   3  14  -3    0.10    0.10
   3 -14  -3    0.30    1.30
  -3  14  -3    0.00    0.30
   3  -3 -14    0.00    0.20
  -3   3 -14    0.30    0.70
   3  14   3    0.00    0.30
   3   3  14    0.00    0.20
   3 -14  -3    0.00    0.30
  -3  14  -3    0.20    0.60
   3  14   3    1.30    3.40
   3   3  14    0.40    0.80
   5  -3  14    2.50    2.20
   3 -14   5    0.90    1.30
   3  14  -5    1.80    1.70
   3  14   5    1.80    2.90
  -3 -14   5    2.80    3.90
  -3  14  -5    0.90    1.80
  -5   3 -14    1.90    2.00
   3  14  -7    0.00    0.10
   3 -14   7    0.20    0.60
  -3 -14  -7    0.00    0.20
  -3 -14  -7    0.00    0.40
   3 -14   7    0.00    0.10
  -3  14   7    0.00    0.40
   3  14  -7    0.00    0.20
  -3 -14  -7    0.20    1.00
  -3  14  -7    0.00    0.10
   3  14   7    0.00    0.20
  -3 -14   7    0.00    0.10
   3 -14  -7    0.00    0.40
   3  14   7    0.00    0.40
   3 -14  -7    0.00    0.10
   3 -14  -7    0.00    0.20
   3 -14   9    0.00    0.10
  -3  14   9    0.00    0.10
  -3 -14  -9    0.00    0.20
   3  14  -9    0.00    0.20
  -3  14   9    0.00    0.20
   3 -14   9    0.00    0.10
  -3 -14  -9    0.00    0.20
   3  14  -9    0.00    0.10
  -3 -14  -9    0.00    0.40
  -3  14   9    0.00    0.40
   3  14   9    0.00    0.40
  -3 -14   9    0.00    0.10
  -3  14  -9    0.00    0.10
   3  14   9    0.00    0.20
   3 -14  -9    0.00    0.40
  -4  14   0   47.30   16.80
   0  -4 -14   54.49   18.70
   0   4  14   58.09   14.60
   4 -14   0   46.40   16.50
   4 -14   0   41.90   15.00
   0   4  14   37.20   10.00
   4  14   0   41.70   12.80
   0  -4 -14   51.99   12.40
  -4  14   0   49.20   16.60
   0  -4 -14   59.49   15.00
   4 -14   0   55.59   17.40
  -2   4  14   89.29   19.20
   4 -14   2   81.09   19.60
  -2  -4 -14  111.99   17.90
   2   4 -14   86.99    9.00
  -4 -14  -2   86.29   20.30
   2   4 -14   87.89   10.60
  -2  -4 -14   92.49   17.50
  -4  14   2   57.29   19.60
   4  14  -2   69.09   15.10
   2  -4  14   94.19    9.60
   4 -14   2   85.09   17.70
  -4 -14  -2   77.39   17.00
  -2  -4 -14   90.09   21.90
  -2   4  14   72.29   18.30
  -4  14   2   80.59   23.70
   2  -4  14   97.39    8.50
   2   4  14   72.19   16.60
   2   4  14   98.89   23.20
   2  -4 -14   98.49   19.20
   2  -4 -14   95.69   19.70
   2  -4 -14   95.39   16.60
  -4  14  -2   88.49   22.00
   4 -14  -2   89.09   24.30
  -2  -4  14   86.59   10.60
   4 -14  -2   72.99   20.70
  -2   4 -14   88.89   12.30
  -4  -4 -14   98.49   21.80
  -4 -14  -4   99.99   20.50
  -4  14   4   81.09   21.40
  -4  14   4  122.39   33.50
   4 -14   4   92.29   19.60
   4   4 -14   98.49   13.70
   4 -14   4   82.69   15.40
  -4  -4 -14  116.19   21.80
  -4  14   4   94.19   26.80
   4  -4  14  114.49   10.70
   4   4 -14  104.19   12.50
   4  -4  14  106.09   11.80
  -4 -14  -4  106.39   24.40
  -4   4  14   91.19   21.90
  -4  14  -4   84.49   19.10
   4  -4 -14  116.89   25.50
  -4   4 -14  118.29   15.80
   4  14   4   98.49   21.60
  -4  -4  14   90.59   16.70
   4 -14  -4   91.29   21.70
   4   4  14   74.79   14.80
   4   4  14  110.69   21.30
   4 -14  -4  104.09   27.20
   4 -14   6  123.19   20.00
  -6  -4 -14  114.39   24.40
  -4 -14  -6  122.79   23.70
   4  14  -6  122.19   18.70
   4 -14   6  114.09   16.30
   4  14   6   88.29   21.80
  -4  14  -6   98.99   18.60
  -4 -14   6   94.59   19.10
   6   4  14  124.69   23.90
   4  14   6  123.39   25.10
   6   4  14  118.99   20.70
  -4  14   8   82.99   26.70
   4  14  -8   88.59   12.80
  -4  14   8   48.00   19.40
   4 -14   8   94.09   14.60
   4 -14   8   86.39   11.80
  -4 -14  -8  104.09   22.70
   4  14  -8   92.59   15.50
   4  14   8   61.99   20.30
   4  14   8   55.49   20.50
   4 -14  -8   82.09   21.70
  -4 -14   8   71.49   14.40
  -5  14   1    0.00    0.20
   5  14  -1    0.00    0.30
  -5 -14  -1    0.00    0.20
   5  14  -1    0.00    0.10
   5 -14   1    0.00    0.30
  -1   5  14    0.00    0.20
  -1   5  14    0.00    0.20
   5 -14   1    0.00    0.10
  -5 -14  -1    0.00    0.10
  -1  -5 -14    0.00    0.10
  -1   5  14    0.00    0.10
  -1  -5 -14    0.00    0.20
  -1  -5 -14    0.00    0.20
   5  14   1    0.00    0.30
   5 -14  -1    0.00    0.40
   1  -5 -14    0.00    0.10
   1  -5 -14    0.00    0.10
   5  14   1    0.00    0.20
   1  -5 -14    0.00    0.30
  -5 -14   1    0.00    0.20
   5 -14  -1    0.00    0.10
   5 -14  -1    0.00    0.20
   1   5  14    0.00    0.10
   1   5  14    0.00    0.30
   5  14   1    0.00    0.10
  -5  14  -1    0.00    0.20
   1   5  14    0.00    0.10
  -3  -5 -14    0.00    0.20
  -5  14   3    0.00    0.10
   3   5 -14    0.00    0.10
  -3   5  14    0.00    0.10
  -3  -5 -14    0.00    0.10
   5  14  -3    0.00    0.30
  -3  -5 -14    0.00    0.10
  -3   5  14    0.00    0.30
   3   5 -14    0.00    0.10
  -5 -14  -3    0.00    0.20
   5 -14   3    0.00    0.30
  -3   5  14    0.00    0.10
   5  14  -3    0.00    0.10
   3  -5  14    0.00    0.10
   5 -14   3    0.00    0.10
  -5  14   3    0.00    0.10
  -5  14   3    0.00    0.40
   3  -5 -14    0.00    0.10
   5  14   3    0.00    0.10
   3   5  14    0.00    0.30
  -5  14  -3    0.00    0.20
   5  14   3    0.00    0.40
   3   5  14    0.00    0.10
   5 -14  -3    0.00    0.20
   3  -5 -14    0.00    0.10
  -5 -14   3    0.00    0.10
   3  -5 -14    0.00    0.30
   3   5  14    0.00    0.10
   5 -14  -3    0.00    0.40
  -3  -5  14    0.00    0.10
  -5 -14  -5    0.00    0.30
   5  -5  14    1.20    1.10
  -5  14   5    0.80    2.70
   5 -14   5    0.00    0.30
  -5 -14  -5    0.90    2.30
   5  14  -5    0.00    0.20
  -5  14   5    0.00    0.50
   5 -14   5    0.60    1.40
   5  14   5    0.60    1.60
   5 -14  -5    0.00    0.40
   5 -14  -5    0.30    0.10
   5   5  14    0.00    0.20
   5  -5 -14    0.00    0.40
   5  14   5    0.00    0.40
  -7  -5 -14    0.00    0.10
  -5  14   7    0.00    0.10
  -5 -14  -7    0.00    0.10
   5 -14   7    0.00    0.10
  -5  14   7    0.00    0.20
  -5 -14  -7    0.00    0.40
   5 -14   7    0.00    0.20
  -5  14   7    0.00    0.60
   5  14  -7    0.00    0.20
   5  14  -7    0.00    0.10
   5 -14  -7    0.00    0.40
  -5  14  -7    0.00    0.10
   5  14   7    0.00    0.10
   7   5  14    0.00    0.10
   5  14   7    0.00    0.40
   7   5  14    0.00    0.50
  -5 -14   7    0.00    0.10
   5  14   7    0.00    0.10
  -5  14   9    0.00    0.20
  -5  14   9    0.00    0.60
  -5  14   9    0.00    0.20
   5  14  -9    0.00    0.20
   5  14  -9    0.00    0.10
  -5 -14  -9    0.00    0.40
  -5 -14  -9    0.00    0.20
   5 -14   9    0.00    0.20
   5 -14   9    0.00    0.10
  -5 -14  -9    0.00    0.10
   5  14   9    0.00    0.20
   5 -14  -9    0.00    0.50
   5 -14  -9    0.00    0.10
  -5  14  -9    0.00    0.10
   5  14   9    0.00    0.40
  -5 -14   9    0.00    0.10
   0  -6 -14  164.48   36.10
   6 -14   0  216.08   38.70
   0   6  14  210.08   33.20
   0   6  14  204.38   31.70
   0  -6 -14  199.38   30.50
   0  -6 -14  170.98   25.30
   6 -14   0  190.38   31.30
   0   6  14  182.18   26.60
  -2  -6 -14  201.58   26.90
  -2  -6 -14  174.18   32.50
  -2   6  14  193.98   32.10
   6 -14   2  179.98   32.60
   6 -14   2  189.98   29.20
   2   6  14  194.98   36.40
   2   6  14  137.49   25.40
   2  -6 -14  133.59   21.50
   2  -6 -14  166.58   29.20
   2  -6 -14  187.48   29.40
   6 -14  -2  161.98   30.40
   6 -14  -2  193.38   38.70
  -4  -6 -14  144.89   27.10
   6 -14   4  159.98   28.40
   6 -14   4  146.19   23.50
   4  -6  14  180.08   10.00
  -6  14   4  155.98   33.70
  -4  -6 -14  179.98   29.50
  -4  -6 -14  144.89   23.00
   4   6 -14  161.68   12.40
  -4   6  14  138.49   26.90
   4   6 -14  152.98   14.20
  -4   6  14  180.88   32.30
   6 -14  -4  176.28   39.10
   6  14   4  158.38   34.70
   4  -6 -14  177.38   33.20
   4   6  14  185.18   28.20
   4   6  14  122.59   21.90
   6  14   4  117.79   26.00
   6 -14  -4  144.19   30.50
   4   6  14  184.68   30.40
   4  -6 -14  146.49   25.20
   4  -6 -14  150.28   32.60
  -6 -14  -6   46.40   18.90
  -6   6  14   63.69   22.70
  -6  14   6   42.60   19.10
  -6  14  -6   43.50   16.30
   6 -14  -6   45.20   20.70
   6 -14  -8   21.40   13.90
  -6  14  -8   21.80   10.20
  -1  -7 -14    0.00    0.20
  -1  -7 -14    0.00    0.30
  -1   7  14    0.00    0.10
  -1  -7 -14    0.00    0.10
  -1   7  14    0.00    0.20
  -1   7  14    0.00    0.30
   1   7  14    0.00    0.10
   1  -7 -14    0.00    0.10
   1  -7 -14    0.00    0.20
   1   7  14    0.00    0.10
   1  -7 -14    0.00    0.30
   1   7  14    0.00    0.30
  -3   7  14    0.00    0.40
  -3   7  14    0.00    0.20
  -3  -7 -14    0.00    0.30
   3   7  14    0.00    0.10
   3   7  14    0.00    0.10
   7 -14  -3    0.00    0.10
   3  -7 -14    0.00    0.30
   3  -7 -14    0.00    0.10
   3  -7 -14    0.00    0.10
   7  14   3    0.00    0.40
   3   7  14    0.00    0.30
   5  -7  14    0.90    0.70
  -5   7  14    1.90    3.70
  -5  -7 -14    1.70    3.30
   5   7  14    0.00    0.30
   7  14   5    0.00    0.40
   7 -14  -5    0.00    0.50
   5  -7 -14    0.00    0.40
   5   7  14    1.20    2.00
   0  -8 -14  170.48   34.20
   0   8  14  170.28   33.80
  -2  -8 -14  121.49   26.20
  -2   8  14  128.79   28.50
  -2  -8 -14   84.79   18.90
   2  -8 -14   96.19   25.00
   2   8  14  123.39   31.50
   2  -8 -14  118.89   25.70
  -4   8  14  135.29   32.30
  -4  -8 -14  114.19   21.80
  -4  -8 -14  126.09   25.50
   4   8 -14  114.39    7.50
   4   8  14  125.19   28.00
   4   8  14  126.89   25.70
   4   8  14  108.69   22.80
   4  -8 -14  102.69   26.30
   4  -8 -14   95.29   21.70
  -6   8  14   23.50   13.40
  -6  -8 -14   28.40   13.50
  -1  -9 -14    0.00    0.40
  -1   9  14    0.00    0.30
  -1   9  14    0.00    0.10
  -1  -9 -14    0.00    0.10
  -1  -9 -14    0.00    0.30
   1   9  14    0.00    0.10
   1  -9 -14    0.00    0.20
   1   9  14    0.00    0.40
   1  -9 -14    0.00    0.40
   1  -9 -14    0.00    0.10
   1   9  14    0.00    0.20
  -3  -9 -14    0.00    0.20
  -3  -9 -14    0.00    0.30
  -3   9  14    0.00    0.40
  -3   9  14    0.00    0.10
  -3  -9 -14    0.00    0.10
  -3   9  14    0.00    0.20
   3  -9 -14    0.00    0.20
   3   9  14    0.00    0.20
   3  -9 -14    0.00    0.10
   3   9  14    0.00    0.10
   3   9  14    0.00    0.40
   3  -9 -14    0.00    0.30
   5  -9  14    0.00    0.10
  -5   9  14    0.00    0.10
   5  -9 -14    0.00    0.20
   5   9  14    0.00    0.10
   5  -9 -14    0.00    0.40
   5   9  14    0.00    0.30
   0  10  14   80.19   22.60
   0  10  14  104.19   23.60
   0 -10 -14   79.49   20.20
   0 -10 -14  117.39   27.00
  -2 -10 -14   72.89   19.20
  -2 -10 -14  102.29   26.60
  -2  10  14   91.29   25.10
   2  10  14   88.49   27.10
   2  10  14   88.69   18.60
   2 -10 -14   83.59   23.50
   1   0 -15    0.00    0.20
  -1   0 -15    0.00    0.10
  -1   0  15    0.00    0.20
   0 -15  -1    0.00    0.30
   0 -15   1    0.00    0.30
   0  15  -1    0.00    0.10
   0  15   1    0.00    0.10
   1   0 -15    0.00    0.10
   1   0  15    0.00    0.10
  -1   0  15    0.00    0.10
   0 -15  -1    0.00    0.20
   0 -15   1    0.00    0.20
   1   0  15    0.00    0.10
   0  15  -1    0.00    0.30
   0  15   1    0.00    0.30
   0 -15  -1    0.00    0.10
   1   0  15    0.00    0.10
  -1   0 -15    0.00    0.10
  -1   0  15    0.00    0.10
  -1   0 -15    0.00    0.10
   0 -15   1    0.00    0.10
   0  15  -1    0.00    0.10
   0  15   1    0.00    0.10
   1   0 -15    0.00    0.10
   0  15  -3    2.70    3.50
   3   0  15    5.80    4.00
   3   0 -15    1.40    1.20
  -3   0 -15    2.10    2.90
   0 -15   3    1.80    1.80
  -5   0 -15    1.80    2.30
   5   0  15    4.40    3.10
   0  15  -5    4.50    3.70
   0 -15   5    1.70    3.60
   0 -15   5    0.60    0.90
   0  15  -5    2.10    2.10
   0  15  -7    1.40    1.50
   0 -15   7    1.70    1.90
   0  15   7    3.00    4.60
   0 -15   7    1.60    2.70
   0 -15  -7    3.80    6.20
   0  15  -9    0.00    0.20
   0 -15   9    0.00    0.10
   0  15  -9    0.00    0.10
   0  15   9    0.00    0.50
   0  15  -9    0.00    0.10
   0 -15  -9    0.00    0.50
   0  -1  15    0.00    0.10
  -1  15   0    0.00    0.20
   0  -1 -15    0.00    0.20
   0   1 -15    0.00    0.10
  -1  15   0    0.00    0.30
   1  15   0    0.00    0.30
  -1 -15   0    0.00    0.20
  -1 -15   0    0.00    0.10
   0  -1  15    0.00    0.10
   1  15   0    0.00    0.10
  -1  15   0    0.00    0.10
   0   1 -15    0.00    0.10
   0   1  15    0.00    0.10
   0   1  15    0.00    0.20
   0  -1  15    0.00    0.20
   1  15   0    0.00    0.20
   1 -15   0    0.00    0.30
   0  -1 -15    0.00    0.10
   0   1 -15    0.00    0.10
   0  -1 -15    0.00    0.10
   0   1  15    0.00    0.10
  -1 -15   0    0.00    0.20
   1 -15   0    0.00    0.20
  -1  15   2    0.00    0.30
   2  -1  15    0.00    0.10
   1  15  -2    0.00    0.30
   1  15  -2    0.00    0.10
   2   1 -15    0.00    0.10
   1 -15   2    0.00    0.10
  -1 -15  -2    0.00    0.30
  -1 -15  -2    0.00    0.20
  -2  -1 -15    0.00    0.10
  -2   1  15    0.00    0.10
  -1  15   2    0.00    0.20
   2  -1  15    0.00    0.10
  -1  15   2    0.00    0.10
  -2  -1 -15    0.00    0.20
   2   1 -15    0.00    0.10
   1  15  -2    0.00    0.10
   1 -15   2    0.00    0.30
  -2  -1 -15    0.00    0.20
   1 -15   2    0.00    0.20
  -2   1  15    0.00    0.10
   2  -1 -15    0.00    0.20
  -2  -1  15    0.00    0.10
  -1 -15   2    0.00    0.20
   1  15   2    0.00    0.40
   1  15   2    0.00    0.10
  -1 -15   2    0.00    0.10
  -1  15  -2    0.00    0.20
   2  -1 -15    0.00    0.10
   2   1  15    0.00    0.10
   2   1  15    0.00    0.20
   2   1  15    0.00    0.10
  -1 -15   2    0.00    0.20
   2  -1 -15    0.00    0.20
  -1  15  -2    0.00    0.10
  -1  15  -2    0.00    0.10
   1  15   2    0.00    0.10
  -2   1 -15    0.00    0.10
   1 -15  -2    0.00    0.30
   4   1 -15    0.00    0.10
   1 -15   4    0.00    0.20
   1  15  -4    0.00    0.10
  -1 -15  -4    0.00    0.10
  -1  15   4    0.00    0.30
   4   1 -15    0.00    0.20
   4  -1  15    0.00    0.10
  -1 -15  -4    0.00    0.40
   1  15  -4    0.00    0.10
  -4   1  15    0.00    0.10
   4  -1  15    0.00    0.10
   1 -15   4    0.00    0.10
   1  15  -4    0.00    0.30
   1 -15   4    0.00    0.10
   1 -15  -4    0.00    0.10
   4  -1 -15    0.00    0.30
   1  15   4    0.00    0.10
   4  -1 -15    0.00    0.10
  -1 -15   4    0.00    0.20
  -1  15  -4    0.00    0.20
   4   1  15    0.00    0.10
  -1 -15   4    0.00    0.10
   4   1  15    0.00    0.20
  -4  -1  15    0.00    0.10
  -4   1 -15    0.00    0.10
   1 -15  -4    0.00    0.30
  -1  15  -4    0.00    0.10
  -1 -15   4    0.00    0.20
   1  15   4    0.00    0.40
  -1  15  -4    0.00    0.10
   6  -1  15    0.00    0.10
   6  -1  15    0.00    0.30
  -1 -15  -6    0.00    0.20
  -6  -1 -15    0.00    0.10
   1 -15   6    0.00    0.10
  -1  15   6    0.00    0.10
   1  15  -6    0.00    0.10
   1  15  -6    0.00    0.10
  -6   1  15    0.00    0.20
  -1 -15  -6    0.00    0.40
   1 -15   6    0.00    0.10
   1  15  -6    0.00    0.20
  -1  15   6    0.00    0.20
   1 -15   6    0.00    0.20
  -1  15   6    0.00    0.40
  -1 -15   6    0.00    0.20
   6  -1 -15    0.00    0.10
  -6   1 -15    0.00    0.10
   1 -15  -6    0.00    0.10
  -1 -15   6    0.00    0.10
  -1  15  -6    0.00    0.10
   1  15   6    0.00    0.40
  -1 -15   6    0.00    0.20
   6  -1 -15    0.00    0.30
  -1  15  -6    0.00    0.20
   6   1  15    0.00    0.40
   1 -15  -6    0.00    0.30
  -1  15  -6    0.00    0.10
  -6  -1  15    0.00    0.10
   1 -15  -6    0.00    0.40
   6   1  15    0.00    0.10
  -1 -15  -8    0.00    0.10
  -1  15   8    0.00    0.50
   1  15  -8    0.00    0.20
   1 -15   8    0.00    0.10
  -1  15   8    0.00    0.20
   1  15  -8    0.00    0.10
   1 -15   8    0.00    0.10
  -1  15   8    0.00    0.10
   1 -15   8    0.00    0.10
  -1 -15  -8    0.00    0.50
  -1 -15   8    0.00    0.10
  -1  15  -8    0.00    0.10
   1  15   8    0.00    0.10
   1  15   8    0.00    0.10
   1 -15  -8    0.00    0.20
   1  15   8    0.00    0.50
   1 -15  -8    0.00    0.40
  -1  15  -8    0.00    0.10
   1   2 -15    0.00    0.10
  -2 -15  -1    0.00    0.10
   2 -15   1    0.00    0.10
   2 -15   1    0.00    0.20
  -2 -15  -1    0.00    0.10
  -1  -2 -15    0.00    0.20
  -1  -2 -15    0.00    0.10
   2  15  -1    0.00    0.10
   2  15  -1    0.00    0.10
  -2  15   1    0.00    0.30
  -2 -15  -1    0.00    0.30
   1  -2  15    0.00    0.10
  -2  15   1    0.00    0.10
  -1   2  15    0.00    0.20
  -1   2  15    0.00    0.10
   1   2 -15    0.00    0.10
   2  15  -1    0.00    0.30
   1  -2  15    0.00    0.10
  -1  -2 -15    0.00    0.20
  -1   2  15    0.00    0.10
   1   2  15    0.00    0.10
   2  15   1    0.00    0.10
   2  15   1    0.00    0.30
   1  -2 -15    0.00    0.10
  -2  15  -1    0.00    0.30
  -2 -15   1    0.00    0.10
  -1  -2  15    0.00    0.10
  -2  15  -1    0.00    0.20
   1  -2 -15    0.00    0.20
   1   2  15    0.00    0.10
  -2 -15   1    0.00    0.20
   2 -15  -1    0.00    0.30
  -1   2 -15    0.00    0.10
  -2  15  -1    0.00    0.10
   2 -15  -1    0.00    0.10
   1  -2 -15    0.00    0.10
  -2 -15   1    0.00    0.20
   1   2  15    0.00    0.20
   2 -15  -1    0.00    0.10
   3   2 -15    1.50    1.10
  -3   2  15    0.60    1.20
   3  -2  15    1.50    1.80
   2  15  -3    1.50    2.80
   2 -15   3    2.10    3.10
  -3  -2 -15    2.00    3.00
   2  15  -3    2.90    4.50
   3   2  15    1.70    2.30
   3   2  15    2.50    3.00
   2 -15  -3    4.20    5.40
  -3   2 -15    1.00    1.60
   2 -15   5    1.60    2.70
   5  -2  15    1.00    1.10
  -2  15   5    0.00    0.30
   2 -15   5    0.50    0.20
  -2 -15  -5    0.00    0.40
   2  15  -5    1.10    2.30
   2  15   5    1.80    4.30
   2  15   5    0.00    0.40
   2 -15  -5    0.00    0.40
   5  -2 -15    0.00    0.30
   2 -15   7    0.00    0.20
  -2 -15  -7    0.80    2.60
   2  15  -7    0.80    1.60
  -7  -2 -15    0.00    0.10
   2  15  -7    0.00    0.20
  -2 -15  -7    0.00    0.40
  -2  15   7    0.00    0.40
   2 -15   7    0.70    1.50
  -2  15   7    0.00    0.20
   2  15   7    0.00    0.50
   2 -15  -7    0.00    0.20
  -2  15  -7    0.00    0.10
   7   2  15    0.00    0.10
   2 -15  -7    0.70    2.20
   2  15   7    0.00    0.20
   2  15   7    0.00    0.20
   2 -15  -7    0.00    0.40
  -2 -15   7    0.00    0.20
   3 -15   0    7.30    7.20
   0  -3 -15    4.90    6.30
   0   3  15    2.70    3.00
   3 -15   0    2.30    2.30
  -3 -15   0    3.90    5.50
  -3  15   0    2.50    3.70
   0  -3 -15    3.10    2.80
  -3 -15   0    8.00    5.50
   3  15   0    3.70    4.60
   0   3  15    1.70    2.20
   2  -3  15    4.50    2.20
   2   3 -15    3.70    2.20
   3  15  -2    3.70    3.90
  -2  -3 -15    1.10    2.20
  -3 -15  -2    1.30    3.00
   3 -15   2    2.00    3.70
  -3  15  -2    0.60    1.10
   2  -3 -15    1.00    1.10
  -3 -15   2    1.80    3.50
  -3 -15   2    0.80    1.00
   2  -3 -15    1.50    1.90
   3  15   2    3.80    4.90
  -2   3 -15    1.80    2.10
   2   3  15    1.90    1.90
  -3 -15  -4    0.00    0.30
   3 -15   4    0.00    0.20
   4   3 -15    0.00    0.20
   3  15  -4    0.80    1.80
   3  15  -4    0.00    0.30
  -3  15   4    0.00    0.30
  -3  15   4    0.70    2.10
   4  -3  15    0.80    0.60
   3 -15   4    1.20    2.00
  -3 -15  -4    2.70    5.00
   3  15  -4    0.30    0.60
   4   3 -15    0.20    0.50
   3 -15  -4    0.00    0.30
   4   3  15    1.30    2.40
  -3 -15   4    0.60    1.30
   4  -3 -15    0.00    0.30
  -3  15  -4    0.80    1.80
   4  -3 -15    1.00    2.30
   3  15   4    0.00    0.40
   4   3  15    0.00    0.20
   3  15   4    1.70    3.90
  -3 -15  -6    0.00    0.40
  -3 -15  -6    0.00    0.10
   3 -15   6    0.00    0.10
   3 -15   6    0.00    0.20
  -6   3  15    0.00    0.20
   3  15  -6    0.00    0.10
   6  -3  15    0.00    0.10
  -3  15   6    0.00    0.20
   3  15  -6    0.00    0.20
  -3 -15  -6    0.00    0.20
   6  -3  15    0.00    0.20
  -3  15   6    0.00    0.40
  -6  -3 -15    0.00    0.10
   6  -3 -15    0.00    0.10
   3 -15  -6    0.00    0.10
  -6   3 -15    0.00    0.10
   6  -3 -15    0.00    0.40
  -3  15  -6    0.00    0.10
  -3 -15   6    0.00    0.10
   6   3  15    0.00    0.10
   3 -15  -6    0.00    0.40
   3  15   6    0.00    0.40
   6   3  15    0.00    0.30
   3  15   6    0.00    0.10
   3 -15   8    0.00    0.10
   3  15  -8    0.00    0.20
  -3 -15  -8    0.00    0.20
  -3  15   8    0.00    0.40
   3  15  -8    0.00    0.10
  -3 -15  -8    0.00    0.40
   3 -15   8    0.00    0.20
  -3 -15  -8    0.00    0.20
  -3 -15   8    0.00    0.10
   3 -15  -8    0.00    0.10
   3  15   8    0.00    0.20
   3  15   8    0.00    0.50
  -3  15  -8    0.00    0.10
   3 -15  -8    0.00    0.20
   3 -15  -8    0.00    0.40
  -1   4  15    0.00    0.20
   4 -15   1    0.00    0.20
  -4 -15  -1    0.00    0.10
  -4  15   1    0.00    0.40
   4 -15   1    0.00    0.10
  -1  -4 -15    0.00    0.20
  -4 -15  -1    0.00    0.10
  -1   4  15    0.00    0.10
  -1   4  15    0.00    0.20
   1   4 -15    0.00    0.10
   4  15  -1    0.00    0.10
   4 -15   1    0.00    0.30
   4  15  -1    0.00    0.30
  -1  -4 -15    0.00    0.20
  -4  15   1    0.00    0.10
   4  15  -1    0.00    0.10
  -1  -4 -15    0.00    0.10
  -4 -15  -1    0.00    0.30
   1   4 -15    0.00    0.10
   4  15   1    0.00    0.10
  -4  15  -1    0.00    0.10
   4  15   1    0.00    0.30
   4 -15  -1    0.00    0.10
   4 -15  -1    0.00    0.30
   1   4  15    0.00    0.10
   4 -15  -1    0.00    0.20
   1  -4 -15    0.00    0.10
  -4 -15   1    0.00    0.10
   1   4  15    0.00    0.10
   1  -4 -15    0.00    0.10
   1  -4 -15    0.00    0.20
  -4  15  -1    0.00    0.10
   1   4  15    0.00    0.30
  -1  -4  15    0.00    0.10
   4  15   1    0.00    0.10
  -4  15  -1    0.00    0.40
  -4 -15   1    0.00    0.10
  -3   4  15    0.00    0.10
  -3   4  15    0.00    0.10
   4  15  -3    0.00    0.20
   4  15  -3    0.00    0.10
   4 -15   3    0.00    0.10
  -4 -15  -3    0.00    0.10
  -4  15   3    0.00    0.10
  -4 -15  -3    0.00    0.30
   4 -15   3    0.00    0.30
   3  -4  15    0.10    0.30
   3   4 -15    0.10    0.30
  -3  -4 -15    0.00    0.20
  -3  -4 -15    0.00    0.10
  -4 -15  -3    0.00    0.10
  -4  15   3    0.00    0.50
   3   4 -15    0.00    0.10
  -3  -4 -15    0.00    0.10
   3  -4  15    0.00    0.10
   3   4  15    0.00    0.10
  -4  15  -3    0.00    0.10
  -4  15  -3    0.10    0.60
   4 -15  -3    0.00    0.40
   3  -4 -15    0.00    0.20
   3  -4 -15    0.00    0.10
   4  15   3    0.00    0.10
  -4 -15   3    0.00    0.10
   3   4  15    0.00    0.10
   3  -4 -15    0.00    0.10
  -3   4 -15    0.00    0.10
   3   4  15    0.00    0.30
   4  15   3    0.00    0.10
  -3  -4  15    0.00    0.10
   4  15   3    0.00    0.30
   5  -4  15    0.10    0.20
  -5  -4 -15    0.00    0.10
  -4 -15  -5    0.00    0.10
   5   4 -15    0.00    0.10
  -4 -15  -5    0.00    0.30
   5  -4  15    0.00    0.10
   5   4 -15    0.00    0.20
   4  15  -5    0.00    0.10
  -5   4  15    0.00    0.20
  -4  15   5    0.00    0.20
   4 -15   5    0.00    0.20
  -4 -15  -5    0.00    0.20
   4  15  -5    0.00    0.20
   4 -15   5    0.00    0.10
  -4  15   5    0.00    0.50
   5   4  15    0.00    0.10
   4 -15  -5    0.00    0.20
  -4  15  -5    0.00    0.10
   5  -4 -15    0.00    0.40
   4 -15  -5    0.00    0.40
   5   4  15    0.00    0.20
  -4 -15   5    0.00    0.10
  -5   4 -15    0.00    0.10
   4  15   5    0.00    0.40
  -5  -4  15    0.00    0.10
   5  -4 -15    0.00    0.10
   4 -15  -5    0.00    0.10
  -4  15   7    0.00    0.10
   4  15  -7    0.00    0.20
  -4 -15  -7    0.00    0.20
  -4  15   7    0.00    0.40
  -4 -15  -7    0.00    0.30
   4  15  -7    0.00    0.10
   4 -15   7    0.00    0.10
   4 -15   7    0.00    0.20
  -7  -4 -15    0.00    0.10
   7   4  15    0.00    0.10
   4 -15  -7    0.00    0.40
   4 -15  -7    0.00    0.10
   4  15   7    0.00    0.50
  -4 -15   7    0.00    0.10
   7   4  15    0.00    0.50
   4  15   7    0.00    0.20
   4 -15  -7    0.00    0.10
  -4  15  -7    0.00    0.10
   4  15   7    0.00    0.10
   0   5  15    4.40    3.60
   0   5  15    3.30    3.70
   5 -15   0    1.00    2.80
   0  -5 -15    1.70    3.60
  -5 -15  -2    3.80    4.60
   5 -15   2    3.80    5.10
   2  -5 -15    0.70    1.20
   5 -15  -2    4.50    7.30
   5 -15   4    0.00    0.30
   5  15  -4    0.00    0.30
  -4  -5 -15    0.00    0.10
  -4  -5 -15    0.00    0.10
   5 -15   4    0.00    0.10
   4   5 -15    0.00    0.10
  -4   5  15    0.00    0.10
  -5  15   4    0.00    0.10
  -5  15   4    0.00    0.50
  -5  15   4    0.00    0.20
   4  -5  15    0.00    0.10
   4   5 -15    0.00    0.10
  -4   5  15    0.00    0.20
   5  15  -4    0.00    0.10
  -5 -15   4    0.00    0.10
   4   5  15    0.00    0.30
   4  -5 -15    0.00    0.20
   5  15   4    0.00    0.10
   4   5  15    0.00    0.10
   5 -15  -4    0.00    0.40
   4  -5 -15    0.00    0.10
  -4  -5  15    0.00    0.10
   5 -15  -4    0.00    0.20
   5 -15  -4    0.00    0.10
   4   5  15    0.00    0.10
  -5  15  -4    0.00    0.20
  -4   5 -15    0.00    0.10
   5  15   4    0.00    0.40
   4  -5 -15    0.00    0.30
   5  15  -6    0.00    0.20
  -5  15   6    0.00    0.10
   5  15  -6    0.00    0.10
  -6  -5 -15    0.00    0.10
   6  -5  15    0.00    0.10
  -5  15   6    0.00    0.20
   5 -15   6   -0.10    0.20
  -6   5  15    0.00    0.20
  -5 -15  -6    0.00    0.20
   6  -5  15    0.00    0.20
  -5  15   6    0.00    0.60
  -5 -15  -6    0.00    0.30
   5 -15   6    0.00    0.10
  -5 -15   6    0.00    0.10
  -5  15  -6    0.00    0.10
   6  -5 -15    0.00    0.50
   6  -5 -15    0.00    0.10
   5 -15  -6    0.00    0.40
   5 -15  -6    0.00    0.20
   6   5  15    0.00    0.10
   5  15   6    0.00    0.40
  -6   5 -15    0.00    0.10
   6   5  15    0.00    0.30
  -1   6  15    0.00    0.30
  -6  15   1    0.00    0.30
   6  15  -1    0.00    0.30
  -1   6  15    0.00    0.10
  -1  -6 -15    0.00    0.10
  -1   6  15    0.00    0.20
   6 -15   1    0.00    0.10
   6  15  -1    0.00    0.10
  -1  -6 -15    0.00    0.20
   6 -15   1    0.00    0.40
  -6 -15  -1    0.00    0.20
  -1  -6 -15    0.00    0.30
   1  -6 -15    0.00    0.20
  -6  15  -1    0.00    0.20
   1   6  15    0.00    0.30
   6  15   1    0.00    0.10
   1  -6 -15    0.00    0.10
   6 -15  -1    0.00    0.10
   1   6  15    0.00    0.10
  -6 -15   1    0.00    0.20
   6  15   1    0.00    0.40
   6 -15  -1    0.00    0.40
   1   6  15    0.00    0.10
   1  -6 -15    0.00    0.30
  -6  15   3    0.00    0.10
  -3   6  15    0.00    0.10
  -3  -6 -15    0.00    0.20
   6 -15   3    0.00    0.30
   6  15  -3    0.00    0.10
  -3  -6 -15    0.00    0.30
  -6 -15  -3    0.00    0.30
  -3   6  15    0.00    0.40
  -3  -6 -15    0.00    0.10
  -3   6  15    0.00    0.20
   6  15  -3    0.00    0.30
  -6  15   3    0.00    0.30
   3   6 -15    0.00    0.10
   6 -15   3    0.00    0.10
   3  -6 -15    0.00    0.10
   6  15   3    0.00    0.40
   3   6  15    0.00    0.20
   3   6  15    0.00    0.10
  -6  15  -3    0.00    0.20
   6 -15  -3    0.00    0.50
   3  -6 -15    0.00    0.30
   3   6  15    0.00    0.30
   3  -6 -15    0.00    0.10
  -6 -15   3    0.00    0.20
  -5  -6 -15    0.00    0.20
  -5   6  15    0.00    0.10
   5  -6  15    0.00    0.10
   6  15  -5    0.00    0.10
  -6 -15  -5    0.00    0.10
   6 -15   5    0.00    0.10
   5   6 -15    0.00    0.10
   5   6 -15    0.00    0.10
   6  15  -5    0.00    0.30
   6 -15   5    0.00    0.30
   5  -6  15    0.00    0.10
  -6  15   5    0.00    0.30
  -6 -15  -5    0.00    0.20
   6  15   5    0.00    0.10
  -5  -6  15    0.00    0.10
   6 -15  -5    0.00    0.30
   5   6  15    0.00    0.10
   6 -15  -5    0.00    0.10
   6  15   5    0.00    0.20
  -5   6 -15    0.00    0.10
   5  -6 -15    0.00    0.40
   5  -6 -15    0.00    0.10
  -6  15  -5    0.00    0.20
   6  15   5    0.00    0.40
  -6 -15   5    0.00    0.20
   5   6  15    0.00    0.30
   6 -15  -5    0.00    0.50
  -7 -15   0    0.00    0.20
   0  -7 -15    1.10    2.90
   0  -7 -15    0.00    0.20
   0   7  15    0.00    0.20
   7 -15   0    0.00    0.10
   0   7  15    0.00    0.30
   0  -7 -15    0.00    0.30
  -7  15   0    0.00    0.30
   7 -15   0    0.00    0.40
   0   7  15    0.60    1.40
  -2  -7 -15    0.80    1.90
  -2   7  15    0.00    0.20
   7 -15   2    0.00    0.10
  -7 -15  -2    0.00    0.20
  -2  -7 -15    0.00    0.20
  -2   7  15    1.00    2.20
  -2   7  15    0.00    0.30
  -2  -7 -15    0.00    0.30
   2  -7 -15    0.00    0.30
  -7  15  -2    0.00    0.20
   2   7  15    1.00    2.50
   2  -7 -15    0.60    1.70
   7 -15  -2    0.00    0.10
   2   7  15    0.00    0.10
   2   7  15    0.00    0.40
   7  15   2    0.00    0.50
   7 -15  -2    0.00    0.50
   4   7 -15    0.00    0.10
  -4  -7 -15    0.00    0.30
   7 -15   4    0.00    0.10
  -4   7  15    0.00    0.20
  -7 -15  -4    0.00    0.20
  -4  -7 -15    0.00    0.20
  -4  -7 -15    0.00    0.10
  -4   7  15    0.00    0.10
  -4   7  15    0.00    0.40
   7 -15   4    0.00    0.30
   7 -15  -4    0.00    0.50
   4   7  15    0.00    0.10
   4  -7 -15    0.00    0.30
   4  -7 -15    0.00    0.10
   7  15   4    0.00    0.50
   4   7  15    0.00    0.30
  -7  15  -4    0.00    0.20
   4  -7 -15    0.00    0.20
   7 -15  -4    0.00    0.20
  -1   8  15    0.00    0.30
  -1   8  15    0.00    0.10
  -1   8  15    0.00    0.20
  -1  -8 -15    0.00    0.10
  -1  -8 -15    0.00    0.30
  -1  -8 -15    0.00    0.20
   1  -8 -15    0.00    0.40
   1  -8 -15    0.00    0.20
   1   8  15    0.00    0.40
   1  -8 -15    0.00    0.10
   1   8  15    0.00    0.10
  -3   8  15    0.00    0.20
  -3  -8 -15    0.00    0.30
  -3   8  15    0.00    0.40
  -3  -8 -15    0.00    0.20
  -3  -8 -15    0.00    0.10
   3   8  15    0.00    0.10
   3  -8 -15    0.00    0.30
   3   8  15    0.00    0.40
   3  -8 -15    0.00    0.20
   0   9  15    0.00    0.20
   0  -9 -15    0.00    0.10
   0  -9 -15    0.00    0.40
   0  -9 -15    0.00    0.20
   0   9  15    0.00    0.40
   0   0  16  401.06   33.80
   0   0 -16  350.76   29.60
   0 -16   0  434.66   51.09
   0   0 -16  423.96   28.80
   0   0  16  428.36   30.30
   0  16   0  394.76   42.90
   0 -16   0  386.26   40.60
   0  16   0  442.66   53.19
   0   0 -16  456.25   35.80
   0 -16   2  373.06   42.80
   0 -16   2  358.96   35.30
   0 -16  -2  359.66   46.70
   2   0 -16  361.66   28.30
   0  16  -2  316.37   36.30
   0  16   2  354.96   49.99
   0 -16  -2  383.76   42.10
   0  16  -2  344.57   42.30
   2   0  16  352.06   31.80
  -2   0 -16  404.66   44.90
  -2   0  16  407.66   40.20
   0  16  -2  299.87   33.80
   2   0 -16  360.46   32.30
   0  16   2  335.87   41.90
   0  16   4  168.78   31.20
  -4   0  16  204.38   27.30
   0 -16  -4  207.68   32.90
   0 -16   4  192.08   27.40
   0  16  -4  201.98   29.70
   4   0 -16  208.78   26.50
   4   0  16  207.08   24.70
   0 -16   4  199.48   23.80
   0 -16  -4  235.18   43.30
   4   0  16  199.08   21.40
   0  16  -4  183.98   23.80
   6   0  16   78.09   13.70
   0 -16  -6   72.79   19.80
  -6   0 -16   74.89   18.10
   0  16  -6   65.89   13.80
   0  16  -6   90.59   15.00
   0 -16   6   84.59   14.50
   0  16  -6   80.49   16.50
   0 -16   6   72.39   17.20
   0 -16   6   88.59   13.80
  -1   1  16    0.00    0.10
   1   1 -16    0.00    0.10
  -1 -16  -1    0.00    0.10
  -1  -1 -16    0.00    0.20
   1 -16   1    0.00    0.20
  -1  16   1    0.00    0.10
  -1 -16  -1    0.00    0.20
  -1  -1 -16    0.00    0.10
  -1  -1 -16    0.00    0.20
   1  16  -1    0.00    0.10
   1 -16   1    0.00    0.10
  -1   1  16    0.00    0.20
   1  -1  16    0.00    0.10
   1   1 -16    0.00    0.20
  -1  16   1    0.00    0.20
  -1  16   1    0.00    0.30
   1  16  -1    0.00    0.30
   1 -16   1    0.00    0.30
  -1 -16  -1    0.00    0.30
   1  -1  16    0.00    0.10
  -1   1  16    0.00    0.10
   1  16  -1    0.00    0.10
   1  -1  16    0.00    0.10
  -1 -16   1    0.00    0.10
   1  -1 -16    0.00    0.20
   1  16   1    0.00    0.10
  -1  16  -1    0.00    0.10
  -1  16  -1    0.00    0.20
   1 -16  -1    0.00    0.20
   1   1  16    0.00    0.20
  -1   1 -16    0.00    0.10
  -1 -16   1    0.00    0.30
  -1 -16   1    0.00    0.20
   1   1  16    0.00    0.10
   1  -1 -16    0.00    0.10
   1 -16  -1    0.00    0.10
   1  16   1    0.00    0.10
   1  -1 -16    0.00    0.10
   1   1  16    0.00    0.10
  -1  16  -1    0.00    0.30
   1  16   1    0.00    0.40
   1 -16  -1    0.00    0.30
  -1   1 -16    0.00    0.10
  -1  -1  16    0.00    0.10
   1 -16   3    0.00    0.10
   1  16  -3    0.00    0.10
   1  16  -3    0.00    0.10
  -1 -16  -3    0.00    0.30
   1 -16   3    0.00    0.20
  -1  16   3    0.00    0.10
  -1  16   3    0.00    0.20
   3  -1  16    0.00    0.20
  -3   1  16    0.00    0.10
   3   1 -16    0.00    0.10
  -3  -1 -16    0.00    0.10
   3  -1  16    0.00    0.10
  -1  16   3    0.00    0.30
   3   1 -16    0.00    0.10
   1  16  -3    0.00    0.30
   1 -16   3    0.00    0.10
  -1 -16  -3    0.00    0.10
  -1  16  -3    0.00    0.30
   3  -1 -16    0.00    0.10
  -1 -16   3    0.00    0.10
   1 -16  -3    0.00    0.10
  -3   1 -16    0.00    0.10
   1  16   3    0.00    0.40
  -1 -16   3    0.00    0.20
   1  16   3    0.00    0.10
  -1  16  -3    0.00    0.10
   3   1  16    0.00    0.10
   1 -16  -3    0.00    0.30
  -1 -16   3    0.00    0.20
   3  -1 -16    0.00    0.20
   1 -16  -3    0.00    0.40
  -1  16  -3    0.00    0.10
   3   1  16    0.00    0.20
  -3  -1  16    0.00    0.10
   1 -16   5    0.00    0.10
  -1  16   5    0.00    0.20
  -5  -1 -16    0.00    0.10
  -1 -16  -5    0.00    0.40
  -1  16   5    0.00    0.10
  -1 -16  -5    0.00    0.10
  -5   1  16    0.00    0.10
  -1 -16  -5    0.00    0.20
   1 -16   5    0.00    0.20
  -1  16   5    0.00    0.40
   1  16  -5    0.00    0.10
   5  -1  16    0.00    0.20
   1 -16   5    0.00    0.10
   1  16  -5    0.00    0.10
   5  -1  16    0.00    0.10
   5   1 -16    0.00    0.30
   1  16  -5    0.00    0.20
   5   1 -16    0.00    0.10
   5  -1 -16    0.00    0.10
  -1 -16   5    0.00    0.20
  -5   1 -16    0.00    0.10
  -5  -1  16    0.00    0.10
  -1 -16   5    0.00    0.20
  -1  16  -5    0.00    0.10
   1 -16  -5    0.00    0.40
   1  16   5    0.00    0.20
   1  16   5    0.00    0.50
   5  -1 -16    0.00    0.30
  -1  16  -5    0.00    0.10
   5   1  16    0.00    0.20
  -1 -16   5    0.00    0.10
   5   1  16    0.00    0.10
  -1  16  -5    0.00    0.20
   1 -16  -5    0.00    0.20
  -1  16   7    0.00    0.40
  -1 -16  -7    0.00    0.40
   1  16  -7    0.00    0.20
   7  -1  16    0.00    0.30
   1 -16   7    0.00    0.20
  -1 -16  -7    0.00    0.10
  -1  16   7    0.00    0.20
  -7  -1 -16    0.00    0.10
   7  -1  16    0.00    0.10
   1 -16   7    0.00    0.10
   1  16  -7    0.00    0.10
   1 -16   7    0.00    0.10
  -1  16   7    0.00    0.20
   1  16  -7    0.00    0.10
  -1 -16   7    0.00    0.10
   7   1  16    0.00    0.40
  -1  16  -7    0.00    0.10
   1 -16  -7    0.00    0.50
  -1  16  -7    0.00    0.30
  -1 -16   7    0.00    0.20
   1 -16  -7    0.00    0.20
   1  16   7    0.00    0.10
  -1  16  -7    0.00    0.10
   1  16   7    0.00    0.50
   7   1  16    0.00    0.10
   0  -2 -16  366.66   36.20
  -2 -16   0  361.76   37.30
  -2  16   0  368.66   46.30
   2 -16   0  329.77   41.50
   2  16   0  352.66   44.10
   2 -16   0  328.17   36.40
   0  -2  16  405.26   24.30
   0  -2 -16  370.46   30.90
   0   2  16  393.26   31.50
  -2 -16   0  331.37   38.00
   0   2 -16  334.47   23.90
  -2  16   0  330.37   37.00
   0   2  16  353.56   33.70
   0   2 -16  406.56   36.90
   0   2 -16  386.66   23.10
   0  -2 -16  410.96   41.90
   2  16   0  357.66   53.29
   2 -16   0  352.16   47.00
   0  -2  16  373.86   28.40
  -2 -16   0  297.97   43.90
   2   2 -16  298.17   25.50
   2  -2  16  349.67   22.10
  -2  -2 -16  335.87   47.70
  -2 -16  -2  361.56   40.30
  -2   2  16  335.17   41.20
  -2  -2 -16  333.97   32.20
  -2   2  16  314.17   34.10
   2 -16   2  252.37   35.90
   2 -16   2  294.97   32.40
   2  16  -2  245.98   34.10
  -2  16   2  326.27   40.10
  -2  -2 -16  345.07   29.30
   2  16  -2  289.87   44.40
   2  -2  16  331.57   25.40
   2 -16   2  301.77   38.00
   2   2 -16  315.37   23.00
  -2 -16   2  304.87   31.10
   2  16   2  277.07   41.60
  -2  16  -2  318.17   35.80
   2  -2 -16  332.07   40.20
   2 -16  -2  313.37   38.10
   2   2  16  324.87   29.20
  -2 -16   2  297.67   33.90
   2 -16  -2  322.57   43.80
   2   2  16  312.67   35.30
   2  -2 -16  323.27   30.10
   2  -2 -16  329.07   34.60
   2 -16  -2  266.77   42.00
   2   2  16  303.27   30.40
  -2   2 -16  329.27   32.80
  -2  -2  16  315.57   27.50
  -2  16  -2  312.97   41.70
  -4  -2 -16  185.48   29.10
   4  -2  16  170.58   19.60
   4  -2  16  165.68   17.00
   4   2 -16  150.88   17.20
   4   2 -16  163.28   21.30
   2  16  -4  140.69   23.00
  -4   2  16  160.98   26.90
   2 -16   4  138.19   26.10
   2  16  -4  159.28   28.90
   2 -16   4  134.39   19.90
   2 -16   4  145.69   24.30
  -2 -16  -4  180.98   35.10
  -2 -16  -4  148.29   27.30
  -4  -2  16  161.48   21.30
   4   2  16  145.29   20.40
   4  -2 -16  162.58   25.10
  -2 -16   4  167.68   24.80
   4   2  16  179.68   26.10
   2 -16  -4  138.59   26.70
  -2 -16   4  167.68   21.40
  -2  16  -4  146.49   26.80
   4  -2 -16  176.48   23.50
  -2  16  -4  151.88   24.00
   2 -16   6   55.59   12.50
  -2 -16  -6   34.00   15.20
   6  -2  16   56.39   10.60
   2 -16   6   52.49   10.90
  -2  16   6   36.30   16.10
   6  -2  16   67.99   13.20
   2  16  -6   53.19   12.40
   2  16  -6   59.79   15.60
  -6  -2 -16   48.20   16.10
  -2  16  -6   58.69   13.20
   6   2  16   72.39   16.60
  -2 -16   6   65.59   14.30
  -6   2 -16   54.99   14.00
  -2  16  -6   66.09   16.00
   6   2  16   60.29   13.20
   2  16   6   59.99   25.50
   2 -16  -6   67.59   22.60
  -3 -16  -1    0.00    0.30
   3  16  -1    0.00    0.10
  -3  16   1    0.00    0.20
  -3  16   1    0.00    0.10
  -1  -3 -16    0.00    0.10
   3  16  -1    0.00    0.30
  -1  -3 -16    0.00    0.20
  -1   3  16    0.00    0.20
   3  16  -1    0.00    0.10
  -1   3  16    0.00    0.10
   3 -16   1    0.00    0.30
  -1   3  16    0.00    0.10
   1   3 -16    0.00    0.10
  -3 -16  -1    0.00    0.10
   1   3 -16    0.00    0.10
   3 -16   1    0.00    0.10
   1  -3  16    0.00    0.10
  -3  16   1    0.00    0.40
  -1  -3 -16    0.00    0.20
  -3  16  -1    0.00    0.10
   1  -3 -16    0.00    0.10
   3 -16  -1    0.00    0.10
   1  -3 -16    0.00    0.10
  -3 -16   1    0.00    0.10
   3 -16  -1    0.00    0.10
   1   3  16    0.00    0.20
  -3 -16   1    0.00    0.30
   3  16   1    0.00    0.10
   1  -3 -16    0.00    0.20
   3  16   1    0.00    0.40
   3  16   1    0.00    0.20
   1   3  16    0.00    0.10
   3 -16  -1    0.00    0.30
  -1   3 -16    0.00    0.10
  -3  16  -1    0.00    0.30
  -3 -16   1    0.00    0.20
   1   3  16    0.00    0.10
  -1  -3  16    0.00    0.10
  -3  16  -1    0.00    0.20
   3  16  -3    0.00    0.10
   3   3 -16    0.00    0.10
   3 -16   3    0.00    0.20
   3  -3  16    0.00    0.10
   3 -16   3    0.00    0.20
  -3  -3 -16    0.00    0.20
  -3  -3 -16    0.00    0.10
   3  16  -3    0.00    0.10
  -3  16   3    0.00    0.20
   3 -16   3    0.00    0.10
  -3 -16  -3    0.00    0.30
  -3   3  16    0.00    0.20
   3  16  -3    0.00    0.30
   3  -3  16    0.00    0.10
   3   3 -16    0.00    0.10
  -3  16   3    0.00    0.40
  -3 -16  -3    0.00    0.10
  -3   3  16    0.00    0.10
   3   3  16    0.00    0.10
   3  16   3    0.00    0.10
  -3  16  -3    0.00    0.10
  -3  16  -3    0.00    0.20
  -3  16  -3    0.00    0.40
  -3  -3  16    0.00    0.10
   3 -16  -3    0.00    0.10
   3   3  16    0.00    0.10
   3  -3 -16    0.00    0.20
   3   3  16    0.00    0.30
   3 -16  -3    0.00    0.30
   3  16   3    0.00    0.40
   3  -3 -16    0.00    0.20
   3  -3 -16    0.00    0.10
  -3 -16   3    0.00    0.10
   3  16   3    0.00    0.20
  -3   3 -16    0.00    0.10
   3 -16  -3    0.00    0.10
  -3 -16   3    0.00    0.10
  -5  -3 -16    0.00    0.10
   3  16  -5    0.00    0.10
  -3 -16  -5    0.00    0.10
   3 -16   5    0.00    0.20
   5   3 -16    0.00    0.10
  -3  16   5    0.00    0.40
  -5   3  16    0.00    0.10
   5  -3  16    0.00    0.10
  -3  16   5    0.00    0.20
   5   3 -16    0.00    0.20
   3 -16   5    0.00    0.10
   3 -16   5    0.00    0.20
   3  16  -5    0.00    0.30
   5  -3  16    0.00    0.10
  -3  16   5    0.00    0.10
  -3 -16  -5    0.00    0.40
   5   3  16    0.00    0.20
  -5   3 -16    0.00    0.10
   5   3  16    0.00    0.10
   3  16   5    0.00    0.40
  -3 -16   5    0.00    0.10
  -5  -3  16    0.00    0.10
   3  16   5    0.00    0.20
   3 -16  -5    0.00    0.10
   3 -16  -5    0.00    0.10
  -3  16  -5    0.00    0.10
   5  -3 -16    0.00    0.30
   3  16   5    0.00    0.10
   3 -16  -5    0.00    0.40
   5  -3 -16    0.00    0.10
  -3  16  -5    0.00    0.10
   4  16   0  139.29   25.90
  -4  16   0  155.58   31.00
   4 -16   0  174.68   30.90
   0   4  16  146.79   21.00
   0  -4 -16  203.18   26.30
   4 -16   0  193.18   28.90
  -4  16   0  140.49   27.80
   0   4  16  189.88   27.70
  -4 -16   0  175.08   30.00
   0   4  16  204.68   28.30
   0  -4 -16  162.88   33.80
  -4  16   2  128.49   32.00
   2  -4  16  149.99   14.20
  -2   4  16  155.18   27.90
  -4 -16  -2  112.19   21.80
  -2   4  16  113.49   20.50
   4  16  -2  108.89   21.90
   4 -16   2  137.69   25.20
   2  -4  16  154.98   12.60
  -2  -4 -16  117.49   30.30
   2   4 -16  137.89   11.40
   2   4 -16  136.69   13.30
  -2   4  16  128.89   28.10
   4 -16   2  144.49   23.00
  -2  -4 -16  127.79   19.40
  -2  -4 -16  149.88   23.40
   4 -16  -2  110.09   27.50
   2  -4 -16  149.49   22.30
  -2  -4  16  136.49   11.40
   2  -4 -16  149.88   25.50
  -4  16  -2  142.19   29.60
   2   4  16  151.98   25.40
   4 -16  -2  141.49   29.70
   4 -16  -2  126.59   24.70
  -2   4 -16  153.18   14.00
   2   4  16  104.49   19.60
   2  -4 -16  130.09   25.80
   2   4  16  161.48   28.20
  -4 -16   2  133.19   24.90
   4 -16   4   91.69   19.00
   4   4 -16   89.29   12.50
   4  -4  16   99.49   13.40
   4   4 -16   85.59   10.70
  -4  -4 -16   98.69   19.80
  -4   4  16   72.39   19.70
   4  -4  16   88.39   10.70
   4  16  -4   83.89   18.80
  -4  16   4   59.79   22.70
  -4  -4 -16   79.29   20.60
   4   4  16   63.39   14.90
   4   4  16  101.69   21.20
   4 -16  -4   69.39   19.20
   4  -4 -16   81.29   17.40
  -4  -4  16   77.49   12.60
   4  -4 -16  102.89   22.10
   4  16   4   82.49   21.70
   4  16   4   65.39   21.80
  -4   4 -16  101.59   14.80
  -6  -4 -16   14.40   10.50
  -4  16   6    8.10    7.70
  -6   4  16    8.60    7.70
  -4  16   6    7.80    7.20
   4  16  -6   28.90   10.40
   4 -16   6   24.00    8.30
  -4 -16  -6    9.90    7.10
  -4 -16   6   15.00    7.90
   4  16   6   13.60   10.00
   4  16   6   14.40   10.10
  -4  16  -6   13.60    7.50
  -6   4 -16   13.40    5.80
   4 -16  -6   18.30   10.60
   4 -16  -6    9.00    6.90
  -1   5  16    0.00    0.30
  -5  16   1    0.00    0.10
  -1  -5 -16    0.00    0.10
  -5  16   1    0.00    0.20
  -1  -5 -16    0.00    0.20
   5  16  -1    0.00    0.30
   5  16  -1    0.00    0.10
  -1   5  16    0.00    0.10
  -1  -5 -16    0.00    0.30
   5 -16   1    0.00    0.30
   5 -16   1    0.00    0.10
  -5 -16  -1    0.00    0.10
  -1   5  16    0.00    0.20
   5 -16  -1    0.00    0.40
   1   5  16    0.00    0.10
   1  -5 -16    0.00    0.20
   1   5  16    0.00    0.10
   1   5  16    0.00    0.30
   1  -5 -16    0.00    0.30
   5  16   1    0.00    0.20
   5 -16  -1    0.00    0.10
   5  16   1    0.00    0.40
  -5 -16   1    0.00    0.20
  -5  16  -1    0.00    0.10
   1  -5 -16    0.00    0.10
  -5  16   3    0.00    0.50
   5  16  -3    0.00    0.10
   5 -16   3    0.00    0.30
   5  16  -3    0.00    0.30
   3  -5  16    0.00    0.10
   3   5 -16    0.00    0.10
  -3   5  16    0.00    0.10
  -3   5  16    0.00    0.40
   5 -16   3    0.00    0.10
  -3  -5 -16    0.00    0.10
  -3   5  16    0.00    0.20
  -5 -16  -3    0.00    0.20
   3   5 -16    0.00    0.10
  -3  -5 -16    0.00    0.20
  -3  -5 -16    0.00    0.20
   5 -16  -3    0.00    0.40
   3   5  16    0.00    0.10
   3  -5 -16    0.00    0.10
  -3  -5  16    0.00    0.10
   5  16   3    0.00    0.10
   5 -16  -3    0.00    0.10
   3   5  16    0.00    0.30
   5  16   3    0.00    0.40
   3   5  16    0.00    0.10
   5 -16  -3    0.00    0.20
  -5 -16   3    0.00    0.20
   5  16   3    0.00    0.20
   3  -5 -16    0.00    0.20
  -5  16  -3    0.00    0.20
   3  -5 -16    0.00    0.30
   5 -16   5    0.00    0.20
  -5 -16  -5    0.00    0.20
   5   5 -16    0.00    0.10
  -5   5  16    0.00    0.10
   5  -5  16    0.10    0.40
   5  -5  16    0.00    0.10
   5  16  -5    0.00    0.10
  -5  16   5    0.00    0.50
  -5 -16  -5    0.00    0.40
   5 -16   5    0.00    0.10
   5   5 -16    0.00    0.20
  -5  16   5    0.00    0.20
  -5  16   5    0.00    0.10
  -5  -5 -16    0.00    0.20
   5  16  -5    0.00    0.20
   5  16   5    0.00    0.10
  -5  -5  16    0.00    0.10
   5   5  16    0.20    0.70
   5 -16  -5    0.00    0.10
   5  -5 -16    0.00    0.30
  -5   5 -16    0.00    0.10
  -5  16  -5    0.00    0.10
   5  16   5    0.00    0.40
   5  -5 -16    0.00    0.10
   5   5  16    0.00    0.30
   5  16   5    0.00    0.20
   5 -16  -5    0.00    0.40
  -5 -16   5    0.00    0.20
   0  -6 -16   44.50   18.90
   0   6  16   60.89   16.60
   6 -16   0   54.09   20.70
  -6 -16   0   35.30   17.80
   0   6  16   47.30   13.20
  -6  16   0   42.20   20.60
   0  -6 -16   54.09   14.80
  -6  16   2   10.40    9.20
  -2   6  16   22.90   10.20
  -6 -16  -2   17.70   14.00
  -2  -6 -16   32.60   11.90
   6 -16   2   25.00   12.90
  -2  -6 -16   31.00   15.80
  -2   6  16   16.20   11.30
  -6  16  -2   20.40   13.90
   2  -6 -16   32.10   12.40
   2   6  16   36.70   14.20
   6 -16  -2   17.30   11.00
  -6 -16   2   18.10   13.30
  -4  -6 -16   18.00    9.90
   6 -16   4    7.80    5.50
  -4   6  16   11.40    8.50
  -6  16  -4   11.50   10.10
   4  -6 -16   13.30   10.70
   4   6  16   24.10   11.70
  -6 -16   4   12.20   10.30
   4  -6 -16   23.90   11.20
  -1  -7 -16    0.00    0.30
  -1   7  16    0.00    0.30
   7 -16   1    0.00    0.10
   7  16  -1    0.00    0.40
  -1   7  16    0.00    0.10
  -7 -16  -1    0.00    0.30
  -1  -7 -16    0.00    0.30
  -1   7  16    0.00    0.20
   7  16  -1    0.00    0.10
  -7  16   1    0.00    0.20
   7 -16   1    0.00    0.40
  -1  -7 -16    0.00    0.10
   1   7  16    0.00    0.30
   1   7  16    0.00    0.10
  -7 -16   1    0.00    0.20
   7  16   1    0.00    0.40
  -7  16  -1    0.00    0.30
   7  16   1    0.00    0.10
   7 -16  -1    0.00    0.50
   1  -7 -16    0.00    0.10
   1  -7 -16    0.00    0.20
   1  -7 -16    0.00    0.30
   1   7  16    0.00    0.20
   0  17   1    0.00    0.10
   1   0 -17    0.00    0.10
   1   0  17    0.00    0.10
   1   0 -17    0.00    0.20
  -1   0 -17    0.00    0.20
   0 -17  -1    0.00    0.40
   0 -17   1    0.00    0.30
   1   0  17    0.00    0.20
  -1   0  17    0.00    0.10
   0 -17  -1    0.00    0.10
  -1   0  17    0.00    0.10
   0  17   1    0.00    0.10
  -1   0 -17    0.00    0.10
   0  17  -1    0.00    0.10
   0  17  -1    0.00    0.30
   1   0  17    0.00    0.10
   0 -17  -1    0.00    0.20
   1   0 -17    0.00    0.20
   0 -17   1    0.00    0.20
   0  17  -1    0.00    0.10
  -1   0 -17    0.00    0.10
   0 -17   1    0.00    0.10
   0  17   1    0.00    0.40
   0  17  -3    0.60    1.90
   0  17   3    0.00    0.10
   0 -17   3    0.10    0.20
   0  17  -3    0.00    0.30
   0  17   3    0.00    0.40
   3   0 -17    0.00    0.20
  -3   0 -17    0.00    0.20
   0  17  -3    0.00    0.20
   0 -17   3    0.00    0.30
   0 -17  -3    0.00    0.20
   0 -17   3    0.00    0.20
   3   0 -17    0.20    0.50
   0 -17  -3    0.00    0.40
   0 -17  -3    0.00    0.10
   3   0  17    0.00    0.20
  -3   0  17    0.00    0.10
  -1  17   0    0.00    0.10
  -1  17   0    0.00    0.30
  -1 -17   0    0.00    0.10
   0   1  17    0.00    0.10
   1 -17   0    0.00    0.20
   1  17   0    0.00    0.20
  -1 -17   0    0.00    0.30
   0   1  17    0.00    0.10
   0  -1 -17    0.00    0.10
   0  -1  17    0.00    0.20
   0   1 -17    0.00    0.10
   0   1  17   -0.10    0.20
   1 -17   0    0.00    0.30
   1  17   0    0.00    0.40
   1 -17   0    0.00    0.10
   1  17   0    0.00    0.10
   0  -1  17    0.00    0.10
   0   1 -17    0.00    0.10
  -1 -17   0    0.00    0.30
   0  -1 -17    0.00    0.10
   0  -1  17    0.00    0.10
   0  -1 -17    0.00    0.20
  -1  17   0    0.00    0.20
   0   1 -17    0.00    0.10
   1  17  -2    0.00    0.10
  -1 -17  -2    0.00    0.30
  -1  17   2    0.00    0.40
   1 -17   2    0.00    0.30
  -2  -1 -17    0.00    0.10
   2   1 -17    0.00    0.10
   1  17  -2    0.00    0.30
  -1  17   2    0.00    0.10
   2  -1  17    0.00    0.10
   2  -1  17    0.00    0.10
  -1  17   2    0.00    0.20
   1 -17   2    0.00    0.10
   1  17  -2    0.00    0.10
  -1 -17  -2    0.00    0.10
  -2   1  17    0.00    0.10
   1 -17   2    0.00    0.20
  -2  -1 -17    0.00    0.20
   2   1 -17    0.00    0.20
   1 -17  -2    0.00    0.40
   1  17   2    0.00    0.40
  -1 -17   2    0.00    0.30
  -1  17  -2    0.00    0.10
  -1 -17   2    0.00    0.20
   2  -1 -17    0.00    0.10
  -1 -17   2    0.00    0.10
   1  17   2    0.00    0.10
   2   1  17    0.00    0.20
  -1  17  -2    0.00    0.20
   2   1  17    0.00    0.10
   1 -17  -2    0.00    0.20
  -1  17  -2    0.00    0.30
  -2   1 -17    0.00    0.10
   1 -17  -2    0.00    0.10
   2  -1 -17    0.00    0.20
   2   1  17    0.00    0.10
  -2  -1  17    0.00    0.10
  -4  -1 -17    0.00    0.10
  -4   1  17    0.00    0.10
   4  -1  17    0.00    0.20
   4   1 -17    0.00    0.10
  -1  17   4    0.00    0.10
  -1 -17  -4    0.00    0.10
   1  17  -4    0.00    0.10
  -1  17   4    0.00    0.30
   1  17  -4    0.00    0.30
   4   1 -17    0.00    0.20
   1 -17   4    0.00    0.10
   1 -17   4    0.00    0.20
   4  -1  17    0.00    0.10
   1 -17   4    0.00    0.10
   1  17  -4    0.00    0.20
  -1 -17  -4    0.00    0.40
  -1  17   4    0.00    0.40
  -1  17  -4    0.00    0.10
   1 -17  -4    0.00    0.10
   4   1  17    0.00    0.20
   1  17   4    0.00    0.50
  -1  17  -4    0.00    0.30
  -4   1 -17    0.00    0.10
   1 -17  -4    0.00    0.40
   4  -1 -17    0.00    0.20
   1  17   4    0.00    0.10
  -4  -1  17    0.00    0.10
  -1 -17   4    0.00    0.20
  -1  17  -4    0.00    0.10
  -1 -17   4    0.00    0.20
  -1 -17   4    0.00    0.10
   1 -17  -4    0.00    0.30
   4  -1 -17    0.00    0.10
   4   1  17    0.00    0.10
   1  -2  17    0.00    0.20
   2 -17   1    0.00    0.10
   2  17  -1    0.00    0.10
  -2  17   1    0.00    0.40
   1   2 -17    0.00    0.10
   2  17  -1    0.00    0.20
  -2 -17  -1    0.00    0.10
  -2 -17  -1    0.00    0.30
  -1  -2 -17    0.00    0.20
   1  -2  17    0.00    0.10
  -2 -17  -1    0.00    0.20
  -1   2  17    0.00    0.10
   2 -17   1    0.00    0.30
  -2  17   1    0.00    0.20
  -1   2  17    0.00    0.10
  -1  -2 -17    0.00    0.20
  -1   2  17    0.00    0.30
   2 -17   1    0.00    0.20
   1   2 -17    0.00    0.10
   2  17  -1    0.00    0.40
  -1  -2 -17    0.00    0.10
  -2 -17   1    0.00    0.20
   1  -2 -17    0.00    0.10
  -1  -2  17    0.00    0.10
   1  -2 -17    0.00    0.10
   2  17   1    0.00    0.20
  -2 -17   1    0.00    0.10
   1   2  17    0.00    0.20
   2 -17  -1    0.00    0.30
   1   2  17    0.00    0.10
  -1   2 -17    0.00    0.10
  -2 -17   1    0.00    0.30
   1   2  17    0.00    0.10
   2  17   1    0.00    0.10
   2 -17  -1    0.00    0.10
  -2  17  -1    0.00    0.20
  -2  17  -1    0.00    0.30
  -2  17  -1    0.00    0.10
   1  -2 -17    0.00    0.20
   2 -17  -1    0.00    0.20
   2  17   1    0.00    0.40
  -3  -2 -17    0.00    0.20
   2  17  -3    0.00    0.30
   3  -2  17    0.00    0.10
   2  17  -3    0.00    0.10
   3  -2  17    0.00    0.10
  -3   2  17    0.00    0.20
   2 -17   3    0.00    0.30
  -2 -17  -3    0.00    0.40
   2 -17   3    0.00    0.10
   2  17  -3    0.00    0.20
   3   2 -17    0.00    0.10
  -2  17   3    0.00    0.40
   3   2 -17    0.00    0.20
  -2 -17  -3    0.00    0.10
   2 -17   3    0.00    0.10
   2  17   3    0.00    0.50
  -2  17  -3    0.00    0.20
   2 -17  -3    0.00    0.10
   2 -17  -3    0.00    0.40
   2  17   3    0.00    0.10
  -2  17  -3    0.00    0.10
  -2  17  -3    0.00    0.30
  -2 -17   3    0.00    0.20
  -3   2 -17    0.00    0.10
  -3  -2  17    0.00    0.10
   3   2  17    0.00    0.30
   3   2  17    0.00    0.10
   2 -17  -3    0.00    0.20
  -2 -17   3    0.10    0.60
  -2 -17   3    0.00    0.20
   2  17   3    0.00    0.10
   3 -17   0    1.10    2.50
  -3 -17   0    1.60    2.70
  -3  17   0    0.60    1.70
   0  -3 -17    0.80    1.70
   0   3  17    1.70    2.60
   3  17   0    0.00    0.40
  -3 -17  -2    0.00    0.30
   3  17  -2    0.00    0.10
   2   3 -17    0.00    0.10
  -2  -3 -17    0.00    0.20
   3 -17   2    0.00    0.20
  -2  -3 -17    0.10    0.50
   3  17  -2    0.00    0.40
  -2   3  17    0.30    1.00
  -2   3  17    0.00    0.30
  -2   3  17    0.00    0.20
   2  -3  17    0.40    0.60
   2   3 -17    0.10    0.30
   3 -17   2    0.10    0.10
  -2  -3 -17    0.00    0.20
   3 -17   2    0.00    0.30
  -3  17   2    0.00    0.20
  -3 -17  -2    0.40    1.70
  -3  17   2    0.00    0.40
  -3 -17  -2    0.00    0.20
   2   3  17    0.00    0.10
   3  17   2    0.00    0.20
   2  -3 -17    0.00    0.20
  -3 -17   2    0.10    0.40
  -2  -3  17    0.00    0.10
  -2   3 -17    0.00    0.10
   3 -17  -2    0.00    0.40
  -3 -17   2    0.00    0.30
   3 -17  -2    0.00    0.10
   2  -3 -17    0.00    0.30
   3  17   2    0.00    0.20
   2   3  17    0.00    0.30
   2   3  17    0.00    0.10
  -3  17  -2    0.00    0.40
  -3  17  -2    0.00    0.20
  -3 -17   2    0.00    0.20
   3  17   2    0.00    0.50
   4  17  -1    0.00    0.10
  -4  17   1    0.00    0.20
   1   4 -17    0.00    0.10
  -1   4  17    0.00    0.30
   4 -17   1    0.00    0.10
  -4 -17  -1    0.00    0.30
   4  17  -1    0.00    0.40
   4 -17   1    0.00    0.20
   4  17  -1    0.00    0.20
  -1  -4 -17    0.00    0.20
  -1   4  17    0.00    0.10
  -1   4  17    0.00    0.10
  -4  17   1    0.00    0.50
  -4  17   1    0.00    0.10
  -1  -4 -17    0.00    0.10
  -4 -17  -1    0.00    0.20
  -1  -4 -17    0.00    0.20
   4 -17   1    0.00    0.30
   4 -17  -1    0.00    0.20
  -4  17  -1    0.00    0.20
  -4 -17   1    0.00    0.20
   1  -4 -17    0.00    0.10
  -4  17  -1    0.00    0.40
  -4  17  -1    0.00    0.10
  -4 -17   1    0.00    0.10
   1  -4 -17    0.00    0.30
   1   4  17    0.00    0.30
   4 -17  -1    0.00    0.30
   1   4  17    0.00    0.10
   4 -17  -1    0.00    0.10
   4  17   1    0.00    0.40
   1   4  17    0.00    0.10
   4  17   1    0.00    0.10
   1  -4 -17    0.00    0.10
   4  17   1    0.00    0.10

_computing_structure_solution     'SHELXT 2014/4 (Sheldrick, 2014)'
;
_shelx_hkl_checksum              46408
loop_
_space_group_symop_operation_xyz
'x, y, z'
'-x, -y, z'
'-x, y, -z'
'x, -y, -z'
'z, x, y'
'z, -x, -y'
'-z, -x, y'
'-z, x, -y'
'y, z, x'
'-y, z, -x'
'y, -z, -x'
'-y, -z, x'
'x+1/2, y+1/2, z+1/2'
'-x+1/2, -y+1/2, z+1/2'
'-x+1/2, y+1/2, -z+1/2'
'x+1/2, -y+1/2, -z+1/2'
'z+1/2, x+1/2, y+1/2'
'z+1/2, -x+1/2, -y+1/2'
'-z+1/2, -x+1/2, y+1/2'
'-z+1/2, x+1/2, -y+1/2'
'y+1/2, z+1/2, x+1/2'
'-y+1/2, z+1/2, -x+1/2'
'y+1/2, -z+1/2, -x+1/2'
'-y+1/2, -z+1/2, x+1/2'
'-x, -y, -z'
'x, y, -z'
'x, -y, z'
'-x, y, z'
'-z, -x, -y'
'-z, x, y'
'z, x, -y'
'z, -x, y'
'-y, -z, -x'
'y, -z, x'
'-y, z, x'
'y, z, -x'
'-x+1/2, -y+1/2, -z+1/2'
'x+1/2, y+1/2, -z+1/2'
'x+1/2, -y+1/2, z+1/2'
'-x+1/2, y+1/2, z+1/2'
'-z+1/2, -x+1/2, -y+1/2'
'-z+1/2, x+1/2, y+1/2'
'z+1/2, x+1/2, -y+1/2'
'z+1/2, -x+1/2, y+1/2'
'-y+1/2, -z+1/2, -x+1/2'
'y+1/2, -z+1/2, x+1/2'
'-y+1/2, z+1/2, x+1/2'
'y+1/2, z+1/2, -x+1/2'
loop_
_atom_site_label
_atom_site_type_symbol
_atom_site_fract_x
_atom_site_fract_y
_atom_site_fract_z
_atom_site_U_iso_or_equiv
_atom_site_adp_type
_atom_site_occupancy
_atom_site_site_symmetry_order
_atom_site_calc_flag
_atom_site_refinement_flags_posn
_atom_site_refinement_flags_adp
_atom_site_refinement_flags_occupancy
Pb1 Pb 0.2500 0.2500 0.7500 0.0587(14) Uani 1 6 d S T P
I1A I 0.2834(16) 0.5000 0.7736(16) 0.063(4) Uani 0.2886 2 d S TU P
I1B I 0.3201(16) 0.5000 0.766(3) 0.067(4) Uani 0.2063 2 d S TU P
I1C I 0.256(2) 0.5000 0.802(3) 0.067(5) Uani 0.1627 2 d S TU P
I1D I 0.299(3) 0.5000 0.811(2) 0.062(4) Uani 0.1506 2 d S TU P
I1E I 0.205(2) 0.5000 0.7586(17) 0.069(5) Uani 0.1045 2 d S TU P
I1F I 0.292(2) 0.5000 0.7232(16) 0.043(4) Uani 0.0873 2 d S TU P
C1 C 0.5000 0.5000 0.5000 0.23(10) Uiso 1 24 d DS U P
N1 N 0.623(5) 0.5000 0.5000 0.23(11) Uiso 0.1667 4 d DS U P
C2 C 0.061(6) 0.5000 1.0000 0.16(2) Uiso 0.5 4 d S . P
N2 N 0.061(6) 0.5000 1.0000 0.16(2) Uiso 0.5 4 d S . P
loop_
_atom_site_aniso_label
_atom_site_aniso_U_11
_atom_site_aniso_U_22
_atom_site_aniso_U_33
_atom_site_aniso_U_23
_atom_site_aniso_U_13
_atom_site_aniso_U_12
Pb1 0.0587(14) 0.0587(14) 0.0587(14) 0.0002(2) 0.0002(2) -0.0002(2)
I1A 0.060(7) 0.069(4) 0.061(7) 0.000 0.004(7) 0.000
I1B 0.067(7) 0.058(4) 0.077(8) 0.000 0.005(7) 0.000
I1C 0.070(10) 0.059(6) 0.073(9) 0.000 0.002(8) 0.000
I1D 0.065(9) 0.058(5) 0.062(8) 0.000 -0.018(7) 0.000
I1E 0.087(9) 0.006(4) 0.114(10) 0.000 -0.008(7) 0.000
I1F 0.066(8) 0.011(4) 0.053(7) 0.000 0.009(7) 0.000
loop_
_atom_type_symbol
_atom_type_description
_atom_type_scat_dispersion_real
_atom_type_scat_dispersion_imag
_atom_type_scat_source
C C -0.0005 0.0003 'International Tables Vol C Tables 4.2.6.8 and 6.1.1.4'
H H 0.0000 0.0000 'International Tables Vol C Tables 4.2.6.8 and 6.1.1.4'
N N -0.0002 0.0007 'International Tables Vol C Tables 4.2.6.8 and 6.1.1.4'
I I -1.9845 3.2173 'International Tables Vol C Tables 4.2.6.8 and 6.1.1.4'
Pb Pb -0.6716 3.2892 'International Tables Vol C Tables 4.2.6.8 and 6.1.1.4'
loop_
_geom_angle_atom_site_label_1
_geom_angle_atom_site_label_2
_geom_angle_atom_site_label_3
_geom_angle
_geom_angle_site_symmetry_1
_geom_angle_site_symmetry_3
I1A Pb1 I1A 91.5(5) 37_556 30_655
I1A Pb1 I1A 88.5(5) 37_556 18_456
I1A Pb1 I1A 180.0 30_655 18_456
I1A Pb1 I1A 91.5(5) 37_556 33_666
I1A Pb1 I1A 88.5(5) 30_655 33_666
I1A Pb1 I1A 91.5(5) 18_456 33_666
I1A Pb1 I1A 88.5(5) 37_556 21_445
I1A Pb1 I1A 91.5(5) 30_655 21_445
I1A Pb1 I1A 88.5(5) 18_456 21_445
I1A Pb1 I1A 180.0 33_666 21_445
I1A Pb1 I1A 180.0 37_556 .
I1A Pb1 I1A 88.5(5) 30_655 .
I1A Pb1 I1A 91.5(5) 18_456 .
I1A Pb1 I1A 88.5(5) 33_666 .
I1A Pb1 I1A 91.5(5) 21_445 .
I1A Pb1 I1E 161.9(7) 37_556 .
I1A Pb1 I1E 83.5(5) 30_655 .
I1A Pb1 I1E 96.5(5) 18_456 .
I1A Pb1 I1E 105.7(7) 33_666 .
I1A Pb1 I1E 74.3(7) 21_445 .
I1A Pb1 I1E 18.1(7) . .
I1A Pb1 I1E 96.5(5) 37_556 33_666
I1A Pb1 I1E 105.7(7) 30_655 33_666
I1A Pb1 I1E 74.3(7) 18_456 33_666
I1A Pb1 I1E 18.1(7) 33_666 33_666
I1A Pb1 I1E 161.9(7) 21_445 33_666
I1A Pb1 I1E 83.5(5) . 33_666
I1E Pb1 I1E 101.6(5) . 33_666
I1A Pb1 I1E 83.5(5) 37_556 21_445
I1A Pb1 I1E 74.3(7) 30_655 21_445
I1A Pb1 I1E 105.7(7) 18_456 21_445
I1A Pb1 I1E 161.9(7) 33_666 21_445
I1A Pb1 I1E 18.1(7) 21_445 21_445
I1A Pb1 I1E 96.5(5) . 21_445
I1E Pb1 I1E 78.4(5) . 21_445
I1E Pb1 I1E 180.0 33_666 21_445
I1A Pb1 I1E 74.3(7) 37_556 30_655
I1A Pb1 I1E 18.1(7) 30_655 30_655
I1A Pb1 I1E 161.9(7) 18_456 30_655
I1A Pb1 I1E 83.5(5) 33_666 30_655
I1A Pb1 I1E 96.5(5) 21_445 30_655
I1A Pb1 I1E 105.7(7) . 30_655
I1E Pb1 I1E 101.6(5) . 30_655
I1E Pb1 I1E 101.6(5) 33_666 30_655
I1E Pb1 I1E 78.4(5) 21_445 30_655
I1A Pb1 I1E 105.7(7) 37_556 18_456
I1A Pb1 I1E 161.9(7) 30_655 18_456
I1A Pb1 I1E 18.1(7) 18_456 18_456
I1A Pb1 I1E 96.5(5) 33_666 18_456
I1A Pb1 I1E 83.5(5) 21_445 18_456
I1A Pb1 I1E 74.3(7) . 18_456
I1E Pb1 I1E 78.4(5) . 18_456
I1E Pb1 I1E 78.4(5) 33_666 18_456
I1E Pb1 I1E 101.6(5) 21_445 18_456
I1E Pb1 I1E 180.0 30_655 18_456
I1A Pb1 I1E 18.1(7) 37_556 37_556
I1A Pb1 I1E 96.5(5) 30_655 37_556
I1A Pb1 I1E 83.5(5) 18_456 37_556
I1A Pb1 I1E 74.3(7) 33_666 37_556
I1A Pb1 I1E 105.7(7) 21_445 37_556
I1A Pb1 I1E 161.9(7) . 37_556
I1E Pb1 I1E 180.0 . 37_556
I1E Pb1 I1E 78.4(5) 33_666 37_556
I1E Pb1 I1E 101.6(5) 21_445 37_556
I1E Pb1 I1E 78.4(5) 30_655 37_556
I1E Pb1 I1E 101.6(5) 18_456 37_556
I1D I1A I1F 148(8) . .
I1D I1A I1E 123(8) . .
I1F I1A I1E 89(4) . .
I1D I1A Pb1 97.8(7) . .
I1F I1A Pb1 86.0(7) . .
I1E I1A Pb1 81.5(4) . .
I1D I1A Pb1 97.8(7) . 15_556
I1F I1A Pb1 86.0(7) . 15_556
I1E I1A Pb1 81.5(4) . 15_556
Pb1 I1A Pb1 161.4(7) . 15_556
I1D I1B I1F 122(5) . .
I1D I1B I1C 35(3) . .
I1F I1B I1C 86(4) . .
I1D I1B I1E 68(4) . .
I1F I1B I1E 53(3) . .
I1C I1B I1E 33(3) . .
I1D I1B Pb1 86.6(10) . .
I1F I1B Pb1 78.5(7) . .
I1C I1B Pb1 78.2(7) . .
I1E I1B Pb1 74.2(4) . .
I1D I1B Pb1 86.6(10) . 15_556
I1F I1B Pb1 78.5(7) . 15_556
I1C I1B Pb1 78.2(7) . 15_556
I1E I1B Pb1 74.2(4) . 15_556
Pb1 I1B Pb1 147.9(8) . 15_556
I1D I1C I1E 151(9) . .
I1D I1C I1B 41(5) . .
I1E I1C I1B 110(5) . .
I1D I1C I1F 77(6) . .
I1E I1C I1F 74(4) . .
I1B I1C I1F 36(2) . .
I1D I1C Pb1 93.7(12) . .
I1E I1C Pb1 81.3(8) . .
I1B I1C Pb1 85.4(8) . .
I1F I1C Pb1 79.8(7) . .
I1D I1C Pb1 93.7(12) . 15_556
I1E I1C Pb1 81.3(8) . 15_556
I1B I1C Pb1 85.4(8) . 15_556
I1F I1C Pb1 79.8(7) . 15_556
Pb1 I1C Pb1 156.3(14) . 15_556
I1A I1D I1C 56(3) . .
I1A I1D I1B 48(4) . .
I1C I1D I1B 103(7) . .
I1A I1D I1F 18(5) . .
I1C I1D I1F 74(6) . .
I1B I1D I1F 30(3) . .
I1A I1D I1E 38(5) . .
I1C I1D I1E 17(6) . .
I1B I1D I1E 86(4) . .
I1F I1D I1E 56(2) . .
I1A I1D Pb1 73.3(5) . .
I1C I1D Pb1 76.7(11) . .
I1B I1D Pb1 82.4(10) . .
I1F I1D Pb1 75.7(5) . .
I1E I1D Pb1 73.9(4) . .
I1A I1D Pb1 73.3(5) . 15_556
I1C I1D Pb1 76.7(11) . 15_556
I1B I1D Pb1 82.4(10) . 15_556
I1F I1D Pb1 75.7(5) . 15_556
I1E I1D Pb1 73.9(4) . 15_556
Pb1 I1D Pb1 145.2(7) . 15_556
I1C I1E I1A 30(2) . .
I1C I1E I1F 63(3) . .
I1A I1E I1F 33.0(18) . .
I1C I1E I1D 11(3) . .
I1A I1E I1D 18(2) . .
I1F I1E I1D 51(2) . .
I1C I1E I1B 37(3) . .
I1A I1E I1B 7(2) . .
I1F I1E I1B 25.9(16) . .
I1D I1E I1B 25.6(19) . .
I1C I1E Pb1 83.5(7) . 15_556
I1A I1E Pb1 80.4(5) . 15_556
I1F I1E Pb1 79.8(5) . 15_556
I1D I1E Pb1 82.1(6) . 15_556
I1B I1E Pb1 79.9(5) . 15_556
I1C I1E Pb1 83.5(7) . .
I1A I1E Pb1 80.4(5) . .
I1F I1E Pb1 79.8(5) . .
I1D I1E Pb1 82.1(6) . .
I1B I1E Pb1 79.9(5) . .
Pb1 I1E Pb1 159.2(10) 15_556 .
I1A I1F I1B 43(2) . .
I1A I1F I1C 15(3) . .
I1B I1F I1C 58(3) . .
I1A I1F I1D 14(4) . .
I1B I1F I1D 29(3) . .
I1C I1F I1D 28.9(17) . .
I1A I1F I1E 58(3) . .
I1B I1F I1E 101(4) . .
I1C I1F I1E 43.3(19) . .
I1D I1F I1E 72(3) . .
I1A I1F Pb1 82.4(6) . .
I1B I1F Pb1 90.1(7) . .
I1C I1F Pb1 80.5(5) . .
I1D I1F Pb1 84.7(6) . .
I1E I1F Pb1 78.9(5) . .
I1A I1F Pb1 82.4(6) . 15_556
I1B I1F Pb1 90.1(7) . 15_556
I1C I1F Pb1 80.5(5) . 15_556
I1D I1F Pb1 84.7(6) . 15_556
I1E I1F Pb1 78.9(5) . 15_556
Pb1 I1F Pb1 157.4(9) . 15_556
N1 C1 N1 90.000(6) . 33_666
N1 C1 N1 180.0 . 25_666
N1 C1 N1 90.000(15) 33_666 25_666
N1 C1 N1 90.000(17) . 5
N1 C1 N1 90.0 33_666 5
N1 C1 N1 90.000(9) 25_666 5
N1 C1 N1 90.000(8) . 29_666
N1 C1 N1 90.000(8) 33_666 29_666
N1 C1 N1 90.000(18) 25_666 29_666
N1 C1 N1 180.0 5 29_666
N1 C1 N1 90.000(6) . 9
N1 C1 N1 180.000(10) 33_666 9
N1 C1 N1 90.000(9) 25_666 9
N1 C1 N1 90.000(3) 5 9
N1 C1 N1 90.000(5) 29_666 9
N2 C2 C2 0.0 25_567 25_567
loop_
_geom_bond_atom_site_label_1
_geom_bond_atom_site_label_2
_geom_bond_distance
_geom_bond_site_symmetry_2
Pb1 I1A 3.117(3) 37_556
Pb1 I1A 3.117(3) 30_655
Pb1 I1A 3.117(3) 18_456
Pb1 I1A 3.117(3) 33_666
Pb1 I1A 3.117(3) 21_445
Pb1 I1A 3.117(3) .
Pb1 I1E 3.128(5) .
Pb1 I1E 3.128(5) 33_666
Pb1 I1E 3.128(5) 21_445
Pb1 I1E 3.128(5) 30_655
Pb1 I1E 3.128(5) 18_456
Pb1 I1E 3.128(5) 37_556
I1A I1D 0.50(2) .
I1A I1F 0.63(2) .
I1A I1E 0.98(4) .
I1A Pb1 3.117(3) 15_556
I1B I1D 0.61(4) .
I1B I1F 0.63(3) .
I1B I1C 0.91(3) .
I1B I1E 1.42(4) .
I1B Pb1 3.201(6) 15_556
I1C I1D 0.54(3) .
I1C I1E 0.83(4) .
I1C I1F 1.07(4) .
I1C Pb1 3.144(8) 15_556
I1D I1F 1.09(3) .
I1D I1E 1.32(3) .
I1D Pb1 3.224(6) 15_556
I1E I1F 1.16(4) .
I1E Pb1 3.128(5) 15_556
I1F Pb1 3.137(5) 15_556
C1 N1 1.52(6) .
C1 N1 1.52(6) 33_666
C1 N1 1.52(6) 25_666
C1 N1 1.52(6) 5
C1 N1 1.52(6) 29_666
C1 N1 1.52(6) 9
C2 N2 1.51(16) 25_567
C2 C2 1.51(16) 25_567
