#------------------------------------------------------------------------------
#$Date: 2019-11-24 21:47:13 +0200 (Sun, 24 Nov 2019) $
#$Revision: 239509 $
#$URL: file:///home/coder/svn-repositories/cod/cif/4/51/67/4516750.cif $
#------------------------------------------------------------------------------
#
# This file is available in the Crystallography Open Database (COD),
# http://www.crystallography.net/
#
# All data on this site have been placed in the public domain by the
# contributors.
#
data_4516750
loop_
_publ_author_name
'Jaffe, Adam'
'Lin, Yu'
'Beavers, Christine M.'
'Voss, Johannes'
'Mao, Wendy L.'
'Karunadasa, Hemamala I.'
_publ_section_title
;
 High-Pressure Single-Crystal Structures of 3D Lead-Halide Hybrid
 Perovskites and Pressure Effects on their Electronic and Optical
 Properties.
;
_journal_issue                   4
_journal_name_full               'ACS central science'
_journal_page_first              201
_journal_page_last               209
_journal_paper_doi               10.1021/acscentsci.6b00055
_journal_volume                  2
_journal_year                    2016
_chemical_formula_sum            'C H6 Br3 N Pb'
_chemical_formula_weight         478.99
_space_group_crystal_system      cubic
_space_group_IT_number           204
_space_group_name_Hall           '-I 2 2 3'
_space_group_name_H-M_alt        'I m -3'
_atom_sites_solution_primary     direct
_atom_sites_solution_secondary   difmap
_audit_creation_method           SHELXL-2014/7
_cell_angle_alpha                90
_cell_angle_beta                 90
_cell_angle_gamma                90
_cell_formula_units_Z            8
_cell_length_a                   11.500(5)
_cell_length_b                   11.500(5)
_cell_length_c                   11.500(5)
_cell_measurement_reflns_used    2764
_cell_measurement_temperature    296(2)
_cell_measurement_theta_max      17.1
_cell_measurement_theta_min      2.5
_cell_volume                     1520.9(11)
_computing_cell_refinement       'SAINT V8.34A(Bruker, 2013)'
_computing_data_collection       'Apex2 v2014.11-0 (Bruker, 2014)'
_computing_data_reduction        SAINT
_computing_molecular_graphics
;
     	SHELXTL 5.1, XP (Sheldrick, 1994)
	ShelXle Rev 699 (Hubschle, 2011)
	WinCoot (P.Emsley, B.Lohkamp W.G.Scott and K.Cowtand, 2010)
;
_computing_publication_material  SHELXL-2014/7
_computing_structure_refinement  'SHELXL-2014/7 (Sheldrick, 2014)'
_computing_structure_solution    'SHELXT (Sheldrick, 2012)'
_diffrn_ambient_temperature      296(2)
_diffrn_detector_area_resol_mean 5
_diffrn_measured_fraction_theta_full 0.963
_diffrn_measured_fraction_theta_max 0.961
_diffrn_measurement_device_type  'Perkin-Elmer a-Si Detector'
_diffrn_measurement_method       \f
_diffrn_radiation_monochromator  silicon(111)
_diffrn_radiation_source         'Advanced Light Source Beamline 12.2.2'
_diffrn_radiation_type           synchrotron
_diffrn_radiation_wavelength     0.35424
_diffrn_reflns_av_R_equivalents  0.0859
_diffrn_reflns_av_unetI/netI     0.0374
_diffrn_reflns_Laue_measured_fraction_full 0.963
_diffrn_reflns_Laue_measured_fraction_max 0.961
_diffrn_reflns_limit_h_max       15
_diffrn_reflns_limit_h_min       -15
_diffrn_reflns_limit_k_max       16
_diffrn_reflns_limit_k_min       -16
_diffrn_reflns_limit_l_max       15
_diffrn_reflns_limit_l_min       -15
_diffrn_reflns_number            7461
_diffrn_reflns_point_group_measured_fraction_full 0.963
_diffrn_reflns_point_group_measured_fraction_max 0.961
_diffrn_reflns_theta_full        12.271
_diffrn_reflns_theta_max         14.604
_diffrn_reflns_theta_min         2.162
_exptl_absorpt_coefficient_mu    37.711
_exptl_absorpt_correction_T_max  0.4234
_exptl_absorpt_correction_T_min  0.2953
_exptl_absorpt_correction_type   multi-scan
_exptl_absorpt_process_details   'SADABS-2014/5 (Sheldrick, 2014)'
_exptl_crystal_colour            red-orange
_exptl_crystal_density_diffrn    4.183
_exptl_crystal_description       block
_exptl_crystal_F_000             1648
_exptl_crystal_size_max          0.060
_exptl_crystal_size_mid          0.060
_exptl_crystal_size_min          0.050
_refine_diff_density_max         2.240
_refine_diff_density_min         -2.098
_refine_diff_density_rms         0.322
_refine_ls_extinction_method     none
_refine_ls_goodness_of_fit_ref   1.197
_refine_ls_hydrogen_treatment    undef
_refine_ls_matrix_type           full
_refine_ls_number_parameters     14
_refine_ls_number_reflns         415
_refine_ls_number_restraints     1
_refine_ls_restrained_S_all      1.196
_refine_ls_R_factor_all          0.0891
_refine_ls_R_factor_gt           0.0607
_refine_ls_shift/su_max          0.000
_refine_ls_shift/su_mean         0.000
_refine_ls_structure_factor_coef Fsqd
_refine_ls_weighting_details
'w=1/[\s^2^(Fo^2^)+(0.0655P)^2^+52.1650P] where P=(Fo^2^+2Fc^2^)/3'
_refine_ls_weighting_scheme      calc
_refine_ls_wR_factor_gt          0.1562
_refine_ls_wR_factor_ref         0.1765
_reflns_Friedel_coverage         0.000
_reflns_number_gt                269
_reflns_number_total             415
_reflns_threshold_expression     'I > 2\s(I)'
_cod_data_source_file            oc6b00055_si_006.cif
_cod_data_source_block           MAPbBr3_1p7GPa
_cod_original_cell_volume        1521(2)
_cod_database_code               4516750
_shelx_shelxl_version_number     2014/7
_shelx_space_group_comment
;
The symmetry employed for this shelxl refinement is uniquely defined
by the following loop, which should always be used as a source of
symmetry information in preference to the above space-group names.
They are only intended as comments.
;
_shelx_estimated_absorpt_t_min   0.211
_shelx_estimated_absorpt_t_max   0.254
_exptl_absorpt_special_details
;
 Additional spherical absorption correction applied with mu*r =  0.6000
;
_shelx_res_file
;

    P5_a.res created by SHELXL-2014/7


TITL P5_a.res in Im-3
REM Old TITL P5 in Im-3

REM SHELXT solution in Im-3
REM R1 0.202,  Rweak 0.002,  Alpha 0.069,  Orientation as input
REM Formula found by SHELXT:  Br3 Pb

CELL  0.35424  11.5004  11.5004  11.5004   90.000   90.000   90.000
ZERR    8.000   0.0051   0.0051   0.0051    0.000    0.000    0.000
LATT  2
SYMM -X, -Y, Z
SYMM -X, Y, -Z
SYMM X, -Y, -Z
SYMM Z, X, Y
SYMM Z, -X, -Y
SYMM -Z, -X, Y
SYMM -Z, X, -Y
SYMM Y, Z, X
SYMM -Y, Z, -X
SYMM Y, -Z, -X
SYMM -Y, -Z, X
SFAC C H N BR PB
DISP $C  0.00341  0.00169 11.32113!source kissel
DISP $H -0.00002  0.00000  0.66638!source kissel
DISP $N  0.00664  0.00342 19.38436!source kissel
DISP $Br -0.27128  2.47050 10018.37566!source kissel
DISP $Pb -3.41943 10.20082 41609.52882!source kissel
UNIT 8 48 8 24 8
TEMP 23.000
L.S. 100
ACTA
BUMP
OMIT 0 1 1
OMIT 3 0 7
OMIT 0 3 15
OMIT 3 2 15
SADI 0.01 C1 C1_$1 C2 C2_$5
LIST 6
FMAP 2
PLAN 20
SIZE 0.06 0.06 0.05 !orange block
EQIV $1 1-x, +y, -z
EQIV $5 +z, +x, +y
EQIV $2 +y, +z, 1-x
RTAB HBND Br1 N2_$2
EXYZ C2 N2
EADP C2 N2
EXYZ C1 N1
EADP C1 N1
TWIN 0 -1 0 -1 0 0 0 0 -1
WGHT    0.065500   52.165001
BASF   0.49928
FVAR       0.04688
PB1   5    0.250000    0.250000    0.250000    10.16667    0.03643    0.03643 =
         0.03643    0.00074    0.00074    0.00074
BR1   4    0.500000    0.220911    0.283754    10.50000    0.03095    0.16996 =
         0.16970    0.03305    0.00000    0.00000
N1    3    0.500000    0.000000   -0.059788    10.06250    0.05861
C1    1    0.500000    0.000000   -0.059788    10.06250    0.05861
N2    3    0.500000    0.500000    0.415414    10.10416    0.14439
C2    1    0.500000    0.500000    0.415414    10.10416    0.14439
HKLF 4 0.1

REM  P5_a.res in Im-3
REM R1 =  0.0607 for     269 Fo > 4sig(Fo)  and  0.0891 for all     415 data
REM     14 parameters refined using      1 restraints

END

WGHT      0.0700     53.7270

REM Highest difference peak  2.240,  deepest hole -2.098,  1-sigma level  0.322
Q1    1   0.4324  0.2615  0.2385  11.00000  0.05    1.22
Q2    1   0.5000  0.3138  0.2455  10.50000  0.05    1.20
Q3    1   0.5000  0.2472  0.1767  10.50000  0.05    1.09
Q4    1   0.6329  0.0000 -0.0340  10.50000  0.05    1.05
Q5    1   0.5000 -0.0347 -0.0336  10.50000  0.05    1.03
Q6    1   0.3059  0.2975  0.1818  11.00000  0.05    0.95
Q7    1   0.4070  0.2818  0.1617  11.00000  0.05    0.92
Q8    1   0.4618  0.1597  0.0000  10.50000  0.05    0.91
Q9    1   0.2024  0.2012  0.1807  11.00000  0.05    0.84
Q10   1   0.5000  0.1486  0.1400  10.50000  0.05    0.83
Q11   1   0.5000  0.1859  0.2509  10.50000  0.05    0.82
Q12   1   0.5000 -0.0532 -0.0563  10.50000  0.05    0.80
Q13   1   0.5000  0.0664  0.3301  10.50000  0.05    0.74
Q14   1   0.2489  0.3534  0.1973  11.00000  0.05    0.73
Q15   1   0.5000  0.1393  0.3816  10.50000  0.05    0.71
Q16   1   0.5000  0.2828  0.2005  10.50000  0.05    0.70
Q17   1   0.5000  0.3515  0.3538  10.50000  0.05    0.70
Q18   1   0.3928  0.2830  0.3578  11.00000  0.05    0.70
Q19   1   0.5000  0.5000  0.3530  10.25000  0.05    0.68
Q20   1   0.5000  0.4291  0.3151  10.50000  0.05    0.68
;
_shelx_res_checksum              35967
_shelx_hkl_file
;
  -1  -1   0    0.10    0.50
  -1   0   1   -0.40    0.40
  -1   0   1   -0.20    0.40
  -1   0   1   -1.50    0.80
  -1   0   1   -0.50    1.00
   0  -1   1    0.00    0.50
   0   1  -1    0.40    0.40
   1   0  -1   -0.10    0.40
   1   0  -1   -0.20    0.40
   1   0  -1    0.00    0.90
   1   1   0    0.10    0.50
   2   1  -1    1.90    1.10
   1   2  -1    2.40    0.80
   1   2  -1    5.90    1.60
   1   2  -1    4.00    1.90
  -2   1   1    1.80    0.70
  -2   1   1    2.00    0.80
  -2   1   1    4.10    1.80
  -2   1   1    1.00    1.90
   2   1  -1    3.20    1.40
   1   1  -2    2.60    0.80
   1   1  -2    1.90    1.00
   1   1  -2    1.20    2.80
   1   2  -1    3.60    0.80
  -1   1   2    5.20    2.40
  -1   1   2    4.50    1.60
  -1   1   2    3.80    0.90
  -1   1   2    2.60    0.70
  -1  -1   2    0.20    2.50
  -1  -1   2    1.10    1.60
  -1  -1   2    2.00    1.00
   1  -1  -2    2.80    0.70
   1  -1  -2    0.80    0.90
   1  -1  -2    5.40    1.70
   1  -1  -2    1.40    2.60
  -1  -2   1    1.10    0.80
  -1  -2   1    2.50    1.50
  -1  -2   1    3.30    1.90
  -1  -1   2    1.60    0.70
  -2  -1   1    1.80    0.90
  -2  -1   1    2.40    2.20
  -2  -1   1    1.60    2.20
   2  -1  -1    3.20    0.80
   2  -1  -1    0.40    0.80
   2  -1  -1    4.40    1.60
   2  -1  -1    1.30    1.90
  -1  -2   1    2.00    0.70
  -2  -1   1    2.00    0.90
   2   0  -2 3628.64  291.47
   2   2   0 4201.58  291.47
   2   2  -2   12.00    1.90
  -2   2   2   15.50    2.80
  -2   2   2   16.20    2.40
   2   2  -2   13.30    1.90
  -2  -2   2   19.80    3.70
   2  -2  -2   18.90    3.20
   2  -2  -2   13.20    2.30
  -2  -2   2   10.60    2.10
  -2  -2   2   17.60    3.00
  -2  -2   2   14.90    1.80
   1   0  -3  466.65   34.80
   0   3  -1  392.76   34.80
   1   0  -3  496.15   34.60
   1   0  -3  478.75   34.70
  -1   0   3  428.56   35.10
  -1   0   3  469.65   34.60
  -1   0   3  497.95   34.60
   3   0  -1  458.65   35.00
   3   0  -1  491.25   34.90
   3   0  -1  424.56   34.70
   3   0  -1  502.35   34.70
  -3   0   1  418.76   34.70
  -3   0   1  486.55   34.90
  -3   0   1  446.66   35.00
  -3   0   1  476.25   34.70
  -2   1   3  335.87   24.50
  -2   1   3  317.17   24.60
  -2   1   3  322.87   24.80
   2   1  -3  351.46   24.40
   2   1  -3  343.77   24.60
   2   1  -3  309.67   24.70
   2   1  -3  336.57   25.20
   1   3  -2  283.87   24.30
  -2   1   3  373.76   24.40
   1   3  -2  287.37   25.00
   1   3  -2  299.77   24.50
  -1  -3   2  311.17   24.40
   2  -1  -3  356.56   24.40
   2  -1  -3  359.56   24.50
   2  -1  -3  294.97   24.60
   2  -1  -3  359.86   25.10
  -1  -3   2  274.57   24.40
   3   1  -2  255.87   20.20
   3   1  -2  264.77   20.40
   3   1  -2  269.57   19.90
  -3   1   2  251.77   20.20
  -3   1   2  252.27   19.80
  -3   1   2  251.77   20.00
  -3   1   2  247.78   19.70
   2   3  -1  279.67   20.00
   3  -1  -2  257.07   19.80
   1  -2  -3  293.77   19.70
   3  -1  -2  227.38   19.80
   3  -1  -2  250.37   20.10
   3  -1  -2  266.47   20.30
  -2  -3   1  304.77   20.20
  -3   0   3   49.50    3.90
  -3   0   3   38.70    4.10
  -3   0   3   45.70    5.00
  -3   0   3   40.20    5.60
   0  -3   3   32.80    4.30
   0  -3   3   41.40    7.90
   3   0  -3   51.09    3.90
   3   0  -3   42.60    4.20
   3   0  -3   40.40    4.90
   3   0  -3   45.00    6.10
   3   3   0   38.10    6.10
   3   3  -2   15.90    4.50
   3   3  -2   20.80    5.20
   2   3  -3   13.30    3.70
   3   2  -3   13.50    2.10
   3   2  -3    6.60    2.20
   3   2  -3   20.00    4.30
   3   2  -3    2.80    4.90
   3   3  -2   11.90    2.10
  -3   2   3   11.10    1.70
  -3   2   3   14.50    3.30
  -3   3   2   16.10    3.30
  -3   3   2   21.10    3.60
   2   3  -3   27.30    6.00
   2   3  -3   13.60    2.40
   2   3  -3   10.60    1.90
   3   3  -2   16.30    2.90
  -2   3   3   14.40    3.10
  -2   3   3   12.60    3.60
   2  -3  -3   13.60    2.80
   2  -3  -3   17.30    4.80
  -2  -3   3   11.10    2.20
  -3  -3   2   21.30    4.50
  -2  -3   3   17.60    2.50
   3  -3  -2   19.70    3.80
   3  -2  -3    8.20    1.80
   3  -2  -3   10.20    3.40
   3  -2  -3    7.90    4.30
  -3  -3   2   16.40    4.70
  -3  -2   3   12.50    2.00
  -3  -2   3    9.20    2.30
  -3  -2   3   12.30    4.10
  -3  -2   3   14.50    4.90
  -2  -3   3   17.70    5.00
  -3  -3   2   15.30    2.50
  -3  -3   2   10.30    2.20
  -2   0   4 8497.65  632.54
   4   1  -1    1.10    1.60
  -4   1   1    0.50    1.70
  -4   1   1   -0.40    3.70
   1   4  -1   -2.80    3.20
   4   1  -1   -0.50    1.80
  -1   1   4    4.00    2.40
   1   4  -1    0.90    2.60
   1   1  -4    0.60    1.20
   1   1  -4    4.90    2.30
   1   1  -4    1.00    3.60
   4   1  -1    1.80    4.80
  -1  -4   1   -0.10    2.40
   1  -1  -4    0.20    1.30
   4  -1  -1   -2.00    4.70
   4  -1  -1    0.20    1.80
  -1  -4   1   -3.30    3.10
   3   1  -4   70.69    5.90
  -3   1   4   74.19    7.00
  -3   1   4   74.79    5.80
  -3   1   4   68.89    6.20
   3   1  -4   66.69    6.40
   3   1  -4   62.29    7.20
   3   1  -4   71.89    9.30
  -3   1   4   71.69    7.90
  -4  -3   1   83.09    7.50
   3  -1  -4   74.69    5.90
   3  -1  -4   69.79    6.30
   3  -1  -4   83.99    9.10
  -3  -1   4   62.19    6.00
  -3  -1   4   63.69    6.30
  -3  -1   4   54.99    7.20
  -3  -1   4   67.79    8.00
  -4  -3   1   83.19    8.70
   3  -1  -4   69.49    7.00
  -4   0   2 8051.79  625.94
   4   0  -2 8770.62  626.04
   2   2  -4 4722.63  336.57
   2   2  -4 4175.18  336.67
   2   2  -4 4481.35  337.07
  -4   2   2 4796.82  336.47
  -4   2   2 4337.57  336.47
  -4   2   2 4467.55  336.57
   4   2  -2 4100.09  336.77
   2   4  -2 4975.10  336.47
   2   4  -2 4687.13  336.77
   4   2  -2 4567.14  336.47
   4   2  -2 4401.56  336.57
   2   2  -4 5020.10  336.47
  -2   2   4 5060.89  336.37
  -2   2   4 4751.32  336.47
   2   4  -2 4169.38  336.57
   2  -2  -4 4825.32  336.37
   2  -2  -4 4213.88  336.57
  -2  -2   4 4194.08  336.97
  -4  -2   2 4225.28  336.47
  -4  -2   2 4134.49  336.67
  -4  -2   2 4045.60  336.77
  -2  -4   2 4372.76  336.57
  -2  -4   2 4074.19  336.67
   2  -2  -4 4796.12  336.47
  -4  -2   2 4672.93  336.57
   4  -2  -2 4408.16  336.47
   4  -2  -2 4669.53  336.47
   4  -2  -2 4359.36  336.57
   4  -2  -2 4491.85  336.67
  -2  -2   4 4472.95  336.57
  -2  -2   4 4213.98  336.67
  -2  -4   2 5220.18  336.47
  -2  -4   2 5078.39  336.47
  -2  -2   4 4464.75  336.47
  -4   1   3  105.19    7.40
  -4   1   3  100.49    7.60
  -4   1   3   91.59    8.30
   4   1  -3  102.09    7.50
   4   1  -3   96.69    7.70
   4   1  -3   80.69    9.00
   4   1  -3   90.09    9.50
   1   3  -4   81.69    7.90
   1   3  -4   72.99    8.70
  -4   1   3   91.89    9.10
   1   3  -4   77.59    7.20
  -4  -1   3   93.09    7.40
  -4  -1   3   78.09    8.50
  -4  -1   3   78.19    9.60
   4  -1  -3   94.59    7.50
   4  -1  -3   91.89    8.90
   4  -1  -3  100.09    9.10
   4  -1  -3  100.69    7.40
  -1  -3   4   86.99    7.30
  -1  -3   4   69.69   10.30
  -4  -1   3   97.99    7.70
   4   3  -3   28.70    4.00
   4   3  -3   33.00    4.30
   4   3  -3   42.60    7.00
   4   3  -3   43.10    7.10
  -4   3   3   24.30    4.90
  -4   3   3   39.40    5.80
   3   3  -4   45.20    5.90
   3   3  -4   47.90    8.80
   3   4  -3   35.50    3.80
   3   4  -3   32.20    4.40
   3   4  -3   37.50    6.40
   3   4  -3   44.80    7.80
  -3   4   3   33.80    5.20
   3   3  -4   30.40    3.70
  -3   3   4   32.90    3.20
  -3   3   4   47.20    6.20
  -3   4   3   22.30    4.20
   3   3  -4   33.50    4.70
   3  -4  -3   33.10    6.10
   3  -3  -4   33.10    3.40
   3  -3  -4   30.10    5.00
  -3  -3   4   37.60    7.30
   3  -4  -3   28.80    4.60
  -3  -4   3   31.30    3.80
  -3  -4   3   22.50    4.20
  -3  -4   3   36.70    6.20
  -3  -4   3   37.90    7.50
  -3  -3   4   34.50    3.90
  -3  -3   4   23.90    4.10
   4  -3  -3   25.40    3.40
   4  -3  -3   37.80    5.90
   4  -3  -3   38.80    5.70
  -4  -3   3   33.60    3.90
  -4  -3   3   24.70    4.50
  -4  -3   3   43.20    6.20
  -4  -3   3   38.30    7.70
  -4  -4   0 7860.81  671.73
  -4   0   4 9999.00  671.63
  -4   0   4 9545.75  671.73
  -4   0   4 8660.63  672.03
   4   0  -4 9758.02  671.63
   4   0  -4 9655.23  671.73
   4   0  -4 8788.62  671.83
   4   4   0 7927.91  671.73
   2   4  -4 6102.39  428.76
   4   4  -2 6396.76  428.66
   4   4  -2 6415.66  428.86
   4   4  -2 5301.57  428.76
   4   4  -2 6011.70  429.16
  -4   2   4 4989.00  428.86
   2   4  -4 5482.05  428.86
   2   4  -4 6032.70  429.36
  -4   2   4 5403.56  428.56
  -4   2   4 5745.52  428.76
  -4   2   4 5030.00  428.76
  -2   4   4 5414.56  428.86
  -4   4   2 6288.07  428.66
   2   4  -4 6530.05  428.66
  -2  -4   4 5865.21  428.76
  -2  -4   4 5986.10  428.96
  -2  -4   4 5434.36  429.16
  -4  -2   4 6194.48  428.86
   2  -4  -4 5685.63  428.66
  -4  -2   4 4957.10  428.96
  -4  -2   4 5713.73  429.26
   4  -4  -2 6226.38  428.76
   4  -2  -4 6055.89  428.66
   4  -2  -4 5663.23  428.66
   4  -2  -4 5161.08  428.76
   4  -2  -4 5576.54  429.06
  -4  -4   2 6147.69  428.76
  -4  -4   2 6052.79  428.96
  -4  -4   2 5475.25  428.96
  -4  -2   4 5395.46  428.66
   4   4  -4 4997.90  354.66
   4   4  -4 5183.38  354.16
   4   4  -4 4619.04  354.26
  -4   4   4 4325.67  354.06
  -4   4   4 4548.35  353.96
   4   4  -4 5099.49  353.96
  -4  -4   4 4421.06  354.46
   4  -4  -4 4740.63  354.26
   4  -4  -4 4574.14  353.96
  -4  -4   4 4836.22  354.06
  -4  -4   4 4743.03  354.36
  -4  -4   4 4945.81  353.96
   0  -5   1   99.99    8.90
   0   5  -1   93.99    8.50
   0   5  -1  121.49    9.50
   0  -5   1  111.49    8.70
   3   0  -5  800.32   59.29
   3   0  -5  864.91   59.69
   3   0  -5  764.42   60.29
   3   0  -5  847.02   59.19
  -3   0   5  677.23   59.89
  -3   0   5  727.03   59.29
  -3   0   5  847.72   59.59
   1   5   0   87.99    7.70
   5   0  -1   84.39    9.70
  -1  -5   0   84.99    7.50
  -1  -5   0   85.99    7.80
   5   2  -1   61.19    8.30
  -2   1   5   44.40    4.80
   5   2  -1   54.69    5.20
   1   5  -2   41.40    3.90
   2   1  -5   42.30    4.20
   2   1  -5   49.20    5.00
   2   1  -5   37.70    6.20
  -2   1   5   46.60    4.30
   1   5  -2   57.29    7.20
   2  -1  -5   44.90    5.00
  -2  -1   5   47.60    6.70
   2  -1  -5   47.50    4.20
   2  -1  -5   43.20    6.40
  -1  -5   2   35.70    5.40
  -1  -5   2   41.60    4.00
  -2  -1   5   50.19    4.30
  -2  -1   5   45.40    5.00
  -2  -1   5   48.00    9.10
  -1  -5   2   34.30    5.80
  -5  -2   1   47.70    5.30
   1   5  -4   22.70    3.60
   1   5  -4   15.70    5.20
  -4   1   5   34.30    7.10
   1   5  -4   15.30    3.10
   4   1  -5   21.60    3.50
   4   1  -5   31.30    4.90
   4   1  -5   32.30    6.10
   1   5  -4   25.70    9.20
  -4   1   5   25.30    3.50
  -4   1   5   24.50    4.00
  -4   1   5   34.70    5.90
  -4  -1   5   39.40    6.90
  -4  -1   5   31.70    7.70
   4  -1  -5   20.50    3.70
  -1  -5   4   37.70    8.40
  -1  -5   4   19.50    3.10
  -1  -5   4   16.50    3.40
  -1  -5   4   37.90    6.30
  -5  -4   1   29.40    4.70
   4  -1  -5   27.60    5.60
   4  -1  -5   28.90    9.30
  -4  -1   5   19.30    3.50
   4  -1  -5   23.90    3.40
  -5   1   2   44.00    7.70
   5   1  -2   33.70    4.60
   5   1  -2   43.40    6.70
   5   1  -2   42.60    7.40
   5   1  -2   44.40    4.60
   1   2  -5   45.50    6.60
   1   2  -5   47.80    4.10
  -5   1   2   44.10    4.40
  -5   1   2   32.60    4.70
   2   5  -1   34.90    5.40
  -1  -2   5   56.69    9.00
  -5  -1   2   53.49    7.90
  -5  -1   2   43.20    7.20
   5  -1  -2   37.30    7.30
   5  -1  -2   46.30    6.80
  -5  -1   2   40.20    4.40
  -2  -5   1   45.20    5.80
  -5  -1   2   38.40    4.70
   5  -1  -2   41.10    4.40
   5  -1  -2   37.10    4.50
  -2  -5   1   44.10    6.00
  -3   2   5  428.26   28.60
   2   5  -3  333.77   27.80
   2   5  -3  373.66   28.90
   5   3  -2  319.37   27.70
   5   3  -2  329.87   28.80
   5   3  -2  311.27   28.30
   5   3  -2  358.06   27.60
   2   5  -3  397.06   27.40
  -5   3   2  348.47   28.00
   2   5  -3  408.46   27.70
  -2  -5   3  421.86   27.40
  -2  -5   3  381.96   27.50
  -2  -5   3  355.86   28.00
  -2  -5   3  348.07   28.30
   5  -3  -2  369.36   28.30
  -5  -3   2  359.96   27.70
  -5  -3   2  309.07   28.60
   5   0  -3  724.33   55.09
   5   0  -3  782.22   54.29
   5   0  -3  787.62   54.79
   3   5   0  621.04   54.19
  -5   0   3  740.93   54.29
  -5   0   3  682.53   54.29
  -5   0   3  806.22   54.79
  -3  -5   0  718.73   54.19
   5   0  -3  683.83   54.39
  -5   0   3  693.83   54.89
  -2   3   5  388.56   31.60
  -5   2   3  430.26   30.50
   2   3  -5  413.56   30.40
   2   3  -5  413.66   30.70
  -5   2   3  447.86   31.20
   3   5  -2  360.06   30.30
   3   5  -2  340.57   30.40
   2   3  -5  410.86   32.40
   2   3  -5  350.86   31.00
   5  -2  -3  467.65   30.90
   5  -2  -3  433.96   30.50
   2  -3  -5  407.06   30.30
   2  -3  -5  362.66   30.70
   5  -2  -3  461.25   31.40
   5  -2  -3  445.96   30.40
  -5  -2   3  457.95   30.50
  -5  -2   3  461.25   31.40
  -2  -3   5  359.46   32.10
  -3  -5   2  343.37   30.30
  -3  -5   2  343.77   30.50
  -2  -3   5  406.46   30.40
  -2  -3   5  384.36   30.70
  -2  -3   5  370.06   31.10
  -4   3   5  184.38   12.90
  -4   3   5  160.88   13.90
  -3   5   4  144.89   13.60
  -4   3   5  182.38   13.20
   3   5  -4  165.18   13.10
   3   5  -4  161.68   13.60
   3   5  -4  141.69   14.30
   3   5  -4  171.98   16.70
  -4   3   5  172.98   14.70
   4   3  -5  170.68   13.10
   4   3  -5  187.28   13.80
   4   3  -5  143.19   14.70
   4   3  -5  172.48   17.20
  -3  -5   4  149.29   15.10
   4  -3  -5  170.58   14.00
   4  -3  -5  187.58   16.20
   4  -3  -5  177.98   12.90
   4  -3  -5  192.68   13.30
  -4  -3   5  188.08   13.60
  -3  -5   4  152.78   13.50
   3  -5  -4  138.39   13.30
  -4  -3   5  161.58   13.20
  -3  -5   4  163.98   13.20
  -4  -3   5  168.58   15.90
  -3  -5   4  154.28   14.70
  -4  -3   5  134.79   14.90
  -5   1   4   27.60    5.70
   5   1  -4   22.60    7.20
  -5   1   4   28.10    7.30
  -5   1   4   18.40    3.40
   1   4  -5   32.20    5.30
  -5   1   4   16.70    2.90
   5   1  -4   18.20    3.30
   5   1  -4   20.30    3.90
   4   5  -1   38.10    7.60
   4   5  -1   30.30    6.90
   4   5  -1   20.10    3.70
   5  -1  -4   14.60    3.00
   5  -1  -4   19.30    3.30
  -1  -4   5   34.50    9.80
  -5  -1   4   14.70    3.60
  -5  -1   4   21.10    3.40
  -4  -5   1   24.70    4.60
   5  -1  -4   18.80    7.00
   5  -1  -4   26.90    6.80
  -5  -1   4   31.00    6.40
  -5  -1   4   23.00    7.80
   5   3  -4  138.69   15.20
   5   3  -4  131.29   12.00
  -5   3   4  137.09   11.50
  -5   3   4  130.79   11.90
   4   5  -3  159.18   13.80
  -5   3   4  145.09   13.70
  -4   5   3  177.08   12.00
  -4   5   3  176.38   12.50
   5   3  -4  136.69   11.90
  -5   3   4  136.59   12.70
   4  -5  -3  172.98   12.20
   5  -3  -4  138.49   11.80
  -4  -5   3  183.48   14.70
   5  -3  -4  163.18   13.80
   5  -3  -4  160.28   13.80
  -5  -3   4  146.19   15.20
  -5  -3   4  132.89   11.80
  -5  -3   4  129.29   12.20
   5  -3  -4  127.39   11.60
  -5  -5   0    5.50    5.50
  -5  -5   0    8.00    8.30
  -5   0   5   20.10    3.80
  -5   0   5   16.80    3.80
  -5   0   5   26.90    6.50
  -5   0   5   19.60    8.80
   5   0  -5   14.70    3.20
   5   0  -5   22.90    3.90
   5   0  -5   29.20    7.60
   5   0  -5   22.10    9.20
   5   5   0   -4.30    9.10
   5   2  -5   43.10    5.40
   5   2  -5   48.20    6.40
   5   5  -2   32.40    5.90
   5   5  -2   60.69    8.80
  -5   2   5   40.70    7.10
  -5   2   5   32.30    9.00
  -5   5   2   47.90    7.00
   2   5  -5   48.20    7.60
   2   5  -5   66.29   12.60
   5   5  -2   48.80    9.80
   2   5  -5   35.00    5.90
   2   5  -5   50.19    5.00
  -2  -5   5   67.99   10.10
  -2  -5   5   54.99    4.80
  -2  -5   5   47.10    5.70
   5  -5  -2   44.40    7.50
   5  -2  -5   42.20    5.10
   5  -2  -5   46.70    8.60
   5  -2  -5   56.19   10.30
  -5  -5   2   53.59    5.50
  -5  -5   2   53.79    6.00
  -5  -5   2   66.69   10.90
  -5  -2   5   37.00    5.80
  -5  -2   5   33.40    6.90
  -5  -2   5   44.30   18.90
  -2  -5   5   55.59    8.30
   5   5  -4   16.00    8.90
   5   5  -4   26.40   10.10
   4   5  -5    4.20    4.20
   5   4  -5    9.60    3.30
   5   4  -5    3.70    4.20
   5   4  -5   25.70    9.30
   5   4  -5    5.00   11.50
   5   5  -4   11.50    3.60
  -5   4   5    8.70    2.90
  -5   4   5   15.70    5.80
  -5   4   5   25.60    8.10
  -5   5   4   15.80    5.10
  -5   5   4   22.50    7.10
   4   5  -5    9.40   11.10
  -4   5   5   20.80    6.30
   5   5  -4    7.60    3.70
   4   5  -5   12.60    6.90
  -4   5   5   11.70    5.10
   4   5  -5   12.30    3.30
  -4  -5   5   16.50    9.00
   4  -5  -5   10.30    8.30
  -4  -5   5    7.40    3.90
  -5  -5   4   15.00    7.70
   4  -5  -5   12.10    5.20
  -4  -5   5   16.40    3.70
   5  -5  -4   17.90    6.40
   5  -5  -4   12.10    7.10
   5  -4  -5    7.60    2.60
   5  -4  -5   15.00    6.50
   5  -4  -5   23.30    9.70
  -5  -5   4   21.50   10.40
  -5  -4   5   18.90    3.60
  -5  -4   5    9.00    4.20
  -5  -4   5   27.50    8.80
  -5  -4   5   13.50   11.40
  -4  -5   5   17.00    7.90
  -5  -5   4    8.40    3.20
  -5  -5   4   13.80    4.30
  -2   0   6 1643.94  124.29
  -2   0   6 1526.15  125.09
   2   0  -6 1700.83  124.19
   2   0  -6 1661.83  124.39
   2   0  -6 1672.33  124.59
  -2   0   6 1775.32  124.19
   4   0  -6 2005.80  155.08
  -4   0   6 2038.00  154.18
  -4   0   6 2056.69  154.38
  -4   0   6 1940.41  154.78
   0  -6   4 2091.19  153.98
   0  -6   4 2016.60  154.68
   0   6  -4 2245.68  153.88
   0   6  -4 2059.19  154.18
   4   0  -6 2037.90  153.98
   4   0  -6 2030.40  154.18
   4   0  -6 1976.50  154.38
  -4   0   6 2266.37  153.98
   6   1  -1   -5.60    2.90
   6   1  -1   -4.60    7.60
  -1  -6  -1   -5.90    3.20
   1   6  -1   12.60    5.00
   1   6  -1    7.90    4.10
  -1   6  -1   -2.60    2.30
  -1  -6   1   -0.20    4.30
  -1  -6   1    1.80    3.50
  -6  -1   1   -2.30    2.90
  -6  -1   1   -2.60    6.30
   3   1  -6   27.80    6.60
   3   1  -6   37.00   11.10
   6   3  -1   34.40    5.10
   3   1  -6   15.90    3.70
  -3   1   6   37.90    6.90
  -3   1   6   41.60    9.40
   3   1  -6   18.70    3.40
  -3   1   6   24.10    3.90
  -3  -1   6   16.70    3.00
  -3  -1   6   29.80    7.00
  -3  -1   6   38.40    9.60
   3  -1  -6   29.60   10.70
  -3  -1   6   19.80    3.90
   3  -1  -6   24.30    3.50
   3  -1  -6   15.20    3.70
  -1   6  -3   15.40    6.50
   3  -1  -6   23.10    6.00
  -6  -3   1   30.10    4.60
  -5   1   6   16.00    8.70
   5   1  -6    1.80    4.00
   5   1  -6    6.20    6.90
   5   1  -6   10.30   12.00
   5   1  -6    6.40    3.20
  -5   1   6    8.50    6.70
   1   6  -5   10.80    2.70
   1   6  -5    2.00    4.40
   1   6  -5   16.00    6.00
   6   5  -1   -2.40    3.90
   6   5  -1  -14.40    9.70
  -5   1   6    4.60    3.80
  -5   1   6    3.60    2.80
   5  -1  -6    0.10    3.70
  -5  -1   6   10.30    9.20
   5  -1  -6    6.40   11.20
  -6  -5   1    6.50    3.50
  -6  -5   1    3.30    7.60
  -5  -1   6    6.80    3.40
  -1  -6   5    3.80    9.90
  -1  -6   5    4.00    3.70
  -5  -1   6    7.70    4.10
  -5  -1   6   14.30    7.70
  -1  -6   5    2.90    2.90
   5  -1  -6    5.10    2.80
   5  -1  -6    9.60    6.60
   6   0  -2 1712.73  114.59
  -6   0   2 1541.15  113.89
  -6   0   2 1589.84  114.19
  -6   0   2 1568.64  113.79
  -2  -6   0 1325.07  113.79
   6   0  -2 1558.84  113.79
   6   0  -2 1596.54  113.89
   2   6   0 1299.77  113.79
   2   6  -2  942.11   75.59
  -2   2   6 1100.69   75.09
   2   6  -2  979.20   74.89
  -2   2   6 1025.50   76.09
  -6   2   2  927.21   75.09
  -6   2   2 1033.90   75.49
  -6   2   2  966.60   75.09
  -6  -2   2 1019.40   75.29
  -2  -2   6 1029.10   76.49
  -2  -2   6 1032.30   75.19
   6  -2  -2 1048.20   75.69
  -2  -2   6 1039.30   74.99
   2  -2  -6 1079.99   74.99
  -2  -6   2 1077.99   74.89
   6  -2  -2  930.61   74.99
  -6  -2   2 1042.10   76.09
   6  -2  -2 1024.80   75.19
  -6  -2   2  909.81   75.69
  -2  -6   2  849.72   75.19
  -6  -2   2  999.90   75.19
  -4   2   6 1831.52  144.39
   2   6  -4 2039.00  144.59
  -6   4   2 1908.01  144.49
   4   2  -6 1802.32  145.79
   2   6  -4 2115.29  144.49
   6   4  -2 2208.38  144.79
   6   4  -2 1980.20  145.09
   4   2  -6 1955.00  144.59
  -4   2   6 1762.42  145.09
   2   6  -4 1723.83  144.69
   2   6  -4 1956.10  145.39
   4   2  -6 1717.33  144.99
  -4   2   6 1756.62  144.79
   6   4  -2 2144.89  145.49
  -4   2   6 1909.21  144.59
   4   2  -6 1717.83  144.69
  -6  -4   2 1977.80  145.39
  -2  -6   4 2038.60  144.59
   6  -4  -2 2217.88  144.99
  -4  -2   6 1836.32  145.19
  -4  -2   6 1747.93  144.59
   4  -2  -6 1995.00  144.49
   4  -2  -6 1966.90  144.59
   4  -2  -6 1675.83  144.79
   4  -2  -6 1925.91  145.49
  -6  -4   2 2138.09  145.29
  -6  -4   2 2195.18  144.79
  -2  -6   4 1946.41  144.79
  -2  -6   4 2135.79  144.49
  -2  -6   4 1770.82  145.09
  -6   1   3   28.00    4.80
   1   3  -6    9.10    7.90
   6   1  -3   40.50    9.10
   6   1  -3   49.10    7.80
  -6   1   3   38.90    4.50
   6   1  -3   25.70    5.10
   6   1  -3   28.30    4.60
   3   6  -1   41.40    7.70
  -6   1   3   47.90    9.00
   6  -1  -3   36.20    8.20
  -6  -1   3   30.90    4.80
  -6  -1   3   42.60    8.50
   6  -1  -3   29.80    4.40
  -6  -1   3   51.39    9.10
   6  -1  -3   28.00    4.20
   6  -1  -3   30.30    7.40
  -6  -1   3   30.50    5.00
   3   6  -3    7.90    8.00
   6   3  -3    0.50    6.90
   6   3  -3    2.50    3.10
  -3   3   6    9.00    8.60
   3   3  -6    4.00    2.70
  -3   3   6    3.50    3.20
   3   3  -6    1.50    6.60
  -6   3   3    5.60    2.70
  -6   3   3   -1.60    7.90
   6   3  -3   15.70    9.60
  -6   3   3    0.30    2.90
   6   3  -3    7.40    3.70
   3   6  -3    0.20    2.40
   3   6  -3    3.60    3.20
  -6   3   3    6.60    7.00
  -3   3   6    6.30    2.40
   3   3  -6   10.90   11.50
   3   6  -3    4.60    6.50
   3   3  -6    5.50    4.00
  -3  -3   6    2.30    2.60
  -3  -3   6    7.00    8.70
  -6  -3   3   12.00    8.80
  -3  -3   6    8.60    3.60
  -3  -6   3    2.20    3.00
  -3  -6   3   -0.10    6.00
  -3  -3   6    0.50    7.10
   6  -3  -3   11.60    7.30
   3  -3  -6    5.50    5.70
   3  -3  -6    4.00    2.30
  -3  -6   3    2.00    2.70
   6  -3  -3   13.10    6.90
  -6  -3   3    0.20    2.80
  -6  -3   3    5.40    3.40
  -6  -3   3    2.90    8.10
  -3  -6   3   -1.00    8.10
   3  -3  -6   10.40    3.70
   6  -3  -3    4.90    2.90
   6  -3  -3    1.20    2.80
   6   5  -3   53.89    9.30
  -6   5   3   30.40    7.20
  -5   3   6   32.70    5.50
  -5   3   6   45.40    9.10
   5   3  -6   28.10    5.40
  -5   3   6   32.90    4.30
   5   3  -6   40.80    8.70
   5   3  -6   25.90    5.10
   5   3  -6   54.39   15.50
  -5   3   6   43.10    7.60
   6   5  -3   30.50    5.30
   5  -3  -6   58.09   12.50
  -6  -5   3   60.59   11.30
   5  -3  -6   32.10    7.00
  -5  -3   6   26.00    4.40
  -3  -6   5   43.60    5.70
  -5  -3   6   26.50    5.10
   6  -5  -3   33.40    8.00
  -6  -5   3   34.60    6.40
  -6  -5   3   41.40   10.00
   5  -3  -6   22.20    4.50
   5  -3  -6   22.80    5.00
  -5  -3   6   34.80    9.20
  -5  -3   6   45.70   11.20
  -6  -5   3   35.80    5.10
  -6   0   4 2147.89  151.58
  -6   0   4 2204.18  151.08
  -6   0   4 1948.51  151.08
   6   0  -4 2082.19  151.08
   6   0  -4 2050.09  151.18
   6   0  -4 1885.91  151.38
  -6   0   4 1917.91  151.58
   6   0  -4 1940.91  151.78
   4   6   0 2038.70  151.48
  -6   2   4 1642.44  135.29
   6   2  -4 1668.93  136.19
   2   4  -6 2015.20  136.79
  -6   2   4 1579.94  135.29
   2   4  -6 2151.68  135.59
   6   2  -4 1870.21  135.39
  -6   2   4 1641.74  135.59
  -6   2   4 1656.33  135.79
   4   6  -2 1687.43  135.49
   4   6  -2 1944.71  136.09
  -2   4   6 1877.71  136.19
   6   2  -4 1619.44  135.49
   4   6  -2 2136.79  135.49
   2   4  -6 2010.50  135.89
  -4  -6   2 2097.39  135.89
   6  -2  -4 1763.32  135.39
  -6  -2   4 1716.43  135.39
  -6  -2   4 1635.44  135.49
  -2  -4   6 1933.71  136.69
   6  -2  -4 1701.43  135.29
   6  -2  -4 1611.64  135.59
   6  -2  -4 1778.22  135.99
  -4  -6   2 1779.72  135.79
  -2  -4   6 2009.70  135.89
   4   6  -4 1881.21  130.39
   6   4  -4 1654.03  130.79
  -4   4   6 1673.23  130.39
  -4   4   6 1668.93  130.69
   4   4  -6 1818.22  131.89
   4   6  -4 1483.15  130.59
   6   4  -4 1698.33  131.29
   4   6  -4 1836.42  130.19
   6   4  -4 1912.71  130.39
   6   4  -4 1732.03  130.39
   4   4  -6 1879.81  130.59
   4   6  -4 1770.92  131.29
  -6   4   4 1614.84  130.49
   4   4  -6 2023.20  130.29
  -6   4   4 1783.72  130.09
  -6   4   4 1708.73  130.39
  -4   4   6 1973.40  130.09
  -4   6   4 1594.34  130.09
   4   4  -6 1731.73  130.79
  -6  -4   4 1759.22  130.39
   4  -6  -4 1615.34  130.19
   4  -4  -6 1849.71  130.09
   4  -4  -6 1723.93  130.39
  -4  -4   6 1937.21  130.29
  -4  -4   6 1825.42  130.39
  -4  -6   4 1680.53  130.69
  -6  -4   4 1699.73  130.79
  -4  -4   6 1620.54  131.09
   4  -4  -6 1724.03  130.99
  -6  -4   4 1608.94  130.99
  -4  -4   6 1757.72  130.79
  -4  -6   4 1557.84  130.99
   6  -4  -4 1641.64  130.09
   6  -4  -4 1693.43  130.39
   6  -4  -4 1682.83  130.59
  -4  -6   4 1824.02  130.19
  -4  -6   4 1854.21  130.39
  -6  -4   4 1748.82  130.29
   1   5  -6    3.00    2.50
   1   5  -6    2.40    7.40
   6   1  -5    4.50    8.90
   6   1  -5    6.60    9.60
   6   1  -5   10.50    3.60
   6   1  -5    6.90    3.40
  -5   6   1    8.40    9.10
   5   6  -1    8.20    3.60
   5   6  -1    7.60    3.70
   5   6  -1   17.80    9.10
  -6   1   5    3.80    2.70
  -6   1   5    4.40    3.50
  -6   1   5    9.30    6.90
  -6   1   5    1.00    9.00
  -5  -6   1    0.40    3.10
  -5  -6   1    3.00    3.80
  -5  -6   1   16.10    8.10
  -6  -1   5    7.60    3.10
  -1  -5   6    4.00    3.40
  -1  -5   6   19.90   11.40
   6  -1  -5    2.80    2.30
   6  -1  -5    7.30    3.10
  -6  -1   5    3.60    3.90
  -6  -1   5   10.30    7.50
  -6  -1   5    5.60    9.90
   6  -1  -5    4.00    9.10
   6  -1  -5    9.80    8.40
   3   5  -6   37.30    8.20
  -6   3   5   41.90    5.00
  -6   3   5   35.60    5.60
  -6   3   5   45.90    8.20
  -6   3   5   41.90    9.50
   3   5  -6   70.79   14.70
   6   3  -5   37.20    5.50
  -5   6   3   49.10    5.90
   6   3  -5   52.59   11.00
   6   3  -5   67.59   13.30
   3   5  -6   47.50    6.70
  -3   5   6   39.20    9.70
   6   3  -5   29.20    5.10
  -3  -5   6   56.39   11.90
   3  -5  -6   29.80    6.50
  -6  -3   5   48.80    9.20
  -6  -3   5   49.50   12.60
  -5  -6   3   31.60    5.60
  -3  -5   6   46.30    9.70
   6  -3  -5   27.80    4.50
   6  -3  -5   34.60    5.00
   6  -3  -5   45.90    9.30
   6  -3  -5   63.09   10.80
  -5  -6   3   54.69   10.70
  -6  -3   5   36.70    6.60
  -3  -5   6   35.40    6.10
  -6  -3   5   38.90    5.50
   5   6  -5   22.10   10.20
   5   6  -5   20.20   13.60
   5   5  -6   26.00    5.80
   5   5  -6   33.60    9.90
   6   5  -5   28.60    5.50
   6   5  -5   36.90   11.40
   6   5  -5   34.30   13.70
  -5   6   5   25.20    7.40
   5   5  -6   22.70   14.10
   5   6  -5   24.70    4.40
   6   5  -5   20.20    4.70
   5   6  -5   15.20    5.10
  -5   5   6   40.60    8.80
  -5   6   5   37.60    6.50
   5   5  -6   26.30    4.50
  -5  -6   5   45.30   13.90
  -5  -5   6   13.80   11.80
   5  -5  -6   20.80    7.20
   5  -5  -6   47.70   12.00
   5  -6  -5   30.90    7.70
  -6  -5   5   25.40    9.80
  -6  -5   5   16.70   13.00
  -5  -5   6   30.60    4.80
  -5  -5   6   10.70    5.10
   5  -6  -5   34.60   10.20
  -6  -5   5   21.80    4.30
  -6  -5   5   15.30    5.60
  -5  -5   6   26.20   10.10
  -5  -6   5   16.20    4.30
  -5  -6   5   17.20    5.20
  -5  -6   5   31.80    9.70
  -6   0   6 1436.56  106.09
  -6   0   6 1395.76  106.29
  -6   0   6 1501.15  106.69
  -6   0   6 1309.27  107.19
   6   0  -6 1504.65  106.09
   6   0  -6 1381.46  106.29
   6   0  -6 1461.25  106.79
   6   0  -6 1350.16  107.49
   2   6  -6 1554.44  119.29
   6   2  -6 1724.13  119.29
   6   2  -6 1425.76  119.39
   6   2  -6 1651.03  119.99
   6   2  -6 1578.74  120.79
   6   6  -2 1643.84  119.29
   6   6  -2 1621.24  119.49
   6   6  -2 1452.05  119.79
  -6   2   6 1681.93  119.19
  -6   2   6 1602.44  119.39
  -6   2   6 1619.04  119.69
  -6   2   6 1555.84  120.19
  -6   6   2 1514.05  119.29
   2   6  -6 1389.16  119.59
   2   6  -6 1542.25  120.79
   6   6  -2 1461.15  120.19
   2   6  -6 1649.44  119.19
  -2   6   6 1436.76  120.19
  -2  -6   6 1509.65  120.39
  -6  -6   2 1806.12  119.39
  -2  -6   6 1693.83  119.09
  -2  -6   6 1637.64  119.39
   6  -6  -2 1584.14  119.49
   6  -2  -6 1678.93  119.19
   6  -2  -6 1648.64  119.39
   6  -2  -6 1676.13  119.79
   6  -2  -6 1660.73  120.39
  -6  -6   2 1527.85  119.39
  -6  -6   2 1513.35  119.99
  -6  -6   2 1455.85  120.19
  -6  -2   6 1714.03  119.29
  -6  -2   6 1750.72  119.59
  -6  -2   6 1708.43  119.99
  -6  -2   6 1614.84  120.59
  -2  -6   6 1522.85  119.79
   4   6  -6 1184.08   99.39
   6   4  -6 1479.45   98.89
   6   4  -6 1443.96   99.19
   6   4  -6 1414.86   99.69
   6   4  -6 1511.55  100.99
   6   6  -4 1270.17   98.79
   6   6  -4 1251.97   98.99
  -6   4   6 1458.55   98.59
  -6   4   6 1447.76   99.19
  -6   4   6 1319.57   99.79
  -6   6   4 1121.19   98.69
   4   6  -6 1257.47   98.69
   4   6  -6 1263.27  100.69
  -4   6   6 1156.78   98.99
   6   6  -4 1188.98  100.09
   4   6  -6 1279.67   98.99
  -4  -6   6 1224.88   99.39
  -4  -6   6 1327.87   98.79
   4  -6  -6 1131.19   98.79
  -6  -6   4 1318.17   98.89
  -4  -6   6 1302.37   98.89
   6  -6  -4 1244.48   98.99
   6  -6  -4 1141.79   98.99
   6  -4  -6 1523.45   98.79
   6  -4  -6 1425.46   98.89
   6  -4  -6 1448.96   99.39
   6  -4  -6 1374.26   99.99
  -6  -6   4 1285.97   98.99
  -6  -6   4 1151.38   99.49
  -6  -6   4 1179.78   99.99
  -6  -4   6 1435.96   98.89
  -6  -4   6 1469.25   99.19
  -6  -4   6 1523.65   99.89
  -6  -4   6 1352.16  100.59
  -4  -6   6 1280.27  100.19
   6   6  -6 1426.46  106.29
   6   6  -6 1359.26  104.39
   6   6  -6 1366.36  105.09
  -6   6   6 1220.48  104.39
  -6   6   6 1322.87  104.09
   6   6  -6 1489.25  104.19
  -6  -6   6 1354.96  105.89
   6  -6  -6 1400.56  105.09
   6  -6  -6 1425.86  104.49
  -6  -6   6 1430.16  104.39
  -6  -6   6 1411.76  105.19
  -6  -6   6 1468.55  104.19
   0   7  -1   94.69    8.60
   0  -7   1  102.49    8.70
   0   7  -3   35.40    5.20
   0  -7   3   35.90    7.80
  -3   0   7   19.60   11.60
   3   0  -7   35.20    7.80
  -3   0   7   30.80    4.20
  -3   0   7   16.50    4.70
   3   0  -7   22.20    4.30
   3   0  -7   24.20    4.90
   5   0  -7  266.17   21.60
   5   0  -7  269.27   26.10
   0   7  -5  239.08   22.10
   5   0  -7  304.07   21.20
  -5   0   7  305.57   22.80
  -5   0   7  260.07   23.80
   0  -7   5  275.27   24.40
   0   7  -5  259.37   20.80
   5   0  -7  283.77   22.80
  -5   0   7  266.87   21.40
  -5   0   7  275.17   20.90
   0  -7   5  254.27   21.10
  -1  -7   0   91.89    8.20
   2   1  -7   90.79    8.40
   1   7  -2   92.09    9.30
   2   1  -7   99.99   11.80
  -2   1   7   91.49   16.60
   1   7  -2  122.49   11.60
   1  -7   2  107.39   10.60
  -1   7  -2   93.79    9.00
  -1  -7   2  101.29   10.10
  -2  -1   7  110.29    9.10
  -1  -7   2  113.29    9.50
  -2  -1   7   99.89   14.80
   1   7  -4   20.20    5.80
  -4   1   7   10.30    9.70
   7   4  -1   12.10   11.80
  -4   1   7   26.30    4.00
   4   1  -7   23.50    3.90
   4   1  -7   33.80    6.20
   4   1  -7   24.70    7.90
  -4   1   7   18.80    4.20
   7   4  -1   24.40    4.80
  -4   1   7   42.20    8.40
   4  -1  -7   27.40    7.50
  -1  -7   4   23.80    7.40
   4  -1  -7   19.00    4.20
  -7  -4   1   17.10    8.80
  -4  -1   7   25.90    3.70
  -4  -1   7   37.10    9.10
  -4  -1   7   27.50   10.70
   4  -1  -7   26.80   13.00
  -4  -1   7   18.50    4.50
   4  -1  -7   17.90    3.50
  -1  -7   4   20.80    8.10
  -7  -4   1   26.80    4.40
   6   1  -7    6.80    8.80
   6   1  -7    2.70    5.20
  -6   1   7    3.40    8.30
  -6   1   7  -10.70   11.00
   6   1  -7   -5.40   15.50
  -6   1   7    3.30    3.40
   6   1  -7    8.40    3.80
   1   7  -6    2.10    3.20
   1   7  -6   12.30    7.60
  -6   1   7    3.40    4.40
   7   6  -1    5.20    4.80
   7   6  -1   13.50   13.20
  -6  -1   7    5.10    3.80
  -6  -1   7    6.70    4.90
  -6  -1   7   10.30    9.40
  -6  -1   7   18.00   12.20
   6  -1  -7    9.30    5.30
   6  -1  -7   13.50    8.60
  -7  -6   1   11.60    4.20
   6  -1  -7    3.30    3.60
  -1  -7   6    6.00   12.60
   6  -1  -7   13.90   15.30
  -1  -7   6    6.60    4.70
  -7   1   2   98.69   11.90
   7   1  -2  114.79   13.90
   2   7  -1   97.29    9.70
   7   1  -2  101.09    9.70
  -7   1   2   92.29    9.40
   7   1  -2  113.59    9.60
   7  -1  -2  100.79   13.10
   2   7   1  115.79   10.50
  -2  -7   1  111.09   10.50
  -7  -1   2  106.59    9.90
  -7  -1   2  115.19   11.80
  -7  -1   2  107.59    9.40
   7  -1  -2   95.29    9.60
   7   3  -2   15.10    4.20
   2   7  -3   29.60    6.20
   7   3  -2   26.60   11.20
   2   7  -3   16.10    8.70
  -7   3   2   28.80    8.30
   2   7  -3   15.60    2.80
  -3   2   7    9.40    3.00
   3   2  -7   14.90    7.50
   3   2  -7   15.90   12.60
   7   3  -2   14.40    4.00
   3   2  -7    5.90    4.20
   3   2  -7   14.30    3.40
  -3   2   7    8.70    3.70
  -3   2   7   20.10   11.10
  -7   3   2   13.90    3.70
  -7  -3   2   -0.70    8.90
   7  -3  -2   28.90    9.80
   7  -3  -2    8.10    3.70
  -2  -7   3   16.80    6.10
  -7  -3   2   10.10    4.50
   3  -2  -7   14.50    7.00
   3  -2  -7   10.70    2.80
   3  -2  -7   15.60    4.60
  -2  -7   3   17.90    7.20
  -3  -2   7   14.30    3.80
  -2  -7   3   17.80    2.80
   2   7  -5  187.78   16.90
  -5   2   7  214.68   16.80
   7   5  -2  185.08   17.10
   5   2  -7  243.48   16.70
   5   2  -7  209.18   17.50
   5   2  -7  225.78   18.90
   5   2  -7  212.38   23.50
  -5   2   7  211.38   19.60
   7   5  -2  185.08   16.90
   2   7  -5  198.28   21.70
  -5   2   7  242.08   16.40
   7   5  -2  196.48   21.00
   2   7  -5  171.38   17.70
   2   7  -5  182.48   16.30
  -7   5   2  177.78   18.20
   5  -2  -7  239.38   18.40
   5  -2  -7  233.78   17.00
  -5  -2   7  238.98   19.20
  -5  -2   7  240.48   20.60
   5  -2  -7  235.88   16.50
  -7  -5   2  188.78   20.10
  -7  -5   2  173.18   17.40
   5  -2  -7  232.08   21.90
  -5  -2   7  237.68   16.70
  -5  -2   7  235.28   17.20
  -2  -7   5  206.08   16.30
  -2  -7   5  199.68   16.80
  -2  -7   5  199.68   18.30
   7  -5  -2  169.98   19.10
  -7  -5   2  186.68   16.90
  -2  -7   5  200.68   19.40
   7   0  -3   41.40   10.90
   7   0  -3   23.40    4.50
   3   7   0   29.90    7.60
  -3  -7   0   23.10    6.80
  -7   0   3   23.90    4.20
  -7   0   3   23.20    4.50
  -7   0   3   47.60   10.30
   7   0  -3   27.90    4.30
  -7   0   3   21.10   10.20
   7   0  -3   37.20    8.80
   2   3  -7    6.80    2.80
   7   2  -3    4.80   10.60
  -7   2   3    7.70    3.30
   7   2  -3   22.50    8.60
   3   7  -2   11.10    2.80
   2   3  -7   15.50    5.10
   7   2  -3   13.90    3.90
   3   7  -2   20.70    6.40
   3   7  -2   12.50    7.60
  -7   2   3   19.40    9.20
   2   3  -7   26.40    8.30
   7   2  -3    9.00    3.90
  -7   2   3   13.40    3.80
  -2  -3   7    6.20    3.20
  -2  -3   7    6.90    3.40
  -7  -2   3   28.20   17.20
  -7  -2   3   16.50    3.90
   7  -2  -3    6.00    3.40
  -3  -7   2   16.90    2.90
  -3  -7   2   18.00    6.30
   7  -2  -3   10.70    8.00
   7  -2  -3   23.00    9.40
  -7  -2   3   10.10    4.00
  -3  -7   2   19.20    7.60
  -7  -2   3   14.20   11.30
  -2  -3   7   14.20   11.90
   7  -2  -3    6.80    3.70
  -4   3   7   18.60    8.30
   7   4  -3   45.40   12.10
   3   7  -4   17.90    3.70
  -4   3   7   33.00    9.80
   3   7  -4   28.30    8.00
   7   4  -3   15.60    9.10
  -4   3   7   20.90    3.20
  -4   3   7   18.70    4.10
  -7   4   3   24.50    4.00
  -7   4   3   42.30    9.30
   7   4  -3   22.70    5.10
   4   3  -7   17.40    5.20
   4   3  -7   16.80    4.10
   3   7  -4   20.00   11.20
   4   3  -7    8.10    8.20
   4   3  -7   38.30   16.30
   7   4  -3   20.90    4.50
   3   7  -4   24.00    4.80
  -7  -4   3   44.20   12.80
  -3  -7   4   20.00    3.70
  -4  -3   7   24.00   12.20
  -4  -3   7   18.60    5.00
  -7  -4   3   20.90    4.70
  -7  -4   3   34.30   11.30
   7  -4  -3   22.70    4.00
   4  -3  -7   20.40   12.30
  -3  -7   4   24.00    8.10
  -3  -7   4   28.60    9.30
   4  -3  -7   11.40    3.90
  -4  -3   7   36.10   10.00
   7  -4  -3   15.30    4.00
   4  -3  -7   20.60    7.10
  -4  -3   7   18.60    3.70
  -3  -7   4   22.60    4.50
   4  -3  -7   14.50    3.20
   3   7  -6   12.90    8.60
   7   6  -3    8.40   13.40
  -6   3   7   10.00   10.70
   7   6  -3   19.40   10.50
  -3   7   6    9.60    8.20
   6   3  -7   33.50   31.60
  -6   3   7    6.50    4.40
  -7   6   3   21.40    8.00
   6   3  -7    2.90    4.50
   6   3  -7    9.40    7.10
   6   3  -7   14.80   18.80
   3   7  -6    6.70    5.00
   3   7  -6    0.90   15.20
  -6   3   7    6.50    8.00
   7   6  -3    7.50    4.70
   3   7  -6    6.70    3.40
   7   6  -3    8.80    5.50
  -6   3   7    7.60    3.50
   6  -3  -7    1.60    8.90
   3  -7  -6    7.10    5.50
  -3  -7   6   26.10    9.60
  -6  -3   7   10.20   14.80
  -6  -3   7    6.00    5.30
   7  -6  -3   16.10    8.60
   6  -3  -7   -1.80    3.70
  -3  -7   6   15.80   11.40
  -3  -7   6    5.60    4.60
  -7  -6   3   25.60   11.70
  -7  -6   3   17.70    4.80
  -7  -6   3    6.30   14.20
  -3  -7   6   12.10    3.60
  -6  -3   7    7.70    5.00
  -7  -6   3   15.20    5.20
   6  -3  -7   37.70   15.10
   4   7  -1   24.30    4.00
  -7   1   4   22.40    8.70
  -7   1   4   17.30    3.70
  -7   1   4    9.40    9.60
   4   7  -1   31.60    8.80
   7   1  -4   18.00    3.70
   7   1  -4   20.40    4.70
   7   1  -4   30.40    8.60
  -7   1   4   18.70    4.20
   4   7  -1   19.40    3.50
   7   1  -4   29.50   11.40
  -7  -1   4   12.50    3.70
   7  -1  -4   14.30   10.50
  -7  -1   4   14.90    4.40
  -4  -7   1   26.70    4.40
  -7  -1   4   26.80   10.70
  -4  -7   1   25.60    8.60
   7  -1  -4   15.00    4.40
  -4  -7   1   22.20    4.00
   4   7   1   -8.10   12.30
   7  -1  -4   14.30    3.80
  -7  -1   4   24.70    9.30
   7  -1  -4   34.90    8.30
  -7   3   4   13.20    3.60
  -7   3   4   11.70    7.90
  -7   3   4   29.10   10.30
   3   4  -7   28.70    5.60
   3   4  -7   18.90    8.70
   3   4  -7   29.40   15.10
   4   7  -3   22.20    3.70
   7   3  -4   10.50    3.90
  -7   3   4   18.40    4.10
  -3   4   7   14.90    3.80
   4   7  -3   23.90    4.00
   4   7  -3   37.00    8.80
   4   7  -3   21.60    9.80
   7   3  -4   25.00    4.90
  -3   4   7   30.50   11.50
   7   3  -4   29.60   13.50
   7   3  -4   19.30    9.40
   3   4  -7   17.50    4.10
  -4  -7   3   20.10    4.40
  -4  -7   3   23.70    7.70
  -4  -7   3   35.20   10.00
  -3  -4   7   26.00    4.60
  -3  -4   7   19.80    4.90
   7  -3  -4   16.80    4.20
   7  -3  -4   26.10    9.10
   7  -3  -4   17.90    3.80
  -7  -3   4   16.90   11.90
  -4  -7   3   23.10    3.80
  -7  -3   4   18.80    4.20
  -7  -3   4   15.20    4.90
  -7  -3   4   26.80   10.70
  -3  -4   7   28.50    9.20
  -3  -4   7   34.80   12.20
   7  -3  -4   15.20   10.20
  -5   4   7   93.79   12.30
   7   5  -4   52.19    9.30
   5   4  -7   82.79    7.60
   5   4  -7   82.69    9.50
  -7   5   4   58.39    9.70
   5   4  -7  117.59   19.30
  -5   4   7   67.59    7.60
   4   7  -5   64.59    7.40
   4   7  -5   68.09    9.20
   7   5  -4   95.19   15.60
   4   7  -5   64.79   13.80
   5   4  -7   97.79   12.60
  -5   4   7   76.49   10.30
   7   5  -4   75.49   12.30
   4   7  -5   82.09   12.00
  -5  -4   7  111.29   15.60
  -4  -7   5   67.19    7.20
  -5  -4   7   87.09    7.60
   5  -4  -7   76.99    7.00
  -7  -5   4   69.99   13.80
  -7  -5   4   82.09   15.40
  -4  -7   5   65.99    8.70
   7  -5  -4   50.89    9.60
   7  -5  -4   66.89   12.00
   5  -4  -7   75.89   10.20
   7  -5  -4   54.39    7.00
  -4  -7   5   65.19   12.10
  -5  -4   7   72.99    8.60
  -7  -5   4   61.79    8.20
  -4  -7   5   88.79   14.80
  -7  -5   4   59.29    8.70
   5  -4  -7   71.49    7.00
   5   7   0  240.78   21.70
  -7   0   5  307.67   21.70
   7   0  -5  258.97   21.90
  -7   0   5  268.17   24.30
  -7   0   5  264.97   21.80
   7   0  -5  284.47   23.70
   7   0  -5  272.07   24.70
   7   0  -5  281.87   21.50
  -7   0   5  314.47   23.30
  -7   2   5  193.18   16.80
   2   5  -7  199.58   16.60
  -7   2   5  228.68   16.60
   7   2  -5  206.08   21.10
  -7   2   5  244.88   18.50
  -7   2   5  233.78   19.80
   7   2  -5  251.67   20.20
   5   7  -2  192.58   16.70
   5   7  -2  169.78   18.50
   2   5  -7  181.08   18.80
   7   2  -5  207.58   17.40
   7   2  -5  228.28   16.80
   2   5  -7  213.48   17.70
   7  -2  -5  246.48   19.10
   7  -2  -5  203.08   16.90
  -2  -5   7  199.38   17.50
  -5  -7   2  168.48   20.10
   7  -2  -5  222.18   16.60
  -7  -2   5  241.28   17.30
  -7  -2   5  229.78   19.30
  -5  -7   2  188.58   16.70
   7  -2  -5  251.37   20.20
  -2  -5   7  211.28   16.70
  -2  -5   7  216.88   22.50
  -5  -7   2  175.38   17.00
  -5  -7   2  180.68   18.90
   5   7  -4   83.09   14.00
  -4   5   7   71.89   11.80
  -7   4   5   74.39    6.70
  -7   4   5   66.39   12.50
  -7   4   5   80.79    9.90
   4   5  -7   63.29    9.10
   4   5  -7   65.09   11.50
   4   5  -7  102.89   17.80
   7   4  -5   79.79    7.50
   5   7  -4   64.09    7.60
   5   7  -4   54.59    8.00
   4   5  -7   53.69    7.30
   5   7  -4   75.99   12.70
   7   4  -5  104.99   16.10
   7   4  -5   69.49    8.20
  -5  -7   4   52.29    7.00
  -4  -5   7   62.89    6.90
   7  -4  -5   64.39    6.50
  -7  -4   5   89.39   15.20
  -4  -5   7   70.09   12.50
  -4  -5   7   79.29   14.90
  -7  -4   5   72.59    8.50
  -4  -5   7   53.69    8.30
   4  -5  -7   49.90    9.20
  -5  -7   4   63.69   11.00
   7  -4  -5   65.89    7.20
   7  -4  -5   81.19   11.10
   7  -4  -5   72.99   12.20
  -5  -7   4   56.79    8.30
  -7  -4   5   79.99    7.40
  -5  -7   4   81.89   13.90
   7   6  -5   31.60   12.30
   7   6  -5    9.90   16.40
   7   6  -5   10.10    4.80
   6   5  -7   12.10    4.80
  -7   6   5    3.60   10.30
  -6   5   7    9.20    8.50
  -7   6   5   28.30    7.40
   5   7  -6   27.70   12.60
  -5   7   6   28.00    9.10
   6   5  -7   32.90   18.60
   5   7  -6   15.90    4.50
   5   7  -6   10.10    6.30
   5   7  -6   17.60   14.00
   6   5  -7   13.60    6.70
   7   6  -5    3.10    5.30
   6   5  -7    5.20   12.90
  -6   5   7   31.60   11.10
   6  -5  -7    6.70    9.20
   5  -7  -6   15.00    7.10
  -5  -7   6   14.60    5.30
  -5  -7   6   25.10   10.70
  -5  -7   6   31.00   15.80
  -7  -6   5   21.40    4.60
   6  -5  -7    8.50    3.80
  -7  -6   5   23.10    5.90
  -7  -6   5   20.70   11.60
  -6  -5   7   16.80   16.20
  -6  -5   7   13.70    4.90
  -6  -5   7    9.30    6.20
  -5  -7   6   10.20    4.50
   7  -6  -5   24.30   10.20
   6  -5  -7    8.10   13.70
  -6  -5   7   17.60   11.80
  -7   1   6    2.00    3.70
  -7   1   6    3.50    4.80
   1   6  -7    8.40    2.80
   1   6  -7   12.60    9.20
   6   7  -1   10.30    4.70
   6   7  -1    0.00   10.90
  -7   1   6   10.20    9.00
   7   1  -6  -11.60   13.70
   7   1  -6   -0.70   10.80
  -7   1   6  -12.10   12.20
   7   1  -6    4.80    3.30
   7   1  -6   -1.00    4.30
   7  -1  -6    5.80   10.80
   7  -1  -6    8.70    4.60
   7  -1  -6    3.40    2.70
  -6  -7   1   -7.20    8.20
  -7  -1   6   10.80    9.70
  -7  -1   6   26.50   13.10
  -7  -1   6    4.40    3.90
  -7  -1   6    5.40    4.70
  -1  -6   7    4.80    3.60
  -1  -6   7   11.30   14.30
  -6  -7   1    0.60    3.20
   7  -1  -6   11.90   13.10
   7   3  -6   12.50   19.70
  -7   3   6   14.40    8.60
   6   7  -3   10.10    4.00
   3   6  -7   13.40    8.90
   3   6  -7   12.40   16.10
   7   3  -6    6.30    5.30
   7   3  -6    7.60    4.20
   3   6  -7   15.40    5.90
  -7   3   6    6.00    3.70
  -7   3   6    4.90    4.40
   6   7  -3    3.90   13.00
  -7   3   6    6.80   10.70
   6   7  -3   10.70   10.00
   6   7  -3   17.80    5.40
   3   6  -7   11.50    3.90
  -6   7   3    4.60    5.80
  -3   6   7   23.80   11.30
   3  -6  -7   -0.30    5.10
  -3  -6   7   13.10   10.10
  -3  -6   7    9.20    4.70
  -6  -7   3   13.20    4.30
   6  -7  -3   17.60    7.50
   7  -3  -6    6.20    3.40
  -6  -7   3   12.50    5.10
  -6  -7   3   16.90   10.60
  -6  -7   3   19.50   12.10
  -3  -6   7    2.60   12.40
  -3  -6   7   13.80    4.00
   7  -3  -6   18.40    5.00
   7  -3  -6   -0.60   10.10
   7  -3  -6   27.30   12.80
  -7  -3   6    4.00   17.10
  -7  -3   6   -0.40    5.80
  -7  -3   6   -2.10   17.00
  -7  -3   6    8.50    5.80
  -7   5   6   20.30    9.70
   7   5  -6    8.60    6.00
   7   5  -6   18.00   14.00
   7   5  -6   31.50   17.70
   7   5  -6   11.90    5.10
  -7   5   6    6.60    7.90
   6   7  -5   28.90   15.70
   6   7  -5   16.10    5.00
   6   7  -5    9.40    5.70
   6   7  -5   23.30   12.70
  -5   6   7   18.20    9.70
   5   6  -7   13.20    4.70
   5   6  -7   14.70   10.60
   5   6  -7   12.20   15.80
  -6   7   5   22.60    6.30
  -6   7   5   24.20    8.90
   7  -5  -6   15.70   10.20
   6  -7  -5   19.80    7.60
  -6  -7   5   12.60    4.80
  -6  -7   5   19.00    6.00
  -6  -7   5   25.20   10.20
  -6  -7   5   45.10   14.50
  -7  -5   6   22.80   15.80
  -5  -6   7   22.50    4.60
  -5  -6   7   17.90    5.90
  -5  -6   7    5.50   10.20
  -5  -6   7   28.90   13.20
   7  -5  -6   19.50   12.30
   5  -6  -7   32.10    7.50
   6  -7  -5   22.60   10.50
  -7  -5   6    8.30    4.90
  -7  -5   6    7.50    6.20
  -7  -5   6   18.30   11.50
  -7   0   7    1.80    4.00
  -7   0   7    3.90    5.20
  -7   0   7    3.90   10.10
  -7   0   7   16.10   13.50
   7   0  -7   -4.80    3.80
   7   0  -7    7.40    5.20
   7   0  -7   -0.20   10.80
   7   0  -7   11.40   15.40
   7   7  -2    7.20    4.80
   7   7  -2    9.80    5.40
   7   7  -2   11.40   13.70
   7   2  -7    1.50    4.30
   7   2  -7   10.90    5.60
   7   2  -7   11.00   12.00
   7   2  -7   10.40   16.90
  -7   2   7    1.60    3.90
  -7   2   7    2.50    5.00
  -7   2   7   16.20    9.40
  -7   2   7   -1.40   13.10
  -7   7   2   16.10    7.40
   2   7  -7   17.10    6.60
   2   7  -7   11.60    8.80
   2   7  -7   14.10    3.90
  -2  -7   7   -3.00   13.50
  -2  -7   7    8.60    4.10
   7  -7  -2    1.70    9.10
   7  -2  -7    8.00    4.00
   7  -2  -7   18.40    5.40
   7  -2  -7   14.50   10.40
   7  -2  -7   22.30   14.70
  -7  -2   7    7.80    4.30
  -7  -2   7    4.40    5.60
  -7  -2   7    8.60   10.90
  -7  -2   7    6.40   14.30
  -7  -7   2    6.00    4.60
  -7  -7   2    9.70    5.70
  -7  -7   2    4.40   12.00
   7   4  -7    4.90    4.70
   7   4  -7   -4.00    5.90
   7   4  -7   26.50   12.90
   7   4  -7    7.30   17.50
   7   7  -4    9.60    4.80
   7   7  -4    4.30    5.30
   7   7  -4   17.30   11.50
   7   7  -4   -6.50   14.90
  -7   4   7    9.50    3.90
  -7   4   7    9.40    5.10
  -7   4   7   17.80    8.50
  -7   4   7   -4.30   13.40
  -7   7   4    7.70    6.60
   4   7  -7    4.80   19.00
   4   7  -7   12.70   10.20
   4   7  -7    4.20    5.80
   4   7  -7    3.20    4.10
  -4   7   7    8.10    9.30
  -4  -7   7   24.10   13.80
  -4  -7   7   -1.50   11.80
  -4  -7   7   11.80    5.60
  -4  -7   7    5.60    4.00
   7  -7  -4    5.60    8.30
   7  -4  -7    3.50    3.70
   7  -4  -7    4.20    5.20
   7  -4  -7   14.80   10.40
   7  -4  -7   21.60   15.50
  -7  -7   4    7.80    4.50
  -7  -7   4   10.70    5.70
  -7  -7   4   -1.40   11.10
  -7  -7   4   20.70   14.10
  -7  -4   7   -1.20    4.40
  -7  -4   7    3.50    6.10
  -7  -4   7   13.80   11.40
  -7  -4   7   15.80   15.90
   6   7  -7   -0.20    4.70
   7   6  -7    0.80    4.60
   7   6  -7   12.70    7.20
   7   6  -7   10.40   14.70
   7   6  -7   36.50   19.50
   7   7  -6   -6.10    5.20
   7   7  -6   -3.50    6.30
   7   7  -6    7.10   14.50
  -7   6   7   -8.50    8.70
  -7   7   6    7.70    7.40
  -7   7   6   11.80   10.10
   6   7  -7  -12.60   17.60
   6   7  -7    1.00    6.90
   6   7  -7    9.70   13.90
   7   7  -6   -9.70   16.90
  -6   7   7   13.20    8.10
  -6   7   7   -2.20   12.20
   6  -7  -7    1.50    8.40
   6  -7  -7   -0.70   13.50
  -7  -7   6    3.60    5.10
  -6  -7   7    2.70    6.20
  -6  -7   7    7.80   13.20
  -6  -7   7    4.70    4.90
   7  -7  -6   11.80    9.00
   7  -7  -6   -3.30   12.50
   7  -6  -7  -16.40   10.10
   7  -6  -7  -11.30   14.60
  -7  -7   6   -1.70    6.30
  -7  -7   6    0.70   10.10
  -7  -7   6   -4.70   16.40
  -7  -6   7   -4.70    4.60
  -7  -6   7    0.30    6.70
  -7  -6   7   -4.00   13.20
  -7  -6   7   -7.60   17.20
  -6  -7   7  -21.30   17.40
   0   8  -2 3310.37  247.28
   0  -8   2 3326.77  247.48
   4   0  -8 2190.88  172.58
   4   0  -8 2376.36  172.18
  -4   0   8 2245.68  172.48
  -4   0   8 2250.47  173.28
   0  -8   4 2216.08  172.58
   0   8  -4 2363.16  172.08
   4   0  -8 2482.95  171.98
  -4   0   8 2275.37  171.88
  -4   0   8 2292.67  172.18
   4   0  -8 2340.77  173.48
   6   0  -8 1367.56  100.49
   6   0  -8 1364.06   99.89
   6   0  -8 1357.86   99.59
  -6   0   8 1373.86  100.39
  -6   0   8 1328.77  101.29
   0  -8   6 1261.37   99.49
   0  -8   6 1391.06  101.29
   0   8  -6 1256.17   99.29
   0   8  -6 1244.08   99.99
   6   0  -8 1366.26  102.09
  -6   0   8 1357.06   99.49
  -6   0   8 1285.97   99.79
   1   8  -1    7.60    4.90
   1   8  -1   -3.40    6.30
  -1  -8   1    4.70    5.60
  -1  -8   1   -1.00    4.60
   1  -8   3   11.70    8.40
  -3   1   8   -3.50   12.60
   3   1  -8    8.00    8.20
   1   8  -3   23.10   10.30
   3   1  -8   14.80    5.40
   1   8  -3   16.10    5.70
  -3  -1   8   10.00   13.40
   3  -1  -8   -1.70    8.10
  -1  -8   3   17.30    7.30
  -1   8  -3   12.20    5.20
  -1  -8   3   21.00    6.50
  -3  -1   8    7.60    4.80
  -3  -1   8    0.80    3.50
  -5   1   8   -0.50    4.70
   5   1  -8  -15.10    9.60
  -5   1   8   -7.20   12.50
  -5   1   8    0.80    9.10
   1   8  -5   -3.10    2.90
   8   5  -1   -5.10   17.90
  -5   1   8   -2.90    3.40
   1   8  -5   -6.70    6.90
   5   1  -8   -3.20    3.80
   5   1  -8    6.10    5.30
   8   5  -1   -5.80    6.50
   5   1  -8   13.60   17.20
  -1  -8   5    3.50    3.30
  -1  -8   5    8.40    9.70
   5  -1  -8  -10.70   14.80
   5  -1  -8    6.00    9.10
  -5  -1   8    4.80   10.20
  -5  -1   8   11.70   13.10
  -5  -1   8    1.60    3.60
  -1  -8   5   -0.70    3.70
   5  -1  -8   -5.60    4.30
  -5  -1   8    8.10    5.30
   5  -1  -8    1.90    3.30
   8   7  -1    2.40    5.80
   8   7  -1   -0.90   14.30
   7   1  -8    1.20    4.80
   7   1  -8   25.50   19.40
   1   8  -7    3.20    3.60
   1   8  -7    0.10    9.00
  -7   1   8    5.00    5.80
  -7   1   8    8.60   10.30
  -7   1   8   23.70   14.70
   7   1  -8    3.20   12.00
   7   1  -8    6.50    6.50
  -7   1   8   -3.20    4.10
   7  -1  -8   12.40   19.20
  -7  -1   8   -5.30    6.10
  -8  -7   1  -10.20   10.80
  -7  -1   8    6.60    4.50
  -7  -1   8   17.70   11.80
  -7  -1   8    2.20   16.20
   7  -1  -8   -0.90    6.10
   7  -1  -8    9.20    4.90
  -1  -8   7    4.10    5.40
   7  -1  -8   19.00   11.40
  -1  -8   7   -5.20   14.80
  -8   0   2 3444.46  267.47
  -2  -8   0 3519.25  266.87
   2   8   0 3539.15  267.07
   8   0  -2 3825.02  267.27
   2   8  -2 3333.47  241.68
  -8   2   2 2916.01  241.78
   8   2  -2 3130.69  242.18
   2   8  -2 3078.19  241.28
   8   2  -2 3368.66  241.58
  -8   2   2 3277.37  241.38
   8  -2  -2 3186.98  241.48
  -8  -2   2 3482.85  241.48
  -2  -8   2 3302.87  241.38
  -2  -8   2 3001.50  241.38
  -8  -2   2 3523.75  242.28
   8   4  -2 2577.04  175.48
   4   2  -8 2198.98  175.28
  -8   4   2 2371.56  175.28
   2   8  -4 2616.64  176.38
   4   2  -8 2288.07  175.58
   8   4  -2 2733.33  176.78
   2   8  -4 2217.68  175.38
   4   2  -8 2152.48  176.78
   8   4  -2 2371.26  175.48
  -4   2   8 2378.96  175.18
   4   2  -8 2088.89  175.88
  -8   4   2 2091.09  175.68
  -4   2   8 2216.18  176.48
  -4   2   8 2246.88  175.48
  -2  -8   4 2602.84  175.68
  -2  -8   4 2623.24  175.08
  -4  -2   8 2272.27  175.28
  -2  -8   4 2217.48  175.78
  -8  -4   2 2611.04  176.18
   4  -2  -8 2368.86  175.28
   4  -2  -8 2148.69  175.78
   4  -2  -8 2351.26  175.38
   8  -4  -2 2303.47  175.38
  -4  -2   8 2294.27  175.48
  -4  -2   8 2150.98  175.88
  -4  -2   8 2185.18  176.58
  -2  -8   4 2631.14  175.28
  -8  -4   2 2442.86  175.58
   8   6  -2 1483.95  110.59
  -6   2   8 1366.26  110.59
   2   8  -6 1416.46  110.89
  -8   6   2 1382.66  110.89
   6   2  -8 1420.66  113.19
   8   6  -2 1502.75  110.79
   2   8  -6 1677.93  110.69
  -6   2   8 1481.05  111.19
  -6   2   8 1373.76  111.89
  -6   2   8 1471.05  110.29
   6   2  -8 1407.16  110.89
   6   2  -8 1408.86  111.39
   6   2  -8 1458.15  110.49
   2   8  -6 1605.24  110.29
   8   6  -2 1583.54  112.29
  -8  -6   2 1534.45  111.69
   6  -2  -8 1374.76  110.39
   6  -2  -8 1514.85  112.59
  -6  -2   8 1452.55  111.39
  -2  -8   6 1596.94  110.29
  -2  -8   6 1581.54  110.59
  -2  -8   6 1574.54  111.19
  -2  -8   6 1441.56  111.69
  -8  -6   2 1558.54  110.89
  -6  -2   8 1388.76  112.19
   6  -2  -8 1412.96  110.59
   6  -2  -8 1380.06  111.09
  -6  -2   8 1456.15  110.49
  -6  -2   8 1384.26  110.79
  -8  -6   2 1572.14  110.69
   8   1  -3   10.90    4.60
  -8   1   3    5.30    3.60
   8   1  -3   24.40   10.10
   3   8  -1   26.00    8.20
  -3  -8  -1    4.80    5.70
  -8   1   3   -1.10   10.30
   3   8  -1   16.20    7.10
  -8   1   3   10.10    4.40
   8   1  -3    6.00    4.00
   8   1  -3   40.80   12.50
  -8  -1   3    1.10    4.50
   3   8   1    9.70    7.60
  -3  -8   1    9.90    8.60
  -8  -1   3    5.00    4.10
  -3  -8   1    8.80    6.90
   8  -1  -3   -3.20   11.00
   8  -1  -3    7.70    4.10
  -8  -1   3   13.50   12.30
  -8  -1   3    7.40   11.40
   3   3  -8   17.40    6.10
  -8   3   3   20.40   10.20
   3   3  -8   10.30    9.40
   8   3  -3   15.60    4.80
   3   3  -8    6.70    3.60
   8   3  -3    1.10    4.80
   8   3  -3    6.50   11.70
  -8   3   3    7.40    3.50
  -3   3   8   -1.90   12.50
   8   3  -3   11.80   13.70
  -3   3   8    1.70    3.20
  -8  -3   3   10.80   13.70
  -3  -3   8    2.10    5.10
   3  -3  -8   -8.50    6.50
  -8  -3   3    9.80    4.30
   8  -3  -3   28.40   11.30
  -3  -3   8    7.10    3.60
  -8  -3   3   13.40   12.70
  -8  -3   3    6.20    5.20
   8  -3  -3    9.80    4.00
  -3  -3   8   -8.60   13.70
  -5   3   8    7.10    4.90
   3   8  -5   16.60    4.50
   8   5  -3   12.80    5.00
   8   5  -3   13.40   11.50
   5   3  -8   -1.10   25.90
   3   8  -5   15.30   11.00
  -8   5   3    7.70    3.80
   8   5  -3    5.70    5.80
  -5   3   8    8.00    3.50
   8   5  -3    3.20   14.40
  -5   3   8   21.30    9.40
   5   3  -8   -4.10    4.70
  -8   5   3   20.30    9.70
   3   8  -5   21.40    8.10
  -5   3   8    7.80   12.20
   3   8  -5   11.50    3.70
  -5  -3   8    2.70    4.10
  -3  -8   5   24.70   10.30
  -8  -5   3   35.30   13.50
   5  -3  -8   12.50    8.90
   5  -3  -8    4.80    4.80
  -3  -8   5   14.60    4.60
  -8  -5   3   10.10    5.50
   8  -5  -3   10.00   10.40
  -5  -3   8   -0.40    5.50
  -8  -5   3   14.40   15.30
  -5  -3   8   11.40   16.30
  -3  -8   5   31.20    8.60
  -8  -5   3   13.00    4.70
   5  -3  -8   25.70   15.60
   5  -3  -8    7.10    3.30
   8   7  -3    6.10    5.30
  -7   3   8   19.20    5.70
  -7   3   8   42.30   14.30
   7   3  -8    3.10    7.00
  -3   8   7   15.10   10.60
  -8   7   3   -0.60    8.70
   3   8  -7   -4.30    6.00
   3   8  -7   32.40   17.30
   8   7  -3   14.20    6.20
   8   7  -3  -15.70   11.50
   8   7  -3   20.40   16.20
   7   3  -8    3.00   13.90
   7   3  -8  -16.40   18.70
   3   8  -7    8.80    4.30
   7   3  -8    1.80    5.00
  -7   3   8    2.00    4.00
   3   8  -7   13.30   10.50
  -7   3   8    7.00    9.70
  -8  -7   3    1.50    5.30
  -7  -3   8    3.90    6.60
   8  -7  -3   10.40   10.40
  -3  -8   7   17.80   11.40
  -8  -7   3   11.30    4.90
  -7  -3   8    6.20   16.60
  -3  -8   7    6.60    4.00
  -3  -8   7   18.30    5.90
  -3  -8   7   30.20   14.30
   7  -3  -8   10.10   11.70
   7  -3  -8   17.50   18.60
  -8  -7   3   41.20   14.40
   3  -8  -7   -0.30    5.50
  -7  -3   8    3.40    4.70
  -7  -3   8  -10.40   12.10
   7  -3  -8    8.30    5.90
   7  -3  -8   12.10    4.50
  -8  -7   3  -13.80   17.40
   8   0  -4 2286.57  171.68
  -8   0   4 2133.59  171.58
   8   0  -4 2228.08  172.18
   8   0  -4 2303.97  172.68
  -8   0   4 2187.88  171.68
   8   0  -4 2303.57  171.88
  -8   0   4 2290.17  172.48
   4   8   0 2502.75  171.98
  -8   0   4 2453.65  172.38
   8   2  -4 2019.00  167.58
  -8   2   4 2140.89  166.38
   8   2  -4 2251.07  166.38
  -8   2   4 2140.19  167.08
   2   4  -8 2288.37  166.38
  -8   2   4 2001.40  166.28
  -8   2   4 2238.08  166.98
   8   2  -4 2145.59  166.98
   2   4  -8 2242.38  166.98
   8  -2  -4 2224.28  167.28
  -8  -2   4 2197.18  167.18
  -4  -8   2 2530.55  166.88
  -8  -2   4 2362.76  166.48
  -8  -2   4 2185.58  166.48
  -2  -4   8 2457.05  168.18
  -2  -4   8 2379.36  166.58
   8  -2  -4 2136.19  166.88
   8  -2  -4 2296.27  166.38
  -8  -2   4 2214.48  167.48
   8  -2  -4 2104.09  166.48
   8   4  -4 1296.47  100.79
   4   4  -8 1273.47  101.59
   4   8  -4 1542.45  100.69
   4   4  -8 1368.06  103.19
   8   4  -4 1330.37  101.79
  -8   4   4 1319.17  100.79
   4   8  -4 1475.75  100.89
   4   4  -8 1359.26  100.79
  -4   4   8 1336.27  100.79
   8   4  -4 1344.47  101.19
  -4   4   8 1260.07  102.09
  -8   4   4 1298.07  101.19
  -8   4   4 1222.68  100.59
   4   8  -4 1444.46  102.19
   8   4  -4 1359.26  102.89
   4   4  -8 1347.27  100.99
  -4  -4   8 1327.07  101.09
  -8  -4   4 1373.96  102.49
  -8  -4   4 1334.47  101.89
  -4  -4   8 1320.27  100.69
  -4  -4   8 1298.17  101.49
  -4  -4   8 1316.77  102.59
  -4  -8   4 1488.85  101.49
  -4  -8   4 1308.47  101.79
  -8  -4   4 1310.77  100.99
  -8  -4   4 1222.78  100.79
   8  -4  -4 1329.07  100.69
   8  -4  -4 1378.96  101.79
  -4  -8   4 1504.65  100.69
   8  -4  -4 1249.38  100.79
  -6   4   8  986.50   73.99
   4   8  -6  956.50   75.09
   4   8  -6 1002.90   76.39
  -6   4   8 1052.19   74.39
   8   6  -4 1002.90   74.39
   4   8  -6 1038.60   74.19
   4   8  -6 1090.49   74.59
   6   4  -8 1020.70   78.49
  -6   4   8  883.01   75.49
  -8   6   4  912.91   74.59
  -6   4   8 1007.10   74.89
   6   4  -8 1035.50   74.39
   6   4  -8 1015.00   74.99
   8   6  -4  995.80   74.69
   6   4  -8  999.10   75.69
  -4  -8   6 1062.39   75.19
  -6  -4   8 1032.60   74.79
   4  -8  -6  934.01   74.09
  -6  -4   8  911.31   75.59
  -8  -6   4  991.70   74.49
  -4  -8   6 1018.00   74.09
  -8  -6   4 1000.50   74.69
  -4  -8   6 1095.99   74.49
  -6  -4   8  894.11   74.29
  -6  -4   8  967.10   76.59
   6  -4  -8  956.90   74.89
   8  -6  -4  941.41   75.29
  -4  -8   6  938.51   75.69
   6  -4  -8  929.31   74.09
   6  -4  -8  938.41   74.19
   6  -4  -8  999.30   76.49
  -8   1   5  -11.60   11.40
   5   8  -1    0.50    4.30
  -8   1   5   -5.00    9.40
   8   1  -5   -1.00    3.80
  -8   1   5   -3.40    4.40
   5   8  -1    8.20   10.50
   8   1  -5   16.60   13.80
  -8   1   5   -3.70    3.70
   8   1  -5    0.60    4.50
   8   1  -5   -2.30   10.20
   8  -1  -5   -7.00   12.50
  -5  -8   1    5.90    9.60
  -5  -8   1   -1.40    3.60
  -8  -1   5   -1.20    4.90
  -8  -1   5   15.00   10.50
  -8  -1   5    5.70   13.40
   8  -1  -5   -5.40    4.10
  -8  -1   5   -1.60    4.10
   8  -1  -5    1.10    3.50
  -5  -8   1    4.50    4.80
   8  -1  -5   -2.20    9.40
  -8   3   5    4.20    3.70
  -3   5   8   -1.00   12.50
   5   8  -3    9.10    4.30
   3   5  -8    4.80    9.90
   5   8  -3   10.10    3.70
   8   3  -5    7.80    5.30
   5   8  -3   34.70   11.80
   3   5  -8    9.00    6.70
  -8   3   5    4.50    4.30
  -8   3   5   17.20    9.10
   8   3  -5    5.70    4.30
   5   8  -3   18.20    9.40
   3   5  -8    5.10    4.10
   8   3  -5   13.70   12.40
  -8   3   5    2.20   12.80
   8  -3  -5   17.20    4.60
  -3  -5   8    8.10    3.90
  -3  -5   8    0.40    5.10
  -5  -8   3   11.00   11.10
  -3  -5   8    4.40   14.20
  -5  -8   3   18.20    4.80
  -3  -5   8   22.70   12.30
   8  -3  -5   14.30   10.10
   3  -5  -8    2.50    2.20
   3  -5  -8    1.80    6.40
   8  -3  -5    7.30    3.60
  -8  -3   5   -2.20    8.10
   8  -3  -5   39.50   12.20
  -8   5   5   10.60    8.40
   8   5  -5   36.60   12.60
  -5   5   8   37.40   11.90
   5   5  -8   26.90   18.10
   5   8  -5   30.30   11.70
  -8   5   5   17.60   12.00
  -5  -8   5   23.20   14.90
   5  -5  -8    8.90    8.30
  -8  -5   5   10.00   11.70
   8  -5  -5   27.40   10.80
  -5  -5   8   28.10   12.00
   8  -5  -5   15.40   10.10
   8   7  -5  -23.20   12.80
   7   5  -8   12.40   14.00
   7   5  -8    5.70    5.10
  -7   5   8    7.60    3.70
   5   8  -7   -1.00   14.40
  -7   5   8   23.00   10.10
  -7   5   8    1.60   13.40
  -5   8   7   -2.10    9.10
   7   5  -8  -25.40   20.30
   8   7  -5   10.10    6.00
   8   7  -5    0.70    5.00
   5   8  -7    7.50    6.50
   5   8  -7    5.40    4.80
   7   5  -8   -8.40    7.50
   5   8  -7   33.00   13.50
   8   7  -5    9.50   18.40
  -7   5   8    7.30    5.50
   7  -5  -8   -0.50   10.10
  -8  -7   5    9.20    4.90
  -5  -8   7    5.50   10.30
  -8  -7   5    8.10   12.70
  -8  -7   5    7.40   16.70
   7  -5  -8    1.50   15.20
  -7  -5   8   34.10   18.10
  -8  -7   5   -8.40    6.20
  -5  -8   7   11.40   15.20
  -7  -5   8    0.80    6.50
  -5  -8   7    3.20    6.00
   8  -7  -5   -5.60   10.50
   7  -5  -8    7.00    4.40
  -7  -5   8    2.10    5.10
   5  -8  -7    9.40    7.20
  -7  -5   8   18.90   14.30
  -5  -8   7   15.00    4.50
   7  -5  -8    3.60    4.10
   8   0  -6 1258.27   98.99
  -8   0   6 1300.97   98.99
   8   0  -6 1369.06   99.99
   8   0  -6 1330.07  100.79
  -8   0   6 1402.46   99.99
   6   8   0 1453.05   99.19
   8   0  -6 1217.68   99.19
  -8   0   6 1229.98   99.09
  -8   0   6 1333.97  100.39
   8   2  -6 1428.96  111.39
   6   8  -2 1533.65  111.59
   8   2  -6 1382.86  110.19
  -8   2   6 1292.27  110.19
   6   8  -2 1701.23  110.49
   8   2  -6 1411.06  112.09
   2   6  -8 1699.73  110.29
  -8   2   6 1409.96  110.79
   6   8  -2 1589.24  110.99
   8   2  -6 1310.07  110.39
   6   8  -2 1659.83  110.19
  -8   2   6 1322.27  110.09
  -8   2   6 1365.86  111.29
   2   6  -8 1527.95  111.09
  -6  -8   2 1594.54  111.09
  -2  -6   8 1524.45  112.69
   8  -2  -6 1462.15  111.59
  -6  -8   2 1575.24  110.19
  -8  -2   6 1352.86  110.39
   8  -2  -6 1342.27  110.29
   8  -2  -6 1380.46  110.89
  -2  -6   8 1634.14  110.69
  -8  -2   6 1461.35  111.19
  -8  -2   6 1406.96  111.79
  -6  -8   2 1502.35  111.39
  -8  -2   6 1386.76  110.19
  -8   4   6  939.51   73.09
   4   6  -8  995.20   73.69
  -8   4   6  940.01   74.69
  -4   6   8  871.21   74.29
   4   6  -8 1071.09   74.69
   6   8  -4 1047.50   75.59
   4   6  -8  998.80   73.39
   8   4  -6  940.61   73.69
   8   4  -6 1040.80   73.49
  -8   4   6  915.21   73.29
  -8   4   6 1023.60   73.99
   6   8  -4 1041.10   73.29
   8   4  -6  995.20   74.89
   6   8  -4  946.41   74.19
   8   4  -6 1012.60   76.29
   6   8  -4 1017.00   73.49
  -6   8   4  937.91   72.99
  -6  -8   4 1049.09   73.29
  -4  -6   8  988.00   73.69
  -8  -4   6 1024.50   75.69
   8  -4  -6  948.51   73.39
  -6  -8   4  992.20   73.39
   8  -4  -6  973.60   74.79
   8  -4  -6  965.30   74.09
   8  -4  -6  840.12   73.09
  -6  -8   4 1023.30   74.39
  -6  -8   4  933.11   75.09
  -8  -4   6  893.01   73.29
  -4  -6   8  947.41   73.19
  -8  -4   6  924.61   74.69
  -8  -4   6  984.90   73.69
  -6   6   8  685.93   61.69
   6   6  -8  770.32   62.49
   6   8  -6  842.62   63.49
  -8   6   6  784.52   61.09
   6   6  -8  769.42   60.69
  -6   8   6  782.62   60.99
  -8   6   6  696.13   60.19
  -6   8   6  830.32   60.59
   6   6  -8  827.72   61.39
   6   8  -6  920.11   60.79
   6   6  -8  850.31   65.09
  -6   6   8  733.73   61.09
   8   6  -6  783.22   62.49
   8   6  -6  805.32   60.79
   8   6  -6  853.11   61.29
  -8   6   6  781.42   62.09
   6   8  -6  863.11   61.19
   6   8  -6  846.42   62.39
  -6  -8   6  893.51   61.09
  -6  -6   8  788.82   60.99
   8  -6  -6  792.22   62.19
  -8  -6   6  789.82   63.59
  -6  -8   6  851.31   63.69
  -6  -8   6  877.21   60.69
   6  -8  -6  839.02   60.79
   6  -8  -6  741.43   61.49
   6  -6  -8  702.83   61.09
  -8  -6   6  789.52   60.69
  -8  -6   6  810.12   61.09
  -8  -6   6  820.62   62.59
   6  -6  -8  771.02   62.79
   8  -6  -6  772.32   61.29
  -6  -6   8  749.82   60.59
  -6  -8   6  920.51   62.59
  -6  -6   8  793.32   62.39
  -6  -6   8  761.82   63.79
   8   1  -7   -4.50   12.90
   8   1  -7   18.20   17.10
   8   1  -7   -0.70    3.60
   8   1  -7    4.40    6.00
  -8   1   7   -0.90    4.20
  -8   1   7    5.00    5.70
  -8   1   7    5.40   10.90
  -8   1   7   16.30   14.80
   7   8  -1   -0.10    5.50
   7   8  -1  -13.10   12.60
   1   7  -8   -7.50   11.80
   8  -1  -7    3.00    5.60
   8  -1  -7   28.00   12.80
  -8  -1   7   27.30   12.10
   8  -1  -7    7.80    4.10
  -8  -1   7   14.70    4.80
  -7  -8   1    4.60   10.10
  -1  -7   8    4.70    5.50
  -8  -1   7    0.70   16.30
  -7  -8   1   -2.90    3.90
   8  -1  -7   10.20   16.30
  -8  -1   7    3.50    6.30
   7   8  -3   -2.40    5.40
   7   8  -3    6.30   11.30
   8   3  -7    0.10    4.50
   8   3  -7    8.00    6.50
  -8   3   7   -1.50    4.30
  -8   3   7   19.30    5.70
  -8   3   7   -8.80   10.10
  -8   3   7   23.30   12.50
   8   3  -7   -5.00   13.90
  -3   7   8   -3.10   12.50
   7   8  -3   11.50   16.00
   3   7  -8    1.80    4.30
  -7   8   3    2.40    6.50
   3   7  -8   -5.80   10.60
   7   8  -3    3.30    4.90
   8   3  -7   -0.80   18.70
   3   7  -8  -10.40    7.00
  -8  -3   7    0.00    4.80
  -7  -8   3   11.70   12.90
  -3  -7   8   26.20   13.00
  -3  -7   8   11.90   14.00
  -7  -8   3   -0.60    5.60
   3  -7  -8    4.30    6.10
  -7  -8   3    4.00   15.60
  -7  -8   3    6.80    4.70
  -3  -7   8   14.40    4.50
   8  -3  -7   11.90    4.00
   8  -3  -7    7.10    5.60
   8  -3  -7   12.80   12.90
   8  -3  -7   34.00   16.20
  -8  -3   7   -3.80   12.70
  -8  -3   7   21.90   17.80
  -8  -3   7   10.40    6.70
  -3  -7   8    6.20    5.40
   7   8  -5    8.20    5.10
   7   8  -5   35.70   13.30
   7   8  -5   24.50   17.20
  -8   5   7    6.80   10.60
   5   7  -8    1.60    6.90
   5   7  -8  -10.00   12.80
   5   7  -8    9.30   15.60
   8   5  -7    4.80    5.70
   8   5  -7   -6.20    6.80
   8   5  -7   16.00   15.70
   8   5  -7  -20.30   20.00
   7   8  -5   21.60    6.50
  -5   7   8    0.00   10.40
  -8   5   7   16.50    9.30
   5   7  -8    5.70    4.60
  -7   8   5   -3.30    6.40
  -8   5   7   10.50    4.30
  -8   5   7    7.70    4.70
  -7  -8   5   10.50    4.70
   8  -5  -7    7.90   11.20
  -7  -8   5   13.10   12.20
  -7  -8   5   16.40   15.10
   8  -5  -7    3.90    5.30
  -5  -7   8    6.30    4.60
  -5  -7   8    2.00    5.80
  -5  -7   8    7.10   12.80
  -5  -7   8    8.40   16.30
   8  -5  -7   11.40   14.70
   5  -7  -8    8.90    7.70
  -8  -5   7    0.50    5.20
  -8  -5   7    1.50    6.60
  -8  -5   7   29.10   13.80
  -8  -5   7    7.30   17.90
  -7  -8   5    7.90    6.00
   7   7  -8    6.70   15.70
   8   7  -7   -4.00    6.10
   8   7  -7   -0.90    7.30
   8   7  -7   -3.30   16.40
  -8   7   7   -8.10   11.40
   7   8  -7  -30.10   16.90
   7   7  -8  -10.70   19.10
   7   8  -7    1.10    5.70
   7   8  -7  -14.40    7.50
   7   8  -7  -12.70   16.00
   7   7  -8   -3.00    5.20
  -7   7   8  -18.80    9.30
  -7   7   8   -9.60   13.90
  -7   8   7    4.30    7.90
  -7   8   7   -1.60    9.00
   7   7  -8   -1.60    8.60
   8   7  -7   13.40   22.10
   7  -7  -8    8.60   15.70
  -7  -7   8    6.70   18.40
   7  -8  -7   17.10    9.40
  -8  -7   7    3.40    5.50
  -7  -8   7    4.90   14.10
  -7  -7   8    3.50    5.40
  -7  -7   8    8.30    7.20
  -7  -7   8   20.50   13.50
  -7  -8   7    2.10    4.90
   8  -7  -7    4.10   10.40
   8  -7  -7   19.70   15.70
  -8  -7   7   10.00    7.70
  -8  -7   7   29.90   14.30
  -8  -7   7   24.30   20.50
   7  -7  -8   -6.60    9.90
  -8   0   8  650.23   49.70
  -8   0   8  668.23   50.19
  -8   0   8  616.64   51.39
  -8   0   8  718.83   53.99
   8   0  -8  645.14   49.70
   8   0  -8  631.14   50.09
   8   0  -8  596.54   51.79
   8   0  -8  720.93   54.19
   8   2  -8  703.43   58.19
   8   2  -8  729.93   58.79
   8   2  -8  677.53   60.29
   8   2  -8  798.42   62.49
   8   8  -2  903.11   58.59
   2   8  -8  855.91   59.39
  -8   2   8  712.73   57.99
  -8   2   8  711.23   58.39
  -8   2   8  748.03   59.39
  -8   2   8  705.33   61.29
   2   8  -8  893.81   57.99
  -2  -8   8  858.31   61.49
  -2  -8   8  895.51   58.49
  -8  -2   8  769.92   62.19
   8  -8  -2  846.62   59.09
   8  -2  -8  718.73   57.99
   8  -2  -8  706.73   58.39
   8  -2  -8  722.33   59.69
   8  -2  -8  793.52   62.09
  -8  -2   8  707.23   58.09
  -8  -2   8  675.03   58.59
  -8  -2   8  756.22   59.99
   4   8  -8  489.85   36.20
   8   4  -8  442.76   36.20
   8   4  -8  400.46   37.10
   8   4  -8  556.64   51.09
   8   8  -4  483.35   35.60
   8   8  -4  502.35   36.10
   8   8  -4  494.55   37.80
  -8   4   8  407.16   35.00
  -8   4   8  405.76   35.60
  -8   4   8  459.05   36.80
  -8   4   8  450.15   39.30
  -8   8   4  490.75   35.70
   4   8  -8  500.15   37.60
   4   8  -8  474.25   41.70
   8   8  -4  503.85   40.80
   4   8  -8  468.85   35.40
  -4   8   8  447.06   36.80
  -4  -8   8  428.16   38.90
  -8  -8   4  481.85   35.60
  -4  -8   8  473.85   35.30
  -4  -8   8  463.55   35.90
   8  -8  -4  464.55   36.50
   8  -4  -8  419.76   35.40
   8  -4  -8  396.06   35.90
   8  -4  -8  461.05   37.80
   8  -4  -8  507.55   40.70
  -8  -8   4  496.55   36.00
  -8  -8   4  520.05   38.60
  -8  -8   4  441.76   40.40
  -8  -4   8  459.25   36.50
  -8  -4   8  391.06   38.50
  -8  -4   8  402.46   42.00
  -4  -8   8  457.05   37.40
   8   8  -6  427.56   31.80
   8   8  -6  418.76   32.70
   8   8  -6  408.96   35.30
   8   8  -6  416.86   38.60
   8   6  -8  376.86   33.10
   8   6  -8  383.96   36.60
  -8   6   8  360.46   32.70
  -8   6   8  386.36   33.60
  -8   8   6  436.46   32.10
   6   8  -8  428.36   35.70
   8   6  -8  404.46   40.80
  -6   8   8  400.26   33.50
   6   8  -8  380.96   38.00
   6   8  -8  437.76   31.80
   6   8  -8  382.96   32.60
   8   6  -8  405.76   32.20
   6  -8  -8  421.56   32.70
   8  -8  -6  449.76   32.80
  -6  -8   8  404.96   31.60
   8  -6  -8  368.86   33.60
   8  -6  -8  427.46   36.10
   8  -8  -6  360.86   34.10
  -8  -6   8  413.46   36.30
  -8  -6   8  404.76   38.90
  -6  -8   8  425.06   34.30
  -8  -8   6  422.36   31.90
  -8  -8   6  444.66   34.80
  -8  -6   8  373.36   31.90
  -8  -6   8  408.16   33.00
   8   8  -8  233.68   30.30
   8   8  -8  216.78   20.80
   8   8  -8  213.78   25.60
  -8   8   8  175.98   20.70
  -8   8   8  230.18   19.80
   8   8  -8  212.68   19.10
  -8  -8   8  258.87   29.90
   8  -8  -8  237.08   22.60
   8  -8  -8  193.78   20.40
  -8  -8   8  235.58   20.80
  -8  -8   8  254.57   25.90
  -8  -8   8  211.48   18.80
   0   9  -1   -0.80    5.00
   0  -9   1    1.40    4.80
   0   9  -3   93.99    9.50
  -3   0   9   93.49    9.20
  -3   0   9  112.19   18.90
   3   0  -9   73.69   12.90
   3   0  -9   80.29    8.30
   0  -9   3  114.29   11.30
   5   0  -9   19.80    6.00
   5   0  -9   29.50   17.60
  -5   0   9   47.00   16.40
   0   9  -5   16.20    7.20
   5   0  -9   23.10    4.70
  -5   0   9   21.20    6.00
   0  -9   5   24.50   11.70
   0   9  -5   15.80    3.40
   7   0  -9   56.09    8.10
   7   0  -9   64.09   12.80
   7   0  -9   39.80    7.00
   0   9  -7   35.50   11.50
   7   0  -9   58.39   21.50
  -7   0   9   40.90    6.30
  -7   0   9   47.50    7.70
  -7   0   9   39.10   13.20
   0  -9   7   30.60    6.50
  -1  -9   0   -3.60    4.70
   1   9  -2   16.20    7.50
   1   9  -2    1.90    6.20
  -1   9  -2    6.30    4.30
  -1  -9   2   -0.70    7.60
  -1  -9   2   -2.40    5.30
  -4   1   9   -2.20   14.70
   4   1  -9   -8.70    5.60
   1  -9   4   -0.80    9.60
   4   1  -9    4.50   10.70
   1   9  -4    5.50    6.40
  -4   1   9   -4.70    3.80
  -4   1   9   -3.10    5.20
   4   1  -9    2.70    4.30
  -1  -9   4    4.30    8.70
  -4  -1   9    3.80   15.50
  -1   9  -4   -3.50    6.00
   4  -1  -9    0.10    9.40
  -4  -1   9    3.30   11.50
   4  -1  -9    1.30    3.70
   4  -1  -9    6.90    6.10
  -4  -1   9    2.30    4.00
  -4  -1   9    4.30    5.50
  -6   1   9    1.60   11.20
   6   1  -9    3.30    4.80
   6   1  -9   -2.50    6.20
   6   1  -9   11.90   11.60
   1   9  -6    2.50    8.00
  -6   1   9    4.00    4.10
  -6   1   9   10.80   14.50
   1   9  -6    2.60    3.70
  -6   1   9   -1.80    5.50
   6   1  -9  -14.50   18.70
  -6  -1   9   -6.30    4.10
  -6  -1   9   36.90   15.00
  -1  -9   6  -10.60   11.80
  -6  -1   9    2.80   12.70
   6  -1  -9    7.00   10.70
   6  -1  -9    9.80   18.60
   6  -1  -9   -0.10    4.40
   6  -1  -9    1.00    5.00
  -1  -9   6   -3.50    4.60
  -6  -1   9   17.70    6.30
   1   9  -8    7.30   10.70
   8   1  -9   -6.60   22.90
  -8   1   9    5.40    6.60
   8   1  -9   -9.20    5.00
  -8   1   9   11.00   12.60
   9   8  -1   -6.30    7.00
  -8   1   9  -15.30   17.10
   8   1  -9  -22.30   13.90
   8   1  -9   -3.90    7.70
   9   8  -1  -45.30   29.50
  -8   1   9    7.70    5.00
   1   9  -8    3.30    4.10
  -8  -1   9    0.80    5.20
  -1  -9   8    1.00   17.50
   8  -1  -9   -2.90    7.40
   8  -1  -9   -2.90   22.30
  -8  -1   9   -3.50   18.60
  -1  -9   8   -3.90    5.80
   8  -1  -9   -5.70   13.30
  -9  -8   1    0.60   15.70
   8  -1  -9    0.60    5.00
  -8  -1   9   -4.20    6.60
  -9  -8   1    0.80    8.00
  -8  -1   9   12.50   14.10
   9   1  -2  -25.30   16.40
  -9   1   2   -0.50   11.50
   2   9  -1   -3.90    6.30
   2   9  -1   11.40    7.60
   9   1  -2   -7.10    4.90
  -9   1   2   -4.00    6.30
  -2  -9  -1   -6.20    6.60
  -9  -1   2   -0.50    4.50
   9  -1  -2    2.00    6.50
  -2  -9   1   -2.40    5.80
  -9  -1   2   -9.70   11.10
   2   9   1   -4.90    6.70
  -2  -9   1    3.80    7.90
   2   9  -3   45.70    9.70
   3   2  -9   65.29    9.00
   9   3  -2   46.40    9.10
   3   2  -9   82.09   12.40
   9   3  -2   43.20   18.10
  -3   2   9   74.29   17.60
   3   2  -9   85.49    7.40
   2   9  -3   70.19   12.30
  -2  -9   3   89.29   12.20
  -3  -2   9   73.79    7.90
  -3  -2   9   96.79   18.90
   3  -2  -9   60.89   11.60
  -3  -2   9   75.79    9.40
  -9  -3   2   67.29   13.50
  -2   9  -3   58.59    8.50
  -2  -9   3   77.19    9.30
   5   2  -9   21.20    5.20
   9   5  -2   11.10    6.40
   2   9  -5   15.40    8.10
   9   5  -2   27.70   16.90
  -9   5   2    5.00   13.50
   5   2  -9   19.10    6.20
  -5   2   9   35.20    5.30
   2   9  -5   23.90   14.20
   5   2  -9   31.60   11.40
   5   2  -9   33.00   16.80
  -5  -2   9   27.80    6.80
  -5  -2   9   43.50   16.40
  -2  -9   5   34.40   10.00
   5  -2  -9   17.70    4.30
  -2  -9   5   26.20    4.70
   5  -2  -9   50.79   11.00
  -9  -5   2   26.10   12.90
  -2  -9   5   27.70   10.50
  -5  -2   9   32.10   10.60
  -9  -5   2   16.10    5.60
  -5  -2   9   26.80    4.90
  -2  -9   5   24.60    5.00
   2   9  -7   38.10    8.00
   2   9  -7   31.20    5.00
   7   2  -9   24.60   13.30
   7   2  -9   43.30   21.00
   9   7  -2   26.30    7.10
   9   7  -2   10.50   17.50
  -7   2   9   24.50    5.10
  -7   2   9   22.00    6.70
   2   9  -7   47.30   10.20
   7   2  -9   18.80    5.80
   7   2  -9   42.30    8.10
  -7   2   9   50.29   12.80
  -7   2   9   43.60   15.30
  -9  -7   2   58.19   15.60
  -2  -9   7   48.50   14.60
   7  -2  -9   44.30   19.60
  -7  -2   9   36.90    6.70
  -9  -7   2   21.40    5.90
   7  -2  -9   46.90   11.30
  -2  -9   7   23.50    6.10
   7  -2  -9   28.90    5.70
  -2  -9   7   33.10    6.00
  -7  -2   9   24.00    7.30
   7  -2  -9   32.70    6.40
  -7  -2   9   58.49   17.50
   9   0  -3  135.49   12.20
  -9   0   3  164.28   17.10
  -9   0   3  132.09   12.40
   9   0  -3  172.68   19.20
  -9   0   3  135.59   13.00
   9   0  -3  134.19   12.60
   3   9   0  104.99   14.10
  -9   2   3   82.59    8.60
   3   9  -2   75.89   12.90
   9   2  -3  114.99   17.50
   9   2  -3   80.19    9.00
  -9   2   3   77.49   14.10
  -3  -9   2   77.49   10.20
  -9  -2   3   84.29   15.70
   9  -2  -3   75.59    9.00
  -3  -9   2   63.89   11.10
  -9  -2   3   74.99    8.80
  -9  -2   3   76.89    9.90
   3   9  -4   22.40    5.60
   9   4  -3   55.39   17.50
   3   9  -4   18.10   10.50
  -4   3   9   24.40   15.70
  -4   3   9   19.10    6.00
   3   9  -4   21.80    4.10
   9   4  -3   28.70    6.80
  -4  -3   9   43.90   17.10
  -3  -9   4   22.90   12.00
  -4  -3   9   25.30    6.50
   9  -4  -3   55.39   14.60
  -3  -9   4   17.20    4.00
  -3  -9   4   26.80    8.30
   4  -3  -9    1.60    7.70
  -4  -3   9   18.60    4.40
  -9  -4   3   33.10    6.10
  -4  -3   9    6.70   17.30
  -9  -4   3   41.00   15.20
   9  -4  -3   34.30    5.50
   3   9  -6    9.90   15.80
  -6   3   9    0.50    5.50
  -6   3   9   11.40   10.80
   6   3  -9  -19.00   12.10
  -9   6   3   29.00   10.80
   9   6  -3  -26.50   16.80
   6   3  -9    9.40   20.00
   3   9  -6    2.70    9.40
  -6   3   9   26.40   13.80
   9   6  -3    1.60    6.60
  -9   6   3   11.90    4.20
   6   3  -9    4.80    6.80
  -6   3   9   12.30    4.30
   3   9  -6    8.30    5.20
   3   9  -6    2.70    3.70
   9   6  -3    8.10    5.80
   6   3  -9   -2.40    4.80
   6  -3  -9    5.50    4.50
  -6  -3   9    2.20   16.10
  -3  -9   6  -22.80   12.70
  -6  -3   9    3.80    4.60
   6  -3  -9   10.10    5.30
   6  -3  -9   17.10   18.10
  -9  -6   3   -2.70   15.10
  -3  -9   6   -5.90    4.80
   6  -3  -9   12.40   10.00
  -9  -6   3    3.40    5.20
  -9  -6   3    7.30    6.60
  -3  -9   6   -6.00    9.70
  -3  -9   6    1.60    4.00
  -6  -3   9   17.60   13.00
  -6  -3   9    1.10    6.50
  -8   3   9   -9.90    6.40
  -9   8   3   -2.10    9.70
   3   9  -8    2.60    7.80
   9   8  -3   37.70   19.60
  -8   3   9   -0.40    4.40
  -3   9   8   -2.70   12.80
   3   9  -8   -8.80   11.70
   8   3  -9   -2.00    8.40
  -8   3   9   15.50   11.80
  -8   3   9   -4.30   16.80
   8   3  -9   -8.20   22.00
   9   8  -3   15.40    7.50
   8   3  -9    4.20    5.50
   9   8  -3   -1.30    6.10
   3   9  -8    7.40    5.00
   8   3  -9   -5.50   14.50
  -9  -8   3   -9.70   14.60
  -8  -3   9    8.60    5.40
  -3  -9   8   -4.50    4.70
  -9  -8   3   -1.40    4.80
   3  -9  -8    7.30    5.70
  -3  -9   8    3.00    6.20
   8  -3  -9  -12.90   13.00
   8  -3  -9  -18.80   20.30
   9  -8  -3   -8.20   11.30
  -3  -9   8   -3.80   15.80
  -9  -8   3    5.90    7.10
  -8  -3   9   22.90   14.10
  -8  -3   9    1.60    7.70
   8  -3  -9    0.30    4.90
   8  -3  -9  -11.60    6.00
  -8  -3   9    3.60   17.70
  -9   1   4   -5.60    4.30
  -9   1   4    2.40   13.80
   9   1  -4   -3.70   10.90
   9   1  -4  -27.50   14.00
  -4  -9  -1    7.90    6.90
   4   9  -1    8.70   10.00
  -9   1   4   -8.30   12.10
  -9   1   4    3.20    5.30
   9   1  -4   -1.60    4.70
  -4  -9   1  -11.20    8.50
  -9  -1   4  -15.90   12.90
   9  -1  -4   -1.50    4.90
   9  -1  -4   -4.50    8.90
  -9  -1   4    2.30    4.90
  -9  -1   4   -9.20    5.20
   9  -1  -4   -6.70    4.40
   4   9   1  -16.70    8.70
  -4  -9   1    5.30    3.20
   9  -1  -4   12.30   13.80
  -9  -1   4  -14.90   15.00
  -9   3   4   25.90    5.70
  -3   4   9   49.20   19.60
   3   4  -9   60.29   11.80
   3   4  -9   31.30    5.10
   4   9  -3   31.70    5.40
   4   9  -3   50.39    9.70
   9   3  -4   14.60    5.80
   9   3  -4   17.40    6.80
   9   3  -4   30.60   16.30
  -9   3   4   41.00   11.80
  -3   4   9   28.30    5.30
   4   9  -3   32.60   11.50
   4   9  -3   32.00    5.10
  -9   3   4   20.90    5.30
  -3  -4   9   32.20    6.80
  -3  -4   9   44.40   17.70
  -4  -9   3   20.80    9.50
  -4  -9   3   26.50    8.10
  -4  -9   3   19.40    4.50
   9  -3  -4   32.90   14.00
   9  -3  -4   32.20    5.50
   9  -3  -4   17.50    5.60
  -3  -4   9   31.10    5.30
   4   9  -5    9.00   10.20
   5   4  -9   19.30    6.40
   5   4  -9    6.70    5.20
  -9   5   4    5.50    3.90
   5   4  -9   19.40   13.50
   5   4  -9   15.40   17.00
  -5   4   9   13.10   14.10
  -5   4   9    9.60    4.20
  -5   4   9    3.90    5.20
   9   5  -4    8.40    5.70
   4   9  -5   19.10   12.30
   4   9  -5   18.60    6.40
  -9   5   4   -1.70    9.70
   4   9  -5   13.40    4.10
  -5  -4   9    2.60   15.70
  -5  -4   9   22.50   11.30
   5  -4  -9   23.60    6.20
  -5  -4   9    3.40    6.30
   9  -5  -4    4.60    4.90
  -4  -9   5   18.00   14.10
  -4  -9   5   12.60    4.20
  -4  -9   5   15.80    5.20
   9  -5  -4    0.30   12.70
   5  -4  -9   12.70    4.20
  -4  -9   5   10.00    9.40
   5  -4  -9   26.50    9.30
  -7   4   9    7.10    4.20
   4   9  -7   10.30    4.90
  -9   7   4    7.90    8.00
   9   7  -4   -6.70   12.00
   9   7  -4   12.10   20.10
   7   4  -9   17.70    6.10
  -7   4   9   31.70   14.20
   4   9  -7   13.40    6.70
   7   4  -9   16.10   15.90
   7   4  -9   -7.70   30.80
   7   4  -9    5.20    7.90
   9   7  -4   13.70    7.10
  -7   4   9   13.90    5.90
   4   9  -7   29.10   11.30
  -7   4   9   25.90   11.40
   4   9  -7   31.80   19.60
   9   7  -4    5.40    5.90
  -7  -4   9   -0.70   11.80
  -9  -7   4   16.20    7.20
  -9  -7   4   36.10   19.90
   7  -4  -9  -14.50   18.40
  -7  -4   9    4.60   17.70
  -7  -4   9    5.30    5.20
   4  -9  -7   -2.90    6.00
  -9  -7   4   -5.20   16.20
  -4  -9   7   17.00   11.50
  -9  -7   4    8.40    5.60
  -4  -9   7    6.10    4.30
  -4  -9   7    4.70    6.00
   7  -4  -9    7.10   10.30
   7  -4  -9    3.40    4.30
   9  -7  -4   38.90   12.60
  -7  -4   9    4.60    6.60
   7  -4  -9   -3.40    4.80
  -4  -9   7    7.90   14.00
   9   0  -5   18.50    4.80
  -9   0   5   39.80   16.50
   5   9   0   12.00    4.80
  -9   0   5   26.40    5.70
  -9   0   5   37.30   12.30
   9   0  -5   10.90   16.40
   5   9   0    3.20    9.80
   9   0  -5    4.80    5.40
   5   9  -2   10.00    4.50
  -9   2   5   51.69   14.40
   2   5  -9    1.60   11.40
   5   9  -2    4.50    9.90
  -9   2   5   21.90   10.10
   9   2  -5   67.99   17.70
  -9   2   5   22.80    5.20
  -9   2   5   20.30    5.30
   5   9  -2   20.60    5.30
   9   2  -5   15.30    5.30
   9   2  -5   27.70    6.70
   5   9  -2   22.30   11.80
   9   2  -5   26.40   12.60
  -9  -2   5   38.20   17.20
   9  -2  -5   21.90   15.40
  -5  -9   2   20.80    4.70
  -5  -9   2   19.20   12.60
  -5  -9   2   17.00    9.50
  -9  -2   5   24.20    6.30
  -5  -9   2   25.90    5.40
   9  -2  -5   22.50    6.00
   9  -2  -5   33.90   11.20
  -2  -5   9   11.70    6.50
   9  -2  -5   22.20    5.00
  -2  -5   9   13.60   23.00
  -9  -2   5   33.10   14.00
  -9  -2   5   26.00    5.60
   6   5  -9  -10.20   14.10
   5   9  -6   12.60    7.30
   9   6  -5   12.90    6.80
   9   6  -5   12.10    5.60
   9   6  -5   54.19   21.10
  -9   6   5    5.00    9.20
   6   5  -9    6.60    5.10
   5   9  -6   23.10   14.10
   9   6  -5   37.30   15.00
   6   5  -9    9.70    7.40
  -6   5   9    4.40    5.40
  -6   5   9    2.90    3.80
  -9   6   5    9.00    4.00
   6   5  -9    7.00   20.00
  -6   5   9   -1.90   13.30
  -6  -5   9   20.30   18.30
  -6  -5   9    2.20    4.80
  -6  -5   9    7.80   13.70
   6  -5  -9    7.20    4.20
  -6  -5   9    3.90    6.50
   9  -6  -5    3.60    4.60
  -5  -9   6   50.39   17.40
  -9  -6   5    4.70    5.40
  -9  -6   5   35.30   19.60
  -5  -9   6    7.20    4.60
  -9  -6   5   16.70   13.80
  -5  -9   6   27.30   11.00
   9  -6  -5   17.30   12.50
   6  -5  -9   -2.20    4.00
  -9  -6   5   20.60    7.10
   6  -5  -9  -14.70    9.00
   5   9  -8   -3.30   13.10
   9   8  -5   52.39   21.90
  -9   8   5   20.10    8.60
   8   5  -9    9.40    5.80
   8   5  -9    3.70    9.30
   9   8  -5    5.50    5.90
   9   8  -5   11.40   16.70
   5   9  -8   -0.40   22.10
   5   9  -8   -5.40    7.20
  -8   5   9  -13.30   18.80
  -8   5   9    2.20    4.30
   9   8  -5   21.90    7.90
  -5   9   8   13.30    9.60
   8   5  -9   11.20   15.30
   5   9  -8   -2.30    5.00
  -8   5   9    1.10    6.50
   8   5  -9    3.00   22.60
  -8   5   9   11.30   12.00
  -9  -8   5   23.90   14.10
  -8  -5   9   -6.90    5.50
   8  -5  -9   -4.00    4.50
   8  -5  -9    1.30   17.10
  -8  -5   9   -6.10   14.70
  -9  -8   5   17.30    6.20
   9  -8  -5   17.10   11.70
   8  -5  -9   -3.40   11.40
  -5  -9   8  -11.10   12.90
  -5  -9   8   25.20   16.00
  -8  -5   9   -8.10   18.30
  -9  -8   5   -0.30    7.10
  -5  -9   8    9.70    6.60
  -8  -5   9   -0.80    8.10
   8  -5  -9   -0.60    4.90
   5  -9  -8   -5.30    7.20
   6   9  -1   16.80   12.90
   9   1  -6  -11.10    5.60
   6   9  -1    6.80    5.30
   9   1  -6   15.10   12.90
  -9   1   6   -8.10    4.10
  -9   1   6    4.90    5.50
  -9   1   6    8.60   11.60
  -9   1   6    3.50   14.80
   9   1  -6    3.90    4.60
   9   1  -6  -22.40   16.10
  -9  -1   6   -6.80    4.60
  -6  -9   1  -11.90    9.30
   9  -1  -6   -0.20    3.90
  -9  -1   6  -11.20   12.00
  -6  -9   1    2.00    3.80
  -9  -1   6   46.40   17.20
   9  -1  -6    0.30    5.40
   9  -1  -6   10.30   11.70
   9  -1  -6    0.10   15.50
  -9  -1   6    9.80    5.90
   9   3  -6    8.10   17.60
   6   9  -3    5.60    4.50
   6   9  -3   -5.50   13.10
  -9   3   6   17.40   10.80
   6   9  -3    4.20   10.90
  -9   3   6    6.00   13.60
   3   6  -9    6.20    5.10
  -9   3   6    0.80    5.30
   6   9  -3   -5.40    5.30
   9   3  -6  -12.80   13.00
   3   6  -9   12.30   11.20
   9   3  -6   -1.00    4.80
   9   3  -6   -1.40    5.90
  -9   3   6    5.70    4.20
  -3   6   9   -4.70   18.30
   3   6  -9   14.20    7.80
   9  -3  -6    1.10   11.40
  -3  -6   9   -1.90    4.70
  -6  -9   3   -3.60   10.10
   3  -6  -9   -2.20    8.00
  -6  -9   3   -1.90    4.40
  -9  -3   6    9.60    4.90
  -9  -3   6   -3.80   17.60
  -6  -9   3    1.20    5.30
  -3  -6   9   -3.30    6.10
   9  -3  -6   37.50   15.10
   9  -3  -6    2.20    4.20
  -6  -9   3  -13.80   15.00
  -9  -3   6    1.30    6.10
   9  -3  -6   10.90    4.90
   3  -6  -9   -0.40    2.80
  -3  -6   9  -15.10   17.20
  -9  -3   6   19.50   13.40
  -9   5   6   -3.10    4.10
   6   9  -5   14.30    6.30
   6   9  -5    4.80    4.70
   6   9  -5   23.00   15.20
  -5   6   9    6.20   13.00
   5   6  -9   20.70   18.10
   6   9  -5   15.80   13.00
   5   6  -9   17.10    5.20
   5   6  -9   -1.90    6.50
   5   6  -9   23.60   13.80
   9   5  -6   10.80    5.20
   9   5  -6    8.70    6.20
   9   5  -6    1.50   14.10
  -9   5   6   -1.40    4.70
  -9   5   6   -6.40   13.60
   9   5  -6   -1.00   21.70
  -6  -9   5   14.00    4.80
  -9  -5   6   12.60    7.00
   5  -6  -9    5.10    3.90
   9  -5  -6    1.10    3.50
  -6  -9   5    8.90    5.80
  -5  -6   9   16.00   11.60
   9  -5  -6    6.50    4.80
  -5  -6   9   -2.40    6.40
   9  -5  -6   -7.00   13.70
  -6  -9   5   12.10   15.50
  -9  -5   6    8.80    5.20
  -5  -6   9   -0.30   15.50
  -5  -6   9    8.70    5.10
  -9  -5   6   14.00   19.10
   9  -5  -6   -3.70   12.00
   5  -6  -9    6.60    8.50
  -6  -9   5    7.10    8.70
  -9  -5   6   -1.70   14.70
   9   7  -6    4.60   20.50
   9   7  -6    7.30   15.00
   6   9  -7   10.60    5.40
   9   7  -6   -1.70    5.20
   9   7  -6   12.30    7.10
  -6   9   7   -5.20    7.70
  -7   6   9    1.00    3.90
   7   6  -9  -14.80   21.10
   7   6  -9   -3.90    8.00
   6   9  -7    2.60    8.30
   6   9  -7    8.80   16.10
   7   6  -9   -7.40   14.80
  -7   6   9   13.00   14.20
  -9   7   6  -14.40    9.00
   7   6  -9    9.60    6.20
  -7   6   9   -6.10   10.70
   6   9  -7    2.90   14.30
  -7  -6   9    3.40    5.50
  -9  -7   6  -14.60    7.30
  -9  -7   6   21.60   14.20
  -6  -9   7   -4.70    6.70
  -6  -9   7    2.60    5.20
   7  -6  -9   -3.60    4.60
  -7  -6   9    0.00    8.00
  -7  -6   9    6.60   14.10
  -7  -6   9    0.80   21.90
   7  -6  -9   35.80   18.60
  -9  -7   6    8.20   19.80
   9  -7  -6  -11.10   10.70
   9  -7  -6   10.90   13.40
   7  -6  -9    3.20   10.90
  -6  -9   7   10.50   12.20
  -9  -7   6   -3.80    5.40
   6  -9  -7   -6.30    8.90
  -6  -9   7   15.60   18.30
  -7  -9   0   14.80   10.80
   9   0  -7   33.40    6.20
  -9   0   7   39.90    6.80
   9   0  -7   79.89   19.60
  -9   0   7   49.40   13.50
  -9   0   7   48.10    7.20
   9   0  -7   46.60    7.50
   9   0  -7   66.59   14.60
   9   2  -7   48.00    7.70
   7   9  -2   39.60   15.60
   2   7  -9   44.60   12.20
   7   9  -2   18.50    6.20
   9   2  -7   38.40   14.40
  -9   2   7   34.90    5.80
  -9   2   7   26.10    6.50
   7   9  -2   27.00    6.70
   9   2  -7   17.20    5.20
  -9   2   7   28.00   15.00
   2   7  -9   25.50    5.40
  -9   2   7   55.09   12.80
  -9  -2   7   29.20    7.10
   9  -2  -7   30.50    6.80
   9  -2  -7   23.60    4.90
   9  -2  -7   46.60   18.10
  -2  -7   9   72.69   19.60
  -7  -9   2   27.40    6.60
  -2  -7   9   29.30    7.30
  -9  -2   7   36.00    6.00
   7   9  -4    1.80    5.60
  -4   7   9   40.10   14.50
  -9   4   7   14.10    4.90
   4   7  -9   14.60    7.10
  -9   4   7   42.10   14.80
   4   7  -9    1.00   12.50
   7   9  -4    9.60    5.00
   9   4  -7    6.60    9.60
   9   4  -7   -6.30   25.30
   4   7  -9   -4.90   21.30
   7   9  -4   28.10   16.10
   4   7  -9    4.30    5.20
  -9   4   7   30.60   11.10
  -7   9   4    0.30    5.90
  -9   4   7   17.80    5.40
   7   9  -4   33.40   13.30
  -4  -7   9   11.00   14.00
   9  -4  -7   -8.60   15.90
  -7  -9   4   10.10    6.50
   4  -7  -9   -6.10    6.70
  -7  -9   4    9.10   14.60
  -4  -7   9    4.60    6.60
  -4  -7   9    6.20    4.70
   9  -4  -7    3.50    3.40
  -9  -4   7   -2.10    5.40
  -9  -4   7    8.70    6.70
  -9  -4   7   16.20   14.60
  -9  -4   7    3.90   18.60
  -4  -7   9    0.60   17.00
  -7  -9   4    3.60   11.70
   9  -4  -7    6.50   11.90
   9  -4  -7   -1.30    5.90
  -7  -9   4    6.60    4.70
   7   9  -6    1.20   14.70
   7   9  -6    9.50   17.60
  -9   6   7   -4.10    4.40
  -9   6   7   -3.60    9.80
  -9   6   7    3.50   12.90
   6   7  -9    1.00   14.30
   9   6  -7    0.60    7.70
   6   7  -9  -16.80   19.00
  -6   7   9   -7.70   12.30
   7   9  -6    3.60    5.20
   7   9  -6   -1.60    6.90
   6   7  -9   -2.50    5.60
   9   6  -7  -10.70   15.60
   9   6  -7  -18.60   24.70
   6   7  -9    2.80    8.20
  -7   9   6   -0.10    6.80
   9   6  -7    8.20    5.90
  -9  -6   7   -4.70    5.80
  -7  -9   6   17.00   18.30
  -7  -9   6   -1.50    6.80
   7  -9  -6  -10.10    8.70
   6  -7  -9    5.80    9.00
   9  -6  -7    1.90    3.60
   9  -6  -7    5.60   11.30
   9  -6  -7    7.60   15.60
  -6  -7   9   10.40   18.40
  -9  -6   7  -14.50   20.30
  -9  -6   7   19.80   15.70
  -6  -7   9   23.30   14.40
  -7  -9   6   11.40   14.10
  -7  -9   6    2.80    5.40
  -6  -7   9    8.70    5.30
  -6  -7   9   -7.90    6.90
   7   9  -8   -5.40   18.70
  -8   7   9   28.70   17.10
   8   7  -9   -6.00    6.60
  -9   8   7    4.70    8.90
  -8   7   9   -4.50   11.10
  -7   9   8   -1.70    8.50
   9   8  -7  -20.20   16.70
   8   7  -9  -20.20   17.40
   8   7  -9  -19.40   23.10
   9   8  -7    1.40    5.90
   9   8  -7   19.90   22.30
  -9   8   7   12.60   13.30
   9   8  -7   -6.10    8.30
  -9  -8   7   21.40   20.80
  -7  -9   8   16.80   14.70
  -9  -8   7   10.10    8.10
  -7  -9   8    0.00    5.80
   8  -7  -9    4.70   11.70
  -9  -8   7    2.30    6.30
  -8  -7   9   -7.50   20.30
   8  -7  -9    3.80    5.00
  -8  -7   9   15.90    8.90
  -8  -7   9  -22.50   15.00
   9  -8  -7    4.10   10.30
   9  -8  -7   41.60   16.30
   7  -9  -8    7.50   10.30
  -9  -8   7   12.00   13.20
   8  -7  -9   -2.60   18.50
   9   1  -8  -22.70   15.30
  -9   1   8    0.50    6.30
  -9   1   8    3.20   12.90
  -9   1   8   -2.40   14.20
   9   1  -8   -8.90    6.80
  -9   1   8    6.40    5.10
   8   9  -1   18.40   13.40
   9   1  -8   -7.30   21.30
   8   9  -1   10.10    6.10
   9   1  -8   -5.50    3.80
   9  -1  -8    3.60    4.60
  -8  -9   1    7.90    4.70
   9  -1  -8    6.50    6.70
   9  -1  -8   -4.60   14.60
  -9  -1   8   -0.80    5.20
  -8  -9   1    8.70   12.30
  -9  -1   8    4.60   14.40
  -9  -1   8   -6.90    6.40
  -9  -1   8  -13.80   17.40
   9  -1  -8   -7.20   20.50
   9   3  -8   -3.40   23.00
   8   9  -3  -10.10    5.30
   9   3  -8   -9.40   15.90
   9   3  -8    3.90    5.20
   9   3  -8   -7.50    7.30
   8   9  -3   -5.20   17.60
   3   8  -9    9.40    8.50
  -9   3   8    5.60    5.00
  -9   3   8   -5.20    6.50
  -9   3   8  -10.60   13.60
  -3   8   9  -14.90   16.30
   8   9  -3    5.10    6.60
   3   8  -9    1.30    4.80
  -8   9   3    0.40    7.40
   3   8  -9   -1.20   12.10
  -9  -3   8   -0.90    6.70
  -3  -8   9   -7.50   16.30
  -8  -9   3    6.80    5.20
   3  -8  -9    2.20    7.50
  -9  -3   8   11.30    5.70
  -8  -9   3    8.00    6.20
  -8  -9   3   -5.00   14.40
  -3  -8   9    2.10    5.10
  -3  -8   9   -3.70    6.00
  -9  -3   8   41.40   16.00
  -9  -3   8   -0.30   19.70
   9  -3  -8   46.20   18.40
   9  -3  -8    1.30    4.30
   9  -3  -8   -8.40    6.20
   8  -9  -3   -7.80    9.40
   9   5  -8   12.80   24.30
   9   5  -8    3.00   18.60
   9   5  -8    8.90    8.00
  -9   5   8   -1.10    4.80
   9   5  -8    6.10    6.60
   8   9  -5    3.70    5.50
   8   9  -5   13.70    7.00
   8   9  -5  -12.30   14.70
   8   9  -5   11.20   17.90
   5   8  -9   -0.30    5.40
   5   8  -9   15.90    8.00
   5   8  -9   -9.30   14.40
  -9   5   8   -9.00    5.80
   5   8  -9    5.10   20.80
  -5   8   9   -7.40   11.40
  -9   5   8    4.40   11.20
  -9   5   8   -9.20   11.50
  -8   9   5   -9.10    6.90
   9  -5  -8   -2.60    6.10
  -5  -8   9    4.90   13.20
   8  -9  -5   -1.00   11.10
  -8  -9   5   15.20   17.00
  -5  -8   9    4.30    7.10
  -5  -8   9    6.80    5.10
  -9  -5   8   -7.50    5.70
  -9  -5   8    4.60    7.70
  -9  -5   8    2.70   15.70
  -9  -5   8   -8.70   19.70
   9  -5  -8  -11.30   18.60
   9  -5  -8   -7.80   12.00
   5  -8  -9    4.10    8.50
   9  -5  -8    0.60    3.50
  -8  -9   5   -2.90    5.30
  -8  -9   5    8.00    7.40
   9   7  -8   -3.30    7.30
  -8   9   7   -6.40   11.70
   7   8  -9    0.30    5.90
   7   8  -9    3.40    8.50
   7   8  -9   -6.30   15.80
   7   8  -9   14.90   19.30
  -9   7   8   10.50   10.10
  -8   9   7   -7.20    8.40
   8   9  -7    9.50    6.00
   9   7  -8  -24.70   22.30
   8   9  -7   28.80   17.00
   9   7  -8  -31.60   18.80
  -9   7   8    2.60   12.80
   9  -7  -8    3.70   18.20
   9  -7  -8   12.20   11.70
  -7  -8   9   19.40   12.40
  -9  -7   8    8.60    8.90
  -9  -7   8   -7.70   21.40
   8  -9  -7   16.70   10.90
  -7  -8   9   16.00   21.70
  -8  -9   7    0.30    7.60
  -8  -9   7  -14.90   20.30
   8  -9  -7   -9.30   12.50
  -7  -8   9    8.40    5.80
  -7  -8   9   11.60    8.50
  -9   0   9   10.00    5.90
  -9   0   9   -2.30    7.50
  -9   0   9   26.40   14.40
  -9   0   9   -4.30   19.90
   9   0  -9   -4.00    4.90
   9   0  -9   14.50    7.70
   9   0  -9  -14.10   14.60
   9   0  -9    1.60   23.40
   9   9  -2    5.60   18.80
  -9   9   2    2.90    9.50
  -9   2   9   -1.40    5.10
  -9   2   9    0.10    6.90
  -9   2   9    3.20   13.10
  -9   2   9   16.70   20.10
   2   9  -9  -15.70   12.10
   9   9  -2   12.90    7.50
   9   2  -9    4.70    8.00
  -9  -9   2   34.60   14.30
  -2  -9   9   19.90   18.50
   9  -2  -9    4.80    5.80
   9  -2  -9   -1.00    7.70
   9  -2  -9   20.40   15.10
   9  -2  -9   23.60   23.00
   9  -9  -2   24.20   15.20
  -2  -9   9   11.20    6.90
   9   6  -9  -14.00    9.30
   9   6  -9   32.80   20.20
   9   6  -9   -0.40   23.20
   9   9  -6   -1.20    6.40
   9   9  -6    4.20    8.20
   9   9  -6   14.50   17.00
   9   9  -6  -22.00   21.60
   6   9  -9    5.20    6.30
  -9   6   9   11.90    4.70
  -9   6   9   20.80   12.00
  -9   9   6    6.90    8.20
   6   9  -9   14.90   16.90
   6   9  -9   -6.40   25.00
  -6   9   9   15.70   12.20
   9   6  -9    8.10    7.00
   6   9  -9   -4.60    8.30
  -6  -9   9   14.00   15.60
  -9  -6   9   43.40   21.80
  -6  -9   9    7.10    5.60
  -6  -9   9   10.80    8.30
   9  -9  -6    8.60   13.60
   9  -6  -9    0.10   13.20
   9  -6  -9   25.00   18.50
  -6  -9   9   35.00   21.80
  -9  -9   6   -2.80    6.00
  -9  -9   6    8.80    8.70
  -9  -9   6   17.90   13.80
  -9  -9   6   27.80   19.90
  -9  -6   9   -1.80    6.60
  -9  -6   9    3.20    9.10
  -9  -6   9   29.00   16.80
   9   8  -9  -38.20   22.40
   9   9  -8    3.20    7.00
   9   9  -8  -15.10    9.70
   9   9  -8   27.80   19.40
   9   9  -8   30.90   21.70
   9   8  -9    4.70    8.00
   9   8  -9  -23.20   19.90
   8   9  -9    7.10    7.70
  -9   8   9    5.70   10.90
  -9   8   9   19.10   11.40
  -9   9   8   25.90   10.10
  -9   9   8    2.20   13.30
   8   9  -9   14.70   21.70
   8   9  -9   28.80   20.60
  -8   9   9   -0.60    9.00
  -8  -9   9   -7.20   26.70
  -8  -9   9  -18.40   14.90
   8  -9  -9   -7.70   11.20
  -9  -8   9   10.80   24.10
  -8  -9   9   -8.80    9.30
  -8  -9   9  -10.20    6.30
   9  -9  -8  -13.50   11.40
   9  -9  -8   -9.70   13.70
   9  -8  -9   18.50   12.30
   9  -8  -9  -11.30   14.20
  -9  -8   9   -1.80    8.80
  -9  -8   9  -15.90   16.80
  -9  -9   8  -12.50    6.10
  -9  -9   8   -5.50    8.60
  -9  -9   8  -30.10   18.10
  -9  -9   8   -5.00   25.60
  -9  -8   9    1.40    6.80
   0  10  -2  447.16   33.60
   0 -10   2  427.86   33.90
   4   0 -10  509.95   39.70
  -4   0  10  505.95   37.50
   4   0 -10  506.45   38.10
  -4   0  10  464.65   43.10
   0 -10   4  448.16   38.40
   0  10  -4  434.16   37.50
   4   0 -10  517.25   37.50
  -4   0  10  516.85   38.40
   6   0 -10  675.93   50.89
   0  10  -6  566.94   49.10
   0 -10   6  564.94   50.99
   6   0 -10  658.13   49.10
   0  10  -6  629.04   48.20
   6   0 -10  653.13   53.49
   6   0 -10  666.13   48.70
  -6   0  10  634.44   52.59
  -6   0  10  702.73   50.39
  -6   0  10  664.83   49.30
  -6   0  10  619.94   48.50
   8   0 -10  424.66   33.60
   8   0 -10  431.86   41.50
   8   0 -10  439.56   37.50
  -8   0  10  432.96   39.50
  -8   0  10  496.85   36.90
   8   0 -10  426.26   34.60
  -8   0  10  402.46   33.30
  -8   0  10  414.36   34.40
   1  10  -1    1.80    6.00
  -1 -10   1   11.10    6.70
  -1 -10   1    9.70    5.50
   1  10  -3   17.20    7.60
   3   1 -10    0.10    4.10
   3   1 -10   -1.40   13.00
   1  10  -3   12.60   11.00
   1 -10   3   -0.20    7.90
  -1 -10   3    0.00    7.40
  -3  -1  10    3.80   24.80
  -3  -1  10   -4.60    5.40
  -1 -10   3   17.50    8.10
  -1  10  -3    9.40    5.20
   5   1 -10   -8.60   21.60
   5   1 -10    0.70    4.20
   5   1 -10    1.70   11.90
   1 -10   5   12.40   11.80
   1  10  -5    2.10    3.40
  -5   1  10    2.10    4.30
  -5   1  10    7.60    5.70
  -5   1  10   19.10   16.00
   1  10  -5    1.60    7.70
   5   1 -10   -0.20    5.40
  -1 -10   5    4.80    3.80
  -5  -1  10   -1.20    4.10
  -5  -1  10   -3.30   13.90
  -1  10  -5    4.90    7.00
   5  -1 -10    4.10    5.70
   5  -1 -10    0.90    4.10
   5  -1 -10   27.10   11.50
  -1 -10   5   -0.10   10.70
   7   1 -10   -3.60    5.10
  -7   1  10   -6.20    6.60
  -7   1  10    5.10    4.90
   7   1 -10   15.10   21.40
  -7   1  10   16.40   13.00
   7   1 -10    6.20    7.40
   1  10  -7   19.30    9.80
  -7   1  10   -6.20   19.00
   1  10  -7   12.10    4.50
  -1 -10   7    9.50    5.50
  -7  -1  10  -23.60   14.10
   7  -1 -10   -5.20   12.60
   7  -1 -10    6.60    6.60
  -7  -1  10  -34.80   19.20
   7  -1 -10   -5.30    4.80
  -7  -1  10   -7.60    6.40
   7  -1 -10   35.60   21.70
  -7  -1  10    1.00    4.90
  -1 -10   7   19.20   14.40
   9   1 -10   10.20    9.00
   1  10  -9    1.30   11.80
   1  10  -9   -1.80    4.70
  -9   1  10   22.30    8.20
  -9   1  10    5.40   14.70
   9   1 -10   -6.40    5.90
   9   1 -10   11.60   17.00
   9   1 -10   23.70   26.40
  -9   1  10    5.30    5.60
  -9   1  10   48.40   21.00
   9  -1 -10   -8.40    8.20
  -1 -10   9    6.50   24.10
  -1 -10   9    2.00    7.20
  -9  -1  10   38.00   19.40
   9  -1 -10    4.60    5.80
  -9  -1  10   14.20    8.40
   9  -1 -10   -9.40   25.50
  -9  -1  10   17.00   16.10
  -9  -1  10   -3.50    5.80
   9  -1 -10   -3.20   15.60
  -2 -10   0  435.86   34.50
   2  10   0  462.55   35.00
   2  10  -2  529.65   41.00
   2  10  -2  579.24   42.10
  -2 -10   2  498.45   41.20
  -2  10  -2  509.45   40.50
  -2 -10   2  564.94   41.20
   4   2 -10  593.24   46.60
   2  10  -4  563.34   47.10
   4   2 -10  611.94   48.50
   2  10  -4  688.63   46.20
  -4   2  10  661.93   51.69
  -4   2  10  648.04   47.30
   4   2 -10  547.25   47.20
   2  10  -4  630.64   48.70
  -4  -2  10  608.94   51.49
  -2 -10   4  626.34   47.10
  -4  -2  10  592.34   46.50
  -2 -10   4  641.74   46.10
  -2 -10   4  548.45   47.50
  -4  -2  10  610.24   47.40
  -6   2  10  742.33   57.29
   2  10  -6  653.13   57.49
  -6   2  10  741.53   56.69
   6   2 -10  756.62   57.29
   6   2 -10  800.22   61.49
   6   2 -10  853.21   59.29
   2  10  -6  744.83   56.49
   2  10  -6  786.22   57.09
   6   2 -10  764.12   56.99
  -6   2  10  763.72   58.49
  -6   2  10  744.53   60.09
  -2 -10   6  750.62   56.79
  -6  -2  10  789.22   57.59
  -6  -2  10  777.72   58.59
  -2 -10   6  733.23   56.49
   6  -2 -10  684.93   56.99
   6  -2 -10  780.52   58.69
   6  -2 -10  694.73   56.79
   6  -2 -10  825.52   61.89
  -6  -2  10  725.73   60.39
  -6  -2  10  695.03   56.79
   8   2 -10  424.66   34.30
  -8   2  10  463.15   40.00
  10   8  -2  435.76   35.40
  -8   2  10  449.76   35.00
   2  10  -8  465.95   35.80
   8   2 -10  424.16   35.30
   8   2 -10  448.96   42.60
   2  10  -8  451.65   33.70
  -8   2  10  373.16   33.60
   8   2 -10  447.06   38.60
  -8   2  10  500.25   37.10
   8  -2 -10  405.86   34.00
  -8  -2  10  409.06   33.90
  -2 -10   8  471.35   34.40
   8  -2 -10  461.45   41.20
  -8  -2  10  442.96   41.50
   8  -2 -10  390.66   34.40
  -8  -2  10  452.95   37.30
   8  -2 -10  473.65   37.70
  -8  -2  10  423.96   35.30
  -2 -10   8  445.66   38.40
  10   1  -3   10.50    5.90
  10   1  -3   20.50   17.20
   3  10  -1   17.90    8.70
  -3 -10  -1   -9.00    7.00
 -10   1   3   -4.50   12.70
 -10   1   3   -4.30    4.90
 -10  -1   3   -8.00    4.90
  -3 -10   1    6.50    7.00
  10  -1  -3  -20.00   16.10
  10  -1  -3   -0.10    5.60
 -10  -1   3    7.20   13.30
 -10   3   3    1.90    5.00
  10   3  -3  -41.40   20.60
  10   3  -3   -0.70    5.70
 -10   3   3    6.10   12.40
   3  10  -3   -2.30    8.90
  10   3  -3    6.10    5.30
   3  10  -3    7.10    9.50
  10  -3  -3   -3.00    5.20
  10  -3  -3   20.00   16.70
  -3  -3  10   15.30    6.50
  -3 -10   3    4.30    8.40
  -3  -3  10    6.30   20.90
  -3 -10   3   14.20   10.70
   3  10  -5    2.20    4.00
   5   3 -10    3.60    6.80
   5   3 -10    5.90   12.50
   3  10  -5    2.60    5.30
 -10   5   3   -2.00   11.90
  -5   3  10  -25.10   14.30
  -5   3  10    2.80    4.50
   3  10  -5   -5.80   10.40
   5   3 -10    6.90    5.00
  -5   3  10   -3.50    5.50
   3  10  -5  -10.80   16.00
   5   3 -10   39.40   23.30
  10   5  -3   10.00    7.40
  10   5  -3   39.20   20.10
 -10   5   3   -0.40    4.70
  10   5  -3   11.90    6.30
 -10  -5   3   18.80    6.50
  -3 -10   5    3.50    3.60
  -5  -3  10   12.20    6.70
   5  -3 -10   -3.20    9.80
  -5  -3  10    2.80    4.60
   5  -3 -10    1.50    6.60
  -3 -10   5    0.80    4.90
  -5  -3  10    5.50   18.80
  10  -5  -3    4.10    5.20
  -3 -10   5    5.90   10.10
 -10  -5   3    1.60    7.50
  -5  -3  10   16.80   15.40
  -3 -10   5    6.50   12.00
   5  -3 -10   -0.60    4.30
  10  -5  -3   -7.40   15.30
 -10  -5   3   21.50   17.70
   7   3 -10   10.30   14.50
   3  10  -7   21.10   10.70
   3  10  -7    5.40    6.30
   3  10  -7   21.10   17.20
  10   7  -3   17.90    8.30
  -7   3  10   14.00    4.70
  -7   3  10    6.70    6.50
   7   3 -10    1.80    5.60
  -7   3  10   12.20   17.50
 -10   7   3   -5.70   11.00
   7   3 -10   14.60    8.30
  10   7  -3    6.80   20.20
  10   7  -3    2.30    6.10
   3  10  -7   10.20    4.50
  -7   3  10   -4.90   12.30
   7   3 -10   21.10   22.80
  -3 -10   7    8.20   15.10
  -3 -10   7   -2.10    4.20
   7  -3 -10   -4.30    5.40
  10  -7  -3   10.60   13.60
 -10  -7   3    5.10    7.70
 -10  -7   3   25.20   17.60
  -7  -3  10   23.60   14.20
 -10  -7   3    1.40    6.10
   7  -3 -10  -40.10   20.00
  -3 -10   7   18.10   11.90
  -7  -3  10    2.60    5.30
  -7  -3  10   10.00    8.10
  -3 -10   7    0.30    6.00
  -7  -3  10   22.60   20.30
   7  -3 -10    4.10   11.80
   3  10  -9    6.00    9.20
   3  10  -9    5.70    5.60
  -9   3  10   -2.80   21.70
   9   3 -10   -1.90    6.50
   9   3 -10    8.80    9.80
   9   3 -10   -4.30   16.70
   9   3 -10    9.10   25.10
  -9   3  10    1.40    5.00
 -10   9   3   17.20   10.30
  -9   3  10   -2.10   14.20
  -3  10   9    5.50   14.70
   3  10  -9  -13.00   13.60
  -9   3  10   -3.30    7.50
  10   9  -3   -3.00   21.90
  10   9  -3   -3.80    8.40
 -10  -9   3    4.40    5.20
  -9  -3  10  -15.20   15.20
  10  -9  -3    5.00   12.90
   9  -3 -10   -2.70   14.50
  -9  -3  10   14.60    8.90
   9  -3 -10   -2.30   22.70
  -3 -10   9   -0.40   17.90
   3 -10  -9   -1.30    6.30
   9  -3 -10   -1.80    5.50
  -3 -10   9   -1.70    5.40
  -3 -10   9   -2.60    7.00
  -9  -3  10    9.50    6.20
   9  -3 -10    3.00    7.20
 -10   0   4  929.41   65.19
 -10   0   4  909.51   65.29
  10   0  -4  773.72   65.19
  10   0  -4  894.21   64.99
  10   0  -4  780.02   67.49
  10   2  -4  569.84   49.70
  10   2  -4  571.54   47.60
   4  10  -2  642.04   47.10
 -10   2   4  649.54   48.20
  10   2  -4  588.94   46.50
 -10   2   4  624.64   46.00
   4  10  -2  581.74   46.30
  10   2  -4  592.84   45.90
 -10   2   4  584.44   46.10
  -4 -10   2  683.23   45.30
 -10  -2   4  596.24   49.00
  10  -2  -4  578.14   46.00
  -4 -10   2  600.24   47.20
 -10  -2   4  555.54   46.30
  -4 -10   2  632.04   46.20
  10  -2  -4  545.25   45.80
 -10  -2   4  559.24   46.00
  10  -2  -4  639.74   49.40
  10   4  -4  570.84   46.00
  -4   4  10  531.55   45.20
   4  10  -4  587.04   39.80
   4   4 -10  528.15   42.40
   4   4 -10  558.94   40.20
  -4   4  10  499.75   40.30
   4  10  -4  437.36   41.20
 -10   4   4  498.85   40.00
 -10   4   4  557.14   42.10
  10   4  -4  503.35   42.40
   4   4 -10  551.94   40.80
  10   4  -4  525.35   41.10
   4  10  -4  490.55   42.20
  10   4  -4  536.85   40.40
  -4 -10   4  471.85   41.90
  10  -4  -4  598.54   43.40
  -4  -4  10  544.25   45.50
 -10  -4   4  506.25   40.80
  -4  -4  10  530.65   40.80
  10  -4  -4  483.25   40.30
  -4 -10   4  522.85   39.70
 -10  -4   4  501.15   43.80
  -4 -10   4  484.95   41.20
  -4  -4  10  510.35   40.00
 -10  -4   4  523.35   44.90
 -10  -4   4  479.35   40.50
  -4 -10   4  578.84   40.10
  -6   4  10  553.94   42.20
  10   6  -4  492.45   43.70
   4  10  -6  545.65   44.30
 -10   6   4  556.54   43.90
  10   6  -4  573.04   43.00
   6   4 -10  607.94   46.20
   6   4 -10  545.05   42.90
   4  10  -6  501.95   45.10
  -6   4  10  589.94   42.90
   6   4 -10  519.65   43.30
  10   6  -4  524.35   44.90
 -10   6   4  498.65   42.40
  10   6  -4  577.94   49.60
  -6   4  10  576.84   45.80
   4  10  -6  563.14   42.80
   4  10  -6  585.04   42.40
  -4 -10   6  559.84   45.80
 -10  -6   4  492.35   43.00
 -10  -6   4  582.94   43.60
  -4 -10   6  556.74   42.30
  -4 -10   6  580.54   42.70
  -4 -10   6  511.45   43.40
  -6  -4  10  591.74   45.10
   6  -4 -10  618.04   44.50
  -6  -4  10  579.64   47.20
  -6  -4  10  601.14   43.40
   6  -4 -10  498.55   42.50
  10  -6  -4  563.04   45.20
 -10  -6   4  577.14   46.70
 -10  -6   4  566.24   48.10
   6  -4 -10  573.44   42.40
  -6  -4  10  574.44   42.60
  -8   4  10  366.86   28.70
  10   8  -4  376.66   28.60
  -8   4  10  322.57   30.70
  -8   4  10  326.27   27.50
   4  10  -8  364.16   30.90
   8   4 -10  390.06   28.60
   4  10  -8  404.96   35.70
  10   8  -4  351.36   29.80
   4  10  -8  347.37   27.70
 -10   8   4  364.56   29.00
   4  10  -8  376.16   29.00
  10   8  -4  392.06   38.50
  -8   4  10  369.46   33.50
  10  -8  -4  381.66   31.30
   8  -4 -10  350.26   36.00
  -4 -10   8  353.26   27.70
  -4 -10   8  337.67   28.40
  -4 -10   8  381.76   31.30
 -10  -8   4  331.67   28.40
 -10  -8   4  403.56   29.50
   8  -4 -10  354.26   31.40
  -4 -10   8  334.97   33.10
   4 -10  -8  324.47   28.20
   8  -4 -10  299.97   28.00
 -10  -8   4  335.97   33.90
   8  -4 -10  346.67   27.90
 -10   1   5    0.90    6.30
  10   1  -5   16.50    7.00
  10   1  -5    1.40   11.20
  10   1  -5  -35.90   17.80
   5  10  -1  -21.60   12.10
 -10   1   5   30.70   17.90
  10   1  -5    3.60    5.70
 -10   1   5   10.90   13.10
  -5 -10  -1   10.30    8.00
 -10   1   5    6.00    5.00
 -10  -1   5    6.70   17.40
  10  -1  -5   43.00   18.10
  -5 -10   1    4.90   10.00
   5  10   1   24.20   10.60
  10  -1  -5    0.50    5.40
 -10  -1   5   -9.20   14.20
  10  -1  -5    4.40   12.90
  -5 -10   1    5.60    4.20
  10  -1  -5    1.90    6.30
 -10  -1   5    9.00    6.20
 -10  -1   5   -0.70    5.00
   5  10  -3   -0.60    4.30
 -10   3   5    5.00    4.80
   3   5 -10   19.90   13.00
   5  10  -3   -4.50   10.40
  10   3  -5    6.60    5.90
  10   3  -5    6.00    7.10
  10   3  -5   12.20   12.10
  10   3  -5   26.90   19.20
   5  10  -3    7.80   12.00
 -10   3   5    1.50   11.10
   5  10  -3   -3.60    5.10
 -10   3   5   -3.70    5.80
   3   5 -10    4.40    4.90
 -10  -3   5    7.80    6.70
  -3  -5  10    3.70   19.00
  10  -3  -5    1.00    6.10
  -5 -10   3   10.10    5.20
  10  -3  -5   16.10    9.90
  -5 -10   3   16.30   10.90
  -3  -5  10    1.60    6.90
  -5 -10   3   -9.80    9.10
 -10  -3   5    8.10   18.40
 -10  -3   5    9.40    5.50
  10  -3  -5   -2.70   17.00
 -10  -3   5   20.30   19.30
  10  -3  -5    6.40    5.20
  -5 -10   3    3.70    4.00
   5  10  -5    3.70   12.40
  -5   5  10    9.70    5.50
 -10   5   5    7.00    4.90
   5   5 -10   47.70   23.90
  -5   5  10   25.00   14.90
  10   5  -5   16.60    8.10
   5   5 -10    8.60    5.70
   5  10  -5    9.80    5.10
  10   5  -5   12.80    6.40
 -10   5   5   25.50   13.10
   5  10  -5   28.10   13.00
   5   5 -10    4.10   14.50
  10   5  -5    6.40   12.90
   5  10  -5   11.30    6.80
  10   5  -5   -4.40   22.10
 -10   5   5   -0.80    6.00
 -10  -5   5    8.30    7.20
  -5  -5  10    4.80    5.00
  10  -5  -5   -4.30    5.40
  -5 -10   5   26.40   15.50
  -5  -5  10    1.30    7.30
 -10  -5   5   22.00   18.00
  -5  -5  10    9.80   18.40
   5  -5 -10    7.50    3.80
  -5  -5  10   13.10   14.10
  10  -5  -5   13.50    5.60
 -10  -5   5    7.30    6.00
  10  -5  -5   18.40   15.80
  -5 -10   5    5.90    4.80
  -5 -10   5    4.50    6.20
  -5 -10   5   10.20   11.50
   5  -5 -10   11.10    8.10
 -10  -5   5  -10.70   20.20
  10   7  -5    5.80    6.70
   7   5 -10    7.30    6.40
  10   7  -5    7.60   22.50
   5  10  -7   -0.20    6.40
  -7   5  10   13.00    6.70
   5  10  -7    2.60   14.60
   5  10  -7   -8.40   13.00
   7   5 -10    5.60   15.80
 -10   7   5    7.90   10.40
  10   7  -5    1.40    7.50
  10   7  -5   10.50   12.20
   7   5 -10    6.60    8.60
  -7   5  10    6.10    4.40
  -7   5  10   25.00   13.10
  -7   5  10   16.60   15.30
   7   5 -10   34.10   23.30
   5  10  -7   -0.90    4.90
 -10  -7   5   14.20   16.70
  -5 -10   7    7.70    5.00
  -7  -5  10    2.90    7.90
  -7  -5  10    6.80   15.00
  -7  -5  10   15.10   21.00
  -5 -10   7    2.90   18.80
   7  -5 -10   -1.50    4.80
 -10  -7   5   46.90   22.90
 -10  -7   5   11.60    6.30
 -10  -7   5   16.60    8.00
  10  -7  -5   -8.20   13.60
   7  -5 -10    1.30    4.80
  -5 -10   7   -4.40    6.40
  -7  -5  10   10.20    5.60
   7  -5 -10   10.40   10.50
  -5 -10   7   11.20   10.50
   7  -5 -10  -15.20   19.90
   9   5 -10  -13.00   10.20
   5  10  -9   -6.10    5.80
  -5  10   9  -10.80   11.70
   5  10  -9  -11.50    8.90
  10   9  -5    9.60   14.30
  -9   5  10   -2.80    7.40
  -9   5  10    0.90   14.00
  -9   5  10  -16.40   20.40
   9   5 -10   -2.50    7.20
  10   9  -5  -19.90   23.20
   9   5 -10   25.00   25.00
 -10   9   5   -4.20    9.30
  10   9  -5    6.50    7.10
   5  10  -9   -7.20   22.20
  -9   5  10   -0.30    4.90
   5  10  -9  -20.80   15.00
   9   5 -10   -6.60   18.80
 -10  -9   5  -18.00   15.90
 -10  -9   5   58.29   25.40
  -9  -5  10   -6.60    9.40
   9  -5 -10  -11.50   13.40
  -5 -10   9   -8.20    7.20
  10  -9  -5   -7.10   12.70
  -5 -10   9   -5.80   12.40
 -10  -9   5   -4.50    6.50
  -9  -5  10    0.00   16.00
 -10  -9   5   13.40    9.30
   5 -10  -9   12.20    8.00
   9  -5 -10    7.90   19.00
   9  -5 -10    0.60    6.60
  -9  -5  10   10.00   21.30
  -9  -5  10  -11.10    6.30
  -5 -10   9   -4.30   17.60
  -5 -10   9    1.40    5.70
  10   0  -6  720.73   49.90
   6  10   0  516.65   48.40
 -10   0   6  566.04   47.70
   6  10   0  595.24   47.30
 -10   0   6  665.13   51.89
 -10   0   6  607.54   47.40
  10   0  -6  594.74   47.80
 -10   0   6  680.33   49.60
  10   0  -6  638.94   47.40
  10   0  -6  659.33   51.79
 -10   2   6  778.42   60.09
   6  10  -2  747.33   57.09
 -10   2   6  725.93   56.89
  10   2  -6  751.42   56.99
 -10   2   6  825.52   58.69
  10   2  -6  828.22   59.09
 -10   2   6  684.43   57.09
   6  10  -2  659.63   59.29
   6  10  -2  788.12   56.89
  10   2  -6  789.62   61.19
  10   2  -6  696.93   57.49
 -10  -2   6  796.42   59.29
 -10  -2   6  703.13   56.99
 -10  -2   6  805.12   60.99
  10  -2  -6  701.53   56.89
  -6 -10   2  735.93   58.39
 -10  -2   6  732.73   57.39
  10  -2  -6  715.03   57.19
  -6 -10   2  717.73   56.89
  10  -2  -6  818.32   60.19
  10  -2  -6  877.71   59.29
  -6 -10   2  696.43   56.69
 -10   4   6  531.35   43.20
  -4   6  10  546.95   47.80
   6  10  -4  524.55   46.40
   4   6 -10  613.04   43.40
   4   6 -10  641.24   46.00
   4   6 -10  580.04   44.30
 -10   4   6  582.54   43.60
   6  10  -4  532.65   43.50
   6  10  -4  486.75   44.60
   6  10  -4  573.34   43.20
  10   4  -6  518.05   46.00
 -10   4   6  584.24   45.00
 -10   4   6  644.14   47.00
  -6 -10   4  504.55   44.60
 -10  -4   6  626.54   49.20
 -10  -4   6  605.04   46.50
  -4  -6  10  532.05   43.30
  -4  -6  10  633.94   48.30
  -6 -10   4  520.95   43.10
  -6 -10   4  559.44   43.50
  -6 -10   4  516.15   45.50
 -10  -4   6  600.84   44.20
  -4  -6  10  593.04   44.00
  10  -4  -6  643.14   45.30
 -10  -4   6  528.15   43.50
  10  -4  -6  546.75   43.30
  10  -4  -6  538.05   43.60
  10  -4  -6  611.24   46.60
  10   6  -6  569.84   45.90
  10   6  -6  523.35   42.10
   6  10  -6  614.24   42.00
 -10   6   6  620.64   43.20
  10   6  -6  598.54   49.90
   6  10  -6  477.95   45.60
 -10   6   6  461.05   41.40
  10   6  -6  537.55   43.10
   6   6 -10  544.05   42.70
   6  10  -6  535.95   44.40
   6   6 -10  526.45   45.20
   6   6 -10  576.54   49.10
   6  10  -6  535.25   42.60
  -6   6  10  555.84   44.70
   6   6 -10  513.15   42.00
  -6  -6  10  553.84   41.90
 -10  -6   6  598.14   46.00
   6  -6 -10  549.45   43.10
   6  -6 -10  528.55   41.50
 -10  -6   6  609.44   48.80
 -10  -6   6  537.75   42.70
  -6  -6  10  533.65   42.80
  -6 -10   6  513.45   41.80
 -10  -6   6  496.55   42.10
  -6 -10   6  564.14   44.30
  -6 -10   6  526.15   45.80
  -6  -6  10  566.44   48.50
  -6  -6  10  570.04   44.70
  10  -6  -6  482.55   41.60
  10  -6  -6  593.94   44.70
  -6 -10   6  581.84   42.40
   8   6 -10  343.57   38.00
  10   8  -6  297.87   34.90
   6  10  -8  275.77   28.90
   8   6 -10  308.67   26.00
  -8   6  10  304.87   24.20
  -8   6  10  269.17   22.90
  10   8  -6  288.07   24.10
  10   8  -6  288.07   25.10
 -10   8   6  346.87   25.10
  10   8  -6  296.57   30.70
   8   6 -10  275.57   24.00
   8   6 -10  347.27   30.80
  -8   6  10  348.97   26.50
   6  10  -8  257.47   23.40
   6  10  -8  293.97   24.80
   6  10  -8  269.47   30.00
   8  -6 -10  247.88   23.20
  -8  -6  10  344.17   29.10
  -6 -10   8  287.17   24.80
  -6 -10   8  295.07   26.60
  -6 -10   8  353.16   35.60
  -8  -6  10  257.87   23.70
 -10  -8   6  268.97   24.10
  -6 -10   8  285.27   23.60
 -10  -8   6  291.27   25.30
   8  -6 -10  254.87   23.20
 -10  -8   6  307.57   29.50
   8  -6 -10  355.86   32.20
   8  -6 -10  294.57   26.80
  -8  -6  10  257.77   32.30
  -8  -6  10  303.57   25.60
 -10  -8   6  358.76   36.50
   6 -10  -8  283.37   24.40
  10   1  -7    8.20   20.90
  10   1  -7  -21.70   14.60
 -10   1   7    2.30   17.60
  10   1  -7   -0.60    5.00
   7  10  -1    3.70    6.10
 -10   1   7   32.70   13.90
   7  10  -1   -3.90   15.00
 -10   1   7   -2.90    6.40
  -7  10   1   18.00   12.00
  10   1  -7    4.00    6.30
 -10   1   7    2.20    5.20
 -10  -1   7   -9.70   14.40
  10  -1  -7   -4.50   13.20
  -7 -10   1   -6.70    4.30
  10  -1  -7   19.20   20.00
 -10  -1   7    4.70    5.30
 -10  -1   7  -34.70   19.30
 -10  -1   7   -4.90    6.70
  -7 -10   1   -4.50   11.10
  10  -1  -7   -1.80    4.30
  10  -1  -7   -6.20    5.90
   3   7 -10   -1.00    5.30
   3   7 -10   -8.40   13.20
  10   3  -7    5.20   15.30
  10   3  -7    1.90    6.90
  10   3  -7   43.20   23.80
   7  10  -3   48.70   16.20
 -10   3   7    4.70    6.30
   7  10  -3   15.50    6.10
   7  10  -3   24.40   12.10
 -10   3   7    5.80   15.60
 -10   3   7  -12.30   12.60
   7  10  -3    9.80    5.70
  10   3  -7    5.20    5.60
 -10   3   7    5.20    4.90
  -7 -10   3   -0.70    4.10
 -10  -3   7    6.70    5.80
  -7 -10   3  -10.90   17.30
 -10  -3   7   38.10   21.10
  -3  -7  10   -0.60    7.00
  -3  -7  10  -10.90   18.30
 -10  -3   7   13.10   15.30
  10  -3  -7   -4.90    4.30
 -10  -3   7    6.00    7.10
  10  -3  -7   -5.60    5.80
  -7 -10   3   18.60   11.20
  -7 -10   3    5.40    5.10
  10  -3  -7   -5.70   12.80
   7  10  -5    4.30    7.00
   7  10  -5   -1.70    5.10
  -5   7  10  -12.40   14.60
  10   5  -7   42.80   26.70
   7  10  -5    0.80   13.50
 -10   5   7   -3.00    5.90
  10   5  -7    0.10    5.60
 -10   5   7    2.00    5.30
 -10   5   7    6.50   16.40
   5   7 -10    8.00    5.70
   5   7 -10    7.00    8.40
   5   7 -10    7.70   15.40
   7  10  -5   -0.30   16.90
  10   5  -7   19.10    7.90
  10   5  -7   -0.30   16.00
 -10   5   7    7.70   11.90
   5   7 -10   13.80   25.20
  -7 -10   5    0.10   14.80
  -7 -10   5    4.50    9.40
  -7 -10   5    1.70    5.60
  -5  -7  10   -7.90   14.70
  -5  -7  10   -4.40   19.20
   5  -7 -10   -2.60    8.20
  10  -5  -7   -8.50    6.10
  10  -5  -7   18.60   13.90
  -5  -7  10    6.30    5.30
  10  -5  -7  -16.10   16.70
 -10  -5   7   -3.70   22.60
  10  -5  -7    0.70    3.80
 -10  -5   7    1.60    6.20
 -10  -5   7   34.90   16.20
   5  -7 -10   -0.90    3.60
  -5  -7  10   -5.60    7.30
 -10  -5   7   -1.90    7.80
  -7 -10   5    0.70    6.70
  10   7  -7  -10.10   17.30
 -10   7   7   46.90   16.10
   7   7 -10  -40.40   26.20
   7   7 -10  -15.00    8.80
   7  10  -7  -10.80   16.60
   7  10  -7   10.20   16.90
 -10   7   7   20.00   11.00
   7   7 -10   -5.60   15.70
   7   7 -10   -8.20    6.30
  10   7  -7   -9.50    8.40
 -10   7   7    5.30    4.70
  10   7  -7    3.00    5.70
   7  10  -7   -1.90    9.10
  10  -7  -7    9.40   11.20
  -7 -10   7    9.30    6.30
 -10  -7   7    2.70    8.90
 -10  -7   7  -14.40   16.20
  10  -7  -7    3.00   16.30
  -7 -10   7   -5.30   20.70
  -7  -7  10    4.10    5.80
   7 -10  -7    7.90    9.20
  -7  -7  10   -0.10    8.00
  -7 -10   7   14.90   14.70
  -7  -7  10   -2.00   14.90
 -10  -7   7    4.40    6.50
  -7  -7  10    9.10   22.00
  10  -7  -7   -1.40    4.70
  -7 -10   7    0.30    7.90
 -10  -7   7    4.80   23.90
  10   9  -7   -7.10   28.80
   7  10  -9    2.80    6.70
  -7  10   9    3.90   12.00
   7  10  -9   -0.70    8.60
  10   9  -7   30.70   19.10
   9   7 -10   13.90    7.40
   9   7 -10   31.60   11.50
   9   7 -10   14.20   19.90
  10   9  -7    1.80    9.60
  -9   7  10   -6.50    4.60
  -9   7  10  -21.60   15.50
   9   7 -10   11.00   28.40
  10   9  -7    5.20    7.30
  -9   7  10  -11.20   12.70
   7  10  -9    0.10   17.70
 -10   9   7   -7.10    9.50
  -9   7  10    1.30    6.80
  10  -9  -7   10.30   16.80
  -7 -10   9   10.80    8.60
 -10  -9   7    9.50    9.80
 -10  -9   7  -24.00   15.30
  -9  -7  10   22.00   18.20
  -9  -7  10   -7.20   25.90
   9  -7 -10   20.00   13.50
  -9  -7  10    4.00    6.90
 -10  -9   7    4.80    7.50
  -9  -7  10    8.20   10.40
  -7 -10   9   55.59   29.20
   9  -7 -10    1.30    3.70
   9  -7 -10  -17.90   21.40
   7 -10  -9    8.10   10.50
  -7 -10   9    8.60    6.60
 -10  -9   7   -2.60   22.20
  -7 -10   9   20.20   13.80
 -10   0   8  410.96   32.90
 -10   0   8  444.26   39.00
  10   0  -8  417.56   33.80
  10   0  -8  432.36   36.50
  10   0  -8  448.06   40.80
  10   0  -8  355.26   32.50
 -10   0   8  409.46   33.50
 -10   0   8  495.75   36.60
   8  10  -2  455.15   34.20
  10   2  -8  452.65   34.80
 -10   2   8  406.06   33.80
 -10   2   8  481.45   36.30
 -10   2   8  407.26   33.40
 -10   2   8  451.85   37.90
   8  10  -2  414.86   39.20
 -10  -2   8  426.16   34.20
 -10  -2   8  453.15   33.80
  -2  -8  10  357.56   45.90
  10  -2  -8  473.85   40.00
  10  -2  -8  460.75   36.70
  10  -2  -8  360.16   33.10
  10  -2  -8  417.16   34.30
   8  10  -4  377.56   34.50
   4   8 -10  404.26   28.50
   8  10  -4  361.46   29.30
 -10   4   8  312.07   27.90
 -10   4   8  333.17   28.50
 -10   4   8  333.37   33.40
   4   8 -10  404.46   32.40
  10   4  -8  353.46   28.60
  -4   8  10  399.76   33.30
   8  10  -4  384.46   28.50
  -8  10   4  348.07   28.00
   4   8 -10  378.36   29.80
 -10   4   8  326.37   30.90
   8  10  -4  359.16   31.30
  -8 -10   4  344.47   34.90
  -4  -8  10  360.16   29.40
  10  -4  -8  346.97   34.90
  -8 -10   4  334.97   28.40
  10  -4  -8  325.87   28.80
  -4  -8  10  372.86   35.90
  -4  -8  10  374.76   28.40
  10  -4  -8  352.86   31.30
  -8 -10   4  378.16   29.10
  -8 -10   4  346.87   31.30
 -10   6   8  343.07   26.50
   6   8 -10  307.27   33.80
   8  10  -6  264.97   24.00
  10   6  -8  295.37   24.90
   8  10  -6  314.67   25.70
   8  10  -6  267.67   28.70
   8  10  -6  322.37   32.40
   6   8 -10  283.27   24.40
   6   8 -10  303.97   25.40
 -10   6   8  291.77   23.80
  10   6  -8  348.67   31.30
  10   6  -8  299.37   26.40
  -8  10   6  290.57   24.20
   6   8 -10  284.07   29.30
 -10  -6   8  323.67   35.80
  10  -6  -8  290.77   24.40
  -6  -8  10  325.67   33.60
 -10  -6   8  269.17   24.80
 -10  -6   8  343.87   30.00
  10  -6  -8  310.47   27.00
  10  -6  -8  342.27   30.30
  -6  -8  10  321.17   28.90
  -8 -10   6  279.97   24.40
  -8 -10   6  315.77   25.40
 -10  -6   8  277.77   25.80
  -8 -10   6  276.97   26.90
  -8 -10   6  314.47   31.40
  -6  -8  10  277.97   24.10
  -6  -8  10  321.47   26.10
   8   8 -10  179.68   33.90
  10   8  -8  132.49   31.90
   8   8 -10  200.98   26.80
  -8   8  10  169.58   24.00
   8   8 -10  159.58   19.30
  10   8  -8  139.49   19.10
  10   8  -8  174.88   25.40
 -10   8   8  234.28   22.60
  -8  10   8  180.48   19.70
  10   8  -8  173.28   16.80
 -10   8   8  208.38   18.60
   8   8 -10  172.88   16.70
   8  10  -8  192.58   17.30
 -10  -8   8  243.58   31.40
 -10  -8   8  164.78   23.00
  10  -8  -8  207.68   19.10
  -8  -8  10  184.08   19.20
  -8  -8  10  211.78   23.40
  -8 -10   8  169.98   29.30
   8 -10  -8  163.18   17.80
  -8  -8  10  195.58   29.60
  -8  -8  10  149.19   16.40
 -10  -8   8  167.58   19.00
  -8 -10   8  187.38   18.70
   8  -8 -10  200.18   19.50
  -8 -10   8  185.08   16.50
  10  -8  -8  207.98   24.70
 -10  -8   8  170.88   16.80
  10   1  -9   -0.20   18.30
 -10   1   9    7.00   15.30
   9  10  -1   14.40    7.80
   9  10  -1    9.40   14.40
  10   1  -9    5.90   24.60
 -10   1   9   18.30    8.20
 -10   1   9   22.40   17.30
 -10   1   9   -0.60    5.50
  10   1  -9   13.70    8.30
  10   1  -9   -0.50    5.00
 -10  -1   9   -1.60    5.40
 -10  -1   9   37.90   20.70
  10  -1  -9    4.30   17.40
  10  -1  -9   -3.50   23.30
 -10  -1   9   14.80   16.50
  10  -1  -9   -9.70    7.90
  -9 -10   1   -6.60   14.20
  -9 -10   1   -4.40    5.00
 -10  -1   9    5.00    7.90
  10  -1  -9    7.20    5.30
   3   9 -10  -12.10   13.80
  10   3  -9   12.00   25.30
   9  10  -3    5.40    8.10
  10   3  -9    1.50    6.10
  10   3  -9    2.90    8.70
  10   3  -9  -12.20   19.00
  -9  10   3    6.40    7.90
   3   9 -10   -0.70    5.40
   9  10  -3   13.90   20.50
   9  10  -3    4.70    6.80
 -10  -3   9    8.20    8.30
  -9 -10   3    0.30    7.30
  -9 -10   3  -12.70   14.00
 -10  -3   9  -16.20   17.30
  -3  -9  10    9.50    7.20
  -3  -9  10   22.90   19.10
 -10  -3   9    8.50    5.80
  10   5  -9   28.20   27.40
   5   9 -10   -9.90    5.90
   5   9 -10    0.20    8.60
   5   9 -10   15.30   17.30
   5   9 -10   -8.60   25.30
 -10   5   9   -2.60    6.50
   9  10  -5   -1.20    6.70
   9  10  -5   -6.20    7.40
   9  10  -5    1.60   14.70
 -10   5   9    1.40   14.00
  -5   9  10   16.20   13.40
 -10   5   9   -8.00    5.20
  10   5  -9    0.60   19.70
  10   5  -9  -13.50    9.20
  -9  10   5    6.40    7.70
  10   5  -9   -6.80    7.40
   9  10  -5    0.40   19.90
 -10   5   9    2.10   12.80
   9 -10  -5   19.00   12.10
  -9 -10   5   -5.10   22.40
 -10  -5   9   11.10   18.70
 -10  -5   9   16.80   22.70
  -5  -9  10    1.80    5.80
  -5  -9  10   20.50    8.60
  -5  -9  10    4.80   17.10
  -5  -9  10   33.00   21.20
  -9 -10   5   -4.40    5.80
  -9 -10   5   -2.30    8.00
  -9 -10   5   -4.10   14.10
  10  -5  -9   32.00   22.10
   5  -9 -10    7.50    9.30
 -10  -5   9    3.90    8.90
  10  -5  -9  -15.30   13.40
  10  -5  -9   -4.30    3.90
  10  -5  -9    8.30    7.30
 -10  -5   9   -1.60    5.80
 -10   7   9   -1.20    4.80
 -10   7   9   -6.10   11.20
  10   7  -9   24.30   10.60
   7   9 -10    5.20   27.20
  10   7  -9   14.10    8.30
   9  10  -7    6.20    9.10
   9  10  -7   10.80   23.30
  -9  10   7   -3.20    8.90
  10   7  -9   31.80   26.80
 -10   7   9   -7.90   14.70
   7   9 -10   23.10   18.10
   9  10  -7   -1.60    6.30
  -7   9  10   -9.60   14.50
  10   7  -9   24.30   23.20
   7   9 -10    8.10    7.20
   7   9 -10   -8.80    9.40
  -7  -9  10  -32.20   16.80
 -10  -7   9   11.00    9.70
   9 -10  -7    4.60   13.40
   7  -9 -10    3.30   10.80
  -9 -10   7   34.50   18.50
  -9 -10   7  -20.00   18.70
  10  -7  -9    9.60    4.90
  10  -7  -9   17.20   13.40
  10  -7  -9   -2.00   18.90
 -10  -7   9   14.00   20.50
 -10  -7   9    7.00   24.40
  -7  -9  10   -7.70   22.50
  -7  -9  10    1.20    6.20
  -7  -9  10  -11.40    9.40
  -9 -10   7   12.50    6.60
  -9 -10   7    0.10    9.00
 -10  -7   9   13.00    6.40
  10   9  -9   -1.00   11.00
  10   9  -9   -5.20   21.60
  10   9  -9    9.60   26.80
   9  10  -9    5.50   23.30
   9   9 -10   -2.40   33.70
   9  10  -9   -3.10    8.60
  10   9  -9    3.60    8.10
   9  10  -9   34.50   22.60
   9   9 -10    3.60    8.50
   9   9 -10  -21.50   10.50
   9  10  -9    5.40   12.00
   9   9 -10   -7.40   23.30
  -9   9  10   -8.60   10.20
  -9  10   9    7.20   13.70
  -9  -9  10   38.80   28.20
   9  -9 -10   -0.40   12.00
  -9  -9  10    2.00    7.60
  -9  -9  10   -6.90   10.90
   9 -10  -9    4.50   11.10
  -9 -10   9    4.50    7.30
  -9 -10   9   -3.10   10.70
  -9  -9  10   10.40   18.50
  -9 -10   9   19.70   28.50
 -10  -9   9   40.10   27.80
  10  -9  -9    1.70   12.90
  10  -9  -9   -1.10   14.50
  -9 -10   9  -12.30   17.70
 -10  -9   9    0.50    8.10
 -10  -9   9    7.80   10.40
 -10  -9   9    7.70   22.60
 -10   0  10  278.47   24.30
 -10   0  10  298.07   25.80
 -10   0  10  293.67   34.50
  10   0 -10  278.47   26.30
  10   0 -10  353.56   31.90
  10   0 -10  340.67   37.10
  10   2 -10  336.77   27.10
  10   2 -10  352.36   32.00
  10  10  -2  294.87   26.30
  10  10  -2  283.97   34.30
   2  10 -10  285.37   24.40
 -10   2  10  285.97   24.30
 -10   2  10  287.37   25.80
 -10   2  10  327.27   29.10
  10   2 -10  263.27   24.60
   2  10 -10  268.47   28.40
 -10  -2  10  340.47   34.90
  -2 -10  10  336.27   33.30
  10  -2 -10  296.07   26.30
  10  -2 -10  350.56   37.00
  -2 -10  10  301.57   25.50
 -10  -2  10  314.87   24.70
 -10  -2  10  304.87   26.50
  10  10  -4  271.17   21.70
  10  10  -4  239.98   23.20
  10  10  -4  304.27   34.30
  10   4 -10  245.98   21.70
  10   4 -10  233.58   24.10
  10   4 -10  290.57   36.30
 -10   4  10  223.08   20.50
 -10   4  10  253.27   22.10
 -10   4  10  246.18   26.30
 -10  10   4  243.18   21.10
   4  10 -10  266.87   23.20
   4  10 -10  310.37   26.80
   4  10 -10  232.28   20.90
  -4  10  10  263.37   24.80
  -4 -10  10  303.47   30.30
  -4 -10  10  238.98   20.90
  -4 -10  10  263.97   22.50
  10 -10  -4  282.97   24.00
  10  -4 -10  227.98   21.90
  10  -4 -10  300.17   33.20
 -10  -4  10  226.68   21.60
 -10  -4  10  230.28   23.50
 -10  -4  10  283.37   28.80
 -10  -4  10  244.58   33.00
 -10 -10   4  250.67   22.60
  10   6 -10  151.48   20.80
  10   6 -10  169.48   27.70
  10   6 -10  200.88   35.00
  10  10  -6  201.28   17.40
  10  10  -6  187.18   19.00
   6  10 -10  238.48   31.10
 -10   6  10  157.38   15.50
 -10   6  10  177.88   17.10
 -10   6  10  222.18   21.20
 -10   6  10  186.88   21.00
 -10  10   6  185.28   17.40
   6  10 -10  184.38   16.80
   6  10 -10  204.68   19.20
  -6  10  10  217.38   20.20
  -6 -10  10  221.68   30.20
   6 -10 -10  160.18   17.40
 -10  -6  10  190.48   31.40
  -6 -10  10  202.08   18.20
  -6 -10  10  162.88   16.20
  10 -10  -6  178.68   21.90
  10  -6 -10  178.98   21.80
  10  -6 -10  171.98   25.70
 -10 -10   6  182.28   17.30
 -10 -10   6  210.38   18.50
 -10 -10   6  209.08   22.90
 -10  -6  10  142.59   17.00
 -10  -6  10  171.08   19.90
 -10  -6  10  203.28   25.20
  10   8 -10  151.88   25.80
  10   8 -10   62.09   30.50
  10  10  -8   88.39   12.50
  10  10  -8  126.59   16.20
  10  10  -8  133.69   22.90
  10  10  -8   79.39   25.70
  10   8 -10  118.79   18.50
   8  10 -10  118.19   15.80
 -10   8  10  110.59   16.10
 -10   8  10  114.59   18.90
 -10  10   8  125.19   14.40
   8  10 -10  164.08   34.70
   8  10 -10   97.39   12.40
  10   8 -10  108.39   14.60
  -8  10  10  108.39   15.00
   8 -10 -10  112.99   15.30
  -8 -10  10  106.79   21.00
 -10  -8  10  130.49   30.10
  -8 -10  10   86.99   12.30
  -8 -10  10  102.29   16.20
  10 -10  -8  114.49   18.70
  10  -8 -10  110.59   16.90
  -8 -10  10  130.89   33.30
 -10  -8  10  145.99   24.00
 -10 -10   8   83.39   12.80
 -10 -10   8  105.79   16.00
 -10 -10   8  140.49   23.90
 -10 -10   8  124.89   26.70
 -10  -8  10  102.69   16.90
   0  11  -3   20.10    6.60
   0 -11   3   20.60    7.80
   5   0 -11   23.40    6.20
   5   0 -11   25.70    9.00
   0 -11   5   35.40   11.70
   0  11  -5   40.90    8.20
  -5   0  11   45.30    6.40
  -5   0  11   29.60    7.80
  -5   0  11   77.99   20.10
   5   0 -11   32.70   13.80
   7   0 -11    7.70    6.50
   0  11  -7    3.00    4.10
   0  11  -7   10.90    9.40
   7   0 -11    9.00    6.10
   7   0 -11    0.90   20.30
  -7   0  11    6.50    5.50
  -7   0  11    1.60    7.70
  -7   0  11   -5.20   12.90
  -7   0  11    8.10   19.90
   0 -11   7  -10.30   14.80
   7   0 -11   27.70   14.70
   9   0 -11  -24.50   24.30
  -9   0  11   15.50   20.30
  -9   0  11  -10.60    5.80
   9   0 -11   -6.80   18.60
  -9   0  11    1.90   16.40
  -9   0  11    7.20    8.40
   9   0 -11    1.00    8.40
   9   0 -11    4.80    7.00
  -1 -11   0    1.10    5.50
   1  11  -2   38.20   11.00
   1  11  -2   12.70    7.30
  -1 -11   2   18.70    6.90
  -1  11  -2    9.40    5.40
  -1 -11   2   -0.50    8.40
  -4   1  11   -6.90    6.90
   1 -11   4   -0.10    9.70
   1  11  -4   -1.10    7.30
   4   1 -11   -4.00    4.50
  -4   1  11  -20.20   21.60
   4   1 -11  -15.40   11.80
   4  -1 -11    2.40    4.60
  -1 -11   4    2.80    8.90
  -1  11  -4    2.10    6.30
  -4  -1  11  -18.70   20.20
   4  -1 -11   11.60   11.30
  -4  -1  11   -1.50    7.10
  -6   1  11    4.70    5.20
   6   1 -11  -10.70   25.80
   6   1 -11    3.40    5.20
   6   1 -11   10.40   14.80
   1 -11   6    2.30   14.00
   1  11  -6   -2.20    9.10
   6   1 -11    7.50    6.60
  -6  -1  11    1.40    7.70
  -1  11  -6    2.90    3.40
  -6  -1  11    9.50    5.30
  -1 -11   6   -6.00   12.60
   6  -1 -11    0.30    4.80
  -1  11  -6    8.40    8.20
  -6  -1  11    3.80   19.50
  -6  -1  11    4.30   14.50
   6  -1 -11   -2.30    6.40
   1  11  -8    5.90   11.70
   8   1 -11    2.60   15.60
   8   1 -11   15.20    6.50
  -8   1  11    1.60    5.50
   8   1 -11   -6.40    7.90
   8   1 -11   -9.40   26.70
   1  11  -8    0.90    4.70
  -8   1  11  -10.40   19.10
  -8   1  11   24.10   14.40
   8  -1 -11   -1.90    6.10
   8  -1 -11    5.30   23.70
  -1 -11   8   -1.00    5.90
   8  -1 -11    4.30   14.40
  -8  -1  11    5.50    5.60
   8  -1 -11   -0.20    5.90
  -8  -1  11    9.40    8.20
  -8  -1  11   18.80   14.60
  -8  -1  11   24.60   20.80
 -10   1  11   10.10   16.40
   1  11 -10   -9.10   21.80
   1  11 -10   12.30    8.60
  10   1 -11  -13.80   29.50
  10   1 -11    2.40    9.80
  10   1 -11    7.50   18.50
 -10   1  11   -4.10    9.10
 -10   1  11  -31.10   23.90
 -10   1  11    8.20    6.10
  10   1 -11   16.20    7.50
  10  -1 -11   16.80   19.10
 -10  -1  11  -12.90   17.10
 -10  -1  11   -0.60    6.50
 -10  -1  11   -2.30    9.40
  10  -1 -11    7.20    6.80
 -10  -1  11  -17.20   24.20
  10  -1 -11    9.90   27.40
  10  -1 -11    7.40    8.90
   2  11  -1   21.30    7.70
  -2 -11  -1    7.20    7.20
  -2 -11   1   15.10    7.00
   2  11  -3   10.70    8.70
   2  11  -3    0.60    8.40
   2 -11   3   30.60    9.70
  -2  11  -3   15.40    5.80
  -2 -11   3   15.30   10.50
  -2 -11   3    4.40    6.30
   5   2 -11   17.40    5.50
   2  11  -5   29.40   10.00
   5   2 -11   26.10    8.90
   2  11  -5   18.90    4.30
  -5   2  11   31.80    7.50
   5   2 -11   29.30   13.80
  -5   2  11   27.80   18.90
  -2 -11   5   39.10   10.50
  -5  -2  11   24.30   19.40
  -2  11  -5   -2.10    9.90
  -5  -2  11   15.00    5.80
  -5  -2  11   17.30    7.20
  -2 -11   5   26.90   11.00
  -2 -11   5   18.20    4.10
   2  11  -7   -2.80    4.40
   2  11  -7  -16.60   10.80
  -7   2  11   10.10   13.50
   7   2 -11   13.00    6.40
  -7   2  11   -5.20   18.60
   7   2 -11   27.30   17.00
   7   2 -11   -5.50   23.70
  -7   2  11    3.20    7.50
   7   2 -11    0.20    6.90
  -7  -2  11   44.00   22.40
   7  -2 -11    2.90    5.70
  -7  -2  11  -10.30    5.60
 -11  -7   2   -1.50   22.90
  -2 -11   7   -4.10    4.80
  -2 -11   7   24.00   14.50
   7  -2 -11    4.00    6.40
   7  -2 -11   19.50   13.80
   7  -2 -11  -23.50   21.80
  -7  -2  11   -2.80   13.60
  -2 -11   7   14.00    5.80
   2  11  -9    7.80   12.50
  -9   2  11    5.30   15.60
   9   2 -11    2.20    7.20
  -9   2  11   18.60    8.10
  11   9  -2    4.80    9.90
   9   2 -11   53.99   26.70
  -9   2  11   15.10   21.70
   9   2 -11   24.90   10.00
   2  11  -9    7.30    5.30
   9   2 -11   -8.50   18.70
  -9   2  11   -6.20    5.50
  11   9  -2    1.50   21.40
  -9  -2  11   12.90   20.60
   9  -2 -11   11.60   24.10
   9  -2 -11   -2.70    6.50
   9  -2 -11    0.60    6.90
 -11  -9   2    3.50   20.20
  -9  -2  11  -15.50    8.60
  -9  -2  11   16.10    6.40
  -2 -11   9    7.60    6.90
 -11  -9   2    7.70    9.00
   9  -2 -11   11.00   17.10
  -9  -2  11   19.70   15.60
  -3 -11   0   15.90    7.60
  11   0  -3  -11.90   20.90
 -11   0   3   11.30    5.80
  11   0  -3    7.70    6.40
 -11   0   3  -15.40   14.40
   3  11   0    7.30    9.20
   3  11  -2   -5.80    8.20
  11   2  -3   41.70   20.40
 -11   2   3   17.10   15.00
 -11   2   3    8.80    5.80
   3  11  -2    8.20    8.90
  11   2  -3   13.40    6.90
  11  -2  -3   11.70   22.10
  -3 -11   2    6.20    9.20
  11  -2  -3    8.90    6.10
   3  11   2   18.60    8.30
  -3  11  -2    7.00    5.00
  -3 -11   2   -1.80    7.90
  -4   3  11   27.90   21.60
   3  11  -4    5.60    4.20
   3  11  -4    3.50    9.40
   3  11  -4   -3.40   10.40
 -11   4   3   17.00   14.00
   4   3 -11   14.90   13.60
  11   4  -3   15.40   21.20
   4   3 -11    2.80    5.30
  11   4  -3    5.80    7.10
 -11   4   3   18.30    5.90
  -4   3  11    3.30    6.60
  -3 -11   4    5.50    3.60
  -4  -3  11    2.70    5.50
  11  -4  -3    3.60   21.50
 -11  -4   3    6.00    5.70
  -3 -11   4   12.30    7.50
  -3 -11   4   -1.50   12.60
  -4  -3  11    9.90    8.50
   4  -3 -11   -6.00   10.00
  11  -4  -3   -0.70    5.60
  -4  -3  11   33.60   23.60
 -11  -4   3   -7.60   17.20
   4  -3 -11   -3.60    3.80
   6   3 -11   -3.20    6.00
   6   3 -11  -24.10   24.60
   6   3 -11   -6.30   15.90
   3  11  -6    5.90    4.50
 -11   6   3   29.70   12.90
  11   6  -3   18.50   22.30
   3  11  -6   -4.10   16.40
 -11   6   3   19.30    5.80
  -6   3  11    6.60    5.10
   6   3 -11    0.90    8.20
  -6   3  11    2.60   18.20
   3  11  -6   15.20   11.50
   3  11  -6   -7.60    6.40
  -6   3  11    3.20    7.40
  11   6  -3   -2.40    8.50
  -3 -11   6    0.10   13.10
  -3 -11   6    3.00    5.00
  -3 -11   6    8.40    4.40
   6  -3 -11   -5.50   11.50
  11  -6  -3   16.10    6.10
  11  -6  -3   25.50   18.50
  -6  -3  11   -6.10   20.00
  -6  -3  11    9.80    5.50
   6  -3 -11    7.50    7.60
  -3 -11   6   26.10   12.00
 -11  -6   3   29.20   19.80
  -6  -3  11    1.30    7.20
  -6  -3  11    0.00   15.00
   6  -3 -11    6.90    5.20
 -11  -6   3   -3.50    6.90
   8   3 -11    3.80    9.30
 -11   8   3   19.60   11.80
  11   8  -3   23.90    9.50
   8   3 -11   -8.60   13.70
  -8   3  11    1.50   13.60
  11   8  -3   71.89   24.20
   8   3 -11    3.70    6.40
  -8   3  11   -3.80   18.60
   8   3 -11   50.09   26.90
  -8   3  11    4.60    7.20
   8  -3 -11    8.50    5.70
 -11  -8   3    7.40    6.40
  -8  -3  11   -3.60   14.00
 -11  -8   3  -21.30   18.10
   8  -3 -11   12.20   13.50
   8  -3 -11  -20.20   22.60
 -10   3  11   24.00   16.20
   3  11 -10    7.10   16.20
 -10   3  11    9.10    6.10
  10   3 -11   27.90   28.00
   3  11 -10    3.00    6.50
 -11  10   3   -5.50   10.90
  11  10  -3  -36.20   24.70
 -10   3  11    1.10    8.90
 -10   3  11  -19.60   24.10
  10   3 -11   19.90   22.80
  10   3 -11   -7.40    7.20
  11  10  -3   -1.10    9.60
  -3  11  10    6.30   20.60
  10   3 -11   14.80   11.10
 -10  -3  11   64.19   23.80
  -3 -11  10    0.30    8.00
  10  -3 -11    2.30    7.80
  11 -10  -3    1.60   14.40
 -11 -10   3    1.90    6.10
   3 -11 -10   -3.30    7.90
  10  -3 -11   12.80   16.50
  10  -3 -11  -16.60   24.20
 -10  -3  11   -5.20   10.20
 -10  -3  11   31.30   17.20
  10  -3 -11    4.50    6.00
  -3 -11  10    1.90   20.70
 -10  -3  11    5.30    7.10
 -11 -10   3   11.30   18.00
  11   1  -4   -1.80    6.30
 -11   1   4    3.10    6.10
   4  11  -1   -7.70   10.20
  11   1  -4    4.20   20.30
  11   1  -4    5.50    6.80
 -11   1   4  -20.80   15.70
  -4 -11   1    0.10    8.00
 -11  -1   4    3.20    7.60
  11  -1  -4  -12.50   19.90
   4  11   1   14.20    8.60
 -11  -1   4   11.70    6.70
 -11  -1   4   15.30   17.70
  11  -1  -4    3.10    6.70
  11   3  -4   -0.10    7.60
  11   3  -4   -8.90   19.90
   4  11  -3    7.00    9.70
   4  11  -3   -2.70    9.70
   4  11  -3   10.30    4.30
 -11   3   4   21.00   14.70
 -11   3   4   16.30    6.30
  11   3  -4    1.30    6.70
  -4 -11   3   -0.40    9.80
 -11  -3   4    6.60    6.30
  11  -3  -4   10.60    6.60
 -11  -3   4    4.60    7.90
  -4 -11   3   20.00    9.50
  -4 -11   3    5.80    4.00
 -11  -3   4   13.70   19.80
  11  -3  -4   29.30   19.20
   5   4 -11   17.30   15.50
 -11   5   4    1.30    5.50
   4  11  -5  -15.70   12.20
  -5   4  11   11.40    6.80
   4  11  -5    3.30    4.70
   4  11  -5   12.10    6.00
  11   5  -4   21.80    8.90
 -11   5   4  -11.70   12.30
  11   5  -4   41.90   22.20
   5   4 -11    0.10    9.00
  11   5  -4   11.40    7.20
  -5   4  11   32.30   17.80
   4  11  -5   12.40   11.40
   5   4 -11   13.00    6.00
  -5  -4  11    3.30    5.60
 -11  -5   4   13.70    7.00
  -4 -11   5    2.90    8.40
  -5  -4  11  -15.70   14.00
  -5  -4  11   11.20    7.60
  -4 -11   5    0.30    4.20
 -11  -5   4   51.19   19.60
  -4 -11   5   15.00   15.20
   5  -4 -11    8.50    4.70
  -5  -4  11   13.40   19.20
 -11  -5   4    8.50    8.50
   5  -4 -11   12.50   10.10
  11  -5  -4   20.70   17.30
  -4 -11   5    3.80    5.20
  11  -5  -4   10.30    5.70
  11   7  -4   32.10   23.70
   4  11  -7    0.30    5.30
 -11   7   4    2.20    5.50
   7   4 -11   14.30   30.00
   7   4 -11   -2.70    6.10
  -7   4  11   15.90   18.60
  -7   4  11   -0.40    5.00
   7   4 -11   18.30    9.60
   4  11  -7    9.90    6.60
   4  11  -7   -9.10   13.30
   4  11  -7   -1.00   18.00
  11   7  -4   23.20    9.50
  -7   4  11    2.70    7.20
 -11   7   4   -4.40   10.30
   7   4 -11   -9.60   19.30
  11   7  -4    1.50    7.60
  -7  -4  11  -68.79   35.00
  -4 -11   7    0.20    4.40
 -11  -7   4   11.70    7.40
  -4 -11   7    6.20    6.60
   7  -4 -11    5.30    5.80
 -11  -7   4   14.40   19.50
  11  -7  -4   28.80   15.60
   7  -4 -11    7.30   12.20
  -4 -11   7   12.20   10.60
   7  -4 -11    1.40    5.40
  -4 -11   7   -2.60   15.30
  -9   4  11    6.70    5.70
   9   4 -11    5.00   10.30
  11   9  -4   14.90   25.10
  11   9  -4   -4.60    9.60
   9   4 -11   -2.70    7.20
  -9   4  11    3.80    8.40
  11   9  -4    5.00    8.20
   9   4 -11   30.30   27.40
  -9   4  11   -4.50   20.40
   4  11  -9   -2.90    9.40
   4  11  -9   -6.40    5.30
 -11   9   4  -12.40    8.30
   4  11  -9  -22.10   14.50
  -9   4  11   28.20   14.60
   9   4 -11    7.40   17.90
  -9  -4  11   -5.70   10.10
  -9  -4  11  -10.00   20.60
   4 -11  -9    4.30    7.50
  -4 -11   9  -16.20   14.40
 -11  -9   4    6.90    9.70
  -4 -11   9   -1.50    5.60
  -4 -11   9   -7.30    7.30
  -9  -4  11    5.20   16.40
 -11  -9   4   -8.30    5.90
   9  -4 -11  -11.20   24.50
   9  -4 -11    5.40    6.40
  -4 -11   9  -17.00   20.00
 -11  -9   4  -12.10   17.80
  -9  -4  11   -4.40    6.40
  11  -9  -4   -5.30   14.80
   9  -4 -11   -8.80    5.70
  11   0  -5   30.20   12.50
  11   0  -5   19.10   21.00
  11   0  -5   50.99    8.70
  11   0  -5   43.20    8.80
 -11   0   5   61.69   16.30
 -11   0   5   33.60    7.40
 -11   0   5   50.79    8.40
   5  11   0   37.10   13.00
  11   2  -5   41.40    7.20
  11   2  -5   25.70    8.20
 -11   2   5   11.20    7.30
 -11   2   5   22.70   13.60
  11   2  -5   31.10   21.70
  11   2  -5   12.60   14.00
   5  11  -2   45.00   12.50
   5  11  -2   10.70    5.10
 -11   2   5   33.90    6.50
  -5 -11   2   13.90    9.70
 -11  -2   5   29.50    8.30
 -11  -2   5   33.30   17.70
 -11  -2   5   22.50   21.50
  -5 -11   2   21.20    4.60
 -11  -2   5   31.60    6.90
  11  -2  -5   16.70    6.50
  11  -2  -5   22.00    7.60
  11  -2  -5   50.59   20.20
   5  11  -4    6.10   11.40
 -11   4   5    3.20    6.40
  11   4  -5  -23.00   30.00
  -4   5  11   -5.40    6.50
  11   4  -5    3.00   15.80
   5  11  -4    1.40    4.50
   5  11  -4    5.40    6.20
 -11   4   5   17.20   10.90
  -4   5  11    2.90   26.20
 -11   4   5    2.80    5.20
   5  11  -4   27.30   11.60
   4   5 -11    5.60    9.50
   4   5 -11   21.00    6.50
 -11  -4   5    3.40    6.10
 -11  -4   5    4.00    8.20
 -11  -4   5  -24.20   17.60
  -4  -5  11   -0.20    7.70
  -4  -5  11  -15.90   20.60
 -11  -4   5    2.00   22.10
  11  -4  -5   20.90   18.50
   4  -5 -11    0.00    9.40
  11  -4  -5   -2.90    5.60
  -5 -11   4   -0.30    4.40
  -5 -11   4   -1.40    5.40
  -4  -5  11    5.20    5.60
   4  -5 -11   -1.10    3.70
  -5 -11   4    7.90   10.70
  11  -4  -5   21.30    6.90
  -5 -11   4    7.40   10.80
   5  11  -6    3.30   14.60
 -11   6   5   -6.30    5.00
   5  11  -6   -3.20    6.60
  11   6  -5   19.20   28.40
  -6   5  11   10.80   17.70
   6   5 -11    7.20    6.30
   5  11  -6  -11.90   12.30
  11   6  -5   -2.00   14.70
  -6   5  11   -8.40    7.10
   6   5 -11   -9.80    9.50
   5  11  -6   -1.90    5.30
   6   5 -11    8.70   17.80
 -11   6   5   -7.80   13.90
  11   6  -5    1.20    7.20
  11   6  -5   18.20    8.50
   6   5 -11   23.10   27.30
  -6  -5  11   -5.70    5.60
  -6  -5  11  -16.90   19.80
  -5 -11   6   -8.60    4.60
 -11  -6   5   18.40   24.20
  -5 -11   6    6.10    6.10
 -11  -6   5    6.10   20.20
  11  -6  -5  -11.80   17.10
   6  -5 -11    4.30   10.80
 -11  -6   5    5.20    6.60
 -11  -6   5   -0.20    8.20
  -6  -5  11   -3.10    8.00
  -6  -5  11  -26.30   15.00
  -5 -11   6   -8.60    9.80
  -5 -11   6    7.70   18.70
   6  -5 -11   -5.60    4.40
  -8   5  11    1.90    5.00
   8   5 -11  -17.30    9.80
  11   8  -5  -12.00   14.30
  -8   5  11   12.10    7.20
  11   8  -5    0.10    9.30
   5  11  -8   36.70   22.10
  11   8  -5  -12.30    7.30
   5  11  -8  -15.60   13.70
  -8   5  11   22.70   15.20
  -8   5  11   -8.40   17.20
   8   5 -11    5.10    7.10
   5  11  -8   20.50    7.60
   8   5 -11  -11.60   15.40
   5  11  -8   -7.50    5.70
  11   8  -5    7.80   28.60
   8   5 -11  -40.20   28.10
   8  -5 -11   -3.10    5.40
   8  -5 -11   10.90    5.70
  -8  -5  11    2.80    6.10
 -11  -8   5   46.90   20.30
 -11  -8   5   -1.70    7.20
 -11  -8   5    1.40    7.90
  -8  -5  11    2.60    9.70
  -8  -5  11  -21.60   18.00
  -8  -5  11   20.00   25.90
  -5 -11   8    1.50    5.40
  -5 -11   8   -3.70    7.20
  -5 -11   8   -0.50   11.90
   8  -5 -11    9.00   23.50
 -11  -8   5  -18.20   27.50
  -5 -11   8   18.20   17.50
   8  -5 -11   11.90   13.30
 -10   5  11   -2.80    8.50
   5  11 -10    1.70   16.30
 -10   5  11    4.60    5.60
 -11  10   5    9.70   10.00
   5  11 -10    4.10    6.60
  11  10  -5    3.30    7.70
  11  10  -5   -4.20    9.40
   5  11 -10   -6.80   23.70
 -10   5  11   -9.50   23.80
   5  11 -10    1.90    9.10
  11  10  -5   -6.10   27.30
 -10   5  11   -3.00   15.60
  11 -10  -5    2.50   13.20
 -11 -10   5   -1.10    8.90
 -11 -10   5  -21.80   15.60
  -5 -11  10    0.70    8.50
  -5 -11  10    1.20    5.90
  10  -5 -11   -2.30    4.10
 -10  -5  11   58.19   30.10
 -10  -5  11   25.60   30.80
 -10  -5  11   11.20    7.70
  10  -5 -11   -0.40   20.30
  10  -5 -11    7.90   15.80
   5 -11 -10   -8.30    8.10
  -5 -11  10    9.30   21.00
 -10  -5  11    0.90   11.10
  10  -5 -11    2.00    6.90
  -5 -11  10   21.30   17.00
 -11 -10   5    2.20    6.90
 -11   1   6  -13.90   11.70
  11   1  -6    8.10   12.40
  -6 -11  -1   -4.40    4.10
  -6 -11  -1   -5.00   10.60
 -11   1   6   -1.20    6.50
 -11   1   6   10.10   19.30
   6  11  -1   -8.60    5.70
   6  11  -1  -24.90   14.30
  11   1  -6   -4.30    5.90
  11   1  -6  -13.90   21.90
 -11   1   6   -6.10    5.70
  11  -1  -6    0.90    6.10
 -11  -1   6  -19.70   20.10
  -6 -11   1   12.80   10.90
 -11  -1   6   -4.70    6.10
 -11  -1   6    5.60   14.90
  11  -1  -6   11.90   13.40
  11  -1  -6    3.90    7.20
  11  -1  -6    1.10   20.70
  -6 -11   1    0.10    4.20
   6  11   1    6.70   12.00
 -11  -1   6  -13.40    6.70
  11   3  -6    1.30   25.30
 -11   3   6   19.60   18.50
 -11   3   6  -15.00   14.20
 -11   3   6    2.80    7.10
  11   3  -6    0.00    6.30
   6  11  -3    9.40    5.30
  11   3  -6   -2.70   12.80
   3   6 -11   10.20   14.70
   6  11  -3  -13.00   13.30
  11   3  -6   -3.40    7.40
   6  11  -3   21.80   13.30
   3   6 -11   12.40    5.50
   6  11  -3    4.40    5.80
  11  -3  -6    7.00    6.30
  -6 -11   3    9.90    6.10
  11  -3  -6    3.60    5.70
  11  -3  -6   -3.20   13.90
  -3  -6  11    2.90    8.10
  -6 -11   3    5.20    9.60
 -11  -3   6   21.50   17.90
  -6 -11   3    4.10    4.60
 -11  -3   6    0.00    6.90
 -11  -3   6   -4.90   22.20
  -6 -11   3   -0.90   15.50
 -11  -3   6    2.10    6.40
  11  -3  -6    3.20   19.00
   6  11  -5  -15.70   12.80
  11   5  -6   -7.00   12.60
  -5   6  11   -0.40    6.40
  -5   6  11    2.30   16.80
   6  11  -5  -10.20    7.00
 -11   5   6    5.70    6.70
   6  11  -5   -6.10   13.00
   5   6 -11  -12.80    6.10
  11   5  -6   11.90   24.70
   5   6 -11    7.50    9.90
   5   6 -11  -19.10   15.60
 -11   5   6    2.50    5.40
  11   5  -6    3.20    7.80
   6  11  -5   -3.50    5.30
 -11   5   6    5.20   12.60
  -5  -6  11    4.20   17.00
 -11  -5   6    2.30    7.70
  -6 -11   5  -10.40    5.00
  -6 -11   5   -2.20    6.20
  -6 -11   5   -8.40   11.70
  11  -5  -6   19.20   17.20
  11  -5  -6    3.20    5.50
  -6 -11   5   -3.40   12.10
  -5  -6  11    2.00    8.20
 -11  -5   6   -1.00    5.90
  -5  -6  11   28.70   21.30
   5  -6 -11    3.20    4.50
  11  -5  -6    1.00    6.00
 -11  -5   6  -28.50   17.20
 -11  -5   6   20.80   25.00
   5  -6 -11    4.30    8.70
  -5  -6  11   -1.40    5.90
   7   6 -11   -7.50    8.80
   6  11  -7    7.30   14.50
   6  11  -7    2.20   16.00
   6  11  -7   20.10    8.10
   7   6 -11    9.50   28.60
  -7   6  11   -2.50   18.60
  -7   6  11   -3.20    5.20
  -7   6  11   -3.80    6.90
   7   6 -11   31.40   17.80
   7   6 -11    2.20    7.00
  11   7  -6   -6.40    7.30
  11   7  -6   -1.30    8.70
   6  11  -7   -0.40    6.00
  11   7  -6   14.60   28.30
  11   7  -6    9.70   13.90
 -11   7   6   27.70   12.00
  -7  -6  11   -6.60   24.00
  -6 -11   7   11.10   11.60
   7  -6 -11   -6.30    6.60
  -7  -6  11    0.60    6.40
  11  -7  -6   24.70   15.60
  -7  -6  11   -3.70    9.50
  -7  -6  11   12.00   17.20
 -11  -7   6   10.90   19.10
   7  -6 -11    2.20   11.80
 -11  -7   6    7.10    7.00
  -6 -11   7   41.00   21.20
 -11  -7   6   42.00   26.40
  -6 -11   7   -4.50    7.10
  -6 -11   7    8.90    5.60
 -11  -7   6   11.80    9.00
  -9   6  11   27.00   24.20
  -9   6  11   -3.70   14.20
  -9   6  11   -3.30    5.30
   6  11  -9    0.60    8.60
  -9   6  11  -12.80    7.70
  11   9  -6   11.70    8.20
   6  11  -9    5.80   24.50
   9   6 -11    1.60   30.20
  11   9  -6    9.80   30.10
  11   9  -6    6.80   16.10
 -11   9   6   -1.80   10.30
   6  11  -9    0.30    6.20
   9   6 -11  -21.00   10.50
   6  11  -9    4.10   20.50
 -11  -9   6    0.90   19.70
   9  -6 -11    7.20    6.10
 -11  -9   6   -0.80    9.70
   9  -6 -11  -10.40   13.40
  11  -9  -6   -8.10   15.00
  -9  -6  11   -2.00   18.00
 -11  -9   6   -6.90    6.80
  -9  -6  11   -1.80    6.70
   9  -6 -11  -10.90   24.50
   9  -6 -11  -10.20    5.70
  -9  -6  11   -3.20   21.70
  -6 -11   9   36.40   27.50
  -6 -11   9    4.10    6.00
  -9  -6  11  -11.50   10.70
  -6 -11   9   -2.80   13.60
 -11  -9   6   29.50   28.80
   6 -11  -9    1.40    8.80
  -6 -11   9   17.70    8.50
 -11   0   7    7.40    7.30
  -7 -11   0    5.70   11.30
  11   0  -7    4.50    5.60
 -11   0   7    2.70    5.60
  -7 -11   0   -2.60    4.10
 -11   0   7   -0.10   16.20
 -11   0   7    5.40   21.60
   7  11   0    5.10   15.40
  11   0  -7    2.70    6.80
  11   0  -7   10.50   22.70
  11   0  -7   23.10   15.80
   7  11   0    0.20    6.00
   7  11  -2    7.30    6.80
 -11   2   7   21.50   20.40
  11   2  -7   15.20    6.20
  11   2  -7  -11.40   24.20
 -11   2   7   10.20   14.80
 -11   2   7   10.60    6.80
   7  11  -2   31.10   17.00
 -11   2   7   14.00    5.60
  11  -2  -7    1.30    5.00
  -7 -11   2    7.60    4.90
  -7 -11   2   -1.00    5.60
 -11  -2   7    3.20    5.80
  -7 -11   2   -8.60   12.60
  11  -2  -7   30.70   16.70
  11  -2  -7  -15.00   20.70
 -11  -2   7   11.60    8.30
 -11  -2   7   18.20   21.80
  11  -2  -7    3.50    6.50
   4   7 -11   -6.30   15.50
  11   4  -7   -6.80   27.50
   4   7 -11    5.00    6.10
  11   4  -7    7.20    7.60
   7  11  -4   -9.00   15.20
 -11   4   7  -15.00   17.70
 -11   4   7   -2.40    6.50
 -11   4   7    9.60   13.30
 -11   4   7    9.90    5.30
  -4   7  11   28.40   22.10
   7  11  -4    1.90    5.60
   7  11  -4   12.00    6.70
  11   4  -7  -19.50   17.60
   7  11  -4  -12.00   13.50
   4   7 -11   23.70   10.10
  11   4  -7    9.10    6.50
  -4  -7  11  -15.60   19.80
  -4  -7  11   13.50    6.10
  11  -4  -7    0.80    5.20
  -7 -11   4    8.00    6.50
  -7 -11   4   14.30   10.80
  11  -4  -7    7.50   12.50
   4  -7 -11   -2.50    8.20
 -11  -4   7    4.60    6.90
   4  -7 -11    1.60    3.60
  -7 -11   4    5.30   17.70
  11  -4  -7   18.40   19.20
  11  -4  -7    3.20    6.10
  -4  -7  11   -1.80    7.50
  -7 -11   4    3.60    5.30
  11   6  -7    3.40    8.20
   7  11  -6   23.70   14.90
   6   7 -11   -3.10    6.60
   6   7 -11   15.00   28.70
 -11   6   7  -18.90   12.50
 -11   6   7    6.20    6.90
   7  11  -6    0.20    5.70
   7  11  -6   10.70    8.40
   7  11  -6    4.30   15.30
  11   6  -7   -2.60   31.40
   6   7 -11   20.90   10.10
   6   7 -11   12.70   17.90
  -6   7  11    4.30   16.00
  11   6  -7    8.60    7.00
  11  -6  -7   -7.60   16.90
  -7 -11   6    6.10   13.90
   6  -7 -11   -2.50    4.20
  -7 -11   6   10.80    5.90
 -11  -6   7    3.60    9.20
  11  -6  -7   -2.40   13.30
   6  -7 -11   -4.60   10.40
  -7 -11   6   -1.80    7.10
  11  -6  -7    5.50    5.30
  -7 -11   6    8.50   16.30
 -11  -6   7    1.90   25.70
  -6  -7  11    2.70    8.70
 -11  -6   7   10.90    6.70
  -6  -7  11   17.60   16.80
 -11  -6   7   -6.80   18.00
  -6  -7  11    8.90    6.20
  -6  -7  11   17.20   23.10
   7  11  -8   25.10   18.20
   8   7 -11   -9.90    7.60
  11   8  -7  -50.99   28.10
 -11   8   7    2.40   11.30
  -8   7  11   -2.60   17.60
   8   7 -11    9.30   21.00
   8   7 -11  -15.20   28.90
  11   8  -7    4.60    7.50
  11   8  -7  -10.90    9.30
   8   7 -11  -18.10   10.10
  11   8  -7    9.40   20.10
   7  11  -8    2.80    7.00
   7  11  -8    7.50   16.60
   7  11  -8   14.90    9.00
  -8   7  11   -5.10    5.10
 -11  -8   7   21.90   28.50
   8  -7 -11   -3.30    5.50
 -11  -8   7   -0.30   10.10
  11  -8  -7    1.50   17.30
 -11  -8   7    7.20    7.40
 -11  -8   7   24.30   17.90
  -7 -11   8   -1.50    6.10
   8  -7 -11    3.70   13.40
  11  -8  -7   -3.60    5.80
  -8  -7  11    4.40   20.20
  -8  -7  11    4.40   28.40
  -7 -11   8    5.70    9.20
  -7 -11   8  -12.20   12.00
  -7 -11   8   27.80   22.10
  -8  -7  11   -7.60   10.40
  -8  -7  11   13.30    6.70
  11   1  -8    2.60    8.00
  11   1  -8   27.40   25.60
 -11   1   8   22.50   16.00
   8  11  -1   -5.40   17.50
 -11   1   8    8.70    6.40
  11   1  -8   20.50   16.30
  11   1  -8   10.60    5.80
 -11   1   8    6.70   20.20
   8  11  -1   -1.50    7.20
 -11   1   8   -3.10    7.60
  11  -1  -8    1.40   15.60
 -11  -1   8    5.00    6.20
 -11  -1   8    1.10    8.10
  -8 -11   1   11.20   13.10
 -11  -1   8   17.10   22.10
  11  -1  -8   -1.60    4.80
  11  -1  -8   -2.20    7.40
 -11  -1   8   13.20   16.60
  11  -1  -8   -9.90   22.00
  -8 -11   1    6.70    5.20
 -11   3   8   -3.40    6.10
 -11   3   8   12.00   17.70
   8  11  -3   -7.20    6.70
   3   8 -11    3.60   15.50
 -11   3   8    3.20   14.60
   8  11  -3    7.40    6.60
  11   3  -8   26.20   25.30
  11   3  -8   -7.90   17.60
   3   8 -11   -7.20    6.10
 -11   3   8   14.70    7.40
  11   3  -8    0.80    6.00
  11   3  -8    1.20    8.60
  -8 -11   3   -6.70    5.30
  -3  -8  11   26.10   22.10
  -3  -8  11    8.60    8.40
  11  -3  -8  -26.20   21.70
 -11  -3   8  -13.10   16.60
  -8 -11   3   13.60    6.60
  11  -3  -8  -13.10    7.40
  11  -3  -8   -4.40   14.60
  11  -3  -8    0.70    4.90
 -11  -3   8  -12.70    6.40
   5   8 -11   -8.70   18.20
 -11   5   8   31.00   13.80
  -5   8  11   13.70   15.80
 -11   5   8    3.70    5.50
 -11   5   8    2.50    6.60
  11   5  -8   -6.30    6.20
   8  11  -5   39.50   19.20
  11   5  -8   -3.30    9.00
 -11   5   8    4.20   18.50
   8  11  -5   -4.60    7.60
   8  11  -5  -22.20   16.60
  11   5  -8  -46.70   31.80
   5   8 -11    2.90    6.40
  11   5  -8  -18.70   17.50
   5   8 -11   -5.50   10.60
  -5  -8  11   -5.30    8.00
  -8 -11   5    2.30   11.50
  -8 -11   5   12.50   19.50
  -8 -11   5   -3.10    5.80
 -11  -5   8   -0.70    7.10
  -5  -8  11   24.00   17.60
  -5  -8  11  -10.70   21.30
  11  -5  -8    0.50    4.10
   5  -8 -11    8.30    8.00
 -11  -5   8    7.20    9.30
 -11  -5   8  -12.70   17.60
 -11  -5   8  -19.60   26.00
  -5  -8  11    8.70    6.60
  11  -5  -8    5.40    7.20
  11  -5  -8    5.80   14.70
  -8 -11   5    5.50    7.70
  11  -5  -8   20.90   20.40
  11   7  -8    3.60   10.40
 -11   7   8  -17.60   12.20
 -11   7   8    0.50    5.40
  11   7  -8   40.60   35.00
   7   8 -11    3.80    7.10
   7   8 -11   -5.00    9.00
   7   8 -11    6.70   15.70
   8  11  -7    8.10    9.50
   8  11  -7  -10.40   18.00
 -11   7   8   -7.40   17.40
  -7   8  11  -21.50   14.60
  11   7  -8   -8.00   18.60
   8  11  -7   12.50   17.20
   8  11  -7    7.70    6.40
   7   8 -11    6.70   28.70
  11   7  -8   -9.70    6.50
  11  -7  -8   -1.30   11.90
  -8 -11   7   -0.20    5.80
  -7  -8  11   12.10    6.80
 -11  -7   8    7.30    8.00
 -11  -7   8  -10.30    9.80
 -11  -7   8   -7.20   16.70
  11  -7  -8  -25.50   19.00
   7  -8 -11   10.40   10.40
  -8 -11   7   -3.50    8.00
  -8 -11   7   -5.30   15.60
  -8 -11   7    3.60   16.00
  -7  -8  11   12.90   18.70
  -7  -8  11   16.80   26.30
 -11  -7   8  -10.70   27.00
  11  -7  -8    1.40    5.10
  -7  -8  11    7.40    9.20
   9   8 -11    8.90    8.60
  11   9  -8   -0.10   10.60
  11   9  -8   -1.70   29.50
   8  11  -9    6.80   20.90
   8  11  -9   16.30   20.80
  11   9  -8   -6.50    7.80
   8  11  -9   17.90   10.10
   9   8 -11  -14.80   30.10
   9   8 -11    1.90   11.10
  11   9  -8    3.50   20.80
  -8  11   9   -6.30   11.10
   9   8 -11  -10.20   21.50
  -9   8  11   -6.20   20.80
  -9   8  11    0.50    4.70
   8  11  -9   -6.10    7.80
  -8 -11   9   19.50    7.10
  -9  -8  11    0.20   25.10
   9  -8 -11    0.20   13.30
  -9  -8  11   -7.40   11.00
  -9  -8  11   -6.10   20.60
  -8 -11   9   12.00   10.10
  -8 -11   9  -10.90   27.80
  11  -9  -8    3.90   19.80
   9  -8 -11   -3.00    5.80
 -11  -9   8   10.10    8.10
 -11  -9   8   13.30   11.20
 -11  -9   8   21.30   18.90
   8 -11  -9    0.50    9.80
 -11  -9   8   40.00   27.90
  -8 -11   9   10.70   15.50
 -11   0   9  -10.70   17.50
  11   0  -9   -2.30    5.10
 -11   0   9    4.50   20.50
 -11   0   9   -7.20    6.20
 -11   0   9   14.80    8.10
  11   0  -9   11.60   17.40
  11   0  -9   -7.90    8.40
  11   0  -9  -13.30   26.10
   9  11  -2  -13.30   19.80
  11   2  -9   11.00    9.00
 -11   2   9    9.20    7.40
  11   2  -9    9.10   17.30
  11   2  -9   41.70   27.60
   9  11  -2   12.30    8.10
 -11   2   9   19.20   20.20
  11   2  -9    8.10    5.60
 -11  -2   9   13.90   22.10
 -11  -2   9   49.00   18.40
  -9 -11   2   16.40   14.30
 -11  -2   9   10.30    6.70
 -11  -2   9   -9.60    8.60
  11  -2  -9   -0.80    4.50
  -9 -11   2    1.60    5.10
  11  -2  -9    1.80   16.20
  11   4  -9    9.00   18.50
   9  11  -4    5.20    8.30
   4   9 -11   -7.50    6.40
   4   9 -11  -11.60   10.50
   4   9 -11  -16.60   15.80
   9  11  -4   -4.20    6.50
 -11   4   9    3.70    6.40
 -11   4   9   10.40    7.40
  -4   9  11   -3.50   17.90
 -11   4   9    7.40   17.90
  11   4  -9   -3.20    7.30
  11   4  -9   12.60    9.70
  11   4  -9   34.30   28.90
 -11   4   9   23.50   15.30
   9  11  -4  -19.20   20.50
  -9 -11   4   -8.80    5.80
 -11  -4   9  -13.70   24.00
  -9 -11   4  -23.60   13.00
  11  -4  -9   -5.90    7.80
  11  -4  -9    1.70   22.40
  -9 -11   4   -9.30    6.30
  -4  -9  11   15.50   24.10
  -4  -9  11   -7.60    6.40
   4  -9 -11    0.00    7.60
 -11  -4   9   -8.40   19.00
  -4  -9  11   -2.10    8.80
 -11  -4   9    0.80    6.60
 -11  -4   9   -3.60    9.10
   9  11  -6   -7.20   19.20
   6   9 -11    2.60   10.30
   9  11  -6   -9.40    6.50
   6   9 -11   -3.30    6.80
  -9  11   6   18.60    7.70
   6   9 -11    3.10   19.50
   9  11  -6   -7.80    9.00
  -6   9  11   26.50   15.30
  11   6  -9  -10.30    6.60
 -11   6   9    7.00    5.70
   9  11  -6  -11.20   19.60
 -11   6   9   -5.30   13.30
 -11   6   9    9.70   16.30
  11   6  -9  -14.90    9.90
  11   6  -9  -12.70   30.40
 -11   6   9    0.20    7.20
   6   9 -11   13.90   29.50
  11  -6  -9  -11.90    7.10
 -11  -6   9  -25.90   20.00
  -9 -11   6    9.40   18.50
  -6  -9  11   -8.50   17.50
  11  -6  -9  -18.30   13.40
  11  -6  -9  -23.80   22.70
 -11  -6   9  -41.50   27.70
  11  -6  -9   -1.70    4.30
 -11  -6   9   -4.30    7.00
 -11  -6   9   -3.30    9.80
   6  -9 -11    1.50    9.90
  -9 -11   6    7.90    7.10
  -6  -9  11   17.30   24.50
  -6  -9  11   -2.40    6.40
  -6  -9  11    4.20    9.50
  -9 -11   6   11.60    9.20
  -9 -11   6    3.50   11.30
   9  11  -8   16.70   20.50
   8   9 -11   -8.80    7.70
   9  11  -8   -0.50   20.00
  -8   9  11    4.70   21.60
   8   9 -11    3.50   23.30
 -11   8   9    7.30   16.40
   8   9 -11    1.30   10.70
   8   9 -11    0.10   35.90
  11   8  -9   11.60   20.90
   9  11  -8   -9.60    6.80
  11   8  -9    0.40    7.40
 -11   8   9   -8.60   12.00
  11   8  -9    0.00   10.90
  11   8  -9   -5.90   29.30
   9  11  -8   14.90   11.10
  11  -8  -9   12.60   22.10
  -9 -11   8   17.40   17.70
 -11  -8   9    6.70   10.00
 -11  -8   9   -1.50   21.00
   8  -9 -11    0.30   11.90
  -9 -11   8   -1.00   19.90
  -9 -11   8   19.70    7.80
  11  -8  -9   -0.10   11.30
  -8  -9  11    0.70    7.20
  11  -8  -9   -1.20    4.50
  -8  -9  11   17.90   11.30
  -8  -9  11   22.70   21.80
  -8  -9  11   48.60   26.00
  -9 -11   8   10.30    9.50
 -11  -8   9   13.00   29.00
  11   1 -10    6.00    9.80
  11   1 -10    5.60    5.60
 -11   1  10  -21.40   18.20
 -11   1  10    5.50   17.80
  11   1 -10   19.70   21.00
  11   1 -10  -14.60   26.40
 -11   1  10  -15.30    8.60
  10  11  -1   -2.70   10.40
  10  11  -1   -3.60   23.40
 -11   1  10    9.70    6.90
  11  -1 -10   -4.20    5.80
 -10 -11   1   -1.70   18.50
 -11  -1  10  -19.40   17.50
 -11  -1  10   -8.80   22.60
  11  -1 -10   -9.20    8.70
  11  -1 -10  -22.10   27.20
 -11  -1  10   -4.80    5.40
 -11  -1  10   -3.90    9.40
  11  -1 -10   -6.10   20.10
  11   3 -10    1.60   21.20
 -10  11   3   -3.00    8.50
  10  11  -3    2.50    9.20
 -11   3  10   27.40   15.80
  10  11  -3   53.09   23.40
 -11   3  10   13.40    6.40
 -11   3  10   -2.00    7.60
 -11   3  10   -1.70   16.60
  -3 -10  11  -34.10   21.50
  11  -3 -10    0.30    8.80
  11  -3 -10    4.80    4.80
 -10 -11   3  -10.20   15.30
  11  -3 -10   -1.70   16.00
 -11  -3  10   19.80   25.10
  11  -3 -10   -6.20   26.50
 -11  -3  10   -4.80    9.50
 -11  -3  10   62.39   20.10
   5  10 -11    5.30   18.10
   5  10 -11    4.60   10.80
 -11   5  10    2.50    7.30
 -11   5  10    7.10   15.10
 -11   5  10   -8.70   15.40
  10  11  -5   22.50   15.30
  -5  10  11  -16.60   14.70
   5  10 -11   -7.10    6.90
  10  11  -5    2.10    7.70
 -11   5  10   -0.60    6.00
  10  11  -5    8.60   23.90
 -10  11   5  -13.40    8.20
  10  11  -5    1.80    8.30
 -10 -11   5   -5.20    5.60
 -10 -11   5    3.10    6.50
 -10 -11   5   10.70   24.50
  11  -5 -10   -2.70   15.30
  -5 -10  11    7.90    9.40
  11  -5 -10   -8.40    5.20
  11  -5 -10   -3.10    7.70
  11  -5 -10   -4.80   25.20
 -10 -11   5   11.10   15.40
  -5 -10  11   11.00   24.80
  -5 -10  11  -12.70    6.50
 -11  -5  10    6.20    5.50
 -11  -5  10   -4.30    9.90
 -11  -5  10   50.09   30.20
 -11  -5  10   16.30   37.90
 -11   0  11    6.50    7.10
 -11   0  11    0.30    9.10
 -11   0  11   32.20   18.50
 -11   0  11   22.90   22.30
  11   0 -11   17.40   11.20
  11   0 -11   -1.90   21.50
  11   0 -11   37.30   31.80
  11   2 -11  -12.30   28.30
  11  11  -2    7.00    9.40
  11  11  -2   -0.40   23.60
  11   2 -11   -0.60   11.80
  11   2 -11   18.20   22.20
   2  11 -11   -4.10    6.50
 -11   2  11   -7.10    6.50
 -11   2  11   -0.20    9.00
 -11   2  11    2.20   16.60
 -11  11   2   -2.70   12.20
   2  11 -11   -5.80   17.00
  11   2 -11   -1.80    6.20
  -2 -11  11   -5.30    9.50
  11  -2 -11    6.20    5.90
  11  -2 -11   -6.60    9.50
  11  -2 -11  -21.00   29.80
 -11  -2  11  -24.20   25.10
 -11  -2  11  -13.90    9.10
 -11  -2  11   -9.80   18.00
 -11 -11   2   -1.20    6.30
 -11 -11   2   -6.20   18.00
 -11  -2  11    1.60    7.10
  11  11  -4    5.80    9.90
  11  11  -4  -18.70   27.60
   4  11 -11    5.70   18.00
  11   4 -11   13.50    8.20
  11   4 -11    6.00   12.30
  11   4 -11   16.10   21.80
  11   4 -11   -1.60   30.80
 -11   4  11   -5.00    5.80
 -11   4  11   -3.60    9.50
 -11   4  11  -19.10   16.20
 -11   4  11   -3.40   16.40
 -11  11   4    7.10   11.70
   4  11 -11   14.90    6.90
  -4  11  11  -20.10   14.50
  -4 -11  11   19.70   23.60
   4 -11 -11    4.10    7.90
  -4 -11  11    3.20    9.30
 -11 -11   4  -12.00   17.30
  11 -11  -4    4.80   13.30
  11  -4 -11   -6.20    5.20
  11  -4 -11    4.30    7.70
  11  -4 -11  -11.70   17.60
  11  -4 -11   -0.40   25.90
 -11  -4  11    0.10    7.40
 -11  -4  11   18.60    9.00
 -11  -4  11  -17.30   17.80
 -11  -4  11   27.90   28.00
 -11 -11   4    1.10    7.00
 -11 -11   4    3.80    8.70
   0  12  -2 1019.70   76.59
   0  12  -4  710.63   52.69
   0 -12   4  673.13   53.39
   0  12  -6  449.46   34.10
   6   0 -12  428.46   34.50
   0 -12   6  436.36   35.70
  -6   0  12  464.15   41.80
   6   0 -12  387.46   33.30
  -6   0  12  401.16   33.30
  -6   0  12  429.06   34.60
   6   0 -12  452.55   37.20
   0 -12   8  241.68   25.50
   8   0 -12  215.28   25.90
   8   0 -12  197.18   17.90
  -8   0  12  200.48   30.60
   0  12  -8  202.38   17.00
   0  12  -8  230.88   20.60
  -8   0  12  175.48   22.50
   0 -12   8  201.58   18.00
  -8   0  12  189.18   17.70
  -8   0  12  217.38   19.90
   8   0 -12  208.68   19.00
  10   0 -12  147.49   26.20
  10   0 -12  156.58   15.60
 -10   0  12  114.79   12.80
 -10   0  12  119.69   16.90
 -10   0  12  128.39   25.70
  10   0 -12  113.19   13.70
  -1 -12   1    3.60    7.10
   1 -12   3    2.60    8.00
   1  12  -3   -1.00    8.30
  -1  12  -3   14.00    6.20
  -1 -12   3    0.20   10.60
   1  12  -7    4.60    4.60
   1  12  -7    5.20   11.00
  -7   1  12    2.00    8.50
  -7   1  12    4.50   16.60
  -7   1  12    2.30   20.20
  -7   1  12    0.70    5.50
   7   1 -12   -2.20    6.60
   7   1 -12   -1.20    7.00
   7   1 -12   10.20   17.70
   7   1 -12    3.40   29.70
   7  -1 -12    6.10    6.30
   7  -1 -12  -32.80   28.10
  -7  -1  12   19.10   17.40
  -7  -1  12   -3.20   21.60
  -1 -12   7   30.40   15.00
   7  -1 -12   11.50   16.60
  -7  -1  12   14.90    8.50
  -7  -1  12   -5.80    5.70
  -1  12  -7   14.80   12.20
  -1  12  -7    3.40    3.90
  -9   1  12  -18.60    9.60
  -9   1  12   -6.90    6.40
  -9   1  12   -5.90   16.20
   9   1 -12    0.20    9.10
   9   1 -12   21.40   31.20
   9   1 -12    2.40    7.80
   9   1 -12    7.10   19.70
  -9   1  12  -25.90   23.90
   1  12  -9    4.70   12.00
   1  12  -9    1.00    5.10
  -9  -1  12    8.50   10.20
  -1 -12   9   -0.90    7.00
   9  -1 -12   26.50   26.00
  -1 -12   9    9.10   18.20
  -9  -1  12   -9.30    5.60
  -9  -1  12  -13.10   15.80
  -9  -1  12  -10.60   26.00
   9  -1 -12   32.40   18.80
   9  -1 -12    6.40    7.80
   9  -1 -12   -2.20    7.10
 -11   1  12  -11.30   10.10
  11   1 -12   26.50   30.50
 -11   1  12   24.50   27.40
  11   1 -12   18.60   22.80
  11   1 -12    7.40   11.10
  11   1 -12    7.50    9.40
 -11   1  12    2.70   18.10
 -11   1  12   -4.70    6.80
  11  -1 -12  -27.10   29.30
 -11  -1  12   11.30    7.30
 -11  -1  12    3.70   17.20
  11  -1 -12  -10.10    8.40
 -11  -1  12   -1.50   11.20
  11  -1 -12   -1.90    9.90
  11  -1 -12   25.90   20.00
 -11  -1  12    2.90   28.90
  -2 -12   0 1191.18   89.39
   2  12  -2  998.60   76.79
  -2 -12  -2 1016.70   76.19
   2  12  -2 1044.10   76.29
  -2 -12   2  922.21   76.39
  -2 -12   2 1076.09   76.19
   2 -12   4  632.84   53.49
   2  12  -4  685.53   54.39
   2  12  -4  692.83   52.99
  -2 -12   4  675.33   54.09
  -2  12  -4  693.23   52.29
  -2 -12   4  751.32   53.09
   6   2 -12  440.16   34.70
   6   2 -12  441.36   37.80
  -6   2  12  438.86   40.70
   6   2 -12  393.76   33.70
  -6   2  12  399.86   33.20
   2  12  -6  459.05   34.50
   2  12  -6  484.95   32.80
  -6   2  12  394.86   34.30
  -2 -12   6  480.25   32.90
  -2 -12   6  416.16   35.70
   6  -2 -12  418.66   34.40
  -6  -2  12  410.76   34.90
  -6  -2  12  447.96   42.30
  -6  -2  12  369.36   33.30
   8   2 -12  225.38   31.90
   8   2 -12  175.08   18.20
   8   2 -12  215.28   25.90
   2  12  -8  227.58   16.90
  -8   2  12  239.38   29.30
   8   2 -12  176.38   19.10
  -8   2  12  192.58   17.20
  -8   2  12  197.48   19.50
  -8  -2  12  199.78   20.60
  -2 -12   8  253.57   24.80
  -2 -12   8  221.98   17.80
  -8  -2  12  152.98   23.30
   8  -2 -12  207.68   24.60
   8  -2 -12  183.68   18.10
   8  -2 -12  280.37   31.90
  -8  -2  12  222.38   31.60
 -10   2  12   88.09   11.20
 -10   2  12   90.19   15.10
 -10   2  12  144.89   21.00
  10   2 -12  141.19   31.50
  10   2 -12   91.89   12.80
  10   2 -12  109.79   15.80
   2  12 -10  113.39   11.20
  10   2 -12  168.38   26.30
 -10  -2  12   84.99   24.50
 -10  -2  12   84.69   12.10
  10  -2 -12   96.99   12.00
  10  -2 -12  106.59   13.00
 -10  -2  12   98.29   16.40
 -10  -2  12   50.09   19.40
  -2 -12  10  125.29   12.80
  10  -2 -12  126.99   29.00
  10  -2 -12  130.09   21.30
   3  12  -1   35.20    9.60
  -3 -12  -1   11.60    8.60
   3  12   1   -3.30   10.10
  -3 -12   1    1.60    6.70
   3  12  -3   -4.20    8.70
   3 -12   3    2.90    9.60
  12   3  -3    1.70   31.30
  -3  12  -3    1.30    5.60
 -12  -3   3  -20.40   19.10
  -3 -12   3    2.80    8.60
  -3 -12   3   -3.40    7.60
  -5   3  12  -10.00   22.20
   5   3 -12   25.50   15.90
   3  12  -5  -12.10   15.10
   5   3 -12    2.90    6.20
  12   5  -3   23.10   30.30
 -12   5   3   22.70   16.10
   3  12  -5    0.60   11.20
   5   3 -12   14.60   10.00
  -5   3  12    4.00    7.70
  12   5  -3   -8.60    8.80
  -5  -3  12   19.50    8.70
  -3 -12   5   37.00   14.30
  -5  -3  12    7.10   21.90
 -12  -5   3   14.00   22.70
   5  -3 -12   -6.20    4.90
  -3 -12   5    5.80    9.10
  -5  -3  12   -2.10    5.90
 -12  -5   3   -9.30    8.70
   5  -3 -12   -5.10   10.60
  -3 -12   5    6.10    4.20
   7   3 -12   32.80   29.00
  -7   3  12    7.50   20.20
   7   3 -12   24.10   19.30
 -12   7   3   36.40   15.20
 -12  -7   3    7.80   23.10
  -7  -3  12   35.10   17.40
  -3 -12   7   58.29    8.30
  -9   3  12   21.80   16.10
   9   3 -12    7.10    8.50
  12   9  -3  -15.80   25.90
 -12   9   3   11.50   13.10
   3  12  -9    6.00   14.00
  -9   3  12   14.30    9.50
   9   3 -12  -34.30   27.80
  -9   3  12    7.90   22.20
   3  12  -9   -5.10    5.50
  -9   3  12   -6.90    6.00
   9   3 -12   11.00   18.20
  12   9  -3   -5.30   10.00
  -9  -3  12   -3.70   18.90
  -3 -12   9    4.80   18.30
  -9  -3  12   11.70   11.20
  -3 -12   9    1.10    7.50
  12  -9  -3   24.40   19.30
   9  -3 -12    1.30    6.70
 -12  -9   3    3.50   20.00
  -9  -3  12   -5.60    6.80
   9  -3 -12  -10.10   25.10
 -12  -9   3    7.50    6.90
  -9  -3  12   49.00   29.90
   9  -3 -12    5.60   17.30
  12   0  -4  730.03   59.59
  12   0  -4  794.52   64.39
  -4 -12   0  776.32   59.09
 -12   0   4  771.62   59.29
 -12   0   4  762.32   62.59
   4  12   0  800.32   59.69
  12   2  -4  753.32   57.69
   4  12  -2  691.33   57.79
 -12   2   4  816.02   59.89
   4  12  -2  760.32   57.09
 -12   2   4  707.13   56.99
 -12  -2   4  849.22   61.19
  12  -2  -4  790.22   57.59
  12  -2  -4  821.92   61.89
  -4 -12   2  711.13   56.69
  -4 -12   2  732.13   58.09
 -12  -2   4  689.83   57.19
   4  12   2  647.34   56.69
 -12   4   4  402.46   33.80
   4  12  -4  439.86   34.60
 -12   4   4  494.75   37.30
   4  12  -4  363.96   36.20
  12  -4  -4  462.25   40.30
  12  -4  -4  451.65   34.40
 -12  -4   4  400.96   39.10
 -12  -4   4  402.96   34.60
  -4 -12   4  482.15   34.30
  -4  -4  12  411.06   49.00
  -4 -12   4  372.66   34.30
  -4 -12   4  462.35   32.80
 -12  -4   4  405.26   34.20
 -12   6   4  386.76   29.30
   4  12  -6  351.86   32.60
 -12   6   4  311.97   25.80
   4  12  -6  336.07   25.90
   6   4 -12  269.87   26.10
  12   6  -4  300.57   26.30
  -6   4  12  278.27   26.30
   6   4 -12  301.07   49.00
  12   6  -4  310.97   28.00
  12   6  -4  354.36   37.60
  -6   4  12  304.57   33.40
   6   4 -12  300.67   30.70
  12  -6  -4  374.26   32.30
 -12  -6   4  279.37   26.60
 -12  -6   4  361.96   34.60
  12  -6  -4  285.07   25.90
  -4 -12   6  364.76   25.70
 -12  -6   4  302.07   27.50
   8   4 -12  148.79   17.70
  -8   4  12  141.69   14.10
  -8   4  12  153.18   16.60
   8   4 -12  127.19   15.90
   8   4 -12  222.78   30.90
   4  12  -8  196.48   19.90
  -8   4  12  164.78   25.30
 -12   8   4  175.88   18.40
  12   8  -4  176.18   19.10
  12   8  -4  137.69   30.60
   4  12  -8  189.78   15.90
   8   4 -12  155.68   24.90
   4  12  -8  170.18   14.40
   4  12  -8  221.18   26.90
 -12  -8   4  134.19   16.50
  12  -8  -4  189.48   22.90
  -4 -12   8  149.88   14.10
  -4 -12   8  177.48   15.40
  -4 -12   8  163.18   23.40
  -8  -4  12  233.88   32.00
  -8  -4  12  169.38   18.40
  -8  -4  12  169.98   21.90
   8  -4 -12  152.58   20.70
   8  -4 -12  137.39   14.60
 -12  -8   4  206.88   27.30
  -8  -4  12  143.49   15.40
  12  10  -4  127.29   30.00
  12  10  -4  102.49   16.70
  10   4 -12  115.99   22.50
 -10   4  12   99.79   19.70
  10   4 -12   85.79   15.10
   4  12 -10  146.99   20.60
  10   4 -12   65.89   32.40
 -10   4  12  171.58   30.50
  10   4 -12  111.49   13.40
   4  12 -10   96.09   15.10
 -10   4  12   78.89   10.90
 -10   4  12   96.39   14.60
 -10  -4  12  105.19   23.00
  10  -4 -12  104.89   19.30
  12 -10  -4  131.89   19.40
  -4 -12  10   87.19   11.10
 -10  -4  12  111.19   16.80
  -4 -12  10  125.59   13.40
  10  -4 -12   68.19   11.60
 -10  -4  12   95.79   29.50
  -4 -12  10  159.78   27.00
 -10  -4  12   74.29   12.50
   4 -12 -10  116.29   12.50
  10  -4 -12  155.98   29.40
 -12   1   5   -4.20    6.00
 -12   1   5    5.70    8.20
  12   1  -5  -16.80   22.80
  12   1  -5    0.90    8.40
  12   1  -5   12.90    7.10
   5  12  -1   17.90   11.80
  12  -1  -5    5.80    8.30
  12  -1  -5    3.20    7.10
   5  12   1  -11.00   12.40
  -5 -12   1   -0.90    9.10
 -12  -1   5   -5.20    6.30
 -12  -1   5   -7.40    8.30
  12  -1  -5   29.50   22.90
 -12  -1   5    2.40   19.30
  12   3  -5    7.00    9.30
 -12   3   5   -2.10   14.40
  12   3  -5   20.30   24.10
 -12   3   5    2.50    6.10
   5  12  -3    1.80   12.00
   5  12  -3   -5.80   11.60
  12   3  -5   -2.30    6.90
   5  12  -3    9.60    5.30
  -5 -12   3    1.40    4.60
  -5 -12   3   32.50   14.50
 -12  -3   5   42.40   19.90
 -12  -3   5   12.50    8.90
  12  -3  -5    4.90    7.70
  12  -3  -5    2.10   21.00
 -12  -3   5    0.80    7.40
  -5 -12   3    6.80    7.70
 -12   5   5   -0.80   10.90
  -5   5  12   -1.90    7.10
   5   5 -12    7.70   10.80
  12   5  -5   -6.40    9.10
  12   5  -5    7.20   24.10
   5   5 -12   13.20    6.80
  -5   5  12   -2.00   20.80
  12   5  -5    7.00    7.40
 -12   5   5   -2.20    5.80
   5  12  -5   11.20   12.40
   5  12  -5    6.90    5.20
   5  12  -5    1.00    7.90
 -12  -5   5   11.20    9.40
  -5  -5  12    6.50    6.50
  -5 -12   5   -1.20    4.50
   5  -5 -12    3.10    5.00
  -5 -12   5    5.90    6.20
  -5  -5  12   -7.80   22.70
  12  -5  -5    4.70    7.60
  12  -5  -5   26.90   20.30
   5  -5 -12   12.40    9.60
 -12  -5   5   55.39   21.60
  -5  -5  12   -6.70    8.40
 -12  -5   5   -5.50    6.50
   7   5 -12    6.40   11.40
  12   7  -5  -21.40   32.90
   7   5 -12   24.80   29.20
 -12   7   5    0.80    5.70
   5  12  -7  -25.70   21.50
   7   5 -12  -22.90   19.90
   5  12  -7    4.80    5.40
  -7   5  12    7.30    8.00
 -12   7   5  -15.10   14.70
   5  12  -7   17.20   14.60
   7   5 -12    0.20    7.50
  -7   5  12    5.40   19.50
  12   7  -5    4.70    8.30
  12   7  -5    3.70    9.30
  -7  -5  12    1.20    9.30
  -5 -12   7   15.20   13.00
   7  -5 -12   16.40   11.90
  -7  -5  12   10.30   27.60
  -5 -12   7    6.00    5.20
   7  -5 -12   10.30    5.50
  -5 -12   7    1.80    7.20
 -12  -7   5    0.10    7.20
 -12  -7   5   11.50   10.20
  12  -7  -5   15.20   18.40
  -7  -5  12    6.50    6.90
  -7  -5  12    7.40   16.50
 -12   9   5    0.40   12.90
  12   9  -5   -0.30    9.00
  12   9  -5   -8.90   10.80
  -9   5  12   16.40    8.50
   9   5 -12   30.70   25.20
  12   9  -5   81.99   34.50
   5  12  -9   -1.80    6.50
   5  12  -9   -8.00    8.70
   5  12  -9   -0.30   21.50
   5  12  -9  -21.80   18.90
  -9   5  12   -1.40    5.60
   9   5 -12    9.00   17.60
  -9   5  12   -1.40   21.20
  -9   5  12   -6.40   17.30
   9  -5 -12   -3.50    6.00
   9  -5 -12    4.00    6.60
 -12  -9   5    7.40   11.10
  -9  -5  12    0.40   11.30
  -5 -12   9   30.30   28.10
 -12  -9   5  -13.20   22.10
  -9  -5  12   21.20   28.70
  -9  -5  12   49.70   23.00
  -5 -12   9    7.20    8.30
   9  -5 -12   19.80   15.50
   9  -5 -12   18.40   26.70
  -9  -5  12   13.30    7.50
  12  -9  -5  -17.60   16.20
 -12  -9   5   -4.80    7.90
  12   0  -6  428.36   35.90
  12   0  -6  440.06   36.70
   6  12   0  520.95   38.80
 -12   0   6  479.15   42.90
 -12   0   6  457.35   36.80
  12   0  -6  520.55   45.10
  12   0  -6  413.96   38.10
 -12   0   6  448.56   36.10
 -12   0   6  445.66   39.90
 -12   2   6  443.36   35.40
   6  12  -2  477.25   34.20
  12   2  -6  406.46   37.40
  12   2  -6  430.26   36.20
 -12   2   6  401.86   38.10
  12   2  -6  509.45   44.80
 -12   2   6  431.66   34.80
   6  12  -2  457.75   37.60
  12   2  -6  437.96   35.10
 -12  -2   6  482.25   40.50
 -12  -2   6  452.05   42.90
  -6 -12   2  456.85   35.70
 -12  -2   6  391.76   35.00
 -12  -2   6  460.35   36.20
  -6 -12   2  445.06   34.10
  12  -2  -6  507.55   43.00
  12  -2  -6  409.66   34.70
  12  -2  -6  420.76   35.70
  12   4  -6  299.37   28.80
   6  12  -4  315.17   29.40
 -12   4   6  295.27   25.60
   6  12  -4  312.37   24.90
  12   4  -6  362.96   39.10
 -12   4   6  267.47   24.70
  12   4  -6  293.27   25.30
  12   4  -6  277.87   27.20
  -6 -12   4  360.96   24.70
  -4  -6  12  274.97   36.70
  12  -4  -6  287.57   25.60
  -6 -12   4  337.97   24.00
 -12  -4   6  325.37   30.60
  12  -4  -6  280.97   24.90
  12  -4  -6  335.17   32.50
  -4  -6  12  291.37   26.40
 -12  -4   6  259.97   25.80
  -6   6  12  213.08   18.80
   6   6 -12  212.48   26.60
  12   6  -6  170.78   23.00
 -12   6   6  250.47   22.30
  -6   6  12  229.88   26.60
   6  12  -6  201.38   19.50
  12   6  -6  269.57   37.80
   6   6 -12  174.88   17.90
   6   6 -12  174.98   20.70
  12   6  -6  204.68   18.70
  12   6  -6  208.78   20.10
 -12   6   6  180.88   16.90
   6   6 -12  253.97   42.10
   6  12  -6  232.08   17.20
   6  12  -6  155.48   25.10
  12  -6  -6  184.48   17.70
  12  -6  -6  236.08   25.50
  -6  -6  12  234.68   25.10
 -12  -6   6  170.38   18.50
 -12  -6   6  227.18   21.40
  -6  -6  12  178.18   17.30
 -12  -6   6  203.28   28.40
  -6  -6  12  166.78   19.80
  -6 -12   6  204.38   16.90
  -6  -6  12  166.88   31.30
   8   6 -12  128.19   34.20
  12   8  -6  178.38   34.90
  12   8  -6  136.69   21.10
  -8   6  12  113.79   11.90
  -8   6  12  144.79   13.70
  12   8  -6   98.29   16.50
   6  12  -8  130.89   20.90
 -12   8   6  134.49   17.50
   8   6 -12  116.19   16.30
   6  12  -8  146.59   22.40
  12   8  -6  132.09   14.90
   6  12  -8  120.39   13.10
   6  12  -8  149.59   14.90
  -6 -12   8  110.29   11.80
 -12  -8   6   87.99   14.00
 -12  -8   6  125.99   24.20
  -6 -12   8  131.89   19.30
  -8  -6  12  118.99   16.80
  -8  -6  12  107.69   21.00
  -8  -6  12  169.18   32.30
  -6 -12   8  129.49   15.00
  -8  -6  12  101.09   13.30
   8  -6 -12  148.69   18.20
   8  -6 -12  115.59   12.10
  12  -8  -6  155.08   20.50
   8  -6 -12  118.39   14.10
 -12   1   7   17.60   17.50
  12   1  -7   -4.90   24.80
 -12   1   7   35.30   21.90
   7  12  -1   -0.50    6.80
  12   1  -7    9.20   13.30
  12   1  -7   -0.80    7.00
   7  12  -1   11.70   16.50
  12   1  -7   -5.70    8.30
 -12   1   7   12.30    7.80
  12  -1  -7  -28.40   22.50
 -12  -1   7   -0.90    6.80
  12  -1  -7   -3.10    6.90
   7  12   1  -29.10   18.40
  12  -1  -7    0.90    8.20
 -12  -1   7   12.30   22.70
  12  -1  -7   -2.40   13.50
 -12   3   7    0.40    7.80
  12   3  -7    5.30   14.00
 -12   3   7   19.10   16.70
   7  12  -3    6.20    6.40
   7  12  -3   -1.20    6.50
 -12   3   7   -3.50   20.60
  12   3  -7    0.30    7.30
   7  12  -3   15.00   16.10
  12   3  -7   -2.20    9.10
 -12   3   7    0.20    5.90
  12   3  -7   35.90   29.50
  12  -3  -7    5.30    7.60
  -7 -12   3   -2.90    5.50
  12  -3  -7   17.30   22.10
  12  -3  -7   -0.80   14.50
 -12  -3   7    9.40    7.20
  -7 -12   3   18.90   12.00
 -12  -3   7   16.80   19.80
  12  -3  -7    3.60    6.30
  -7 -12   3   -6.20    4.90
 -12   5   7   -4.10    7.10
  -5   7  12   -7.30   18.70
   7  12  -5    5.60    5.90
   5   7 -12  -23.30   17.60
   7  12  -5  -11.90    7.40
   7  12  -5   20.90   16.00
   7  12  -5  -25.60   15.50
 -12   5   7    9.00    5.80
  12   5  -7    6.00   14.50
 -12   5   7  -14.30   14.40
  12   5  -7    5.50    7.80
  12   5  -7    9.30    9.20
   5   7 -12   18.30   11.60
  12   5  -7   12.20   32.90
   5   7 -12  -12.10    6.90
 -12  -5   7   -6.20    6.90
  -5  -7  12    0.40    6.80
  12  -5  -7   -4.40    6.40
  -7 -12   5   -0.10    5.30
 -12  -5   7  -13.80    8.40
 -12  -5   7   26.40   20.20
  12  -5  -7   11.80    6.40
   5  -7 -12    1.10    4.70
   5  -7 -12   -3.40    9.40
  12  -5  -7   -5.50   19.50
  -5  -7  12   18.90   24.80
 -12  -5   7  -15.00   28.70
  -7 -12   5   14.70   14.00
  -5  -7  12    7.60    9.80
  -7 -12   5    8.10    7.40
   7  12  -7    2.30    6.40
   7   7 -12   -4.70   21.70
 -12   7   7   -2.30    5.40
   7  12  -7   -4.50   16.50
   7   7 -12   34.60   32.80
  -7   7  12   -1.60    7.40
  -7   7  12   17.10   18.80
   7   7 -12   23.50   12.10
  12   7  -7   11.90    9.60
   7   7 -12    5.60    7.70
  12   7  -7   16.40   35.80
   7  12  -7    8.50   16.10
  12   7  -7    7.70    8.40
 -12   7   7    8.30   13.20
  12   7  -7    7.10   13.30
   7  12  -7   -2.70    9.90
  -7 -12   7   24.80   13.40
  12  -7  -7  -18.60   17.90
  -7  -7  12   -7.90    6.80
  -7 -12   7   11.30    6.10
 -12  -7   7  -33.50   20.10
  12  -7  -7   -1.50    6.50
   7  -7 -12   12.90   11.90
  -7  -7  12   -7.50   10.40
 -12  -7   7    7.80   29.80
 -12  -7   7  -10.20    9.40
  -7 -12   7  -11.00   22.20
  -7  -7  12  -14.30   18.00
   7  -7 -12    0.60    5.40
 -12  -7   7    7.00    7.70
  -7  -7  12   22.30   27.40
  -7 -12   7   -2.40    7.80
  12   0  -8  218.98   19.20
  12   0  -8  220.88   25.50
 -12   0   8  210.78   24.50
 -12   0   8  167.58   18.40
  12   0  -8  250.27   31.90
 -12   0   8  168.38   17.10
  12   0  -8  180.88   17.00
   8  12   0  151.58   21.60
 -12   0   8  233.08   31.70
 -12   2   8  200.68   18.80
 -12   2   8  190.68   17.60
  12   2  -8  208.08   26.00
 -12   2   8  257.17   30.50
   8  12  -2  227.78   18.50
  12   2  -8  222.98   33.80
  12   2  -8  177.88   18.00
  12   2  -8  167.28   20.20
  12  -2  -8  219.08   25.80
  12  -2  -8  198.88   19.00
  12  -2  -8  271.07   30.40
 -12  -2   8  209.68   20.20
 -12  -2   8  167.68   25.20
 -12  -2   8  180.98   18.20
 -12  -2   8  259.37   32.90
  12   4  -8  148.79   18.00
  12   4  -8  160.38   15.50
 -12   4   8  190.58   21.40
   8  12  -4  174.78   16.10
   8  12  -4  157.18   14.90
   4   8 -12  154.88   15.40
   8  12  -4  192.88   20.10
 -12   4   8  126.39   14.70
 -12   4   8  155.18   15.90
 -12   4   8  192.98   26.90
  12   4  -8  183.58   25.30
 -12  -4   8  127.79   15.70
  -4  -8  12  168.98   30.00
 -12  -4   8  148.59   18.30
  12  -4  -8  145.79   19.90
  12  -4  -8  129.19   15.90
  -8 -12   4  190.58   18.90
 -12  -4   8  207.98   23.60
  -8 -12   4  123.79   14.40
 -12  -4   8  234.68   32.20
  -8 -12   4  171.88   24.20
  -8 -12   4  154.78   14.30
  12  -4  -8  175.98   26.50
  -4  -8  12  155.48   17.50
   8  12  -6  123.89   12.20
  12   6  -8   84.09   16.30
   6   8 -12  108.39   17.20
   8  12  -6  151.98   20.20
   6   8 -12  182.88   38.60
  12   6  -8   83.09   23.20
   8  12  -6   95.29   14.00
   6   8 -12  109.09   13.10
  12   6  -8  126.29   38.10
 -12   6   8  127.49   13.70
 -12   6   8   81.29   11.40
  12  -6  -8  105.29   13.00
 -12  -6   8  130.99   23.00
  -8 -12   6   94.49   11.70
  12  -6  -8  134.19   18.70
  12  -6  -8   85.99   11.30
  -8 -12   6  125.89   19.30
 -12  -6   8  157.18   31.70
  12  -6  -8  144.59   23.90
 -12  -6   8   93.59   13.10
 -12  -6   8  115.89   16.60
  -6  -8  12  100.59   12.10
  -6  -8  12  100.19   21.70
  -8 -12   6  126.89   21.60
 -12   1   9    0.30    8.50
  12   1  -9    1.20    9.80
   9  12  -1   12.00   19.90
 -12   1   9  -12.40   22.20
   9  12  -1    5.90    8.10
 -12   1   9   32.30   18.60
  12   1  -9  -17.40   23.90
  12   1  -9    7.70   18.50
  12   1  -9    3.60    6.40
 -12   1   9    8.10    7.30
 -12  -1   9   -3.70    7.10
  12  -1  -9    0.40    5.50
  -9 -12   1    0.20    5.40
  12  -1  -9    9.90   16.70
 -12  -1   9  -12.00   25.80
  12  -1  -9   27.00   27.70
  -9 -12   1  -13.80   14.30
 -12  -1   9  -38.10   20.20
 -12  -1   9   -3.50    9.30
  12  -1  -9   12.90    9.70
 -12   3   9   -6.00    8.40
  12   3  -9    0.10    6.50
   3   9 -12   15.10    8.90
 -12   3   9   19.40   17.20
 -12   3   9  -18.50   20.20
  12   3  -9   17.30   18.80
   3   9 -12   31.80   22.00
 -12   3   9   -3.00    6.50
  12   3  -9   -2.40   10.50
   9  12  -3  -33.10   19.70
  12   3  -9  -13.30   25.10
  -9 -12   3    7.10    5.50
 -12  -3   9   27.70   26.80
  12  -3  -9    0.90    5.30
  12  -3  -9   -8.20    8.40
  12  -3  -9   -6.30   16.50
  -9 -12   3    2.70   12.60
 -12  -3   9    6.30    9.90
 -12  -3   9   -4.50   22.20
  12  -3  -9    5.30   25.70
 -12  -3   9   -8.50    7.70
  -3  -9  12  -20.70   13.90
 -12   5   9   -8.70   15.40
 -12   5   9    9.20   20.50
   5   9 -12   -4.10   21.00
   5   9 -12   -5.60   12.00
 -12   5   9    4.20    6.50
   9  12  -5  -10.50   16.70
 -12   5   9    5.50    7.60
   9  12  -5   20.10    8.90
   9  12  -5    7.00   19.60
   9  12  -5   -4.80    7.10
  -5   9  12  -16.40   16.60
   5   9 -12    1.20    7.40
  12  -5  -9    4.40    7.60
 -12  -5   9    2.10    8.40
  -5  -9  12    4.30   24.60
 -12  -5   9   -5.60   10.70
  -9 -12   5  -18.90   12.00
   5  -9 -12   -0.20    8.30
  -9 -12   5    5.00    6.40
  12  -5  -9    0.90   16.40
  -9 -12   5    5.60   22.70
  -5  -9  12    1.20    9.30
  -5  -9  12   -4.90    7.40
  12  -5  -9    4.00    4.50
  -9 -12   5   -6.20    9.30
 -12  -5   9   53.99   23.20
 -12  -5   9   27.20   36.70
  12  -5  -9  -22.40   22.80
  12   0 -10  145.89   16.20
  12   0 -10  155.68   23.20
  12   0 -10  107.19   12.90
 -12   0  10  117.79   13.20
 -12   0  10  105.89   15.60
 -12   0  10  159.18   29.30
  12   2 -10   63.09   32.30
  12   2 -10  101.39   12.60
 -12   2  10  143.59   26.50
  12   2 -10  122.79   16.10
  12   2 -10  157.08   23.90
  10  12  -2  121.69   15.30
 -12   2  10   93.39   13.10
 -12  -2  10   93.69   12.40
 -12  -2  10  133.49   29.20
  12  -2 -10   73.79   11.20
 -12  -2  10  105.49   22.40
  12  -2 -10  132.59   21.50
 -12  -2  10  102.99   15.50
  12   4 -10   61.39   14.00
  10  12  -4   86.89   12.50
 -12   4  10   71.49   13.20
   4  10 -12   99.19   12.10
  12   4 -10  127.79   24.10
  12   4 -10   81.49   12.20
 -12   4  10  130.29   22.90
  10  12  -4  144.39   26.60
 -12   4  10   67.99   10.90
  12   4 -10   60.39   31.40
  10  12  -4  116.69   14.40
  12  -4 -10  114.19   28.90
 -12  -4  10  107.69   15.90
 -12  -4  10  101.49   31.10
 -12  -4  10  140.49   24.70
 -10 -12   4   97.29   13.60
 -12  -4  10   79.69   11.90
  12  -4 -10  103.49   19.50
  12  -4 -10   82.89   13.30
  12   1 -11   37.10   22.30
 -12   1  11   -6.80    7.20
 -12   1  11    6.90    9.40
  12   1 -11   28.20   32.50
 -12   1  11    7.40   19.40
 -12   1  11   14.30   21.80
  12   1 -11    6.80   11.80
  12   1 -11    3.00    5.70
  12  -1 -11   -9.10   30.40
  12  -1 -11   -0.80    6.00
  12  -1 -11   -0.80   11.00
 -12  -1  11   30.10   21.30
 -12  -1  11    8.10    8.00
 -12  -1  11   -3.50    9.80
 -12  -1  11    0.90   24.70
  12  -1 -11    0.40   19.80
   0  13  -3    0.60    7.80
   0 -13   3   11.40    9.70
   5   0 -13   36.60   18.60
  -5   0  13   -7.00   26.90
   0  13  -7  -15.30    9.60
  -7   0  13    3.70    8.90
  -7   0  13  -15.60   23.20
   0 -13   7    3.80   14.60
   7   0 -13    3.50    9.90
   7   0 -13    8.10   18.90
  -7   0  13   17.10    6.80
   7   0 -13   11.20    7.60
  -9   0  13   -0.10   10.00
  -9   0  13   30.70   18.80
   0 -13   9   16.10   10.90
   0  13  -9    5.40   12.90
   9   0 -13    8.20    7.70
  -9   0  13    3.00   27.10
   9   0 -13   -1.80    9.20
   9   0 -13    6.50   16.40
   9   0 -13   13.40   30.80
  -9   0  13    7.90    7.60
   0  13  -9   14.40    5.50
   1  13  -2   -5.10    7.40
  -1 -13   2   -7.90    7.10
   1  13  -4   11.70    8.80
   1 -13   4    2.90    9.60
  -1  13  -4   -5.40    6.80
  -1 -13   4    4.30   13.00
   1  13  -6    7.90    9.90
  -6   1  13    8.10    8.60
   1 -13   6   -1.40   12.90
   6   1 -13   14.30   10.40
  -6   1  13   30.40   23.20
   6   1 -13   20.70   18.20
   6   1 -13    3.10    6.10
  -1 -13   6   24.10   13.50
   6  -1 -13   -0.70    6.00
  -6  -1  13   -1.40   22.70
  -6  -1  13   -0.30    6.20
   6  -1 -13   -5.90   14.60
  -1  13  -6   -0.70    8.60
  -6  -1  13   12.20    9.20
  -8   1  13   12.60   17.80
  -8   1  13   17.40   10.00
   8   1 -13   36.50   34.40
   8   1 -13    4.00   20.80
  -8   1  13    7.60    6.30
   8   1 -13    5.20    8.10
   8   1 -13    9.60    8.20
  -8   1  13    9.60   26.80
   1  13  -8   -4.30   12.20
  -8  -1  13   29.70   27.90
   8  -1 -13    0.90    7.10
  -8  -1  13   -5.10    6.80
   8  -1 -13   45.00   33.80
  -1  13  -8    1.90    7.40
  -8  -1  13   42.30   19.30
  -8  -1  13    1.30   10.00
  -1 -13   8    4.30   16.50
   8  -1 -13   32.70   19.00
   8  -1 -13   10.70    7.70
   2  13  -1    7.30    7.20
  -2 -13  -1   -7.00    6.30
  -2 -13   1    2.30    7.00
   2  13  -3    1.60   12.20
   2  13  -3   25.70    9.10
  -2  13  -3    7.40    6.30
  -2 -13   3   11.10    7.90
  -2 -13   3    7.00   10.10
   5   2 -13   11.60    6.90
   5   2 -13   -1.90   16.10
   2  13  -5   -5.10   10.00
   2 -13   5   12.70   12.50
  -5   2  13    2.30   10.20
  -5   2  13  -11.70   31.20
  -2  13  -5    7.50    7.40
  -2 -13   5   10.30   13.10
  -5  -2  13   11.60    9.30
   5  -2 -13    0.70    5.60
  -5  -2  13   41.90   26.40
   5  -2 -13   -7.60   13.10
   7   2 -13    8.90    7.70
   7   2 -13    2.90   20.30
   2  13  -7    0.60    4.90
  -7   2  13   -3.70    6.20
  -7   2  13   19.00    8.90
   7   2 -13    2.40    9.40
   2  13  -7    3.00   11.70
  -7  -2  13   13.00   24.10
  -2 -13   7   15.80   14.00
   7  -2 -13   15.90    9.60
   7  -2 -13   -7.70   14.90
  -7  -2  13   -1.70    8.80
  -7  -2  13    0.30    7.10
  -7  -2  13  -13.90   16.80
   7  -2 -13   -2.30    6.00
   9   2 -13  -17.40   23.00
   2  13  -9   -5.10   13.90
   2  13  -9    8.50    5.50
   9   2 -13   -4.30    9.20
   9   2 -13   20.40   31.20
   9   2 -13   -2.80    8.00
  -9   2  13   -5.20    9.50
  -9   2  13    5.40   24.50
   9  -2 -13    2.30    7.70
  -2 -13   9  -14.60   18.00
   9  -2 -13   10.00    7.00
  -9  -2  13   -0.80    7.00
  -9  -2  13  -17.00   10.40
  -9  -2  13  -25.20   28.20
  -9  -2  13   17.10   19.30
  -2 -13   9   -7.10    6.90
   9  -2 -13  -25.80   17.70
   9  -2 -13   11.90   26.50
   3  13   0    8.80    8.50
  -3 -13   0   23.60    7.50
   3  13  -2   28.50   10.80
  -3 -13  -2   14.70    8.90
   3  13  -2   11.30    8.70
  -3 -13   2   13.40    8.50
  -3 -13   2   -3.60   11.50
   3 -13   4   -6.50   12.00
   3  13  -4   -9.80   15.00
   3  13  -4    2.30   10.20
  -3 -13   4    1.00   13.30
  -3  13  -4   15.30    6.80
  -3 -13   4   -2.40    9.60
   3  13  -6   17.80   11.40
  -6   3  13   21.70   22.20
   3  13  -6   10.00   15.10
   3  13  -6    3.50    4.80
  -6   3  13    2.90    8.30
   6   3 -13    7.20    7.00
   6   3 -13   -1.20   11.30
   6   3 -13   27.80   19.90
  -3 -13   6   10.20    4.40
  -3 -13   6    4.00   11.60
   6  -3 -13   -9.10    5.30
   6  -3 -13  -23.80   12.20
  -6  -3  13   20.10    9.80
  -6  -3  13   -0.70    6.90
  -6  -3  13  -10.20   23.30
  -3 -13   6    3.30   16.80
   3  13  -8   -4.50   12.80
   8   3 -13  -34.90   22.10
   3  13  -8   -2.00    5.40
  -8   3  13   -3.20   25.80
  -8   3  13   -3.20    5.80
  -8   3  13    1.90    9.40
   8   3 -13   -4.00    7.70
   8   3 -13    5.00   10.70
   3  13  -8    3.20    9.30
   8   3 -13  -14.10   31.80
  -8  -3  13   -1.70    6.90
  -8  -3  13  -16.30   18.60
   8  -3 -13   15.90   15.80
   8  -3 -13    3.60    6.60
  -8  -3  13  -21.50   29.70
  -3 -13   8    1.30    5.40
  -8  -3  13   -4.00    9.90
  -3 -13   8   -4.80    6.20
   8  -3 -13   -5.30    6.50
  -3 -13   8    6.40   15.20
  -4 -13  -1    7.70    9.90
   4  13  -1  -14.10    9.40
  13   1  -4  -16.90   26.80
 -13   1   4   -3.10    7.50
 -13   1   4   -5.80   19.40
  13   1  -4   -5.30    9.10
  13  -1  -4   -3.10    8.50
 -13  -1   4   10.20   22.40
  -4 -13   1    4.40    8.10
 -13  -1   4    6.80    7.90
  13  -1  -4  -34.20   28.60
   4  13   1  -10.20   11.70
  13   3  -4   13.70    9.70
 -13   3   4   18.40   17.40
  13   3  -4   17.00   27.30
 -13   3   4    3.70    7.60
   4  13  -3    7.80   11.70
   4  13  -3   -6.30    9.80
  -4 -13   3   -5.50   11.60
 -13  -3   4  -13.10   23.10
  -4  13  -3   31.60   11.10
 -13  -3   4   -3.20    7.90
  13  -3  -4   -7.10    8.20
  -4 -13   3   -5.40    9.30
  13  -3  -4   12.20   25.80
   4  13  -5    8.30    5.30
  13   5  -4  -44.00   25.00
 -13   5   4    2.90    7.20
   4  13  -5   10.20    9.70
   4  13  -5   16.70   12.80
  13   5  -4   -9.50    9.80
  -5   4  13    5.80   10.60
  -5   4  13   -6.70   30.50
 -13   5   4    3.90   15.60
   5   4 -13   -1.20    7.20
 -13  -5   4   -0.50   23.20
   5  -4 -13    0.20   11.30
   5  -4 -13   -7.80    6.10
  -4 -13   5    2.10    7.20
 -13  -5   4   10.60    8.00
  -4 -13   5  -11.20   16.30
  13  -5  -4    0.90    7.90
  -5  -4  13   -5.00   12.10
  -4 -13   5    0.50    4.40
  13  -5  -4  -10.70   23.10
   7   4 -13    7.10   37.40
   7   4 -13    0.00    8.00
   4  13  -7   -1.10    5.50
   4  13  -7    2.30   17.80
 -13   7   4    7.00    6.80
  13   7  -4    0.10   11.20
  13   7  -4   15.00   26.90
   4  13  -7    8.50    7.80
 -13   7   4    9.00   13.00
  -7   4  13   22.40   21.80
   4  13  -7  -11.70   11.60
  -7   4  13   -0.50    8.90
   7   4 -13  -12.50   20.90
   7   4 -13   -7.70   10.10
  -7  -4  13  -10.40    6.60
  -4 -13   7  -15.30   13.60
  -4 -13   7   -2.20    4.80
   7  -4 -13   -7.00   13.20
 -13  -7   4  -14.80   24.00
  13  -7  -4   14.30   20.20
  -4 -13   7  -21.30   16.10
   7  -4 -13   -5.60    5.70
  -4 -13   7   -9.70    6.50
  -7  -4  13    2.30    9.30
 -13  -7   4   -6.30    8.00
  -7  -4  13  -32.30   25.20
  -7  -4  13    2.60   16.70
  -9   4  13   10.50   23.00
   4  13  -9   12.90   10.20
   9   4 -13    0.40    8.70
   4  13  -9   -4.40   16.20
  -9   4  13   -4.10    8.80
   9   4 -13   -4.50   18.00
   9   4 -13  -20.60   31.60
   9   4 -13    6.60   10.40
   4  13  -9    8.10    6.20
 -13   9   4  -19.40   17.10
  13   9  -4   -8.00   11.30
  -9   4  13   36.60   18.80
  -9   4  13    8.70    6.30
  -9  -4  13  -19.10   11.20
 -13  -9   4  -14.30   22.40
   9  -4 -13    5.40    7.10
  -4 -13   9   -4.00    6.00
   9  -4 -13   -4.70   15.80
  13  -9  -4  -17.20   17.50
  -9  -4  13   -9.00   19.10
  -9  -4  13    5.10   31.00
 -13  -9   4   -2.60    8.00
  -4 -13   9   -4.40    7.00
  -9  -4  13   -5.20    7.40
  -4 -13   9    1.80   18.50
   9  -4 -13   13.70    6.70
  -5 -13   0   16.60   11.50
  13   0  -5   23.30    9.80
  13   0  -5   39.90   25.70
   5  13   0   10.00   12.80
 -13   0   5    6.20   19.80
 -13   0   5   14.40    7.60
  13   2  -5    4.30    7.90
  13   2  -5    2.80   10.20
  13   2  -5   39.90   27.40
   5  13  -2    4.50   11.70
 -13   2   5  -15.60   17.20
 -13   2   5    5.30    7.20
  -5 -13  -2   -6.50   10.40
   5  13   2   16.80   12.50
  -5 -13   2   14.20    9.10
 -13  -2   5   11.40   10.00
  13  -2  -5   10.70    9.00
 -13  -2   5   11.10    7.10
 -13  -2   5   47.30   21.90
 -13   4   5   16.70    6.70
   5  13  -4   19.10   11.20
 -13   4   5   19.20   13.70
   5  13  -4   18.50   13.40
  13   4  -5   -2.00    8.80
  13   4  -5   -1.80   10.20
   5  13  -4    9.80    5.20
 -13  -4   5  -20.30   13.90
  13  -4  -5   20.40    8.70
  13  -4  -5   58.59   23.60
 -13  -4   5    2.20    8.10
  -5 -13   4   -3.90    5.10
  -5 -13   4    5.50   15.20
  -5 -13   4    1.30   10.70
 -13   6   5   -9.40    6.30
   5  13  -6    0.20    5.90
  -6   5  13    3.90    8.30
   6   5 -13   31.50   19.50
  13   6  -5   12.70    9.30
 -13   6   5  -11.70   17.70
   6   5 -13  -15.70   11.40
   5  13  -6   -4.00   14.30
  -6   5  13   10.60   20.70
   5  13  -6   -1.30   11.00
   6   5 -13    8.10    8.10
 -13  -6   5    6.20    7.30
  13  -6  -5   -6.60   21.30
 -13  -6   5    4.60   11.90
  -5 -13   6    1.10    8.60
  -5 -13   6   21.30   18.20
  13  -6  -5   -5.50    7.50
   6  -5 -13    3.60   11.60
  -5 -13   6   -2.30    5.00
  -5 -13   6   -2.60    7.50
  -6  -5  13   -5.80   10.50
   6  -5 -13    0.60    5.30
  -6  -5  13  -15.70   25.10
  -6  -5  13   10.70    7.20
  13   8  -5    6.30    9.40
 -13   8   5   -6.40    6.00
   5  13  -8    6.70   20.80
   8   5 -13    1.70   13.30
   8   5 -13   34.90   58.49
  13   8  -5    0.20   10.40
  13   8  -5   -5.90   38.70
  -8   5  13   12.20    6.60
   5  13  -8  -10.70    6.20
   5  13  -8    5.00    8.90
   5  13  -8   -2.80   15.70
  -8   5  13   -6.80   21.60
  -8   5  13   -4.80    8.70
 -13   8   5    4.60   15.90
   8   5 -13  -11.50   28.50
   8   5 -13    8.60   15.10
  -8  -5  13   -2.40    7.40
 -13  -8   5   -0.90    8.20
  -5 -13   8   -7.40   27.20
  -8  -5  13    8.80   20.90
  -5 -13   8   -5.90    5.40
   8  -5 -13    4.40    5.80
  -5 -13   8   -4.10    7.50
 -13  -8   5   31.10   26.50
  -8  -5  13   13.00   12.00
   8  -5 -13   24.10   13.90
  -5 -13   8    3.80   10.60
   8  -5 -13   11.60    8.10
  13  -8  -5   13.20   19.70
  -8  -5  13   -2.00   35.80
 -13  -8   5   14.70   12.80
 -13   1   6  -11.80   15.40
  13   1  -6    0.20    9.20
 -13   1   6   -2.70    7.00
 -13   1   6    8.10    9.20
   6  13  -1    5.80   13.20
  13   1  -6   27.10   26.30
  13   1  -6   -1.80    7.50
  13  -1  -6   -1.70    9.20
 -13  -1   6   24.50   18.20
  13  -1  -6   21.00    8.20
 -13  -1   6   -4.10    9.00
 -13  -1   6   -9.60    6.90
   6  13   1   -2.10   13.90
  -6 -13   1   13.30   10.70
  13  -1  -6    0.20   26.30
  13   3  -6   -6.20    9.40
 -13   3   6  -25.20   18.30
  13   3  -6  -45.20   33.30
  13   3  -6   13.10    8.20
 -13   3   6   -6.60    8.10
   6  13  -3    8.00   13.30
 -13   3   6  -12.00    7.10
   6  13  -3   -0.70    5.80
  13  -3  -6   -1.70    7.10
 -13  -3   6  -31.70   23.00
  -6 -13   3   15.10    9.80
  13  -3  -6    0.70    7.90
 -13  -3   6   -0.90    8.00
  13  -3  -6   -9.80   24.80
  -6 -13   3    1.60    5.00
  13   5  -6   -5.80    8.30
  -5   6  13  -17.00   28.60
  13   5  -6   12.80   14.90
   6  13  -5   -7.80   14.40
   6  13  -5    1.10   12.30
   6  13  -5    2.10    5.80
 -13   5   6    6.20   16.60
  -5   6  13   -4.50    9.20
  13   5  -6    3.80   36.60
   5   6 -13   15.10   19.60
   5   6 -13    9.90    7.80
  13   5  -6    4.70   11.30
   6  13  -5  -11.50    8.50
 -13   5   6    4.90    7.20
  -5  -6  13   -3.10    9.80
   5  -6 -13   -6.40   10.30
  13  -5  -6  -14.10   22.10
  -6 -13   5    9.90   17.40
  -6 -13   5    0.70    5.90
  -6 -13   5    6.40    7.00
  -6 -13   5   -1.60   11.70
 -13  -5   6   39.50   25.40
 -13  -5   6   15.10   11.10
   5  -6 -13    7.50    6.40
  -5  -6  13   16.00   26.30
  13  -5  -6   10.30    8.40
 -13  -5   6    7.30    8.50
  13   7  -6   -3.40    8.80
  -7   6  13   14.70    8.80
   7   6 -13  -23.40   22.30
   6  13  -7    2.50    7.90
   6  13  -7   -5.40   16.40
   6  13  -7   16.60    6.90
   7   6 -13   13.10   11.20
 -13   7   6   -0.10   14.90
 -13   7   6   -2.40    5.80
  13   7  -6   33.00   36.10
   6  13  -7    7.70   13.00
  -7   6  13    8.10   20.80
  13   7  -6   -8.60   10.20
   7   6 -13   21.30   39.50
  -7  -6  13    8.20   10.40
 -13  -7   6   -9.90   11.00
  -6 -13   7  -18.90   22.90
  -6 -13   7    7.50    5.90
  13  -7  -6    1.00   19.70
  -6 -13   7    0.60    9.70
 -13  -7   6   67.39   24.40
  -7  -6  13   21.10   21.40
  -7  -6  13   26.90   27.70
  -7  -6  13   15.00    7.10
   7  -6 -13  -21.20   12.40
 -13  -7   6  -10.10    8.20
  -6 -13   7   -3.50    8.50
  -7 -13   0    1.90    4.70
   7  13   0    0.30   16.00
  13   0  -7    1.90    8.50
 -13   0   7   -6.00   19.70
 -13   0   7    3.60    7.30
 -13   0   7   19.50   10.20
  13   0  -7   28.90   29.20
  -7 -13   0    8.80   12.00
 -13   0   7    9.40   26.10
  13   0  -7    7.80    7.80
  13   2  -7  -43.40   29.00
   7  13  -2   -4.90    6.70
 -13   2   7    7.90    7.00
   7  13  -2  -14.60   14.60
 -13   2   7    7.00    8.90
  13   2  -7    8.30   15.50
  13   2  -7   -3.00    8.90
  13   2  -7    5.10    8.20
  13  -2  -7  -25.70   24.40
  13  -2  -7   38.80   17.90
 -13  -2   7   12.00    7.40
 -13  -2   7   -4.90   28.30
 -13  -2   7  -12.40   20.90
  13  -2  -7   -3.20    8.00
  13  -2  -7   18.40    7.50
  -7 -13   2   -0.40   10.80
  -7 -13   2    1.90    5.30
 -13  -2   7   -1.30   10.00
   7  13  -4   -4.00    7.60
  13   4  -7   -9.60    8.40
  13   4  -7   34.70   35.40
  13   4  -7  -14.40   13.20
   4   7 -13   11.30   20.60
 -13   4   7   -2.40    6.80
  13   4  -7   17.70   10.30
 -13   4   7    7.70    8.60
   7  13  -4    1.30    6.10
   7  13  -4   -0.80   15.40
   7  13  -4   -5.80   14.90
   4   7 -13    8.40    9.40
 -13   4   7   10.50   17.10
 -13  -4   7  -15.80    7.50
  13  -4  -7    7.80    7.30
  -7 -13   4   -9.00    9.00
  -7 -13   4  -11.60    7.80
  -4  -7  13   26.10   18.40
  -7 -13   4  -14.60   17.60
  13  -4  -7   -5.10   22.20
 -13  -4   7  -29.60   21.40
 -13  -4   7   -9.90   28.40
  -7 -13   4    7.60    5.80
 -13  -4   7  -15.10   10.20
  13  -4  -7   11.00    8.30
  -6   7  13   -1.10   21.00
   6   7 -13    2.60    8.00
 -13   6   7   14.20    6.30
 -13   6   7   24.30   16.30
  -6   7  13   14.30    8.50
  13   6  -7   25.90   36.70
   6   7 -13   13.60   22.70
   7  13  -6    9.50    6.20
   6   7 -13   11.70   12.40
  13   6  -7    0.00   11.10
  13   6  -7   -3.30    8.90
   7  13  -6   -2.70   16.50
   7  13  -6    6.90   14.30
   7  13  -6   11.80   10.10
 -13  -6   7    4.40   31.00
  -6  -7  13  -12.80   26.00
 -13  -6   7   18.70   22.30
  -7 -13   6    5.80   13.30
  -6  -7  13    0.60    9.40
 -13  -6   7   -9.60   11.30
  13  -6  -7   -0.10   20.60
 -13  -6   7   10.70    8.20
  13  -6  -7    0.00    6.90
   6  -7 -13    5.30    5.00
  -7 -13   6    0.30    7.90
  -6  -7  13   10.80    7.90
  13  -6  -7  -11.60    6.40
   6  -7 -13    3.20   11.00
  -7 -13   6    6.20    6.30
  -7 -13   6  -15.40   19.80
  13   1  -8    2.30    8.80
 -13   1   8   20.70   24.60
 -13   1   8    9.70    8.90
   8  13  -1   51.59   19.10
   8  13  -1   -1.50    7.70
  13   1  -8    1.50    7.80
 -13   1   8    1.10    7.00
  13   1  -8   18.70   15.10
  13   1  -8   19.50   31.70
 -13   1   8  -11.60   19.30
  -8 -13   1   14.90   12.10
  13  -1  -8    8.00    7.60
  -8 -13   1    6.40    5.30
 -13  -1   8   -3.20   26.30
  13  -1  -8  -15.90    8.30
  13  -1  -8    5.70   15.30
  13  -1  -8  -30.20   28.30
 -13  -1   8    7.50    8.80
 -13  -1   8    7.10    7.20
 -13  -1   8    5.60   20.10
  13   3  -8   11.70    9.50
 -13   3   8   -8.80   18.10
   8  13  -3   17.10   17.30
  13   3  -8  -25.60   14.80
 -13   3   8  -16.10    8.70
   8  13  -3    4.10    7.30
 -13   3   8  -43.30   23.50
 -13   3   8    3.00    6.90
  13   3  -8   15.10   35.10
 -13  -3   8   13.90    7.70
  13  -3  -8  -33.00   25.70
  -8 -13   3   11.10   12.00
  13  -3  -8   -3.90   16.40
  -8 -13   3    8.10    5.50
  -8 -13   3    0.30    6.30
 -13  -3   8    3.30    9.30
  13  -3  -8   -7.80    7.90
  13  -3  -8   -8.70    6.70
 -13  -3   8    3.50   21.10
 -13  -3   8   13.90   30.70
  -5   8  13   -2.10   20.00
   5   8 -13  -16.80   20.70
   8  13  -5   -0.10    8.40
 -13   5   8    2.40    6.60
   8  13  -5   -4.10    7.00
 -13   5   8   18.50   16.30
 -13   5   8   -7.10    8.60
   8  13  -5   23.40   17.00
   8  13  -5  -16.70   16.50
   5   8 -13   -7.20    8.00
  13  -5  -8    8.70   22.40
 -13  -5   8   11.00   10.10
  13  -5  -8    1.70    8.00
  -5  -8  13   30.60   28.10
   5  -8 -13   -3.30    5.10
 -13  -5   8  -21.80   40.90
  -5  -8  13   23.80   11.40
 -13  -5   8   -4.80   23.10
 -13  -5   8   15.70   10.70
  -8 -13   5    2.10    8.60
   5  -8 -13    1.20    9.90
  -8 -13   5   -2.30    9.20
  -8 -13   5   10.90    6.30
  -8 -13   5    5.30   21.10
  13  -5  -8    1.60    6.50
 -13   0   9   -4.20    9.80
   9  13   0    4.40    9.30
  -9 -13   0   20.50   20.20
 -13   0   9  -34.10   28.40
  13   0  -9    2.20   32.50
   9  13   0    0.70   21.80
  13   0  -9    4.80   20.20
  13   0  -9   -7.10   10.30
 -13   0   9   -0.70    8.20
  13   0  -9    0.60    7.20
 -13   0   9   24.90   20.80
  13   2  -9   13.80   10.80
 -13   2   9   -6.60    8.50
 -13   2   9  -29.40   25.70
 -13   2   9   -7.20    7.60
  13   2  -9    2.60    7.80
   9  13  -2   -2.90    8.60
  13   2  -9  -10.60   20.30
  13   2  -9  -10.60   32.30
 -13  -2   9    4.30    8.30
 -13  -2   9   15.80   10.70
  13  -2  -9   13.10   26.40
  13  -2  -9   -3.80    6.00
 -13  -2   9  -12.70   28.80
  13  -2  -9    1.00   20.20
  -9 -13   2   -5.60   13.90
  -9 -13   2   -7.40    5.20
  13  -2  -9   -4.70    9.60
 -13  -2   9  -23.00   20.60
  13   4  -9  -21.60   21.00
  13   4  -9  -54.69   29.80
   4   9 -13   -1.00   22.20
   9  13  -4   -5.40    8.20
 -13   4   9   -3.80    8.60
 -13   4   9   -4.80   22.90
  13   4  -9  -15.30   11.00
  13   4  -9  -14.50    7.30
 -13   4   9   30.70   18.40
   4   9 -13    5.00    8.00
 -13   4   9   15.90    7.60
   9  13  -4   -8.20   18.50
  13  -4  -9   22.00   26.20
  13  -4  -9    6.70    6.30
 -13  -4   9  -50.29   30.20
  13  -4  -9  -10.90    9.20
 -13  -4   9   12.60    8.70
  -9 -13   4    3.80    7.20
  -4  -9  13   21.70   38.40
 -13  -4   9   13.60   11.30
  13  -4  -9   17.70   14.80
  -9 -13   4    2.60   11.50
  -9 -13   4   19.70    6.40
 -13  -4   9  -12.40   20.00
  -4  -9  13    4.90   10.60
   0  14  -4  112.49   14.50
   0 -14   4  154.68   15.70
   0  14  -6  155.38   16.60
   6   0 -14  187.58   24.10
  -6   0  14  162.28   18.00
   0 -14   6  139.09   18.70
  -8   0  14  135.69   30.70
   8   0 -14  116.09   14.20
   8   0 -14  138.59   25.10
   8   0 -14   88.59   13.20
  -8   0  14   92.99   12.20
  -8   0  14   94.29   16.50
   0 -14   8  119.89   20.50
   0  14  -8  121.09   15.70
  -1 -14   1   -1.90    7.30
   1  14  -3   -9.00    8.20
  -1  14  -3   -1.60    7.60
  -1 -14   3   11.00   11.00
   1 -14   5    1.60   11.20
   1  14  -5    2.20   10.40
  -1 -14   5   -1.70   18.20
  -1  14  -5    1.10    8.30
   7   1 -14    0.30   11.80
   1  14  -7   18.40   11.60
  -7   1  14  -46.10   26.40
  -7   1  14  -10.80   10.40
   7   1 -14   40.10   22.00
   1 -14   7   21.00   14.90
   7   1 -14    9.70    7.90
  -7  -1  14   -0.70    9.60
  -7  -1  14    6.70   25.90
   7  -1 -14  -21.30   16.80
  -1  14  -7    1.50    9.50
   7  -1 -14   -7.50    7.20
  -2 -14   0  113.39   12.50
   2  14  -2  135.39   14.80
   2  14  -2  115.99   17.50
  -2 -14   2  142.79   14.30
  -2 -14   2  136.09   16.30
   2  14  -4  124.99   15.70
   2 -14   4  152.08   15.70
  -2 -14   4  143.59   18.50
  -2  14  -4  128.99   13.40
   6   2 -14  112.29   14.30
   2  14  -6  119.09   16.80
   6   2 -14  142.59   23.50
  -6   2  14  123.09   15.70
   2 -14   6  173.48   19.00
  -2  14  -6  150.38   14.60
  -6  -2  14  137.19   17.70
  -6  -2  14  175.38   32.50
   8   2 -14  149.59   27.10
  -8   2  14  135.59   29.50
  -8   2  14   89.49   15.40
  -8   2  14   95.79   11.50
   8   2 -14   81.09   15.20
   2  14  -8   85.89    9.70
   8   2 -14   86.79   13.30
  -2 -14   8  119.79   19.70
  -2 -14   8   90.59   11.10
  -8  -2  14  121.49   33.40
  -8  -2  14   70.49   11.90
  -8  -2  14   77.29   20.70
  -8  -2  14  100.09   16.40
  -3 -14  -1    1.50    7.80
   3  14  -1   -1.70    7.30
  -3 -14   1   -4.50    8.30
   3  14  -3    9.00   10.60
   3  14  -3   -2.60    7.30
  -3 -14  -3   10.20    7.90
  -3 -14   3   -1.50   12.60
  -3 -14   3    9.20    6.80
   3  14  -5   -5.40   14.50
   3  14  -5    8.10   12.10
   3 -14   5   -9.60   23.20
  -3 -14   5   23.30   17.90
  -3  14  -5   -5.90    7.80
  -3 -14   5   -9.30   11.40
   3  14  -7   -2.90    5.20
   7   3 -14   40.10   24.80
  -7   3  14   19.00   26.10
   7   3 -14    6.90   12.20
   7   3 -14   11.90    9.00
   3  14  -7   15.90   12.90
  -7   3  14   -8.20   10.20
  -7  -3  14   -7.00    7.50
  -7  -3  14   20.30    9.40
   7  -3 -14  -13.00   15.20
  -7  -3  14   36.50   26.20
  -3 -14   7    3.70   25.00
  -3 -14   7    0.50    5.30
  -4 -14   0  140.59   14.90
   4  14   0  150.68   16.50
 -14  -2   4   26.90   30.60
   4  14  -4  111.19   16.60
   4  14  -4  165.28   16.50
  -4 -14   4  133.19   17.20
  -4 -14   4  136.69   14.30
   4  14  -6  179.68   22.70
   4  14  -6  136.49   13.00
   6   4 -14  168.48   25.90
   4  14  -6  135.49   18.40
   6   4 -14  130.89   15.00
  -6  -4  14  123.29   17.90
  -6  -4  14  105.19   14.60
  -4 -14   6  127.99   12.00
  -4 -14   6  146.89   15.60
  -4 -14   6  192.58   26.20
 -14   1   5   30.00   20.10
  14   1  -5    6.10   10.60
   5  14  -1    5.00   10.90
  -5 -14  -1    1.40   10.60
  14   1  -5    2.10   29.10
 -14   1   5   -0.60    8.90
 -14  -1   5    8.10    8.70
   5  14   1   -4.10   13.30
  14  -1  -5    5.20   27.50
 -14  -1   5    9.50   21.50
  -5 -14   1   -6.80    8.60
  14  -1  -5   -5.90    9.70
 -14   3   5   -9.60    8.40
   5  14  -3    3.10    9.80
  14   3  -5   40.60   29.50
  14   3  -5   22.60   11.70
 -14   3   5    0.70   16.30
 -14  -3   5   21.80   25.30
  -5 -14   3   15.70   14.80
 -14  -3   5   13.00    7.90
  14  -3  -5  -11.00    9.10
  14  -3  -5  -42.30   25.90
  -5 -14   3    2.10   10.70
  14   5  -5  -16.10   30.40
   5  14  -5   -4.00    5.00
   5  14  -5   10.30   10.70
   5  14  -5    2.60   13.20
   5   5 -14    2.10    8.90
  14   5  -5   -5.70   11.60
 -14   5   5   -6.80    6.80
 -14   5   5   10.70   21.40
   5   5 -14   13.00   27.00
  -5 -14   5    6.40    8.60
  -5  -5  14   13.70   15.10
  -5 -14   5   -0.10    4.70
 -14  -5   5    8.00    9.40
  -5 -14   5   10.10   16.70
  14  -5  -5   -9.60    8.70
  14  -5  -5    6.60   24.30
 -14  -5   5   26.80   25.50
 -14   0   6  143.29   18.00
 -14   0   6  134.59   15.70
  14   0  -6  150.78   19.00
   6  14   0  185.48   20.70
  14   0  -6  134.39   15.60
  14   2  -6  124.89   18.60
  14   2  -6  149.79   16.40
  14   2  -6  164.68   33.00
 -14   2   6  135.89   14.90
 -14   2   6  172.08   24.10
   6  14  -2  165.98   18.60
 -14  -2   6  142.29   18.60
  -6 -14   2  152.08   15.70
 -14  -2   6  110.39   15.20
 -14  -2   6  179.88   28.00
  14  -2  -6  146.59   17.90
  -6 -14   2  111.49   12.50
 -14   4   6  115.19   14.80
   6  14  -4  176.48   19.50
 -14   4   6  126.89   24.10
   6  14  -4  123.39   13.00
  14   4  -6  137.59   18.40
   6  14  -4  160.68   19.50
  14   4  -6  154.08   16.50
 -14  -4   6  113.09   15.40
 -14  -4   6  153.98   19.00
  -6 -14   4  154.58   17.60
  -6 -14   4  141.29   21.40
 -14  -4   6  180.68   30.60
  14  -4  -6  102.09   15.00
  -6 -14   4  131.79   12.90
  14  -4  -6  183.38   31.50
  14   6  -6  138.99   43.80
 -14   6   6   86.89   12.40
   6  14  -6   99.59   13.10
  14   6  -6   84.39   15.80
  14   6  -6   95.19   15.30
  -6   6  14  102.69   14.00
  -6   6  14  166.08   27.10
 -14   6   6  108.19   18.40
   6   6 -14   78.99   12.80
   6   6 -14   95.79   17.40
   6   6 -14   98.59   24.20
  -6  -6  14   80.69   12.90
  -6 -14   6  123.19   12.10
 -14  -6   6  105.39   16.20
  -6 -14   6   80.19   10.70
  -6 -14   6  107.79   14.30
  14  -6  -6  154.78   26.90
  14  -6  -6   90.59   14.50
  -6 -14   6  109.89   18.50
 -14  -6   6   73.19   14.30
 -14  -6   6  125.19   30.20
  -6  -6  14  108.19   30.10
  -6  -6  14   91.09   17.60
   7  14  -3    5.60   13.90
 -14   3   7   14.50   20.60
  14   3  -7   46.20   38.10
 -14   3   7  -13.70   10.00
 -14   3   7   13.80    7.30
  14   3  -7    3.30    9.30
  14   3  -7   -2.70   10.60
   7  14  -3    5.30    7.20
  14   3  -7   13.90   17.00
   7  14  -3    6.80    6.60
 -14  -3   7    7.10   11.70
  14  -3  -7   -6.80    8.40
  14  -3  -7    1.60   26.80
  -7 -14   3    3.60    5.40
  14  -3  -7   -2.30    8.70
 -14  -3   7   12.30   24.40
 -14  -3   7    6.00    8.30
  -7 -14   3   -1.70   10.30
  14   0  -8  187.98   37.50
 -14   0   8  152.08   26.60
  14   0  -8  117.79   21.40
  14   0  -8   94.59   14.00
 -14   0   8   99.19   13.50
   8  14   0  112.29   21.30
  14   0  -8   95.19   16.20
  14   2  -8  131.59   38.80
 -14   2   8   98.89   12.30
   8  14  -2  121.29   21.10
  14  -2  -8   83.59   12.50
 -14  -2   8  117.89   25.80
  14  -2  -8  101.69   21.30
 -14  -2   8   68.89   12.40
  14  -2  -8   70.39   14.00
   0  15  -3   16.70    8.50
   0  15  -5   21.50   10.60
   0 -15   5   17.80   11.60
   1  15  -4    4.70   10.10
   1 -15   4   -7.90    9.80
  -1 -15   4   -1.10   12.80
  -1  15  -4    9.30    8.70
   1 -15   6    5.70   12.90
   6   1 -15   -4.10    7.80
   1  15  -6   13.10   12.10
  -1 -15   6   -1.60   13.30
  -6  -1  15  -26.60   17.90
  -1  15  -6   -1.50    9.40
  -2 -15   1    1.20    8.20
   2  15  -3    6.20    9.90
  -2 -15   3  -14.00    9.10
  -2 -15   3  -10.10   11.60
   2  15  -5   -2.00   11.90
   2 -15   5   16.60   11.50
  -2 -15   5  -13.50   17.60
  -2  15  -5   13.50    8.70
   3  15   0   -1.40    7.00
  -3 -15   0   -9.30    8.10
  -3 -15  -2    9.70    7.90
   3  15  -2    8.40    7.60
  -3 -15   2   -4.50    6.80
   3  15  -4   -6.40   10.80
  -3 -15  -4    4.90    8.50
   3  15  -4    2.80   14.10
  -3 -15   4  -10.20   14.00
  -3  15  -4   -0.40    6.90
  -3 -15   4   10.90    8.40
  -4 -15  -1   17.00    8.60
   4  15  -1    4.40    8.30
  -4 -15   1   12.60    9.80
   4  15   1   42.50   10.80
   4  15  -3   -4.90   10.20
   4  15  -3    5.00    8.70
  -4 -15  -3   -0.90    8.90
  -4 -15   3    8.30    8.20
  -4 -15   3   -7.70   14.20
   4  15  -5  -20.50   12.30
   4  15  -5    0.80   16.20
  -4 -15   5  -15.90    9.00
  -4 -15   5   24.30   15.40
 -15   0   5   -7.40   25.30
  15   0  -5  -14.50   40.70
  15   0  -5   -0.60   11.50
  -5 -15   0   -4.90    9.30
   5  15   0    0.90   11.20
 -15   0   5   -2.10    9.20
  15   2  -5    8.30   11.90
  15   2  -5   53.59   36.40
   5  15  -2  -12.80    8.70
  -5 -15  -2   -5.70   10.70
   5  15   2   19.30   13.70
 -15  -2   5   40.30   27.50
  15  -2  -5   49.10   39.90
  -5 -15   2   12.30   10.70
 -15  -2   5    7.50    9.70
   5  15  -4  -14.10   14.00
  15   4  -5   -6.80   12.70
 -15   4   5   24.80   25.60
  15   4  -5  -23.30   35.10
   5  15  -4    5.60   10.10
 -15  -4   5    3.50    8.30
 -15  -4   5   10.80   29.60
  -5 -15   4   25.30   16.20
 -15   1   6  -12.90    8.30
 -15   1   6   11.40   20.10
  15   1  -6   14.20   31.50
  15   1  -6    1.40   11.80
  -6 -15  -1   -6.40   10.80
   6  15  -1  -10.90   12.00
  -6 -15   1    1.50    9.90
   6  15   1   21.90   15.00
  15  -1  -6  -15.30   11.10
 -15  -1   6   15.30   24.30
 -15  -1   6   -5.20    8.50
   1  16  -3    0.80    9.70
  -2 -16   2  245.18   21.50
  -3 -16  -1    2.90    6.50
   3  16  -1    4.30    7.30
  -3 -16   1    4.70    7.30

_computing_structure_solution     'SHELXT 2014/4 (Sheldrick, 2014)'
;
_shelx_hkl_checksum              97657
loop_
_space_group_symop_operation_xyz
'x, y, z'
'-x, -y, z'
'-x, y, -z'
'x, -y, -z'
'z, x, y'
'z, -x, -y'
'-z, -x, y'
'-z, x, -y'
'y, z, x'
'-y, z, -x'
'y, -z, -x'
'-y, -z, x'
'x+1/2, y+1/2, z+1/2'
'-x+1/2, -y+1/2, z+1/2'
'-x+1/2, y+1/2, -z+1/2'
'x+1/2, -y+1/2, -z+1/2'
'z+1/2, x+1/2, y+1/2'
'z+1/2, -x+1/2, -y+1/2'
'-z+1/2, -x+1/2, y+1/2'
'-z+1/2, x+1/2, -y+1/2'
'y+1/2, z+1/2, x+1/2'
'-y+1/2, z+1/2, -x+1/2'
'y+1/2, -z+1/2, -x+1/2'
'-y+1/2, -z+1/2, x+1/2'
'-x, -y, -z'
'x, y, -z'
'x, -y, z'
'-x, y, z'
'-z, -x, -y'
'-z, x, y'
'z, x, -y'
'z, -x, y'
'-y, -z, -x'
'y, -z, x'
'-y, z, x'
'y, z, -x'
'-x+1/2, -y+1/2, -z+1/2'
'x+1/2, y+1/2, -z+1/2'
'x+1/2, -y+1/2, z+1/2'
'-x+1/2, y+1/2, z+1/2'
'-z+1/2, -x+1/2, -y+1/2'
'-z+1/2, x+1/2, y+1/2'
'z+1/2, x+1/2, -y+1/2'
'z+1/2, -x+1/2, y+1/2'
'-y+1/2, -z+1/2, -x+1/2'
'y+1/2, -z+1/2, x+1/2'
'-y+1/2, z+1/2, x+1/2'
'y+1/2, z+1/2, -x+1/2'
loop_
_atom_site_label
_atom_site_type_symbol
_atom_site_fract_x
_atom_site_fract_y
_atom_site_fract_z
_atom_site_U_iso_or_equiv
_atom_site_adp_type
_atom_site_occupancy
_atom_site_site_symmetry_order
_atom_site_calc_flag
_atom_site_refinement_flags_posn
_atom_site_refinement_flags_adp
_atom_site_refinement_flags_occupancy
Pb1 Pb 0.2500 0.2500 0.2500 0.0364(5) Uani 1 6 d S T P
Br1 Br 0.5000 0.2209(6) 0.2838(6) 0.1235(19) Uani 1 2 d S T P
N1 N 0.5000 0.0000 -0.060(4) 0.059(17) Uiso 0.25 4 d S . P
C1 C 0.5000 0.0000 -0.060(4) 0.059(17) Uiso 0.25 4 d DS . P
N2 N 0.5000 0.5000 0.415(5) 0.14(4) Uiso 0.4166 4 d S . P
C2 C 0.5000 0.5000 0.415(5) 0.14(4) Uiso 0.4166 4 d DS . P
loop_
_atom_site_aniso_label
_atom_site_aniso_U_11
_atom_site_aniso_U_22
_atom_site_aniso_U_33
_atom_site_aniso_U_23
_atom_site_aniso_U_13
_atom_site_aniso_U_12
Pb1 0.0364(5) 0.0364(5) 0.0364(5) 0.0007(4) 0.0007(4) 0.0007(4)
Br1 0.0310(14) 0.170(5) 0.170(5) 0.033(4) 0.000 0.000
loop_
_atom_type_symbol
_atom_type_description
_atom_type_scat_dispersion_real
_atom_type_scat_dispersion_imag
_atom_type_scat_source
C C 0.0034 0.0017 'International Tables Vol C Tables 4.2.6.8 and 6.1.1.4'
H H 0.0000 0.0000 'International Tables Vol C Tables 4.2.6.8 and 6.1.1.4'
N N 0.0066 0.0034 'International Tables Vol C Tables 4.2.6.8 and 6.1.1.4'
Br Br -0.2713 2.4705 'International Tables Vol C Tables 4.2.6.8 and 6.1.1.4'
Pb Pb -3.4194 10.2008 'International Tables Vol C Tables 4.2.6.8 and 6.1.1.4'
loop_
_geom_angle_atom_site_label_1
_geom_angle_atom_site_label_2
_geom_angle_atom_site_label_3
_geom_angle
_geom_angle_site_symmetry_1
_geom_angle_site_symmetry_3
Br1 Pb1 Br1 180.0 . 37
Br1 Pb1 Br1 90.16(18) . 45
Br1 Pb1 Br1 89.84(18) 37 45
Br1 Pb1 Br1 89.84(18) . 5
Br1 Pb1 Br1 90.16(18) 37 5
Br1 Pb1 Br1 90.16(18) 45 5
Br1 Pb1 Br1 90.16(18) . 41
Br1 Pb1 Br1 89.84(18) 37 41
Br1 Pb1 Br1 89.84(18) 45 41
Br1 Pb1 Br1 180.0 5 41
Br1 Pb1 Br1 89.84(18) . 9
Br1 Pb1 Br1 90.16(18) 37 9
Br1 Pb1 Br1 180.0 45 9
Br1 Pb1 Br1 89.84(18) 5 9
Br1 Pb1 Br1 90.16(18) 41 9
Pb1 Br1 Pb1 159.8(2) . 16
C1 N1 N1 0.0 3_655 25_655
N2 N2 C2 60.000(5) 36_556 5
N2 N2 C2 90.000(1) 36_556 33_666
C2 N2 C2 60.000(7) 5 33_666
N2 N2 C2 60.000(10) 36_556 29_666
C2 N2 C2 90.000(5) 5 29_666
C2 N2 C2 60.000(8) 33_666 29_666
N2 N2 N2 60.000(10) 36_556 29_666
C2 N2 N2 90.0 5 29_666
C2 N2 N2 60.0 33_666 29_666
C2 N2 N2 0.0 29_666 29_666
N2 N2 N2 90.000(1) 36_556 33_666
C2 N2 N2 60.0 5 33_666
C2 N2 N2 0.0 33_666 33_666
C2 N2 N2 60.0 29_666 33_666
N2 N2 N2 60.000(3) 29_666 33_666
N2 N2 N2 60.000(5) 36_556 5
C2 N2 N2 0.0 5 5
C2 N2 N2 60.0 33_666 5
C2 N2 N2 90.0 29_666 5
N2 N2 N2 90.001(1) 29_666 5
N2 N2 N2 60.000(7) 33_666 5
N2 N2 C2 0.000(8) 36_556 9
C2 N2 C2 60.000(3) 5 9
C2 N2 C2 90.001(1) 33_666 9
C2 N2 C2 60.000(5) 29_666 9
N2 N2 C2 60.000(5) 29_666 9
N2 N2 C2 90.001(1) 33_666 9
N2 N2 C2 60.000(3) 5 9
N2 N2 C2 45.000(3) 36_556 25_666
C2 N2 C2 45.000(7) 5 25_666
C2 N2 C2 45.000(1) 33_666 25_666
C2 N2 C2 45.000(1) 29_666 25_666
N2 N2 C2 45.000(1) 29_666 25_666
N2 N2 C2 45.000(1) 33_666 25_666
N2 N2 C2 45.000(5) 5 25_666
C2 N2 C2 45.000(5) 9 25_666
loop_
_geom_bond_atom_site_label_1
_geom_bond_atom_site_label_2
_geom_bond_distance
_geom_bond_site_symmetry_2
Pb1 Br1 2.9204(17) .
Pb1 Br1 2.9204(17) 37
Pb1 Br1 2.9204(17) 45
Pb1 Br1 2.9204(17) 5
Pb1 Br1 2.9204(17) 41
Pb1 Br1 2.9204(17) 9
Br1 Pb1 2.9204(17) 16
N1 C1 1.38(9) 3_655
N1 N1 1.38(9) 25_655
N2 N2 1.38(9) 36_556
N2 C2 1.38(9) 5
N2 C2 1.38(9) 33_666
N2 C2 1.38(9) 29_666
N2 N2 1.38(9) 29_666
N2 N2 1.38(9) 33_666
N2 N2 1.38(9) 5
N2 C2 1.38(9) 9
N2 C2 1.95(13) 25_666
