#------------------------------------------------------------------------------
#$Date: 2019-11-24 23:04:22 +0200 (Sun, 24 Nov 2019) $
#$Revision: 239680 $
#$URL: file:///home/coder/svn-repositories/cod/cif/4/51/69/4516994.cif $
#------------------------------------------------------------------------------
#
# This file is available in the Crystallography Open Database (COD),
# http://www.crystallography.net/
#
# All data on this site have been placed in the public domain by the
# contributors.
#
data_4516994
loop_
_publ_author_name
'Zou, Song'
'Liu, Yu'
'Xi, Chanjuan'
_publ_section_title
;
 Concise and Efficient Synthesis of Indole-Indolone Scaffolds through
 MeOTf-Induced Annulation of <i>N</i>-(2-Cyanoaryl)indoles.
;
_journal_issue                   20
_journal_name_full               'ACS omega'
_journal_page_first              18734
_journal_page_last               18740
_journal_paper_doi               10.1021/acsomega.9b02679
_journal_volume                  4
_journal_year                    2019
_chemical_formula_moiety         'C16 H11 N O2'
_chemical_formula_sum            'C16 H11 N O2'
_chemical_formula_weight         249.26
_space_group_crystal_system      triclinic
_space_group_IT_number           2
_space_group_name_Hall           '-P 1'
_space_group_name_H-M_alt        'P -1'
_atom_sites_solution_hydrogens   geom
_atom_sites_solution_primary     dual
_audit_creation_date             2019-05-16
_audit_creation_method
;
Olex2 1.2
(compiled 2018.05.29 svn.r3508 for OlexSys, GUI svn.r5506)
;
_cell_angle_alpha                97.900(3)
_cell_angle_beta                 90.784(3)
_cell_angle_gamma                104.758(3)
_cell_formula_units_Z            2
_cell_length_a                   7.2824(2)
_cell_length_b                   8.2333(3)
_cell_length_c                   9.9984(4)
_cell_measurement_reflns_used    4311
_cell_measurement_temperature    169.99(11)
_cell_measurement_theta_max      75.1490
_cell_measurement_theta_min      4.4510
_cell_volume                     573.46(4)
_computing_cell_refinement       'CrysAlisPro 1.171.40.14e (Rigaku OD, 2018)'
_computing_data_collection       'CrysAlisPro 1.171.40.14e (Rigaku OD, 2018)'
_computing_data_reduction        'CrysAlisPro 1.171.40.14e (Rigaku OD, 2018)'
_computing_molecular_graphics    'Olex2 (Dolomanov et al., 2009)'
_computing_publication_material  'Olex2 (Dolomanov et al., 2009)'
_computing_structure_refinement  'ShelXL (Sheldrick, 2015)'
_computing_structure_solution    'ShelXT (Sheldrick, 2015)'
_diffrn_ambient_environment      N~2~
_diffrn_ambient_temperature      169.99(11)
_diffrn_detector                 'CCD plate'
_diffrn_detector_type            HyPix
_diffrn_measured_fraction_theta_full 0.998
_diffrn_measured_fraction_theta_max 0.948
_diffrn_measurement_details
;
List of Runs (angles in degrees, time in seconds):

  # Type    Start    End  Width  t~exp~   \w     \q     \k     \f   Frames
--------------------------------------------------------------------------
  1  \w   -120.00 -35.00   0.50    0.05    --  -47.20 -41.00  30.00  170
  2  \w    -25.00  59.00   0.50    0.05    --   47.20 -41.00  30.00  168
  3  \w     35.00 120.00   0.50    0.05    --   47.20  41.00-177.00  170
  4  \w   -168.00 -87.00   0.50    0.05    --  -99.00 -41.00  30.00  162
  5  \w   -111.00 -26.00   0.50    0.05    --  -99.00  41.00-177.00  170
  6  \w     91.00 169.00   0.50    0.05    --  103.25  41.00-177.00  156
  7  \w     31.00  72.00   0.50    0.05    --  103.25 -41.00  30.00   82
  8  \w    -93.00 -14.00   0.50    0.05    --  -47.20 125.00 -60.00  158
  9  \w    -51.00 -25.00   0.50    0.05    --  -47.20  41.00-177.00   52
 10  \w   -120.00 -72.00   0.50    0.05    --  -47.20-125.00 -30.00   96
 11  \w    -24.00   2.00   0.50    0.05    --  -47.20  41.00-177.00   52
 12  \w     83.00 115.00   0.50    0.05    --   47.20  38.00-150.00   64
 13  \w   -121.00 -28.00   0.50    0.05    --  -99.00  77.00   0.00  186
 14  \w   -166.00-115.00   0.50    0.05    --  -99.00 -94.00-150.00  102
 15  \w    -76.00 -30.00   0.50    0.05    --  -99.00  77.00-120.00   92
 16  \w   -162.00 -85.00   0.50    0.05    --  -99.00 -15.00-120.00  154
 17  \w   -117.00 -80.00   0.50    0.05    --  -99.00  77.00-120.00   74
 18  \w    127.00 169.00   0.50    0.05    --  103.25  45.00 -60.00   84
 19  \w     31.00 112.00   0.50    0.05    --  103.25 -15.00   0.00  162
 20  \w     45.00 108.00   0.50    0.05    --  103.25 -94.00 120.00  126
 21  \w     39.00 104.00   0.50    0.05    --  103.25 -94.00  60.00  130
 22  \w     93.00 130.00   0.50    0.05    --  103.25  30.00 -30.00   74
 23  \w     82.00 114.00   0.50    0.05    --  103.25 -45.00-180.00   64
 24  \w     32.00 108.00   0.50    0.05    --  103.25 -45.00 120.00  152
 25  \w     77.00 107.00   0.50    0.05    --  103.25 -94.00   0.00   60
 26  \w     74.00 104.00   0.50    0.05    --  103.25 -94.00-120.00   60
 27  \w     44.00  72.00   0.50    0.05    --  103.25 -94.00   0.00   56
 28  \w     48.00  76.00   0.50    0.05    --  103.25 -45.00-180.00   56
;
_diffrn_measurement_device       'four-circle diffractometer'
_diffrn_measurement_device_type  'XtaLAB Synergy R, HyPix'
_diffrn_measurement_method       '\w scans'
_diffrn_orient_matrix_type
'CrysAlisPro convention (1999,Acta A55,543-557)'
_diffrn_orient_matrix_UB_11      -0.0159165000
_diffrn_orient_matrix_UB_12      -0.1920873000
_diffrn_orient_matrix_UB_13      -0.0225739000
_diffrn_orient_matrix_UB_21      -0.1839199000
_diffrn_orient_matrix_UB_22      -0.0314418000
_diffrn_orient_matrix_UB_23      0.0778039000
_diffrn_orient_matrix_UB_31      -0.1179045000
_diffrn_orient_matrix_UB_32      -0.0191734000
_diffrn_orient_matrix_UB_33      -0.1330337000
_diffrn_radiation_monochromator  mirror
_diffrn_radiation_probe          x-ray
_diffrn_radiation_type           CuK\a
_diffrn_radiation_wavelength     1.54184
_diffrn_reflns_av_R_equivalents  0.0214
_diffrn_reflns_av_unetI/netI     0.0228
_diffrn_reflns_Laue_measured_fraction_full 0.998
_diffrn_reflns_Laue_measured_fraction_max 0.948
_diffrn_reflns_limit_h_max       7
_diffrn_reflns_limit_h_min       -9
_diffrn_reflns_limit_k_max       10
_diffrn_reflns_limit_k_min       -10
_diffrn_reflns_limit_l_max       10
_diffrn_reflns_limit_l_min       -12
_diffrn_reflns_number            6526
_diffrn_reflns_point_group_measured_fraction_full 0.998
_diffrn_reflns_point_group_measured_fraction_max 0.948
_diffrn_reflns_theta_full        67.684
_diffrn_reflns_theta_max         75.429
_diffrn_reflns_theta_min         4.470
_diffrn_source                   'Rotating-anode X-ray tube'
_diffrn_source_type              'PhotonJet R (Cu) X-ray Source'
_exptl_absorpt_coefficient_mu    0.777
_exptl_absorpt_correction_T_max  1.00000
_exptl_absorpt_correction_T_min  0.92004
_exptl_absorpt_correction_type   multi-scan
_exptl_absorpt_process_details
;
CrysAlisPro 1.171.40.14e (Rigaku Oxford Diffraction, 2018)
Empirical absorption correction using spherical harmonics,
 implemented in SCALE3 ABSPACK scaling algorithm.
;
_exptl_crystal_colour            orange
_exptl_crystal_colour_primary    orange
_exptl_crystal_density_diffrn    1.444
_exptl_crystal_description       plate
_exptl_crystal_F_000             260
_exptl_crystal_size_max          0.62
_exptl_crystal_size_mid          0.54
_exptl_crystal_size_min          0.42
_refine_diff_density_max         0.231
_refine_diff_density_min         -0.197
_refine_diff_density_rms         0.043
_refine_ls_extinction_method     none
_refine_ls_goodness_of_fit_ref   1.072
_refine_ls_hydrogen_treatment    constr
_refine_ls_matrix_type           full
_refine_ls_number_parameters     173
_refine_ls_number_reflns         2258
_refine_ls_number_restraints     0
_refine_ls_restrained_S_all      1.072
_refine_ls_R_factor_all          0.0423
_refine_ls_R_factor_gt           0.0367
_refine_ls_shift/su_max          0.000
_refine_ls_shift/su_mean         0.000
_refine_ls_structure_factor_coef Fsqd
_refine_ls_weighting_details
'w=1/[\s^2^(Fo^2^)+(0.0584P)^2^+0.1197P] where P=(Fo^2^+2Fc^2^)/3'
_refine_ls_weighting_scheme      calc
_refine_ls_wR_factor_gt          0.0992
_refine_ls_wR_factor_ref         0.1062
_reflns_Friedel_coverage         0.000
_reflns_number_gt                2018
_reflns_number_total             2258
_reflns_threshold_expression     'I > 2\s(I)'
_cod_data_source_file            ao9b02679_si_004.cif
_cod_data_source_block           tx758_compound_4u
_cod_database_code               4516994
_shelx_shelxl_version_number     2017/1
_chemical_oxdiff_usercomment     'C H N '
_shelx_space_group_comment
;
The symmetry employed for this shelxl refinement is uniquely defined
by the following loop, which should always be used as a source of
symmetry information in preference to the above space-group names.
They are only intended as comments.
;
_reflns_odcompleteness_completeness 99.90
_reflns_odcompleteness_iscentric 1
_reflns_odcompleteness_theta     68.13
_olex2_refinement_description
;
1. Fixed Uiso
 At 1.2 times of:
  All C(H) groups
 At 1.5 times of:
  All C(H,H,H) groups
2.a Aromatic/amide H refined with riding coordinates:
 C8(H8), C5(H5), C10(H10), C13(H13), C2(H2), C9(H9), C4(H4), C3(H3)
2.b Idealised Me refined as rotating group:
 C16(H16A,H16B,H16C)
;
_shelx_res_file
;
TITL tx758_a.res in P-1
    tx758.res
    created by SHELXL-2017/1 at 14:59:49 on 16-May-2019
REM Old TITL tx758_a.res in P-1
REM SHELXT solution in P-1
REM R1 0.130, Rweak 0.003, Alpha 0.063, Orientation as input
REM Formula found by SHELXT: C16 N O2
CELL 1.54184 7.2824 8.2333 9.9984 97.9 90.784 104.758
ZERR 2 0.0002 0.0003 0.0004 0.003 0.003 0.003
LATT 1
SFAC C H N O
UNIT 32 22 2 4

L.S. 4
PLAN  5
BOND $H
list 4
fmap 2
acta
OMIT -3 -2 11
OMIT 4 -1 10
REM <olex2.extras>
REM <HklSrc "%.\\TX758.hkl">
REM </olex2.extras>

WGHT    0.058400    0.119700
FVAR       1.26874
O1    4    0.825091    0.273238    0.146602    11.00000    0.05095    0.03865 =
         0.02692    0.00296    0.00982    0.01148
O2    4    0.596658    0.117576    0.720101    11.00000    0.04620    0.04016 =
         0.02785    0.01439    0.00713    0.00837
N1    3    0.771284    0.526142    0.447370    11.00000    0.03291    0.03037 =
         0.02172    0.00552    0.00439    0.00694
C14   1    0.761602    0.365794    0.378650    11.00000    0.03206    0.03167 =
         0.02407    0.00400    0.00286    0.00862
C7    1    0.721027    0.513827    0.578733    11.00000    0.02581    0.03722 =
         0.02077    0.00658    0.00220    0.00711
C6    1    0.825819    0.651541    0.362528    11.00000    0.02468    0.03421 =
         0.02478    0.00805    0.00122    0.00544
C1    1    0.856307    0.570459    0.235459    11.00000    0.02657    0.03583 =
         0.02495    0.00702    0.00266    0.00771
C12   1    0.680015    0.339020    0.590653    11.00000    0.02668    0.03732 =
         0.02369    0.00846    0.00224    0.00801
C8    1    0.710145    0.638235    0.686401    11.00000    0.03379    0.03757 =
         0.02782    0.00428    0.00320    0.00858
AFIX  43
H8    2    0.735113    0.752507    0.676952    11.00000   -1.20000
AFIX   0
C15   1    0.816410    0.384577    0.238576    11.00000    0.03027    0.03703 =
         0.02402    0.00577    0.00377    0.00876
C5    1    0.847439    0.823992    0.388817    11.00000    0.03500    0.03432 =
         0.02967    0.00526    0.00300    0.00755
AFIX  43
H5    2    0.825980    0.876512    0.473450    11.00000   -1.20000
AFIX   0
C10   1    0.621664    0.409165    0.824567    11.00000    0.03299    0.04958 =
         0.02286    0.00926    0.00511    0.00936
AFIX  43
H10   2    0.590221    0.377370    0.908761    11.00000   -1.20000
AFIX   0
C13   1    0.703836    0.247182    0.463186    11.00000    0.03431    0.03275 =
         0.02569    0.00652    0.00393    0.00943
AFIX  43
H13   2    0.684093    0.130273    0.441831    11.00000   -1.20000
AFIX   0
C2    1    0.912291    0.664508    0.131104    11.00000    0.03404    0.04210 =
         0.02598    0.01041    0.00558    0.01153
AFIX  43
H2    2    0.933880    0.612047    0.046483    11.00000   -1.20000
AFIX   0
C9    1    0.659972    0.580854    0.807773    11.00000    0.03717    0.04639 =
         0.02396    0.00109    0.00408    0.01185
AFIX  43
H9    2    0.651183    0.659786    0.881829    11.00000   -1.20000
AFIX   0
C11   1    0.630295    0.287073    0.717044    11.00000    0.02776    0.03964 =
         0.02625    0.01041    0.00312    0.00722
C4    1    0.903209    0.916793    0.282369    11.00000    0.03870    0.03409 =
         0.03893    0.01215    0.00498    0.00874
AFIX  43
H4    2    0.919165    1.033684    0.296647    11.00000   -1.20000
AFIX   0
C3    1    0.935243    0.838669    0.156143    11.00000    0.03808    0.04384 =
         0.03550    0.01805    0.00859    0.01055
AFIX  43
H3    2    0.972553    0.903773    0.087455    11.00000   -1.20000
AFIX   0
C16   1    0.555081    0.060381    0.847914    11.00000    0.04546    0.04911 =
         0.03299    0.02063    0.00748    0.00872
AFIX 137
H16A  2    0.536642   -0.060428    0.837880    11.00000   -1.50000
H16B  2    0.441548    0.088562    0.879450    11.00000   -1.50000
H16C  2    0.659175    0.114660    0.912112    11.00000   -1.50000
AFIX   0
HKLF 4




REM  tx758_a.res in P-1
REM R1 =  0.0367 for    2018 Fo > 4sig(Fo)  and  0.0423 for all    2258 data
REM    173 parameters refined using      0 restraints

END

WGHT      0.0585      0.1187

REM Highest difference peak  0.231,  deepest hole -0.197,  1-sigma level  0.043
Q1    1   0.6664  0.3110  0.6436  11.00000  0.05    0.23
Q2    1   0.7803  0.3584  0.3138  11.00000  0.05    0.20
Q3    1   0.9056  0.6119  0.1895  11.00000  0.05    0.17
Q4    1   0.6802  0.5913  0.7452  11.00000  0.05    0.15
Q5    1   0.9024  0.8649  0.3272  11.00000  0.05    0.15
;
_shelx_res_checksum              31083
_shelx_hkl_file
;
   0   0  -1 1666.53   36.14
   0   0  -2 3961.97   85.86
   0   0  -3 1030.61   22.86
   0   0  -4  645.19   14.79
   0   0  -5   47.58    1.94
   0   0  -6    7.14    0.89
   0   0  -6    7.24    0.90
   0   0  -7  919.96   20.56
   0   0  -7  894.92   20.94
   0   0  -7  886.16   21.26
   0   0  -8    5.74    1.03
   0   0  -9  146.27    4.31
   0   0  -9  142.15    4.80
   0   0  -9  152.33    4.94
   0   0 -10   35.61    1.95
   0   0 -10   35.01    1.53
   0   0 -11    2.42    0.63
   0   0 -12   18.29    0.92
   0   1 -12   56.70    1.91
   0   1 -12   53.73    1.92
   0   1 -11    0.07    0.13
   0   1 -11    2.54    0.65
   0   1 -10   55.04    2.14
   0   1  -9  115.76    3.93
   0   1  -9  112.92    3.26
   0   1  -8  114.68    3.98
   0   1  -8  112.86    3.97
   0   1  -8  119.18    3.30
   0   1  -7  461.65   11.60
   0   1  -7  471.69   11.63
   0   1  -7  466.89   11.22
   0   1  -6  127.19    3.90
   0   1  -5 1004.33   22.72
   0   1  -4   14.98    0.91
   0  -1   4   14.14    0.54
   0  -1   3  137.06    3.07
   0   1  -3  141.43    3.50
   0  -1   3  144.20    3.17
   0   1  -2    5.81    0.47
   0   1  -2    5.94    0.30
   0  -1   2    5.83    0.25
   0   1  -1   50.24    1.27
   0  -1   1   52.09    1.23
   0   1   0 3089.55   66.80
   0  -1  -1 3415.57   73.75
   0   1   1 3411.36   73.80
   0   1   2  127.96    2.96
   0  -1  -2  128.32    2.90
   0  -1  -2  130.05    3.27
   0  -1  -3  175.69    4.51
   0  -1  -4  188.42    5.05
   0  -1  -5  742.35   17.37
   0  -1  -6   49.29    2.30
   0  -1  -6   50.75    2.26
   0  -1  -6   51.25    2.30
   0  -1  -7   13.72    0.98
   0  -1  -7   15.14    1.34
   0  -1  -7   14.49    1.36
   0  -1  -7   15.26    1.43
   0  -1  -7   14.25    1.19
   0  -1  -8  364.95    9.13
   0  -1  -8  377.78    9.77
   0  -1  -8  383.87   10.18
   0  -1  -8  366.39    9.14
   0  -1  -8  368.54   10.02
   0  -1  -9  178.70    5.78
   0  -1  -9  169.52    4.83
   0  -1  -9  183.52    5.54
   0  -1  -9  180.81    5.74
   0  -1  -9  183.60    4.89
   0  -1 -10   14.14    1.22
   0  -1 -10   13.19    0.82
   0  -1 -11   11.28    0.91
   0   2 -12  110.79    3.11
   0   2 -12  101.28    3.05
   0   2 -11    3.59    0.52
   0   2 -11    5.05    0.76
   0   2 -11    4.10    0.75
   0   2 -10   47.29    2.15
   0   2 -10   42.09    1.68
   0   2 -10   44.45    2.17
   0   2  -9   72.74    3.01
   0   2  -9   71.45    2.38
   0   2  -9   66.00    2.58
   0   2  -8  516.38   12.91
   0   2  -8  544.90   12.43
   0   2  -8  524.53   13.36
   0   2  -7    1.19    0.59
   0   2  -7    1.09    0.47
   0   2  -7    1.66    0.59
   0   2  -6   11.96    0.96
   0  -2   5  270.19    6.34
   0   2  -4   40.66    1.24
   0  -2   4   40.16    1.16
   0  -2   4   43.24    1.29
   0  -2   3  200.69    4.56
   0   2  -3  194.36    4.68
   0  -2   2    3.80    0.27
   0   2  -2    4.63    0.36
   0  -2   1 1882.35   40.85
   0   2   0   27.79    0.94
   0  -2  -1 1388.22   30.27
   0   2   1 1395.38   30.38
   0  -2  -2   25.10    0.78
   0   2   2   24.14    0.87
   0  -2  -3  544.78   11.97
   0   2   3  541.42   12.21
   0  -2  -3  543.02   12.09
   0  -2  -3  582.43   12.78
   0  -2  -4  827.30   19.12
   0  -2  -5   55.98    2.36
   0  -2  -5   57.84    2.42
   0  -2  -5   57.12    2.45
   0  -2  -6  226.54    6.65
   0  -2  -6  230.94    5.88
   0  -2  -6  231.90    6.76
   0  -2  -6  229.13    6.29
   0  -2  -6  239.05    6.82
   0  -2  -7   10.99    0.85
   0  -2  -7   10.98    1.09
   0  -2  -7   11.12    1.24
   0  -2  -7    9.75    1.26
   0  -2  -7   10.20    1.30
   0  -2  -8    4.89    1.06
   0  -2  -8    4.07    0.62
   0  -2  -8    3.31    1.03
   0  -2  -8    4.24    0.87
   0  -2  -8    3.74    1.02
   0  -2  -9   21.88    1.51
   0  -2  -9   19.63    1.65
   0  -2  -9   19.80    1.22
   0  -2  -9   20.50    1.09
   0  -2 -10   23.33    1.34
   0  -2 -10   19.44    1.39
   0  -2 -11   28.58    1.40
   0   3 -12    0.95    0.39
   0   3 -12    0.55    0.36
   0   3 -11    0.06    0.33
   0   3 -11    0.31    0.52
   0   3 -10   39.09    1.99
   0   3 -10   40.20    2.02
   0   3 -10   39.62    1.66
   0   3  -9  130.04    4.36
   0   3  -9  123.80    4.46
   0   3  -9  131.52    4.20
   0   3  -9  128.99    3.80
   0   3  -8   10.13    1.11
   0   3  -8    9.50    1.25
   0   3  -8   10.58    1.09
   0   3  -8    9.65    0.80
   0   3  -7  162.04    4.71
   0   3  -7  160.99    4.86
   0   3  -7  160.61    4.90
   0  -3   6  978.46   22.38
   0   3  -6 1004.46   22.95
   0   3  -6 1033.72   22.77
   0   3  -6  996.60   23.02
   0   3  -5   43.93    1.74
   0  -3   5   38.05    1.43
   0  -3   4   93.37    2.56
   0   3  -4   91.76    2.60
   0  -3   4   89.20    2.42
   0  -3   3   24.85    0.92
   0   3  -3   28.22    1.12
   0  -3   2 1430.90   31.05
   0   3  -2 1401.40   31.27
   0  -3   1  255.10    5.92
   0   3   0  257.65    6.16
   0   3   1 1540.55   33.38
   0  -3  -1 1502.12   33.17
   0  -3  -2    1.99    0.32
   0   3   2    2.13    0.42
   0  -3  -3  259.78    6.69
   0  -3  -3  255.19    5.87
   0   3   3  253.69    6.18
   0  -3  -3  254.02    6.00
   0  -3  -4  514.72   12.64
   0  -3  -5   17.56    1.19
   0  -3  -5   18.33    1.41
   0  -3  -5   17.93    1.51
   0  -3  -5   18.94    0.99
   0  -3  -6   82.78    3.52
   0  -3  -6   78.38    3.43
   0  -3  -6   80.62    3.38
   0  -3  -6   83.34    3.02
   0  -3  -6   83.20    2.60
   0  -3  -7    4.27    1.05
   0  -3  -7    3.30    1.03
   0  -3  -7    5.24    1.16
   0  -3  -7    4.03    0.60
   0  -3  -7    5.45    0.88
   0  -3  -8  170.25    5.77
   0  -3  -8  162.12    5.68
   0  -3  -8  169.71    5.15
   0  -3  -8  164.12    5.60
   0  -3  -9   43.32    1.90
   0  -3  -9   49.40    2.44
   0  -3 -10    4.26    0.52
   0  -3 -10    3.83    0.71
   0  -3 -11   57.16    1.90
   0   4 -12   27.78    1.10
   0   4 -11   14.34    0.85
   0   4 -10   27.57    1.51
   0   4 -10   26.82    1.59
   0   4 -10   27.87    1.68
   0   4 -10   28.69    1.36
   0   4  -9  162.69    5.42
   0   4  -9  170.51    5.22
   0   4  -9  165.19    5.22
   0   4  -9  172.55    4.74
   0   4  -8  193.93    5.82
   0   4  -8  187.43    5.79
   0   4  -7  142.66    3.95
   0   4  -7  129.48    4.40
   0   4  -7  137.35    4.54
   0   4  -6   61.35    2.61
   0   4  -6   67.58    2.40
   0   4  -6   68.46    2.64
   0  -4   6   58.82    2.18
   0  -4   5   10.86    0.80
   0   4  -5   11.33    0.84
   0   4  -5   11.58    0.99
   0  -4   5   11.60    0.72
   0  -4   4   43.98    1.56
   0   4  -4   46.36    1.78
   0   4  -4   46.36    1.89
   0  -4   4   45.52    1.70
   0   4  -3  211.18    5.60
   0  -4   3  219.33    5.32
   0   4  -2 1399.69   30.54
   0  -4   2 1352.25   30.21
   0  -4   1  147.72    3.79
   0   4   0  996.96   22.47
   0  -4  -1    0.02    0.30
   0   4   1   -0.03    0.39
   0   4   2  605.71   14.05
   0  -4  -2  604.05   13.75
   0  -4  -3  417.42    9.53
   0  -4  -3  419.12    9.69
   0   4   3  402.70    9.93
   0  -4  -4  109.37    3.94
   0  -4  -5    0.15    0.76
   0  -4  -6   12.70    1.52
   0  -4  -6   13.09    1.40
   0  -4  -7   25.29    2.06
   0  -4  -7   24.86    1.93
   0  -4  -8    9.76    1.22
   0  -4  -9    9.42    0.85
   0  -4  -9   12.13    1.15
   0  -4 -10   35.33    1.54
   0  -4 -10   33.47    1.25
   0   5 -11   -0.02    0.30
   0   5 -11    0.18    0.36
   0   5 -10    1.01    0.61
   0   5 -10    1.63    0.59
   0   5  -9   23.84    1.58
   0   5  -9   22.37    1.71
   0   5  -9   25.90    1.35
   0   5  -8   64.24    2.32
   0   5  -8   61.22    2.80
   0   5  -7  562.12   13.03
   0   5  -7  532.51   13.79
   0  -5   6   28.65    1.52
   0   5  -6   31.96    1.41
   0   5  -5   64.22    2.66
   0   5  -5   66.79    2.15
   0  -5   5   65.17    2.40
   0  -5   5   61.56    2.20
   0   5  -5   62.69    2.40
   0  -5   5   61.93    1.94
   0  -5   5   63.70    2.21
   0   5  -4   93.99    3.22
   0  -5   4   98.92    2.75
   0  -5   4   95.40    2.99
   0   5  -4   95.58    3.35
   0  -5   4  100.80    3.03
   0   5  -4   98.93    3.24
   0   5  -4  101.08    2.83
   0  -5   4  104.79    3.18
   0   5  -3  192.29    4.75
   0  -5   3  188.14    5.02
   0  -5   3  196.38    5.22
   0  -5   3  186.70    4.77
   0   5  -3  198.02    5.34
   0  -5   3  200.07    5.08
   0   5  -3  186.38    5.35
   0   5  -3  189.20    5.30
   0  -5   2    2.80    0.42
   0  -5   2    2.74    0.47
   0   5  -2    2.21    0.58
   0  -5   2    1.78    0.42
   0   5  -2    2.32    0.59
   0   5  -1  171.71    4.76
   0  -5   1  169.08    4.40
   0  -5   1  157.79    4.21
   0   5  -1  161.70    4.64
   0  -5   1  160.64    4.36
   0   5   0  114.96    3.56
   0  -5   0  108.89    3.20
   0  -5   0  112.29    3.22
   0   5   0  112.46    3.46
   0  -5   0  103.53    3.06
   0   5   1    0.18    0.51
   0   5   1    0.80    0.50
   0  -5  -1    0.32    0.35
   0  -5  -1    0.13    0.38
   0  -5  -1    0.69    0.37
   0  -5  -2   59.98    2.08
   0   5   2   55.81    1.95
   0   5   2   57.95    2.26
   0   5   2   55.86    2.28
   0  -5  -2   59.60    1.98
   0  -5  -2   57.71    2.05
   0   5   3  206.65    5.68
   0  -5  -3  212.46    5.48
   0   5   3  205.90    5.30
   0  -5  -3  204.74    5.44
   0  -5  -4   56.71    2.76
   0   5   4   51.33    1.85
   0  -5  -5  385.65   10.80
   0  -5  -5  388.48   10.73
   0  -5  -5  391.63   10.76
   0  -5  -6   19.97    1.71
   0  -5  -6   18.68    1.83
   0  -5  -7  207.52    6.47
   0  -5  -8    3.45    0.85
   0  -5  -8    3.65    0.64
   0  -5  -9    1.61    0.43
   0  -5  -9    0.75    0.49
   0   6 -10    0.99    0.50
   0   6 -10    0.77    0.38
   0   6 -10    0.27    0.48
   0   6  -9    2.79    0.76
   0   6  -9    3.15    0.56
   0   6  -9    2.91    0.82
   0   6  -8    0.54    0.45
   0   6  -7   -0.20    0.82
   0   6  -7    0.15    0.44
   0   6  -6  132.01    4.55
   0   6  -6  132.38    3.82
   0  -6   6  124.96    4.11
   0   6  -5  508.54   12.41
   0  -6   5  492.14   12.07
   0   6  -5  514.53   12.70
   0   6  -5  511.52   11.82
   0  -6   5  500.26   12.34
   0  -6   5  489.74   11.64
   0  -6   4   91.50    3.24
   0   6  -4   95.22    3.36
   0   6  -4   93.72    2.75
   0   6  -4   88.29    3.35
   0  -6   4   89.30    2.76
   0  -6   4   91.36    3.05
   0  -6   4   91.76    3.07
   0  -6   3   14.06    1.04
   0  -6   3   14.34    1.11
   0  -6   3   12.93    1.02
   0   6  -3   13.47    1.15
   0   6  -3   13.65    1.19
   0   6  -3   14.20    1.21
   0  -6   3   13.78    0.91
   0  -6   2    2.76    0.62
   0   6  -2    3.80    0.80
   0  -6   2    4.29    0.70
   0  -6   2    3.43    0.57
   0   6  -2    3.81    0.69
   0   6  -2    3.03    0.72
   0  -6   1    0.25    0.46
   0   6  -1    0.23    0.55
   0   6  -1    0.33    0.62
   0  -6   1    0.08    0.46
   0  -6   1    0.04    0.43
   0   6   0    1.21    0.67
   0   6   0    0.96    0.54
   0  -6   0    2.25    0.55
   0   6   0    1.38    0.67
   0  -6   0    1.26    0.54
   0  -6   0    1.98    0.56
   0  -6  -1  446.55   10.88
   0  -6  -1  445.69   10.88
   0   6   1  425.47   11.22
   0   6   1  452.13   11.23
   0  -6  -1  453.30   10.81
   0   6   2  527.76   12.88
   0  -6  -2  506.13   12.31
   0  -6  -2  523.49   12.52
   0  -6  -2  523.57   12.53
   0  -6  -2  529.97   13.35
   0  -6  -3  371.91    9.56
   0   6   3  377.99    9.85
   0  -6  -3  391.51   10.58
   0  -6  -4  441.77   12.33
   0  -6  -4  486.81   12.46
   0  -6  -5   33.03    2.19
   0  -6  -5   32.61    2.22
   0  -6  -6    0.23    0.77
   0  -6  -6    1.75    0.79
   0  -6  -7    4.06    0.66
   0  -6  -7    3.63    0.79
   0  -6  -7    3.45    0.78
   0  -6  -8   18.70    1.24
   0  -6  -8   18.32    1.17
   0   7  -9  152.79    4.38
   0   7  -9  147.05    3.94
   0   7  -8    3.36    0.53
   0   7  -8    3.11    0.74
   0   7  -7    0.06    0.70
   0   7  -7    0.10    0.38
   0   7  -6    6.45    0.83
   0   7  -6    6.58    1.08
   0   7  -6    7.36    0.71
   0   7  -5   12.41    1.24
   0   7  -5    8.88    0.75
   0  -7   5    9.40    0.93
   0  -7   5    8.78    0.96
   0   7  -5    9.24    1.07
   0  -7   4  418.64   10.65
   0   7  -4  430.99   11.03
   0   7  -4  427.37   10.90
   0  -7   4  426.07   10.82
   0  -7   3  426.85   10.69
   0  -7   3  415.67   10.55
   0   7  -3  431.97   11.00
   0   7  -3  417.75   10.67
   0  -7   3  414.44   10.55
   0  -7   2   33.09    1.76
   0  -7   2   32.81    1.76
   0  -7   2   31.42    1.70
   0   7  -2   28.29    1.64
   0  -7   1    7.20    0.87
   0   7  -1    7.68    1.12
   0   7   0   23.36    1.68
   0  -7   0   24.03    1.48
   0  -7   0   21.01    1.39
   0  -7   0   22.76    1.46
   0  -7  -1  284.70    7.76
   0   7   1  312.93    8.37
   0  -7  -1  303.22    8.52
   0  -7  -1  309.63    7.98
   0   7   2   68.32    2.86
   0  -7  -2   72.12    3.20
   0  -7  -2   68.69    2.64
   0  -7  -2   68.32    3.16
   0  -7  -3    1.41    0.81
   0  -7  -3    0.71    0.50
   0   7   3    0.22    0.56
   0  -7  -4    7.15    1.13
   0  -7  -5    2.13    0.81
   0  -7  -5    2.72    0.87
   0  -7  -6    6.59    0.90
   0  -7  -6    6.45    0.67
   0  -7  -6    6.29    0.86
   0  -7  -7    0.53    0.33
   0  -7  -7    0.92    0.46
   0  -7  -7    0.99    0.43
   0   8  -8   14.53    0.96
   0   8  -7    4.22    0.71
   0   8  -6   24.33    1.36
   0   8  -6   -0.04    0.13
   0  -8   5    4.49    0.69
   0   8  -5    3.23    0.73
   0   8  -4    3.38    0.75
   0  -8   4    4.83    0.75
   0   8  -4    2.59    0.78
   0   8  -3   36.03    1.78
   0  -8   3   37.38    1.87
   0   8  -3   40.17    2.13
   0  -8   2    8.81    0.99
   0   8  -1   12.94    1.33
   0   8   0   26.96    1.77
   0  -8   0   25.30    1.55
   0  -8  -1   77.43    3.22
   0  -8  -1   82.34    2.95
   0   8   1   82.10    3.16
   0   8   2    0.42    0.62
   0  -8  -2    2.73    0.76
   0  -8  -2    1.70    0.56
   0  -8  -3    0.49    0.35
   0  -8  -3    0.06    0.15
   0  -8  -3    0.36    0.61
   0  -8  -4    9.13    0.68
   0  -8  -4    9.93    1.02
   0  -8  -4    9.51    1.00
   0  -8  -5    9.16    0.84
   0  -8  -5    7.77    0.80
   0  -8  -5    8.56    0.58
   0   9  -6   19.61    0.93
   0   9  -5    1.43    0.41
   0  -9   5    1.92    0.42
   0   9  -4   19.10    1.21
   0  -9   4   18.93    1.09
   0   9  -3    4.67    0.79
   0  -9   3    4.42    0.66
   0  -9   2    1.84    0.57
   0   9  -1   16.37    1.24
   0   9   0   15.07    1.17
   0  -9   0   14.01    1.09
   0  -9   0   16.96    1.08
   0  -9  -1   48.31    2.00
   0  -9  -1   50.09    1.86
   0   9   1   52.35    2.03
   0  -9  -2   14.13    0.99
   0   9   2   11.55    0.73
   0  -9  -2   12.31    0.90
   0  -9  -3   14.96    0.93
   1 -10   0   10.00    0.60
   1 -10   1    2.49    0.44
  -1  10  -1    3.36    0.52
   1 -10   2   30.22    1.22
  -1  10  -3   10.16    0.74
   1 -10   3   11.33    0.68
   1  -9  -3   11.58    0.96
   1  -9  -3   11.60    0.83
   1  -9  -2    4.22    0.76
   1  -9  -2    4.40    0.53
   1  -9  -2    3.76    0.63
  -1   9   2    4.28    0.61
   1  -9  -1    2.98    0.56
  -1   9   1    2.77    0.66
   1  -9  -1    3.02    0.74
  -1   9   0    4.85    0.85
   1  -9   0    5.53    0.70
  -1   9  -1    0.06    0.62
   1  -9   2    2.98    0.64
  -1   9  -3   15.94    1.27
   1  -9   3   15.65    1.08
   1  -9   4   -0.18    0.42
  -1   9  -4   -0.14    0.44
  -1   9  -4   -0.14    0.53
  -1   9  -5   -0.18    0.41
   1  -9   5    0.51    0.37
  -1   9  -5    0.07    0.46
  -1   9  -6   11.48    0.87
  -1   9  -7    2.12    0.43
   1  -8  -6    4.18    0.43
   1  -8  -5   58.46    2.19
   1  -8  -4    0.20    0.52
  -1   8   3   10.58    0.97
   1  -8  -3    8.38    0.76
   1  -8  -2   -0.07    0.68
   1  -8  -2   -0.04    0.44
  -1   8   2   -0.52    0.63
  -1   8   1    0.33    0.64
   1  -8  -1    0.05    0.47
  -1   8   0  110.86    4.06
   1  -8   0  105.59    3.56
  -1   8  -1   48.43    2.52
   1  -8   2   28.61    1.62
  -1   8  -2   25.71    1.53
  -1   8  -3    0.43    0.61
   1  -8   3    0.96    0.55
  -1   8  -3    0.21    0.73
  -1   8  -4   35.19    2.01
   1  -8   4   34.67    1.70
  -1   8  -4   30.44    1.80
  -1   8  -5   47.41    2.24
   1  -8   5   46.61    1.95
  -1   8  -5   48.27    2.21
  -1   8  -6    0.04    0.15
  -1   8  -6    4.62    0.83
  -1   8  -7   11.93    0.79
  -1   8  -7   17.02    1.23
  -1   8  -8    5.09    0.51
  -1   8  -8    6.22    0.74
  -1   8  -9   24.95    1.06
   1  -7  -7    0.61    0.54
   1  -7  -7    0.37    0.41
   1  -7  -7    1.09    0.40
   1  -7  -6    0.43    0.65
   1  -7  -6    1.27    0.61
   1  -7  -5    1.40    0.69
   1  -7  -4    8.93    1.17
  -1   7   3  124.10    4.19
   1  -7  -3  131.14    3.88
  -1   7   2   14.17    1.38
   1  -7  -2   14.66    1.12
   1  -7  -2   15.19    1.12
   1  -7  -2   18.16    1.53
  -1   7   1   19.60    1.56
   1  -7  -1   18.42    1.25
   1  -7  -1   17.23    1.21
  -1   7   1   16.51    1.20
   1  -7  -1   19.67    1.22
  -1   7   0  218.89    6.34
   1  -7   0  210.92    5.67
   1  -7   0  202.76    5.65
  -1   7   0  189.77    5.69
   1  -7   0  201.82    5.67
  -1   7  -1  149.84    4.52
  -1   7  -1  162.52    5.16
   1  -7   1  162.82    4.65
  -1   7  -1  144.23    4.70
  -1   7  -2   51.61    2.27
   1  -7   2   51.42    2.16
   1  -7   2   52.51    2.22
   1  -7   2   53.34    2.17
  -1   7  -3   94.79    3.60
  -1   7  -3   89.89    3.30
   1  -7   3   94.36    3.21
   1  -7   3   84.94    3.04
   1  -7   3   90.04    3.09
   1  -7   4   68.99    2.62
   1  -7   4   74.09    2.78
  -1   7  -4   73.79    2.96
  -1   7  -4   66.83    2.96
   1  -7   4   72.24    2.63
  -1   7  -5   72.63    2.95
   1  -7   5   68.32    2.59
   1  -7   5   75.07    2.64
  -1   7  -5   75.48    3.12
   1  -7   5   71.48    2.77
  -1   7  -5   73.58    2.53
  -1   7  -6    0.65    0.78
  -1   7  -6    0.70    0.53
  -1   7  -6    1.42    0.50
  -1   7  -7   39.01    1.71
  -1   7  -8    6.67    0.71
  -1   7  -9    7.66    0.83
  -1   7  -9    7.53    0.70
  -1   7  -9    5.83    0.78
  -1   7 -10    1.19    0.34
  -1   7 -10    0.86    0.31
   1  -6  -8    6.56    0.86
   1  -6  -8    6.51    0.65
   1  -6  -8    5.56    0.72
   1  -6  -7    6.21    1.04
   1  -6  -7    5.75    0.91
   1  -6  -6    7.63    1.10
   1  -6  -6    7.03    1.18
   1  -6  -5    3.90    0.95
  -1   6   5    2.95    0.54
   1  -6  -5    3.10    1.02
   1  -6  -5    4.00    1.10
   1  -6  -4   10.85    1.38
   1  -6  -4   10.49    1.45
  -1   6   4    7.19    0.76
  -1   6   3   22.49    1.50
   1  -6  -3   21.30    1.22
   1  -6  -3   21.62    1.24
   1  -6  -3   22.63    1.76
  -1   6   3   21.38    1.21
  -1   6   2  153.22    4.59
   1  -6  -2  172.41    4.69
  -1   6   2  168.19    4.58
  -1   6   2  172.81    5.15
   1  -6  -2  166.89    4.65
   1  -6  -2  173.53    4.59
   1  -6  -1  130.10    3.82
   1  -6  -1  137.46    3.89
  -1   6   1  132.42    4.29
  -1   6   1  128.42    3.82
   1  -6   0   59.73    2.16
  -1   6   0   56.54    2.21
  -1   6   0   59.47    2.17
   1  -6   0   63.41    2.22
  -1   6   0   56.04    2.50
   1  -6   1   38.01    1.63
  -1   6  -1   36.07    1.68
   1  -6   1   40.14    1.66
  -1   6  -1   37.03    1.79
  -1   6  -1   39.71    2.02
  -1   6  -2    0.71    0.55
  -1   6  -2    0.45    0.61
  -1   6  -2   -0.04    0.53
   1  -6   2    0.29    0.42
   1  -6   2    0.89    0.45
   1  -6   3   14.34    0.96
   1  -6   3   12.41    0.92
  -1   6  -3   11.42    1.17
  -1   6  -3   12.87    1.14
  -1   6  -3   11.28    0.80
   1  -6   4  428.01   10.29
   1  -6   4  433.19   10.31
  -1   6  -4  421.06   10.82
  -1   6  -4  417.45   10.17
  -1   6  -4  432.90   10.88
   1  -6   5  483.84   11.63
   1  -6   5  482.28   11.63
  -1   6  -5  483.58   11.63
  -1   6  -5  491.54   12.33
   1  -6   5  508.03   11.94
  -1   6  -5  484.82   12.17
  -1   6  -6  854.61   19.28
   1  -6   6  817.00   19.43
  -1   6  -7  113.92    3.54
  -1   6  -7  109.41    4.04
  -1   6  -8   18.74    1.48
  -1   6  -8   17.55    1.16
  -1   6  -9   34.72    1.80
  -1   6  -9   34.17    1.84
  -1   6  -9   37.43    1.66
  -1   6 -10    5.51    0.66
  -1   6 -10    4.63    0.65
   1  -5  -9   14.89    1.05
   1  -5  -9   14.57    0.88
   1  -5  -8   14.06    1.28
   1  -5  -8   13.61    1.35
   1  -5  -7   65.86    2.96
   1  -5  -7   65.83    3.15
   1  -5  -6  449.21   11.93
   1  -5  -6  441.58   11.69
   1  -5  -6  428.17   11.88
  -1   5   6  435.56   10.33
   1  -5  -5  227.01    6.98
  -1   5   5  217.44    5.64
   1  -5  -5  216.59    6.90
   1  -5  -5  223.28    6.77
   1  -5  -4  101.69    3.01
  -1   5   4  103.63    3.07
   1  -5  -4  107.82    4.05
  -1   5   3   15.66    0.85
   1  -5  -3   18.15    0.96
  -1   5   3   14.91    0.89
   1  -5  -3   16.23    0.93
  -1   5   3   13.31    1.10
   1  -5  -2    0.06    0.32
   1  -5  -2    0.36    0.33
  -1   5   2    0.22    0.46
  -1   5   2    0.31    0.32
  -1   5   2    0.47    0.30
  -1   5   1  473.10   11.16
   1  -5  -1  493.48   11.18
   1  -5  -1  487.67   11.17
  -1   5   1  456.91   11.58
  -1   5   0   14.70    1.06
  -1   5   0   15.02    0.87
   1  -5   1    9.38    0.68
  -1   5  -2   57.10    2.16
   1  -5   2   57.55    1.85
   1  -5   2   48.41    1.67
  -1   5  -2   51.39    2.02
   1  -5   3  354.46    8.17
  -1   5  -3  349.54    8.64
  -1   5  -3  344.81    8.54
   1  -5   3  314.61    7.93
  -1   5  -3  325.35    8.58
  -1   5  -3  338.92    8.04
   1  -5   3  366.46    8.19
  -1   5  -4  321.47    7.95
   1  -5   4  338.90    7.90
  -1   5  -4  314.53    8.30
  -1   5  -4  327.53    7.87
  -1   5  -4  324.35    8.39
   1  -5   4  329.39    7.88
  -1   5  -5    0.26    0.37
  -1   5  -5   -0.05    0.50
  -1   5  -5    0.34    0.45
   1  -5   5    0.17    0.33
  -1   5  -6  539.04   13.58
  -1   5  -6  540.97   13.44
   1  -5   6  542.09   12.97
  -1   5  -6  559.24   12.94
  -1   5  -6  559.54   13.18
  -1   5  -7  100.64    3.78
  -1   5  -7  107.71    3.75
  -1   5  -7  107.48    3.55
  -1   5  -7  106.01    3.35
  -1   5  -8  118.54    4.21
  -1   5  -8  127.05    3.83
  -1   5  -8  122.03    4.12
  -1   5  -9   41.94    2.06
  -1   5  -9   39.39    2.12
  -1   5 -10   22.66    1.28
  -1   5 -10   25.26    1.28
  -1   5 -10   22.93    1.35
  -1   5 -11   14.28    0.82
   1  -4 -10    0.06    0.10
   1  -4 -10    2.26    0.53
   1  -4  -9    8.74    0.80
   1  -4  -9    8.56    1.06
   1  -4  -9    8.31    1.10
   1  -4  -8   44.86    2.54
   1  -4  -8   44.06    2.36
   1  -4  -7  229.82    6.86
   1  -4  -7  211.98    6.92
   1  -4  -7  215.19    6.93
   1  -4  -6  361.33   10.11
  -1   4   6  362.98    8.70
   1  -4  -6  378.59   10.20
   1  -4  -6  363.18    9.95
   1  -4  -5  149.09    4.96
   1  -4  -5  144.28    4.80
  -1   4   5  144.18    3.88
   1  -4  -5  144.01    4.91
  -1   4   4  250.50    6.06
   1  -4  -4  251.92    7.05
   1  -4  -4  244.19    5.95
   1  -4  -4  246.84    6.99
   1  -4  -3   21.86    0.94
   1  -4  -2  239.59    5.74
   1  -4  -1    4.02    0.44
  -1   4   0  712.13   16.30
   1  -4   1  724.34   16.20
  -1   4  -2   72.68    2.43
   1  -4   2   80.20    2.21
   1  -4   3  121.57    3.17
   1  -4   4  129.45    3.37
  -1   4  -4  130.89    3.77
  -1   4  -4  129.69    3.43
  -1   4  -5  148.97    3.82
   1  -4   5  138.58    3.64
  -1   4  -5  146.35    4.04
  -1   4  -5  141.61    4.14
  -1   4  -6   81.17    2.56
  -1   4  -6   83.98    2.78
  -1   4  -6   81.27    2.89
  -1   4  -6   78.66    2.94
   1  -4   6   74.86    2.45
  -1   4  -7  186.48    5.67
  -1   4  -7  194.81    5.48
  -1   4  -7  192.50    5.58
  -1   4  -8    2.60    0.81
  -1   4  -8    3.67    0.77
  -1   4  -8    3.41    0.60
  -1   4  -8    2.54    0.76
  -1   4  -9    6.76    0.92
  -1   4  -9    6.92    0.80
  -1   4  -9    7.32    0.94
  -1   4  -9    5.92    0.97
  -1   4 -10    1.32    0.51
  -1   4 -10    1.76    0.51
  -1   4 -10    1.37    0.60
  -1   4 -10    1.37    0.58
  -1   4 -11    4.24    0.53
   1  -3 -11   15.19    0.86
   1  -3 -10    0.02    0.11
   1  -3 -10    1.05    0.57
   1  -3  -9   -0.13    0.62
   1  -3  -9   -0.12    0.41
   1  -3  -8    6.01    1.10
   1  -3  -8    5.60    0.85
   1  -3  -8    4.57    1.02
   1  -3  -8    5.54    0.75
   1  -3  -8    6.30    1.24
   1  -3  -7  115.43    4.42
   1  -3  -7  113.64    3.79
   1  -3  -7  117.41    4.29
   1  -3  -7  121.84    3.62
  -1   3   7  114.26    3.23
   1  -3  -7  114.19    4.33
   1  -3  -6    5.15    1.02
   1  -3  -6    4.20    0.95
   1  -3  -6    4.97    0.67
   1  -3  -6    6.33    0.96
   1  -3  -6    4.59    0.69
   1  -3  -5    0.30    0.58
   1  -3  -5    0.59    0.65
   1  -3  -5    0.68    0.52
   1  -3  -5    0.70    0.40
   1  -3  -5    0.92    0.41
   1  -3  -4   40.56    1.90
   1  -3  -4   41.33    1.24
   1  -3  -4   40.17    1.90
   1  -3  -3  125.99    3.12
   1  -3  -2   79.02    2.09
   1  -3  -1    2.40    0.30
  -1   3   0  529.49    9.94
  -1   3   0  417.16    9.20
   1  -3   1   49.92    1.44
   1  -3   2  106.62    2.70
   1  -3   3   48.75    1.42
   1  -3   4  149.97    3.63
  -1   3  -5  711.97   15.81
   1  -3   5  673.27   15.16
  -1   3  -6   63.81    2.31
  -1   3  -6   66.10    2.44
  -1   3  -6   63.25    2.38
  -1   3  -6   65.81    2.11
  -1   3  -7    7.24    0.92
  -1   3  -7    7.54    0.89
  -1   3  -7    8.61    0.75
  -1   3  -8    0.64    0.45
  -1   3  -8    0.13    0.64
  -1   3  -8    0.22    0.58
  -1   3  -8    0.42    0.56
  -1   3  -9  331.90    8.34
  -1   3  -9  322.55    8.49
  -1   3  -9  343.28    8.89
  -1   3  -9  336.35    8.83
  -1   3 -10   53.12    2.15
  -1   3 -10   55.33    2.34
  -1   3 -10   50.43    1.98
  -1   3 -11    0.28    0.47
  -1   3 -11   -0.03    0.13
  -1   3 -12   30.91    1.29
   1  -2 -11    2.29    0.55
   1  -2 -10    0.97    0.52
   1  -2 -10    1.01    0.42
   1  -2 -10    0.73    0.61
   1  -2  -9   22.23    1.44
   1  -2  -9   24.52    1.33
   1  -2  -9   24.29    1.73
   1  -2  -9   20.67    1.19
   1  -2  -8  193.30    5.56
   1  -2  -8  193.24    6.11
   1  -2  -8  176.16    5.82
   1  -2  -8  184.46    5.21
   1  -2  -8  183.43    5.88
   1  -2  -7    0.46    0.57
   1  -2  -7    0.59    0.74
   1  -2  -7   -0.20    0.66
   1  -2  -7   -0.25    0.45
   1  -2  -7    0.07    0.72
   1  -2  -6  116.54    3.53
   1  -2  -6  123.36    4.10
   1  -2  -6  114.31    3.66
   1  -2  -6  122.22    4.06
   1  -2  -6  123.18    4.16
   1  -2  -5  179.02    5.18
   1  -2  -5  172.78    5.07
   1  -2  -5  178.77    5.11
   1  -2  -4  176.84    4.78
   1  -2  -4  172.17    3.95
  -1   2   4  172.72    4.16
   1  -2  -3 1995.28   42.79
   1  -2  -3 1928.49   42.20
   1  -2  -2  375.88    8.38
   1  -2  -1  280.24    6.32
  -1   2   0  134.83    3.09
   1  -2   1 1025.14   22.40
   1  -2   2   55.43    1.45
   1  -2   3  121.86    2.89
   1  -2   4 2201.94   47.74
  -1   2  -5  783.49   18.10
  -1   2  -6  840.12   19.44
  -1   2  -6  856.59   18.89
  -1   2  -6  813.96   19.18
  -1   2  -6  854.83   19.64
  -1   2  -7   51.52    2.10
  -1   2  -7   53.87    2.28
  -1   2  -7   51.30    1.84
  -1   2  -7   56.43    2.15
  -1   2  -7   54.99    1.83
  -1   2  -7   47.67    2.20
  -1   2  -8   15.07    0.92
  -1   2  -8   13.85    1.13
  -1   2  -8   12.73    1.19
  -1   2  -8   12.48    1.19
  -1   2  -9   47.27    1.87
  -1   2  -9   45.66    2.23
  -1   2  -9   44.12    2.09
  -1   2 -10  119.16    3.53
  -1   2 -10  126.93    4.06
  -1   2 -11    8.32    0.92
  -1   2 -11    7.73    0.82
  -1   2 -12   29.79    1.29
  -1   2 -12   27.98    1.17
   1  -1 -12    2.35    0.41
   1  -1 -11    0.48    0.26
   1  -1 -11    0.57    0.43
   1  -1 -11    0.60    0.50
   1  -1 -10  141.75    4.67
   1  -1 -10  144.14    4.46
   1  -1 -10  151.55    4.20
   1  -1  -9  438.08   10.87
   1  -1  -9  449.40   11.53
   1  -1  -9  439.58   11.20
   1  -1  -8  672.04   16.13
   1  -1  -8  667.81   16.47
   1  -1  -8  669.90   15.86
   1  -1  -8  667.48   16.35
   1  -1  -7  327.51    8.67
   1  -1  -7  305.90    8.46
   1  -1  -7  309.47    8.39
   1  -1  -6  157.20    4.81
   1  -1  -6  155.49    4.70
   1  -1  -6  154.57    4.65
   1  -1  -5   65.18    2.37
   1  -1  -4  131.09    2.92
  -1   1   4  129.33    3.01
   1  -1  -3  899.35   19.57
  -1   1   3  892.44   19.72
   1  -1  -3  915.95   20.03
   1  -1  -2    0.52    0.17
  -1   1   2    0.30    0.22
  -1   1   1    9.37    0.41
  -1   1   0  586.43   12.88
  -1   1   0  589.52   12.90
  -1   1  -1   16.59    0.57
  -1   1  -1   17.78    0.57
  -1   1  -2    1.07    0.46
  -1   1  -2    0.51    0.26
   1  -1   3  117.12    2.65
  -1   1  -3  116.29    3.19
  -1   1  -3  111.06    2.77
  -1   1  -4   61.08    2.11
   1  -1   4   57.57    1.33
  -1   1  -4   56.31    1.40
  -1   1  -5   26.57    1.48
  -1   1  -6   27.86    1.48
  -1   1  -6   27.80    1.08
  -1   1  -6   28.50    1.65
  -1   1  -7   26.61    1.16
  -1   1  -7   28.01    1.61
  -1   1  -7   24.90    1.45
  -1   1  -7   27.81    1.40
  -1   1  -7   25.46    1.73
  -1   1  -8   26.60    1.23
  -1   1  -8   23.32    1.72
  -1   1  -8   25.27    1.43
  -1   1  -8   27.94    1.72
  -1   1  -8   24.87    1.47
  -1   1  -9  339.48    8.26
  -1   1  -9  338.91    9.15
  -1   1 -10   54.52    2.61
  -1   1 -10   63.38    2.62
  -1   1 -11    4.59    0.75
  -1   1 -11    4.94    0.72
  -1   1 -12   19.00    0.96
  -1   1 -12   20.67    1.03
   1   0 -12   25.78    1.16
   1   0 -11   36.32    1.43
   1   0 -11   34.84    1.70
   1   0 -11   34.21    1.59
   1   0 -10   28.21    1.48
   1   0 -10   31.43    1.80
   1   0 -10   27.05    1.64
   1   0  -9  536.88   13.52
   1   0  -8  685.24   16.97
   1   0  -8  711.65   17.26
   1   0  -7    9.88    1.04
   1   0  -7    8.15    0.97
   1   0  -7    7.47    0.93
   1   0  -6    6.82    0.83
   1   0  -6    6.21    0.79
   1   0  -6    6.02    0.76
   1   0  -6    7.01    0.86
   1   0  -5   11.03    0.83
   1   0  -4   77.22    2.15
   1   0  -4   65.91    1.52
  -1   0   3  587.56   12.94
   1   0  -3  588.46   12.89
   1   0  -3  606.44   13.23
  -1   0   2   89.64    2.16
   1   0  -2   85.44    2.14
  -1   0   2   86.56    2.11
  -1   0   1  105.54    2.56
  -1   0   1  106.80    2.52
   1   0  -1  106.10    2.36
  -1   0   0    5.99    0.31
  -1   0   0    5.92    0.32
  -1   0   0    6.01    0.35
  -1   0   0    6.08    0.27
  -1   0  -1  450.99   10.15
  -1   0  -1  462.86   10.19
  -1   0  -1  447.96   10.26
  -1   0  -1  474.64   10.15
  -1   0  -2    0.51    0.19
  -1   0  -3  560.72   12.38
  -1   0  -3  585.86   13.01
   1   0   3  565.06   12.35
  -1   0  -4  885.82   20.17
  -1   0  -5   10.30    1.03
  -1   0  -6    0.06    0.62
  -1   0  -6   -0.05    0.47
  -1   0  -7  197.98    5.88
  -1   0  -7  197.38    5.28
  -1   0  -7  203.64    6.12
  -1   0  -7  197.53    5.28
  -1   0  -8    0.46    0.76
  -1   0  -8    0.12    0.42
  -1   0  -8    0.47    0.67
  -1   0  -8    0.16    0.42
  -1   0  -9 1034.37   24.33
  -1   0  -9 1075.63   24.46
  -1   0  -9 1054.93   24.67
  -1   0  -9 1008.21   23.45
  -1   0 -10   82.34    3.24
  -1   0 -10   87.34    3.28
  -1   0 -11   52.29    2.10
  -1   0 -11   47.69    2.00
  -1   0 -12   58.74    1.84
   1   1 -12    5.53    0.60
   1   1 -12    4.50    0.49
   1   1 -11    0.53    0.40
   1   1 -11    0.35    0.50
   1   1 -11    0.70    0.55
   1   1 -10    1.98    0.39
   1   1 -10    2.05    0.72
   1   1  -9   11.18    1.19
   1   1  -9   12.99    0.84
   1   1  -9   11.20    1.26
   1   1  -8  102.57    3.77
   1   1  -8   96.70    3.58
   1   1  -7    0.05    0.56
   1   1  -7    0.29    0.50
   1   1  -7    0.24    0.68
   1   1  -7   -0.09    0.46
   1   1  -6  100.52    3.28
   1   1  -6   99.13    3.09
   1   1  -6  103.41    3.45
   1   1  -5  420.15    9.87
  -1  -1   4  193.16    4.41
   1   1  -4  186.45    4.34
   1   1  -4  193.16    4.68
  -1  -1   3 1197.30   26.17
   1   1  -3 1222.15   26.23
  -1  -1   3 1202.65   26.26
   1   1  -3 1180.12   26.10
  -1  -1   2   67.35    1.81
  -1  -1   2   67.64    1.75
   1   1  -2   67.35    1.71
  -1  -1   1   80.19    2.05
  -1  -1   0  221.63    4.90
   1   1   0  210.57    4.93
  -1  -1  -1  146.36    3.57
   1   1   1  142.80    3.40
  -1  -1  -1  147.33    3.41
  -1  -1  -2   26.96    0.87
   1   1   2   26.39    0.81
  -1  -1  -3   14.33    0.57
   1   1   3   13.58    0.51
  -1  -1  -4   16.10    0.57
  -1  -1  -4   16.75    1.23
  -1  -1  -5   81.95    2.95
  -1  -1  -5   84.07    2.93
  -1  -1  -5   79.98    3.01
  -1  -1  -6   16.20    1.39
  -1  -1  -6   15.41    1.13
  -1  -1  -6   17.34    1.40
  -1  -1  -6   14.81    1.23
  -1  -1  -7  273.95    7.87
  -1  -1  -7  273.36    7.70
  -1  -1  -7  259.98    7.33
  -1  -1  -7  270.59    6.99
  -1  -1  -8   12.12    1.19
  -1  -1  -8   11.16    1.42
  -1  -1  -8   10.88    0.99
  -1  -1  -8   12.00    1.29
  -1  -1  -9  459.13   11.54
  -1  -1  -9  437.87   10.89
  -1  -1  -9  449.78   11.68
  -1  -1 -10   29.00    1.73
  -1  -1 -10   30.15    1.72
  -1  -1 -11   57.48    2.12
  -1  -1 -11   52.62    2.07
   1   2 -12   43.03    1.17
   1   2 -12   47.27    1.38
   1   2 -11   34.70    1.54
   1   2 -11   32.72    1.29
   1   2 -11   34.92    1.49
   1   2 -10    6.87    1.01
   1   2 -10    6.30    0.95
   1   2 -10    5.54    0.62
   1   2  -9  471.23   12.21
   1   2  -9  468.77   11.94
   1   2  -8   64.36    2.97
   1   2  -8   61.15    2.66
   1   2  -8   67.46    2.70
   1   2  -7    7.26    0.92
   1   2  -7    8.65    1.13
   1   2  -7    9.09    0.95
   1   2  -6   72.56    2.68
   1   2  -6   72.37    2.61
   1   2  -5 2012.91   43.98
  -1  -2   5 2004.15   43.59
   1   2  -5 1966.16   43.33
  -1  -2   4  692.74   15.30
  -1  -2   4  682.03   15.44
   1   2  -4  682.45   15.26
   1   2  -3 1696.05   36.99
  -1  -2   3 1691.25   37.11
  -1  -2   2  203.90    4.93
   1   2  -2  213.94    4.92
  -1  -2   2  208.00    4.98
  -1  -2   1    5.58    0.41
  -1  -2   1    5.56    0.34
  -1  -2   0  188.40    4.27
   1   2   0  187.49    4.46
  -1  -2   0  189.14    4.48
   1   2   1  590.59   13.14
  -1  -2  -1  581.64   13.15
  -1  -2  -1  596.65   13.13
  -1  -2  -2  528.80   11.96
  -1  -2  -2  511.85   11.48
   1   2   2  510.58   11.53
  -1  -2  -3   51.39    1.55
   1   2   3   51.25    1.52
  -1  -2  -4 1235.46   26.71
   1   2   4 1196.70   26.69
  -1  -2  -5   11.43    1.10
  -1  -2  -5   10.58    1.19
  -1  -2  -5    9.20    0.89
  -1  -2  -5   10.94    1.08
  -1  -2  -6    6.30    1.02
  -1  -2  -6    8.79    0.96
  -1  -2  -6    5.53    1.09
  -1  -2  -6    7.13    1.05
  -1  -2  -7   29.87    1.61
  -1  -2  -7   29.15    2.01
  -1  -2  -7   30.51    1.81
  -1  -2  -7   31.53    2.15
  -1  -2  -7   30.60    1.98
  -1  -2  -8   72.52    2.74
  -1  -2  -8   70.29    3.39
  -1  -2  -8   74.32    2.99
  -1  -2  -8   72.16    3.26
  -1  -2  -9   32.37    1.84
  -1  -2  -9   30.80    1.59
  -1  -2  -9   30.39    1.96
  -1  -2 -10    0.42    0.57
  -1  -2 -10   -0.10    0.37
  -1  -2 -11    3.54    0.56
   1   3 -12    9.55    0.61
   1   3 -11    0.97    0.37
   1   3 -11    1.16    0.55
   1   3 -10    0.10    0.36
   1   3 -10   -0.11    0.65
   1   3 -10    0.68    0.69
   1   3  -9   52.52    2.40
   1   3  -9   46.87    2.54
   1   3  -9   49.01    1.91
   1   3  -9   49.53    2.41
   1   3  -8  138.01    5.04
   1   3  -8  155.04    4.88
   1   3  -8  149.86    4.82
   1   3  -7    6.78    0.95
   1   3  -7    7.14    0.97
   1   3  -6  240.25    6.68
   1   3  -6  250.22    6.63
  -1  -3   6  238.79    6.04
  -1  -3   5   16.26    0.83
   1   3  -5   15.54    1.07
  -1  -3   5   15.40    0.91
  -1  -3   5   15.04    0.94
   1   3  -4  111.38    3.10
  -1  -3   4  113.44    3.20
  -1  -3   3  625.91   14.25
   1   3  -3  648.57   14.19
  -1  -3   3  603.43   14.11
  -1  -3   2   72.24    2.13
   1   3  -2   78.01    2.20
  -1  -3   2   70.23    1.88
  -1  -3   2   76.48    2.22
  -1  -3   1   21.85    0.93
  -1  -3   1   19.92    0.59
   1   3   0  783.56   17.34
  -1  -3   0  764.60   17.30
  -1  -3  -1  197.70    4.87
  -1  -3  -1  195.14    4.90
   1   3   1  204.96    4.95
  -1  -3  -2    1.19    0.29
  -1  -3  -2    2.15    0.63
   1   3   3   66.10    2.06
  -1  -3  -3   65.71    2.55
  -1  -3  -4   15.82    1.05
  -1  -3  -4   13.81    1.19
  -1  -3  -4   13.61    0.75
   1   3   4   12.49    0.77
  -1  -3  -5   26.01    1.72
  -1  -3  -5   25.40    1.49
  -1  -3  -6    3.17    0.91
  -1  -3  -6    3.43    0.81
  -1  -3  -6    2.75    1.03
  -1  -3  -7  171.16    5.81
  -1  -3  -7  168.82    5.24
  -1  -3  -7  167.97    5.84
  -1  -3  -8   35.00    2.31
  -1  -3  -8   38.38    1.87
  -1  -3  -9   13.82    1.04
  -1  -3  -9   14.51    1.29
  -1  -3 -10    2.01    0.43
  -1  -3 -10    1.18    0.55
   1   4 -11   16.16    0.87
   1   4 -11   18.26    1.10
   1   4 -10   20.36    1.47
   1   4 -10   20.90    1.11
   1   4  -9   -0.06    0.69
   1   4  -9    0.12    0.67
   1   4  -9    0.67    0.79
   1   4  -8   -0.13    0.74
   1   4  -8    0.34    0.77
   1   4  -7   40.32    2.24
   1   4  -7   46.39    2.28
   1   4  -6  120.18    3.96
  -1  -4   6  116.38    3.19
   1   4  -5   23.23    1.24
   1   4  -5   21.82    1.20
   1   4  -5   22.81    1.46
   1   4  -5   22.78    1.49
  -1  -4   5   23.02    1.31
  -1  -4   4   19.06    0.93
   1   4  -4   17.86    1.21
  -1  -4   4   18.77    1.13
   1   4  -4   18.13    1.06
   1   4  -4   18.96    1.12
   1   4  -3   62.89    2.17
  -1  -4   3   55.93    2.01
   1   4  -3   63.99    2.13
  -1  -4   3   57.68    1.84
  -1  -4   3   59.37    2.13
  -1  -4   2  135.09    3.56
  -1  -4   2  136.51    3.79
  -1  -4   2  141.60    3.87
   1   4  -2  143.87    3.91
   1   4  -2  139.88    3.87
  -1  -4   1   14.40    0.88
  -1  -4   1   14.35    0.73
  -1  -4   1   14.71    0.89
  -1  -4   0  476.83   11.23
   1   4   0  481.72   11.33
   1   4   0  488.25   11.37
  -1  -4  -1  230.23    5.98
  -1  -4  -1  237.24    5.82
  -1  -4  -1  242.01    5.99
   1   4   1  245.50    6.11
   1   4   1  243.61    6.15
   1   4   2   25.98    1.25
  -1  -4  -2   24.68    1.51
   1   4   2   28.04    1.32
  -1  -4  -2   24.99    1.14
   1   4   3   37.39    1.58
  -1  -4  -3   36.81    2.04
   1   4   3   40.12    1.65
  -1  -4  -3   39.08    1.98
  -1  -4  -4    1.64    0.83
  -1  -4  -4    1.01    0.67
  -1  -4  -4    1.89    0.43
  -1  -4  -5   86.42    3.62
  -1  -4  -5   91.15    3.81
  -1  -4  -6  307.18    8.85
  -1  -4  -7  371.35   10.31
  -1  -4  -8   61.08    2.86
  -1  -4  -8   61.09    2.42
  -1  -4  -9   37.79    1.61
  -1  -4 -10    5.79    0.60
   1   5 -11   23.53    1.13
   1   5 -11   26.86    1.03
   1   5 -10   24.68    1.48
   1   5  -9    2.14    0.52
   1   5  -9    2.30    0.74
   1   5  -8   65.99    2.32
   1   5  -7  423.25   11.10
  -1  -5   6    3.82    0.69
   1   5  -6    3.66    0.95
  -1  -5   6    3.14    0.49
  -1  -5   5 1374.78   30.30
   1   5  -5 1408.92   31.34
  -1  -5   5 1405.03   31.02
   1   5  -5 1350.02   30.81
  -1  -5   5 1351.98   30.75
  -1  -5   5 1347.32   30.74
   1   5  -5 1338.77   30.90
  -1  -5   4  158.46    4.17
   1   5  -4  162.61    4.86
  -1  -5   4  159.18    4.67
   1   5  -4  156.84    4.62
   1   5  -4  160.94    4.76
  -1  -5   4  152.52    4.50
  -1  -5   3  212.86    5.48
  -1  -5   3  213.58    5.85
  -1  -5   3  227.77    6.02
   1   5  -3  226.27    6.13
   1   5  -3  226.94    6.03
   1   5  -3  221.90    6.07
  -1  -5   2  354.01    8.90
   1   5  -2  341.54    8.87
   1   5  -2  367.22    9.15
   1   5  -2  359.85    9.00
  -1  -5   2  362.68    8.89
  -1  -5   2  367.11    8.53
  -1  -5   1    6.39    0.61
  -1  -5   1    6.37    0.75
  -1  -5   1    6.77    0.76
   1   5  -1    7.98    0.89
  -1  -5   1    5.54    0.73
   1   5  -1    8.51    0.86
  -1  -5   0   37.45    1.68
   1   5   0   40.26    1.84
   1   5   0   37.36    1.74
  -1  -5   0   38.59    1.70
  -1  -5   0   38.25    1.67
   1   5   1    1.70    0.63
  -1  -5  -1    2.28    0.54
  -1  -5  -1    1.35    0.44
  -1  -5  -1    1.17    0.45
  -1  -5  -1    1.28    0.63
   1   5   1    1.88    0.60
   1   5   2  498.92   11.99
  -1  -5  -2  490.55   11.78
  -1  -5  -2  480.49   12.31
   1   5   2  493.20   11.86
  -1  -5  -2  480.09   11.57
  -1  -5  -3   23.28    1.30
   1   5   3   21.57    1.39
  -1  -5  -3   20.31    1.26
  -1  -5  -3   21.23    1.72
   1   5   3   24.33    1.40
  -1  -5  -3   24.20    1.72
  -1  -5  -4   -0.08    0.74
  -1  -5  -4    1.07    0.90
  -1  -5  -5  108.17    4.21
  -1  -5  -5  109.08    4.39
  -1  -5  -6  138.72    4.93
  -1  -5  -7   78.99    3.33
  -1  -5  -7   86.40    2.98
  -1  -5  -8    5.53    0.88
  -1  -5  -9   20.52    0.97
   1   6 -10   19.32    1.12
   1   6 -10   18.45    0.88
   1   6  -9    1.36    0.41
   1   6  -8    5.61    0.64
   1   6  -8    3.33    0.83
   1   6  -7   19.90    1.56
   1   6  -7   20.81    1.11
   1   6  -6    0.03    0.35
  -1  -6   6    0.71    0.39
   1   6  -6    1.41    0.77
   1   6  -6    0.75    0.51
  -1  -6   6    0.22    0.48
   1   6  -5  558.30   13.58
  -1  -6   5  550.04   12.60
  -1  -6   5  539.58   13.13
   1   6  -5  553.12   12.60
   1   6  -5  549.43   13.27
  -1  -6   5  526.93   13.08
   1   6  -5  510.41   13.21
  -1  -6   5  533.31   13.33
   1   6  -4  222.58    5.68
  -1  -6   4  226.58    6.34
  -1  -6   4  229.13    6.51
  -1  -6   4  234.39    5.87
   1   6  -4  228.29    6.56
   1   6  -4  237.32    6.51
   1   6  -4  226.18    6.53
  -1  -6   3  190.14    5.43
  -1  -6   3  186.59    4.95
  -1  -6   3  188.69    5.52
   1   6  -3  186.11    5.63
   1   6  -3  177.45    5.39
   1   6  -3  186.49    5.53
  -1  -6   2   73.87    2.43
   1   6  -2   67.90    2.87
  -1  -6   2   69.96    2.71
   1   6  -2   64.19    2.56
  -1  -6   2   73.28    2.78
  -1  -6   1   41.76    1.95
   1   6  -1   39.25    2.03
   1   6  -1   38.13    2.07
  -1  -6   1   39.26    1.68
  -1  -6   0   66.86    2.61
  -1  -6   0   65.62    2.73
   1   6   0   69.70    2.79
   1   6   0   64.65    2.78
  -1  -6   0   64.16    2.55
  -1  -6  -1    2.75    0.83
   1   6   1    1.22    0.65
  -1  -6  -1    1.60    0.62
  -1  -6  -1    2.52    0.63
   1   6   1    3.23    0.80
   1   6   2   20.20    1.49
  -1  -6  -2   22.95    1.45
  -1  -6  -2   23.92    1.73
  -1  -6  -2   25.10    1.84
  -1  -6  -2   23.62    1.46
   1   6   2   22.66    1.51
  -1  -6  -3  133.37    4.17
  -1  -6  -3  136.36    4.90
  -1  -6  -3  144.13    4.84
   1   6   3  137.17    4.29
  -1  -6  -3  130.06    4.13
  -1  -6  -4    1.15    0.80
  -1  -6  -5    0.94    0.79
  -1  -6  -5    1.10    0.74
  -1  -6  -6    5.12    0.94
  -1  -6  -6    5.08    0.71
  -1  -6  -6    5.78    0.98
  -1  -6  -7    2.15    0.50
  -1  -6  -7    1.49    0.63
  -1  -6  -7    2.87    0.71
  -1  -6  -8    5.37    0.51
   1   7  -9    2.78    0.37
   1   7  -9    2.46    0.57
   1   7  -8   58.93    1.90
   1   7  -8   59.72    2.31
   1   7  -7   -0.06    0.34
   1   7  -7   -0.37    0.62
  -1  -7   6   49.02    1.62
   1   7  -6   51.22    1.66
  -1  -7   6   50.52    1.89
  -1  -7   5   37.31    1.80
   1   7  -5   37.70    1.91
  -1  -7   5   34.68    1.49
   1   7  -5   34.07    1.93
  -1  -7   4    1.73    0.55
   1   7  -4    2.34    0.72
   1   7  -4    1.62    0.70
  -1  -7   4    1.80    0.66
  -1  -7   3   10.20    0.90
   1   7  -3   11.09    1.08
  -1  -7   3   12.56    1.16
  -1  -7   3   10.44    1.05
   1   7  -3    9.23    1.14
   1   7  -3   11.23    1.20
  -1  -7   2   22.75    1.51
  -1  -7   2   18.20    1.40
   1   7  -1   11.90    1.26
   1   7  -1   10.64    1.21
  -1  -7   1   12.21    1.11
  -1  -7   0  212.51    6.46
  -1  -7   0  235.57    6.48
  -1  -7   0  236.91    6.51
  -1  -7   0  216.18    6.25
   1   7   0  236.07    6.67
   1   7   0  214.22    6.61
  -1  -7  -1  100.34    3.79
  -1  -7  -1  104.28    3.61
   1   7   1  100.49    3.68
  -1  -7  -2   31.83    1.94
  -1  -7  -2   33.40    1.74
   1   7   2   32.03    1.81
  -1  -7  -3    7.08    0.81
   1   7   3    7.10    0.88
  -1  -7  -3    7.42    1.07
  -1  -7  -3    8.53    0.78
  -1  -7  -4   16.46    1.35
  -1  -7  -4   17.10    1.06
  -1  -7  -5    0.63    0.40
  -1  -7  -5    0.20    0.52
  -1  -7  -5    1.16    0.69
  -1  -7  -6    0.96    0.46
  -1  -7  -6    1.14    0.37
  -1  -7  -6    1.54    0.58
   1   8  -8    2.73    0.48
   1   8  -7    3.46    0.56
   1   8  -6   -0.29    0.46
   1   8  -5    5.18    0.76
   1   8  -5    5.48    0.72
  -1  -8   5    6.30    0.72
  -1  -8   4   19.59    1.26
   1   8  -4   18.55    1.32
   1   8  -4   16.97    1.10
  -1  -8   3   63.93    2.57
   1   8  -3   63.92    2.70
  -1  -8   2    0.37    0.59
   1   8  -1   20.75    1.52
  -1  -8   0   16.63    1.28
  -1  -8   0   20.32    1.36
   1   8   0   18.85    1.42
   1   8   1    0.42    0.61
  -1  -8  -1    1.12    0.59
  -1  -8  -1    1.10    0.55
  -1  -8  -2   -0.26    0.44
   1   8   2   -0.09    0.49
  -1  -8  -2    0.19    0.49
  -1  -8  -3    0.08    0.35
  -1  -8  -4    0.03    0.14
  -1  -8  -4   48.28    1.73
  -1  -8  -5    2.94    0.49
   1   9  -4    2.51    0.51
  -1  -9   4    2.62    0.50
  -1  -9   3   18.31    1.05
   1   9  -3   15.40    1.06
  -1  -9   2    7.90    0.76
   1   9  -1   23.10    1.32
   1   9   0   -0.54    0.50
  -1  -9   0    0.22    0.39
  -1  -9  -1    0.52    0.32
   1   9   1    0.42    0.36
  -1  -9  -2    0.99    0.41
  -2  10   0   21.63    1.07
   2 -10   0   20.17    0.92
  -2  10  -1    0.75    0.45
   2 -10   2    0.70    0.35
  -2  10  -3    5.53    0.61
   2 -10   3    5.84    0.55
   2  -9  -4    3.79    0.58
   2  -9  -3    0.04    0.50
   2  -9  -2   11.22    0.79
   2  -9  -2   10.89    1.08
  -2   9   2   10.82    0.90
   2  -9  -1   11.19    0.88
   2  -9  -1   11.91    1.16
  -2   9   1    9.43    1.00
   2  -9   0    0.54    0.47
  -2   9   0    0.73    0.66
  -2   9  -1   37.34    2.00
  -2   9  -2   10.75    0.91
   2  -9   2   13.08    1.01
  -2   9  -3    7.25    0.84
  -2   9  -3    6.30    0.94
   2  -9   3    8.74    0.82
  -2   9  -4    2.83    0.66
  -2   9  -4    2.69    0.69
   2  -9   4    4.32    0.62
   2  -9   5   12.34    0.81
  -2   9  -5   11.14    0.91
  -2   9  -5   14.01    1.04
  -2   9  -6    1.45    0.55
  -2   9  -7   10.72    0.77
   2  -8  -6    1.13    0.50
   2  -8  -5   -0.05    0.57
   2  -8  -4   24.29    1.63
   2  -8  -4   19.85    1.24
  -2   8   3   28.22    1.58
   2  -8  -3   33.20    2.01
   2  -8  -3   31.52    1.40
   2  -8  -3   28.38    1.62
  -2   8   2    5.40    0.88
   2  -8  -2    5.65    0.69
  -2   8   2    5.32    0.74
   2  -8  -1   50.84    2.07
  -2   8   1   51.97    2.49
   2  -8   0  212.66    5.78
  -2   8   0  225.84    6.51
  -2   8  -1    3.18    0.96
  -2   8  -1    3.01    0.70
   2  -8   2   27.02    1.50
  -2   8  -2   26.82    1.58
  -2   8  -3    4.24    0.95
   2  -8   3    3.11    0.65
  -2   8  -3    4.49    0.86
  -2   8  -4  244.86    7.09
  -2   8  -4  251.71    6.97
   2  -8   4  249.36    6.60
  -2   8  -5    9.05    1.09
   2  -8   5    8.13    0.81
  -2   8  -5    8.14    0.98
  -2   8  -6    3.15    0.54
  -2   8  -6    3.77    0.86
  -2   8  -7   30.74    1.34
  -2   8  -8    8.13    0.81
  -2   8  -9   40.40    1.39
   2  -7  -7   12.87    1.06
   2  -7  -6    3.26    0.62
   2  -7  -6    3.17    0.81
   2  -7  -5    4.26    0.96
   2  -7  -5    4.01    0.78
   2  -7  -4   12.11    1.41
   2  -7  -4   11.21    1.19
   2  -7  -3   80.45    2.70
  -2   7   3   78.22    2.76
  -2   7   3   80.60    2.74
  -2   7   3   78.03    3.08
   2  -7  -3   80.57    3.54
   2  -7  -2    1.60    0.54
  -2   7   2    1.92    0.58
   2  -7  -2    2.11    0.57
  -2   7   2    1.67    0.77
   2  -7  -1  396.32    9.72
   2  -7  -1  400.00    9.76
  -2   7   1  382.62    9.81
  -2   7   1  395.38   10.47
  -2   7   0  129.04    4.06
   2  -7   0  138.54    4.12
   2  -7   0  140.55    4.13
  -2   7   0  135.94    4.28
  -2   7   0  142.37    4.81
  -2   7  -1    1.02    0.82
  -2   7  -1    1.54    0.71
  -2   7  -1    1.73    0.68
   2  -7   1    1.17    0.53
   2  -7   1    1.95    0.56
  -2   7  -2   16.85    1.30
   2  -7   2   17.81    1.15
  -2   7  -2   15.51    1.35
   2  -7   2   15.77    1.10
   2  -7   3    4.76    0.67
  -2   7  -3    4.78    0.95
  -2   7  -3    4.96    0.93
   2  -7   3    4.45    0.66
   2  -7   4  350.54    8.63
  -2   7  -4  326.12    8.56
   2  -7   4  337.67    8.59
  -2   7  -4  348.88    9.15
  -2   7  -4  366.79    9.41
  -2   7  -5  359.64    9.26
   2  -7   5  367.56    9.14
   2  -7   5  378.95    9.39
  -2   7  -5  369.94    9.81
  -2   7  -5  381.55    9.78
  -2   7  -6   17.19    1.25
  -2   7  -6   21.12    1.31
  -2   7  -7    1.11    0.53
  -2   7  -7    1.92    0.82
  -2   7  -8    3.56    0.60
  -2   7  -8    4.97    0.85
  -2   7  -9   16.64    0.92
  -2   7  -9   16.15    1.01
   2  -6  -8   -0.18    0.37
   2  -6  -8    0.42    0.54
   2  -6  -7    3.68    0.85
   2  -6  -7    2.88    0.65
  -2   6   7    3.30    0.46
   2  -6  -6   93.37    3.80
   2  -6  -6   91.95    3.46
  -2   6   6   94.33    2.87
   2  -6  -5   61.04    3.03
   2  -6  -5   63.69    2.82
  -2   6   5   65.90    2.29
   2  -6  -5   59.23    3.05
  -2   6   5   62.56    2.09
   2  -6  -4   65.37    3.09
   2  -6  -4   60.08    2.75
  -2   6   4   62.36    2.14
   2  -6  -4   58.87    2.96
  -2   6   4   61.44    2.26
   2  -6  -3 1036.47   23.43
  -2   6   3 1052.41   23.56
   2  -6  -3 1029.14   23.45
  -2   6   3 1055.07   23.44
  -2   6   3 1011.94   24.11
   2  -6  -2  189.78    5.00
  -2   6   2  186.90    5.04
  -2   6   2  183.93    4.95
   2  -6  -2  185.38    4.96
  -2   6   2  178.16    5.55
   2  -6  -1  581.44   13.39
  -2   6   1  561.43   13.43
  -2   6   1  574.92   13.40
  -2   6   1  565.26   14.10
   2  -6   0  140.46    3.93
  -2   6   0  131.56    3.97
  -2   6   0  143.55    4.56
   2  -6   1   19.10    1.07
  -2   6  -1   16.68    1.16
  -2   6  -1   18.56    1.41
  -2   6  -2   -0.06    0.65
  -2   6  -2    0.36    0.56
   2  -6   2    0.48    0.38
  -2   6  -2    1.65    0.64
  -2   6  -3    2.22    0.82
  -2   6  -3    2.76    0.51
  -2   6  -3    1.68    0.69
   2  -6   3    2.34    0.49
  -2   6  -3    2.67    0.71
  -2   6  -4  152.79    4.37
   2  -6   4  152.38    4.24
   2  -6   4  154.59    4.23
  -2   6  -4  157.21    4.74
  -2   6  -4  141.36    4.76
  -2   6  -5    7.52    0.98
   2  -6   5    5.96    0.68
  -2   6  -5    5.44    0.72
   2  -6   5    5.93    0.67
  -2   6  -5    7.31    0.83
  -2   6  -6  205.26    6.06
  -2   6  -6  203.50    5.64
   2  -6   6  196.81    5.49
  -2   6  -6  201.66    5.56
  -2   6  -7  126.38    3.99
  -2   6  -7  126.90    4.34
  -2   6  -7  123.80    3.89
  -2   6  -8   35.32    1.77
  -2   6  -8   36.71    1.95
  -2   6  -9    3.39    0.65
  -2   6  -9    4.28    0.75
  -2   6  -9    3.18    0.66
  -2   6 -10    0.14    0.16
   2  -5  -9   48.48    1.65
   2  -5  -9   44.01    1.72
   2  -5  -8    0.96    0.55
   2  -5  -8    0.52    0.64
   2  -5  -7    2.74    0.94
  -2   5   7    4.33    0.54
   2  -5  -7    2.35    0.78
   2  -5  -6  259.99    7.73
   2  -5  -6  245.25    7.62
  -2   5   6  264.09    6.49
   2  -5  -6  242.74    7.29
   2  -5  -5    4.96    0.95
  -2   5   5    6.57    0.69
   2  -5  -5    6.59    1.21
   2  -5  -5    5.82    1.11
   2  -5  -4  240.93    7.12
  -2   5   4  235.98    6.07
   2  -5  -4  243.66    7.04
   2  -5  -4  247.46    5.94
  -2   5   3    1.12    0.52
   2  -5  -3    0.89    0.33
  -2   5   3    0.61    0.38
   2  -5  -2   53.50    1.79
  -2   5   2   51.64    2.19
  -2   5   2   48.45    1.78
  -2   5   1   25.37    1.14
   2  -5  -1   24.82    1.14
  -2   5   1   23.84    1.46
  -2   5   1   25.51    1.13
  -2   5   0  161.00    4.16
  -2   5   0  147.12    4.59
  -2   5  -1   48.59    1.75
   2  -5   1   51.75    1.79
  -2   5  -1   49.98    1.82
  -2   5  -2  257.06    6.44
  -2   5  -2  262.71    6.99
  -2   5  -2  253.50    6.65
   2  -5   2  269.65    6.44
  -2   5  -3  146.73    4.04
  -2   5  -3  149.93    4.33
   2  -5   3  147.68    3.95
  -2   5  -3  148.70    4.49
  -2   5  -4   85.83    2.68
  -2   5  -4   79.29    2.61
   2  -5   4   86.00    2.53
  -2   5  -4   80.94    2.97
  -2   5  -5   26.49    1.36
  -2   5  -5   25.18    1.57
  -2   5  -5   26.06    1.36
   2  -5   5   26.52    1.16
  -2   5  -5   24.30    1.44
  -2   5  -6  220.65    5.91
  -2   5  -6  212.26    6.23
  -2   5  -6  221.20    5.99
  -2   5  -7   14.82    1.15
  -2   5  -7   16.30    1.21
  -2   5  -7   14.00    1.30
  -2   5  -8  473.74   11.23
  -2   5  -8  422.43   11.29
  -2   5  -9   57.04    2.26
  -2   5  -9   55.00    2.25
  -2   5 -10   -0.04    0.41
  -2   5 -11    1.35    0.43
   2  -4 -10   31.53    1.31
   2  -4  -9    0.05    0.52
   2  -4  -8   16.93    1.50
   2  -4  -8   14.98    1.30
  -2   4   8   15.89    0.89
   2  -4  -7   76.32    3.39
   2  -4  -7   69.39    3.04
   2  -4  -7   76.84    2.73
   2  -4  -7   67.65    3.18
  -2   4   7   75.03    2.41
   2  -4  -6   32.69    2.11
  -2   4   6   35.06    1.47
   2  -4  -6   31.73    2.06
   2  -4  -6   33.11    1.97
   2  -4  -6   37.40    1.74
   2  -4  -5    0.56    0.72
   2  -4  -5    0.18    0.58
   2  -4  -5    0.84    0.48
  -2   4   5    0.03    0.38
   2  -4  -5    0.20    0.72
   2  -4  -4    4.56    0.82
   2  -4  -4    4.41    0.83
  -2   4   4    4.66    0.52
   2  -4  -4    3.93    0.71
   2  -4  -4    5.82    0.69
  -2   4   4    4.25    0.62
  -2   4   4    5.17    0.52
   2  -4  -4    5.08    0.45
   2  -4  -3  439.23    9.93
  -2   4   3  419.84   10.02
  -2   4   3  432.43   10.03
   2  -4  -2  350.29    8.19
  -2   4   1  684.11   15.53
   2  -4  -1  744.43   15.85
  -2   4   0   11.72    0.42
   2  -4   1 1349.79   29.74
   2  -4   2  270.51    6.44
   2  -4   3 1038.28   23.03
  -2   4  -4   19.67    1.00
  -2   4  -4   19.67    1.16
   2  -4   4   19.56    0.88
  -2   4  -5   12.94    0.85
  -2   4  -5   10.42    0.84
   2  -4   5   12.60    0.68
  -2   4  -5   11.03    0.99
  -2   4  -5   11.42    0.90
  -2   4  -6   26.89    1.42
  -2   4  -6   26.99    1.43
  -2   4  -6   23.62    1.48
  -2   4  -7   47.92    2.05
  -2   4  -7   48.52    2.28
  -2   4  -7   55.01    2.22
  -2   4  -7   55.83    2.27
  -2   4  -8   17.00    1.23
  -2   4  -8   17.53    1.37
  -2   4  -8   20.72    1.36
  -2   4  -8   17.88    1.35
  -2   4  -8   18.98    1.37
  -2   4  -9  101.00    3.31
  -2   4  -9  103.70    3.38
  -2   4 -10  175.64    4.92
  -2   4 -10  182.05    4.96
  -2   4 -11    5.01    0.66
   2  -3 -10   93.17    3.04
   2  -3  -9   44.72    1.83
   2  -3  -9   39.56    2.02
  -2   3   9   41.72    1.50
   2  -3  -8    5.96    1.11
   2  -3  -8    7.03    0.81
   2  -3  -8    5.16    0.89
   2  -3  -7   87.75    3.59
   2  -3  -7   88.28    3.46
   2  -3  -7   87.86    2.96
   2  -3  -7   89.17    3.07
   2  -3  -7   83.99    3.42
   2  -3  -6   32.09    1.56
   2  -3  -6   29.03    1.88
   2  -3  -6   29.83    1.76
   2  -3  -6   28.92    1.82
   2  -3  -5    8.00    0.89
   2  -3  -5    7.23    0.97
   2  -3  -5    6.91    0.76
   2  -3  -5    9.35    1.04
   2  -3  -4   31.22    1.65
   2  -3  -4   34.07    1.11
   2  -3  -4   33.19    1.62
  -2   3   4   32.65    1.37
   2  -3  -3 1120.11   24.51
  -2   3   3 1103.37   24.92
   2  -3  -2    0.93    0.29
   2  -3  -1   89.99    2.42
  -2   3   0  274.70    6.27
   2  -3   1   42.50    1.39
  -2   3  -1   44.86    1.25
   2  -3   2  115.65    2.98
   2  -3   3   47.13    1.45
   2  -3   4    6.84    0.45
  -2   3  -4    7.17    0.64
  -2   3  -5   83.83    2.56
  -2   3  -5   78.09    2.49
  -2   3  -5   82.45    2.50
  -2   3  -5   86.34    2.63
   2  -3   5   81.90    2.17
  -2   3  -6  161.40    4.43
  -2   3  -6  169.28    4.49
  -2   3  -6  165.29    4.62
  -2   3  -6  158.30    4.61
  -2   3  -6  166.85    4.62
  -2   3  -7  418.37    9.91
  -2   3  -7  404.21    9.95
  -2   3  -7  410.26   10.16
  -2   3  -7  400.85   10.12
  -2   3  -8  103.46    3.32
  -2   3  -8  102.90    3.50
  -2   3  -8   99.17    3.43
  -2   3  -9   52.89    2.19
  -2   3  -9   60.92    2.44
  -2   3  -9   60.05    2.45
  -2   3 -10    8.60    0.80
  -2   3 -10    9.82    0.93
  -2   3 -11    0.03    0.14
  -2   3 -11   -0.12    0.51
  -2   3 -12    2.67    0.39
   2  -2 -11    1.32    0.42
   2  -2 -10    0.24    0.50
   2  -2 -10    0.62    0.47
   2  -2  -9   52.59    2.12
   2  -2  -9   49.78    2.39
   2  -2  -9   56.58    2.25
   2  -2  -8  242.39    6.96
   2  -2  -8  239.64    6.50
   2  -2  -8  248.55    7.21
   2  -2  -8  237.01    6.55
   2  -2  -7    0.55    0.65
   2  -2  -7    1.43    0.68
   2  -2  -7    1.05    0.58
   2  -2  -7    0.58    0.49
   2  -2  -7    0.17    0.58
   2  -2  -6    0.59    0.58
   2  -2  -6    0.25    0.45
   2  -2  -6   -0.16    0.51
   2  -2  -6    0.05    0.55
   2  -2  -5  726.62   17.03
   2  -2  -5  702.59   16.90
   2  -2  -5  740.59   16.88
   2  -2  -4   64.06    1.71
   2  -2  -4   63.79    2.20
  -2   2   3  327.74    7.78
   2  -2  -3  328.14    7.49
  -2   2   2  502.34   11.32
   2  -2  -2  487.06   11.09
  -2   2   1   12.51    0.73
  -2   2   0  809.57   17.88
  -2   2  -1   66.71    1.78
   2  -2   2  929.63   21.12
  -2   2  -2 1003.88   21.37
   2  -2   3   60.24    1.72
  -2   2  -3   65.83    1.98
  -2   2  -4    0.09    0.31
   2  -2   4    0.45    0.21
  -2   2  -5   12.52    0.75
  -2   2  -5   12.10    1.07
  -2   2  -6  419.11   10.33
  -2   2  -6  424.02   10.01
  -2   2  -6  423.76   10.09
  -2   2  -6  427.81   10.20
  -2   2  -6  421.05   10.79
  -2   2  -7  121.76    3.57
  -2   2  -7  122.32    3.55
  -2   2  -7  123.33    3.90
  -2   2  -7  120.70    3.77
  -2   2  -8   73.10    2.54
  -2   2  -8   75.52    2.46
  -2   2  -8   72.75    2.75
  -2   2  -8   72.32    2.82
  -2   2  -9  259.43    6.77
  -2   2  -9  265.30    7.16
  -2   2  -9  263.15    7.05
  -2   2 -10   24.56    1.59
  -2   2 -10   25.12    1.43
  -2   2 -11    9.71    0.91
  -2   2 -11    8.93    0.75
  -2   2 -12   19.17    0.92
   2  -1 -11    9.67    0.71
   2  -1 -11    7.60    0.76
   2  -1 -10   15.97    1.09
   2  -1 -10   13.99    0.99
   2  -1 -10   14.30    1.17
   2  -1  -9   17.95    1.25
   2  -1  -9   16.86    1.36
   2  -1  -9   18.31    1.32
   2  -1  -8   37.85    1.85
   2  -1  -8   36.78    1.88
   2  -1  -8   36.07    2.01
   2  -1  -7  579.28   14.43
   2  -1  -7  609.17   14.63
   2  -1  -6  144.27    4.29
   2  -1  -6  136.33    4.30
   2  -1  -6  137.52    4.06
   2  -1  -5    1.48    0.45
  -2   1   4  946.97   20.78
   2  -1  -4  943.62   21.00
   2  -1  -4  930.82   20.62
  -2   1   3   90.31    2.32
   2  -1  -3   90.80    2.43
  -2   1   3   88.84    2.48
  -2   1   2   36.54    1.16
  -2   1   1  102.83    2.69
  -2   1   1   94.08    2.53
  -2   1  -1 9536.84  206.27
  -2   1  -2 1591.63   34.76
  -2   1  -2 1572.07   34.50
  -2   1  -3    0.24    0.20
  -2   1  -3    0.04    0.30
   2  -1   4  294.03    6.65
  -2   1  -4  289.33    6.79
  -2   1  -5   96.66    3.33
  -2   1  -6  133.56    3.67
  -2   1  -6  133.57    4.10
  -2   1  -6  130.84    3.81
  -2   1  -6  137.89    3.86
  -2   1  -6  138.72    3.83
  -2   1  -6  140.11    4.50
  -2   1  -7  118.55    3.46
  -2   1  -7  122.72    3.55
  -2   1  -7  121.05    3.95
  -2   1  -7  123.08    3.71
  -2   1  -7  121.53    3.64
  -2   1  -7  119.35    4.31
  -2   1  -8   32.23    1.48
  -2   1  -8   34.00    1.46
  -2   1  -8   30.77    2.08
  -2   1  -8   33.83    1.90
  -2   1  -9  192.88    5.59
  -2   1  -9  173.34    4.89
  -2   1  -9  193.96    5.21
  -2   1  -9  179.51    5.64
  -2   1 -10   43.79    2.13
  -2   1 -10   42.74    1.97
  -2   1 -11   54.85    1.98
  -2   1 -11   56.29    2.16
   2   0 -11    1.31    0.45
   2   0 -11    1.14    0.49
   2   0 -10   28.96    1.60
   2   0 -10   24.62    1.46
   2   0 -10   25.16    1.42
   2   0  -9   89.32    3.34
   2   0  -9   87.11    3.15
   2   0  -8  319.18    8.83
   2   0  -8  352.44    9.20
   2   0  -7   85.16    3.11
   2   0  -6  345.01    8.73
   2   0  -5   57.85    1.84
  -2   0   4  269.82    6.18
   2   0  -4  256.32    6.20
   2   0  -4  271.95    6.09
  -2   0   3    8.13    0.50
   2   0  -3    8.27    0.40
  -2   0   2  650.35   14.63
  -2   0   2  662.09   14.71
  -2   0   1 4217.96   91.03
  -2   0   1 4173.77   90.94
  -2   0   0 3530.16   76.48
  -2   0   0 3535.25   76.71
  -2   0   0 3541.12   76.68
  -2   0  -2   72.57    2.02
  -2   0  -2   72.41    2.21
  -2   0  -3  219.69    5.21
  -2   0  -3  220.58    5.68
  -2   0  -4   33.82    1.09
   2   0   4   36.27    1.06
  -2   0  -5  649.84   15.43
  -2   0  -6    7.70    0.76
  -2   0  -6    8.18    0.93
  -2   0  -6    8.50    0.71
  -2   0  -6    6.86    1.06
  -2   0  -7   13.45    1.20
  -2   0  -7   14.00    1.04
  -2   0  -7   11.64    1.16
  -2   0  -7   13.74    0.97
  -2   0  -7   13.51    1.47
  -2   0  -7   11.64    0.89
  -2   0  -8  510.29   12.34
  -2   0  -8  499.11   12.81
  -2   0  -8  507.26   12.83
  -2   0  -8  511.68   12.11
  -2   0  -8  508.72   13.30
  -2   0  -9   24.79    1.65
  -2   0  -9   23.60    1.65
  -2   0 -10   16.59    1.15
  -2   0 -10    3.38    0.46
  -2   0 -11   -0.03    0.36
   2   1 -12   94.40    2.49
   2   1 -12   97.92    2.70
   2   1 -11   72.28    2.41
   2   1 -11   75.91    2.53
   2   1 -10    7.94    0.63
   2   1 -10    8.31    0.98
   2   1 -10    6.03    0.83
   2   1  -9    9.47    1.22
   2   1  -9    9.28    1.07
   2   1  -8  400.19   10.07
  -2  -1   8  380.54    9.70
  -2  -1   7   18.38    1.28
   2   1  -7   18.42    1.30
   2   1  -6  812.42   18.51
   2   1  -6  775.71   18.33
   2   1  -6  785.21   18.73
   2   1  -5  365.36    8.97
   2   1  -5  368.82    8.33
  -2  -1   4  573.58   12.94
   2   1  -4  571.58   12.78
  -2  -1   3   44.56    1.50
   2   1  -3   47.96    1.41
  -2  -1   2  164.40    4.02
   2   1  -2  157.99    3.89
  -2  -1   1  221.95    5.23
  -2  -1   1  215.49    5.26
  -2  -1   0  174.86    4.11
   2   1   0  173.56    4.09
  -2  -1   0  162.08    4.00
  -2  -1  -1  114.06    2.78
  -2  -1  -1  104.91    2.90
   2   1   1  105.92    2.76
  -2  -1  -1  109.40    2.88
  -2  -1  -2   36.67    1.30
   2   1   2   36.79    1.19
  -2  -1  -2   38.43    1.52
   2   1   3  337.90    7.64
  -2  -1  -3  329.90    7.78
  -2  -1  -3  328.75    8.26
  -2  -1  -4  145.25    3.77
  -2  -1  -4  153.42    4.55
   2   1   4  156.61    3.69
  -2  -1  -5    5.28    0.81
  -2  -1  -5    5.64    0.65
  -2  -1  -5    6.02    0.73
  -2  -1  -5    5.29    0.75
  -2  -1  -6  374.64    9.67
  -2  -1  -6  358.83    9.04
  -2  -1  -6  357.82    9.27
  -2  -1  -6  357.78    8.92
  -2  -1  -6  366.23    9.53
  -2  -1  -7   27.95    1.71
  -2  -1  -7   30.62    1.92
  -2  -1  -7   29.01    1.59
  -2  -1  -7   27.49    1.39
  -2  -1  -7   29.69    2.10
  -2  -1  -8    4.45    0.76
  -2  -1  -8    5.05    1.00
  -2  -1  -8    4.96    1.11
  -2  -1  -9  189.88    5.34
  -2  -1  -9  187.97    5.73
  -2  -1 -10   91.99    2.81
  -2  -1 -10   94.68    3.19
  -2  -1 -11    1.20    0.39
   2   2 -12   38.12    1.22
   2   2 -11   20.81    1.00
   2   2 -11   23.92    1.13
   2   2 -11   24.38    1.22
   2   2 -10    0.20    0.33
   2   2 -10    0.30    0.64
   2   2 -10   -0.05    0.58
   2   2  -9    6.33    0.93
  -2  -2   8  122.43    3.68
   2   2  -8  117.57    4.07
  -2  -2   7  309.79    8.05
   2   2  -7  308.52    8.76
   2   2  -7  317.10    8.39
   2   2  -7  333.53    8.60
   2   2  -6  219.42    6.21
  -2  -2   6  221.98    5.94
   2   2  -6  217.66    6.02
   2   2  -5  313.74    7.83
  -2  -2   5  316.03    7.42
   2   2  -5  307.16    7.28
  -2  -2   5  302.04    7.78
  -2  -2   4    9.70    0.65
   2   2  -4    8.85    0.58
   2   2  -3   40.65    1.38
  -2  -2   3   40.41    1.48
   2   2  -2   70.35    1.99
  -2  -2   2   66.22    2.08
  -2  -2   2   64.26    2.10
  -2  -2   1  202.71    5.14
  -2  -2   1  200.50    4.81
  -2  -2   0  100.92    2.96
  -2  -2   0  100.04    3.05
   2   2   1    4.85    0.46
  -2  -2  -1    4.65    0.51
  -2  -2  -1    4.29    0.57
   2   2   2   83.55    2.38
  -2  -2  -2   83.15    2.73
  -2  -2  -2   88.42    2.52
  -2  -2  -3   61.25    1.99
   2   2   3   63.55    1.88
  -2  -2  -3   59.93    2.39
  -2  -2  -4  545.90   12.53
  -2  -2  -4  554.92   13.23
  -2  -2  -4  550.39   12.96
   2   2   4  535.62   12.39
  -2  -2  -4  562.93   13.46
  -2  -2  -5  260.19    7.13
  -2  -2  -5  248.06    7.06
  -2  -2  -5  255.39    6.76
  -2  -2  -5  243.55    6.55
  -2  -2  -5  254.70    7.28
  -2  -2  -6   21.19    1.45
  -2  -2  -6   26.30    1.78
  -2  -2  -6   19.76    1.32
  -2  -2  -6   21.51    1.28
  -2  -2  -6   23.27    1.69
  -2  -2  -6   24.47    1.83
  -2  -2  -7    1.06    0.61
  -2  -2  -7    0.15    0.70
  -2  -2  -7    0.86    0.79
  -2  -2  -8    6.99    0.88
  -2  -2  -8    7.96    1.12
  -2  -2  -9    3.39    0.66
  -2  -2  -9    2.58    0.76
  -2  -2 -10   15.85    1.08
   2   3 -11    0.21    0.28
   2   3 -11   -0.17    0.36
   2   3 -10    0.88    0.40
   2   3 -10    0.76    0.61
   2   3  -9  197.31    5.89
  -2  -3   8  181.21    4.80
   2   3  -8  180.45    5.53
   2   3  -8  179.54    5.62
   2   3  -8  175.28    5.88
   2   3  -7    1.29    0.75
  -2  -3   7    1.97    0.57
  -2  -3   6  142.40    4.15
   2   3  -6  144.80    4.50
  -2  -3   5  256.71    6.65
   2   3  -5  259.84    6.46
   2   3  -5  265.22    7.09
   2   3  -5  267.71    7.00
  -2  -3   5  258.15    6.55
  -2  -3   4    5.22    0.66
   2   3  -4    4.59    0.74
  -2  -3   4    5.55    0.54
  -2  -3   4    5.77    0.60
   2   3  -4    4.61    0.56
   2   3  -4    5.20    0.72
  -2  -3   4    5.81    0.66
  -2  -3   3    0.72    0.33
  -2  -3   3    0.31    0.38
   2   3  -3    0.65    0.33
  -2  -3   3    0.45    0.41
  -2  -3   3    0.66    0.39
   2   3  -2  547.57   12.95
  -2  -3   2  574.27   13.08
  -2  -3   2  558.46   13.10
  -2  -3   2  568.69   12.68
  -2  -3   1 1069.68   23.75
  -2  -3   1 1052.55   23.22
   2   3   0  650.22   14.44
  -2  -3   0  625.69   14.51
  -2  -3   0  620.87   14.43
   2   3   1   60.66    1.95
  -2  -3  -1   58.72    2.12
  -2  -3  -1   53.73    1.92
  -2  -3  -1   60.78    2.06
  -2  -3  -2  697.54   15.78
   2   3   2  679.26   15.63
  -2  -3  -2  679.31   16.08
  -2  -3  -3  116.53    3.67
  -2  -3  -3  111.44    3.30
  -2  -3  -3  111.52    3.79
   2   3   3  110.67    3.20
  -2  -3  -4  271.22    6.90
  -2  -3  -4  284.11    7.63
  -2  -3  -4  286.96    7.89
  -2  -3  -5   32.59    1.67
  -2  -3  -5   33.53    1.99
  -2  -3  -5   31.66    2.01
  -2  -3  -5   31.71    2.09
  -2  -3  -6   16.25    1.52
  -2  -3  -6   17.95    1.61
  -2  -3  -6   16.53    1.24
  -2  -3  -6   13.98    1.09
  -2  -3  -6   14.78    1.59
  -2  -3  -7   38.56    2.33
  -2  -3  -7   41.46    2.33
  -2  -3  -7   37.07    2.46
  -2  -3  -8   11.97    1.29
  -2  -3  -8   13.43    1.14
  -2  -3  -9   54.55    2.30
  -2  -3  -9   54.41    2.11
  -2  -3 -10   13.06    0.85
  -2  -3 -10   11.53    0.71
   2   4 -11   10.85    0.62
   2   4 -10   12.27    0.79
   2   4  -9    6.21    1.09
  -2  -4   8   32.44    1.31
   2   4  -8   33.43    2.12
  -2  -4   7  393.49    9.48
   2   4  -7  392.67   10.49
   2   4  -7  410.01   10.48
  -2  -4   6  135.40    3.81
   2   4  -6  133.19    4.54
   2   4  -5  268.76    6.76
  -2  -4   5  265.98    6.55
  -2  -4   5  254.82    6.74
   2   4  -5  249.19    7.12
  -2  -4   5  251.66    6.69
   2   4  -5  252.97    6.62
   2   4  -4   24.75    1.32
   2   4  -4   26.00    1.55
  -2  -4   4   22.72    1.28
  -2  -4   4   22.36    1.29
  -2  -4   4   23.98    1.40
   2   4  -4   26.53    1.35
  -2  -4   4   24.52    1.19
   2   4  -3    1.62    0.50
  -2  -4   3    1.45    0.48
   2   4  -3    2.27    0.60
  -2  -4   3    1.40    0.50
  -2  -4   3    1.14    0.44
  -2  -4   3    2.20    0.47
  -2  -4   2  171.56    4.56
  -2  -4   2  170.91    4.92
  -2  -4   2  182.68    4.96
  -2  -4   1  352.09    8.76
  -2  -4   1  340.12    8.72
  -2  -4   1  337.02    8.44
  -2  -4   1  360.43    8.79
   2   4  -1  361.89    8.70
  -2  -4   1  365.37    8.61
  -2  -4   0   98.76    3.13
  -2  -4   0  100.72    2.79
  -2  -4   0  100.09    3.20
  -2  -4   0   95.54    3.08
   2   4   0  100.85    3.13
  -2  -4  -1  162.32    4.60
  -2  -4  -1  163.97    4.73
  -2  -4  -1  172.99    4.37
  -2  -4  -1  175.13    4.79
  -2  -4  -1  164.20    4.84
   2   4   1  168.08    4.67
   2   4   2    1.27    0.48
  -2  -4  -2    1.06    0.39
   2   4   2    1.17    0.48
  -2  -4  -2    2.20    0.60
  -2  -4  -2    1.23    0.46
  -2  -4  -2    1.33    0.50
  -2  -4  -2    1.54    0.68
  -2  -4  -3  169.47    5.04
  -2  -4  -3  187.37    5.51
   2   4   3  180.79    5.05
  -2  -4  -3  183.37    5.10
  -2  -4  -3  188.28    5.70
   2   4   3  192.17    5.03
  -2  -4  -4   19.50    1.52
  -2  -4  -4   16.71    1.60
  -2  -4  -5   43.90    2.04
  -2  -4  -5   43.42    2.34
  -2  -4  -5   41.03    2.43
  -2  -4  -5   39.63    2.43
  -2  -4  -6   23.79    1.82
  -2  -4  -6   25.00    1.38
  -2  -4  -6   27.86    1.98
  -2  -4  -6   25.64    1.57
  -2  -4  -6   22.02    1.88
  -2  -4  -7  121.48    4.45
  -2  -4  -7  124.52    4.38
  -2  -4  -7  129.56    4.08
  -2  -4  -8   43.61    2.15
  -2  -4  -9    0.88    0.42
  -2  -4  -9    0.75    0.44
   2   5 -10    0.41    0.31
   2   5 -10    0.56    0.51
   2   5  -9    3.58    0.53
   2   5  -9    1.80    0.77
  -2  -5   8   29.46    1.14
   2   5  -8   26.14    1.84
   2   5  -8   31.56    1.85
   2   5  -7   37.02    2.16
  -2  -5   7   42.29    1.56
  -2  -5   6  266.38    6.71
   2   5  -6  275.79    7.68
  -2  -5   5  144.46    4.52
  -2  -5   5  153.94    4.16
   2   5  -5  153.52    4.90
   2   5  -5  149.79    4.49
   2   5  -5  153.12    4.60
  -2  -5   5  149.00    4.51
  -2  -5   4   16.61    1.00
  -2  -5   4   15.66    1.16
  -2  -5   4   16.82    1.21
   2   5  -4   17.16    1.25
   2   5  -4   15.80    1.33
  -2  -5   4   14.26    1.22
   2   5  -4   14.83    1.14
  -2  -5   3  141.46    3.83
  -2  -5   3  129.88    4.24
   2   5  -3  136.95    4.33
   2   5  -3  138.00    4.26
   2   5  -3  136.85    4.22
  -2  -5   3  136.79    4.33
  -2  -5   3  135.20    4.25
  -2  -5   2   60.60    2.06
  -2  -5   2   57.78    2.42
   2   5  -2   58.68    2.43
  -2  -5   2   58.15    2.39
   2   5  -2   63.52    2.45
   2   5  -1    6.11    0.86
  -2  -5   1    4.86    0.75
   2   5  -1    6.25    0.83
  -2  -5   1    4.76    0.73
  -2  -5   1    6.54    0.82
  -2  -5   0   30.85    1.68
   2   5   0   32.14    1.75
  -2  -5   0   32.72    1.66
  -2  -5   0   33.49    1.72
  -2  -5   0   33.45    1.44
   2   5   0   32.90    1.72
  -2  -5   0   29.47    1.61
  -2  -5  -1   45.21    2.05
  -2  -5  -1   44.12    2.05
   2   5   1   44.67    2.06
   2   5   1   45.04    2.01
  -2  -5  -1   45.32    2.16
  -2  -5  -1   44.36    1.76
  -2  -5  -2  249.52    6.74
  -2  -5  -2  243.26    6.89
  -2  -5  -2  246.04    6.39
   2   5   2  242.11    6.78
  -2  -5  -2  249.58    6.73
   2   5   2  248.18    6.65
  -2  -5  -2  235.32    7.01
   2   5   3    2.31    0.66
   2   5   3    2.91    0.67
  -2  -5  -3    1.64    0.75
  -2  -5  -3    2.22    0.63
  -2  -5  -3    2.80    0.63
  -2  -5  -3    1.91    0.54
  -2  -5  -3    2.54    0.87
  -2  -5  -4  658.63   16.34
  -2  -5  -4  681.54   15.81
  -2  -5  -4  643.03   16.62
  -2  -5  -5    9.93    1.20
  -2  -5  -5    8.67    1.26
  -2  -5  -5    9.44    0.96
  -2  -5  -5    8.46    0.89
  -2  -5  -6  152.15    5.03
  -2  -5  -6  159.97    5.35
  -2  -5  -6  169.80    4.81
  -2  -5  -7   37.26    1.92
  -2  -5  -7   42.12    2.13
  -2  -5  -8   23.94    1.15
  -2  -5  -8   22.14    1.27
   2   6 -10   22.47    1.02
   2   6  -9    9.09    0.63
   2   6  -9    8.95    0.89
   2   6  -8   48.08    1.70
   2   6  -8   46.02    2.23
   2   6  -8   53.01    2.23
  -2  -6   7    2.77    0.45
   2   6  -7    3.60    0.49
   2   6  -7    2.89    0.80
   2   6  -6    1.78    0.54
  -2  -6   6    1.90    0.46
   2   6  -6    1.32    0.40
   2   6  -6    1.29    0.71
  -2  -6   5   77.92    2.47
   2   6  -5   76.30    2.34
   2   6  -5   77.02    3.03
   2   6  -5   67.10    2.73
  -2  -6   5   72.50    2.82
   2   6  -4  350.45    9.37
  -2  -6   4  359.22    9.32
   2   6  -4  348.35    9.27
  -2  -6   4  339.67    9.20
  -2  -6   4  363.82    8.70
   2   6  -4  370.65    9.34
  -2  -6   3  358.43    8.55
  -2  -6   3  344.47    9.15
   2   6  -3  333.82    8.88
  -2  -6   3  351.24    9.16
   2   6  -3  344.00    9.28
   2   6  -3  346.09    9.14
  -2  -6   2    5.72    0.73
  -2  -6   2    5.17    0.87
   2   6  -2    4.57    0.91
  -2  -6   2    5.71    0.88
  -2  -6   2    5.46    0.83
   2   6  -1   35.59    2.01
   2   6  -1   38.97    2.05
   2   6   0   -0.06    0.65
  -2  -6   0   -0.12    0.51
  -2  -6   0   -0.06    0.64
   2   6   0    0.32    0.60
  -2  -6   0    0.24    0.51
  -2  -6  -1   13.92    1.28
  -2  -6  -1   13.36    1.17
  -2  -6  -1   14.91    1.27
   2   6   1   14.41    1.27
   2   6   1   11.28    1.23
   2   6   2  410.15   10.82
  -2  -6  -2  442.24   10.73
  -2  -6  -2  409.75   10.77
  -2  -6  -2  406.98   10.62
  -2  -6  -2  406.42   10.94
   2   6   2  446.61   10.76
  -2  -6  -3  108.29    3.88
  -2  -6  -3  113.91    3.48
  -2  -6  -3  112.60    3.64
   2   6   3  110.39    3.65
  -2  -6  -4  123.51    4.27
  -2  -6  -4  140.62    4.02
  -2  -6  -5   53.89    1.99
  -2  -6  -5   58.91    1.80
  -2  -6  -5   58.43    2.40
  -2  -6  -6   -0.08    0.18
  -2  -6  -6    0.17    0.39
  -2  -6  -6    0.05    0.56
  -2  -6  -7    2.97    0.60
  -2  -6  -7    3.65    0.47
   2   7  -8  111.86    3.36
   2   7  -7    3.75    0.70
   2   7  -6   12.54    1.03
  -2  -7   6   12.77    0.73
   2   7  -5    1.61    0.60
  -2  -7   5    0.83    0.44
  -2  -7   5    2.04    0.58
   2   7  -5    0.69    0.53
  -2  -7   4   49.70    1.94
  -2  -7   4   53.75    2.30
   2   7  -4   51.54    2.11
   2   7  -4   51.10    2.30
  -2  -7   3  269.53    7.34
   2   7  -3  270.17    7.37
  -2  -7   3  257.84    6.76
  -2  -7   2  120.03    3.68
  -2  -7   2  131.98    4.27
   2   7  -1   42.03    2.20
   2   7   0    2.01    0.79
  -2  -7   0    1.93    0.68
  -2  -7  -1  113.90    3.83
   2   7   1  114.51    3.88
  -2  -7  -2  158.35    3.23
   2   7   2  151.55    3.19
   2   7   3   -0.04    0.43
  -2  -7  -3    0.35    0.38
  -2  -7  -3    0.08    0.16
  -2  -7  -4    8.74    1.01
  -2  -7  -4    7.40    0.59
  -2  -7  -5   20.76    1.27
  -2  -7  -5   18.78    0.86
   2   8  -6    2.77    0.50
   2   8  -5    0.22    0.31
  -2  -8   5    0.60    0.39
   2   8  -4    2.28    0.58
  -2  -8   4    2.73    0.57
   2   8  -3    1.40    0.64
  -2  -8   3    0.97    0.56
  -2  -8   2    1.26    0.55
   2   8  -1    8.15    0.93
  -2  -8   0   20.59    1.27
   2   8   0   19.03    1.27
   2   8   1    4.50    0.69
  -2  -8  -1    4.67    0.65
   2   8   2    0.15    0.39
  -2  -8  -2    0.03    0.28
  -2  -9   3    2.71    0.40
  -2  -9   2    0.81    0.37
   2   9  -1    0.36    0.36
  -2  -9   1   -0.02    0.29
   3 -10   0    1.84    0.46
   3 -10   0    1.77    0.36
   3 -10   1    0.20    0.40
   3 -10   2   16.66    0.86
   3 -10   3   18.05    0.85
   3  -9  -3   39.86    1.77
   3  -9  -2    5.79    0.82
   3  -9  -2    4.64    0.53
  -3   9   1    3.16    0.73
   3  -9  -1    4.13    0.78
   3  -9  -1    3.24    0.54
  -3   9   0    2.05    0.73
   3  -9   0    1.74    0.51
  -3   9  -1    4.55    0.90
  -3   9  -1    3.88    0.62
   3  -9   2    1.42    0.52
  -3   9  -2    1.36    0.58
  -3   9  -3    2.29    0.62
  -3   9  -3    2.12    0.74
   3  -9   3    1.98    0.53
  -3   9  -4   37.25    1.79
   3  -9   4   36.75    1.52
  -3   9  -4   36.44    1.70
  -3   9  -5    9.69    0.91
   3  -9   5    8.80    0.64
  -3   9  -6    3.94    0.63
   3  -8  -5    0.79    0.53
   3  -8  -4    9.61    1.07
  -3   8   4    7.75    0.67
   3  -8  -3    1.18    0.72
   3  -8  -3    1.31    0.42
  -3   8   3    1.60    0.50
  -3   8   2   10.88    1.14
   3  -8  -2   11.99    0.91
   3  -8  -2   13.00    1.35
  -3   8   2   11.94    1.03
   3  -8  -1    8.62    0.83
  -3   8   1    8.61    0.97
  -3   8   1    9.37    1.18
   3  -8   0   12.46    1.01
  -3   8   0   12.32    1.04
  -3   8   0   12.12    1.18
  -3   8   0   13.62    1.41
  -3   8  -1  257.57    6.96
  -3   8  -1  249.74    7.20
  -3   8  -1  273.91    7.71
   3  -8   2   34.98    1.67
  -3   8  -2   30.89    1.91
  -3   8  -2   35.11    1.83
  -3   8  -3    0.42    0.72
   3  -8   3    1.23    0.54
  -3   8  -3    0.38    0.67
  -3   8  -4    0.06    0.66
   3  -8   4    0.53    0.46
  -3   8  -4    0.61    0.74
  -3   8  -5    0.11    0.58
   3  -8   5    0.33    0.41
  -3   8  -5    0.38    0.68
  -3   8  -5    0.40    0.48
  -3   8  -6   27.95    1.42
  -3   8  -7    1.93    0.67
  -3   8  -7    3.26    0.58
  -3   8  -8   13.76    0.84
  -3   8  -8   13.70    0.92
   3  -7  -7    5.70    0.67
   3  -7  -6    4.87    0.82
  -3   7   6    4.22    0.54
   3  -7  -5    7.82    1.10
  -3   7   5    7.80    0.75
  -3   7   5    6.47    0.65
   3  -7  -4    8.27    1.17
  -3   7   4   10.38    0.88
  -3   7   4    7.84    0.76
  -3   7   3    3.94    0.82
   3  -7  -3    3.24    0.92
   3  -7  -3    3.97    0.59
  -3   7   3    3.60    0.68
  -3   7   3    3.78    0.69
   3  -7  -2  120.60    3.70
   3  -7  -2  130.24    3.74
  -3   7   2  116.97    4.32
  -3   7   2  122.97    3.87
  -3   7   2  127.32    3.84
  -3   7   2  129.16    4.40
   3  -7  -1   33.80    1.57
  -3   7   1   33.70    2.06
  -3   7   1   31.72    1.65
  -3   7   1   30.65    1.99
  -3   7   0    0.75    0.80
   3  -7   0    0.16    0.45
  -3   7   0    0.70    0.67
  -3   7  -1   85.66    3.15
   3  -7   1   88.42    2.93
  -3   7  -1   86.05    3.55
  -3   7  -1   86.63    3.18
   3  -7   2   62.72    2.31
  -3   7  -2   65.31    2.62
  -3   7  -2   57.57    2.59
  -3   7  -2   61.01    2.91
   3  -7   3   45.56    1.87
  -3   7  -3   41.29    2.12
  -3   7  -3   41.65    2.36
  -3   7  -3   46.83    2.47
   3  -7   4   96.70    3.08
   3  -7   4   98.36    3.08
  -3   7  -4   97.67    3.55
  -3   7  -4   85.86    3.57
  -3   7  -4   99.89    3.72
  -3   7  -5   62.21    2.68
  -3   7  -5   56.11    2.39
   3  -7   5   63.79    2.21
  -3   7  -6  296.24    7.82
  -3   7  -6  290.26    7.45
  -3   7  -7   26.78    1.48
  -3   7  -7   28.70    1.70
  -3   7  -8    0.66    0.46
  -3   7  -8    0.66    0.60
  -3   7  -9    0.54    0.39
   3  -6  -8   22.31    1.20
  -3   6   8   21.25    0.85
   3  -6  -7    8.70    1.00
  -3   6   7    9.82    0.72
   3  -6  -6    6.65    1.04
  -3   6   6    6.49    0.67
  -3   6   6    7.90    0.66
   3  -6  -5  137.99    4.96
  -3   6   5  147.46    4.20
  -3   6   5  148.90    4.08
   3  -6  -4   26.06    1.87
   3  -6  -4   24.81    1.19
   3  -6  -4   23.26    1.82
  -3   6   4   27.59    1.39
  -3   6   4   24.95    1.29
  -3   6   3   17.57    1.41
  -3   6   3   18.35    1.16
  -3   6   3   16.49    1.40
   3  -6  -3   19.71    1.09
  -3   6   3   16.98    1.10
   3  -6  -2  109.83    3.27
  -3   6   2  108.08    3.33
  -3   6   2  105.41    3.88
  -3   6   2  109.95    3.31
  -3   6   2  104.49    3.86
   3  -6  -1  263.14    6.70
  -3   6   1  266.79    6.76
  -3   6   1  258.12    7.44
  -3   6   0   89.89    2.90
  -3   6   0   92.80    3.00
  -3   6   0   89.45    3.49
   3  -6   1   63.33    2.26
  -3   6  -1   64.81    2.43
  -3   6  -1   64.88    2.84
  -3   6  -2   29.09    1.85
   3  -6   2   30.01    1.41
  -3   6  -3  105.69    3.47
   3  -6   3  114.74    3.36
  -3   6  -3  118.81    3.80
  -3   6  -3  107.39    3.77
  -3   6  -3  109.49    3.98
  -3   6  -4   14.27    1.10
  -3   6  -4   12.87    1.28
   3  -6   4   13.77    0.93
  -3   6  -4   13.10    1.27
  -3   6  -4   14.00    0.97
  -3   6  -5  369.30    9.59
   3  -6   5  368.73    8.82
   3  -6   5  367.57    8.82
  -3   6  -5  332.02    9.46
  -3   6  -5  375.58    9.58
  -3   6  -5  372.05    9.34
  -3   6  -5  361.71    9.06
  -3   6  -6  604.94   14.61
  -3   6  -6  594.96   14.35
  -3   6  -6  617.37   14.87
  -3   6  -7  325.09    8.46
  -3   6  -7  326.54    8.63
  -3   6  -7  318.07    8.25
  -3   6  -8  205.94    5.83
  -3   6  -8  214.77    5.93
  -3   6  -8  208.63    5.71
  -3   6  -9    1.10    0.48
  -3   6 -10   -0.06    0.10
   3  -5  -9    0.04    0.10
   3  -5  -8   29.29    1.65
  -3   5   8   31.96    1.26
   3  -5  -7   11.33    1.23
  -3   5   7   13.98    0.91
   3  -5  -6  240.82    7.40
  -3   5   6  263.86    6.60
   3  -5  -5  528.91   13.83
  -3   5   5  567.39   12.88
   3  -5  -5  520.85   13.75
   3  -5  -4  158.84    5.32
   3  -5  -4  170.33    4.40
   3  -5  -4  170.42    5.35
  -3   5   4  167.19    4.60
  -3   5   4  169.48    4.62
  -3   5   3   11.34    1.09
  -3   5   3   12.71    1.14
  -3   5   3   11.88    0.85
  -3   5   3   14.00    0.91
   3  -5  -3   13.74    0.83
  -3   5   2    4.07    0.78
   3  -5  -2    3.94    0.53
  -3   5   2    3.83    0.52
  -3   5   2    4.29    0.79
   3  -5  -1   19.81    1.03
  -3   5   1   17.50    0.97
  -3   5   1   19.87    1.40
  -3   5   0  163.48    4.98
  -3   5   0  165.70    4.35
  -3   5   0  169.84    4.38
  -3   5   0  159.15    4.37
   3  -5   1  128.50    3.58
  -3   5  -1  130.29    3.58
  -3   5  -1  122.80    3.48
  -3   5  -1  134.66    3.80
  -3   5  -2   21.09    1.18
   3  -5   2   20.50    1.07
  -3   5  -2   20.93    1.17
  -3   5  -2   20.00    1.40
  -3   5  -3   92.57    2.99
  -3   5  -3   93.63    3.11
  -3   5  -3   89.17    2.74
   3  -5   3   91.57    2.78
  -3   5  -3   93.35    3.33
  -3   5  -3   95.24    3.36
  -3   5  -4    7.68    0.95
  -3   5  -4    7.71    0.83
   3  -5   4    7.52    0.65
  -3   5  -4    8.06    0.75
  -3   5  -4    7.89    0.91
  -3   5  -4    7.25    0.91
  -3   5  -4    5.91    0.88
  -3   5  -5   60.69    2.54
  -3   5  -5   66.21    2.50
   3  -5   5   65.27    2.08
  -3   5  -5   63.51    2.57
  -3   5  -5   63.11    2.57
  -3   5  -5   63.84    2.37
  -3   5  -6   30.36    1.75
  -3   5  -6   32.48    1.73
  -3   5  -6   31.14    1.64
  -3   5  -7    6.71    0.89
  -3   5  -7    4.50    0.84
  -3   5  -8   95.01    3.36
  -3   5  -8  105.30    3.46
  -3   5  -9    5.69    0.78
  -3   5  -9    5.67    0.81
  -3   5 -10    8.38    0.75
  -3   4   9   11.44    0.69
   3  -4  -8   18.22    1.40
   3  -4  -8   16.65    1.18
  -3   4   8   20.76    1.06
   3  -4  -7    2.22    0.83
   3  -4  -7    1.34    0.58
  -3   4   7    1.41    0.51
   3  -4  -6  295.70    8.14
   3  -4  -6  271.52    7.63
  -3   4   6  291.79    7.07
   3  -4  -5   52.15    2.48
   3  -4  -5   54.77    2.18
   3  -4  -5   51.55    2.42
  -3   4   5   54.77    1.93
   3  -4  -4   30.78    1.75
   3  -4  -4   31.23    1.20
   3  -4  -4   32.83    1.52
   3  -4  -4   26.65    1.60
  -3   4   4   29.98    1.32
  -3   4   4   28.92    1.55
  -3   4   3  151.02    4.52
   3  -4  -3  152.16    4.02
   3  -4  -3  163.81    4.34
  -3   4   3  148.40    4.56
  -3   4   3  157.95    4.16
  -3   4   2  124.83    3.33
   3  -4  -2  124.40    3.35
  -3   4   2  122.39    3.82
  -3   4   2  115.50    3.33
  -3   4   2  124.82    3.41
  -3   4   2  123.02    3.82
  -3   4   1   44.60    1.50
  -3   4   1   45.51    2.00
   3  -4  -1   46.28    1.62
  -3   4   1   45.45    1.96
  -3   4   0    1.77    0.55
  -3   4   0    0.93    0.25
  -3   4   0    2.56    0.60
   3  -4   1  731.98   16.56
  -3   4  -2   64.43    2.25
  -3   4  -2   74.10    2.63
   3  -4   2   70.17    2.16
  -3   4  -2   69.54    2.56
  -3   4  -3   -0.07    0.35
  -3   4  -3    0.64    0.49
  -3   4  -3    0.45    0.47
   3  -4   3    0.14    0.31
  -3   4  -3    0.33    0.34
  -3   4  -4  275.64    7.49
  -3   4  -4  289.51    7.30
   3  -4   4  292.87    6.90
  -3   4  -4  296.11    7.55
  -3   4  -4  297.67    7.24
  -3   4  -4  291.90    7.15
  -3   4  -5   50.03    2.10
  -3   4  -5   50.38    2.11
   3  -4   5   53.18    1.70
  -3   4  -5   51.03    2.11
  -3   4  -5   53.26    2.02
  -3   4  -6    5.28    0.82
  -3   4  -6    7.35    0.78
  -3   4  -6    6.12    0.80
  -3   4  -7   75.29    2.85
  -3   4  -7   70.80    2.79
  -3   4  -8   41.83    2.02
  -3   4  -8   46.64    2.14
  -3   4  -9   39.81    1.86
  -3   4 -10   35.61    1.64
  -3   4 -11    1.72    0.39
   3  -3 -10   15.00    0.85
  -3   3  10   17.62    0.74
   3  -3  -9    0.33    0.45
   3  -3  -9    0.16    0.49
  -3   3   9    0.25    0.35
   3  -3  -8    1.45    0.63
   3  -3  -8    2.49    0.70
   3  -3  -8    2.11    0.66
   3  -3  -7  100.61    3.69
   3  -3  -7   97.34    3.44
   3  -3  -6    5.69    0.91
   3  -3  -6    5.66    0.82
   3  -3  -6    6.75    0.84
  -3   3   6    7.19    0.62
   3  -3  -5    5.63    0.81
   3  -3  -5    4.58    0.70
  -3   3   5    5.36    0.57
   3  -3  -5    3.95    0.73
   3  -3  -4    1.83    0.53
   3  -3  -4    1.62    0.46
   3  -3  -4    2.12    0.33
  -3   3   4    1.17    0.37
   3  -3  -4    1.55    0.52
   3  -3  -3  695.79   15.86
  -3   3   3  719.56   16.40
  -3   3   2   89.75    2.92
   3  -3  -2   89.35    2.58
  -3   3   1  407.74    9.61
   3  -3  -1  416.74    9.62
  -3   3   1  412.94   10.00
  -3   3   0   76.47    2.61
  -3   3   0   76.72    2.21
  -3   3  -1   30.09    1.11
   3  -3   1   28.60    1.21
  -3   3  -2   19.99    1.17
   3  -3   2   19.50    0.97
  -3   3  -3  120.29    3.52
   3  -3   3  115.13    3.08
   3  -3   4  150.62    3.86
  -3   3  -4  152.89    4.18
  -3   3  -4  155.01    4.35
  -3   3  -4  149.75    4.08
  -3   3  -5    3.94    0.60
  -3   3  -5    3.42    0.61
  -3   3  -5    4.28    0.60
  -3   3  -5    4.10    0.59
  -3   3  -5    3.28    0.57
  -3   3  -5    2.94    0.50
  -3   3  -6  752.14   18.01
  -3   3  -6  786.87   17.82
  -3   3  -6  764.86   17.92
  -3   3  -6  803.26   18.01
  -3   3  -7    3.63    0.68
  -3   3  -7    4.90    0.69
  -3   3  -7    4.24    0.60
  -3   3  -8    2.64    0.64
  -3   3  -8    3.29    0.62
  -3   3  -8    3.88    0.66
  -3   3  -8    2.25    0.72
  -3   3  -9    7.37    0.83
  -3   3  -9    6.94    0.73
  -3   3  -9    8.02    0.92
  -3   3 -10  290.66    4.21
  -3   3 -10  277.79    3.82
  -3   3 -11    5.19    0.58
   3  -2 -10   11.54    0.86
   3  -2 -10   11.37    0.87
   3  -2  -9    4.43    0.72
   3  -2  -9    6.26    0.81
   3  -2  -8  296.98    7.92
   3  -2  -7  124.03    4.12
   3  -2  -7  130.57    4.29
   3  -2  -6  171.20    5.04
   3  -2  -6  180.99    5.07
   3  -2  -5   24.28    1.31
  -3   2   5   25.55    1.18
  -3   2   4  236.21    6.07
   3  -2  -4  236.21    5.99
   3  -2  -4  244.21    5.78
   3  -2  -3   61.81    1.93
  -3   2   3   62.12    2.17
  -3   2   2  295.96    7.40
  -3   2   2  298.36    7.09
  -3   2   1   97.87    2.79
  -3   2   1   99.36    3.03
  -3   2   1   96.40    2.74
  -3   2   0   32.81    1.25
  -3   2   0   32.95    1.25
  -3   2   0   31.75    1.46
  -3   2  -1   66.48    1.97
  -3   2  -2  170.01    4.41
  -3   2  -2  167.62    4.69
  -3   2  -3   18.02    1.05
  -3   2  -4  374.00    8.93
   3  -2   4  374.92    8.65
  -3   2  -4  367.57    8.95
  -3   2  -5  433.54   10.00
  -3   2  -5  423.27    9.99
  -3   2  -5  416.91   10.04
  -3   2  -5  413.95    9.91
  -3   2  -5  393.78    9.71
  -3   2  -6  177.92    4.99
  -3   2  -6  185.93    5.03
  -3   2  -6  187.29    5.09
  -3   2  -6  180.27    5.05
  -3   2  -7  131.21    4.06
  -3   2  -7  140.64    4.11
  -3   2  -7  136.47    4.09
  -3   2  -7  136.44    4.17
  -3   2  -7  142.36    4.10
  -3   2  -8    0.86    0.46
  -3   2  -8    0.95    0.50
  -3   2  -8    1.44    0.66
  -3   2  -8    0.88    0.49
  -3   2  -8    1.24    0.53
  -3   2  -9   26.48    1.49
  -3   2  -9   27.09    1.41
  -3   2  -9   29.08    1.34
  -3   2  -9   28.49    1.69
  -3   2 -10    0.84    0.60
  -3   2 -11    9.76    0.77
   3  -1 -11   91.98    2.58
   3  -1 -11   82.85    2.49
   3  -1 -10   13.77    1.01
   3  -1 -10   11.92    0.94
   3  -1  -9   39.00    1.85
  -3   1   9   36.93    1.90
   3  -1  -8 1163.64   26.24
   3  -1  -8 1116.73   26.23
   3  -1  -7  232.74    6.42
   3  -1  -6  295.21    7.61
   3  -1  -5    0.60    0.23
  -3   1   4    1.32    0.30
  -3   1   3  405.60    9.68
  -3   1   3  409.48    9.47
  -3   1   2 1096.21   24.36
  -3   1   2 1078.96   24.14
  -3   1   1   70.88    2.29
  -3   1   1   68.32    2.12
  -3   1   0   27.82    1.15
  -3   1   0   25.79    1.26
  -3   1  -1    9.54    0.77
  -3   1  -1    8.73    0.67
  -3   1  -2  193.80    4.84
  -3   1  -2  192.13    5.00
  -3   1  -2  191.96    4.95
  -3   1  -3    0.18    0.28
  -3   1  -3    0.14    0.38
  -3   1  -3    0.67    0.52
  -3   1  -4   38.13    1.33
  -3   1  -4   37.22    1.81
  -3   1  -5   15.83    0.93
  -3   1  -5   13.82    0.99
  -3   1  -5   15.17    0.92
  -3   1  -6    8.70    0.86
  -3   1  -6    7.66    0.73
  -3   1  -6    8.58    0.85
  -3   1  -6    7.80    0.76
  -3   1  -6   10.43    1.22
  -3   1  -7    1.54    0.55
  -3   1  -7    1.51    0.64
  -3   1  -7    1.45    0.52
  -3   1  -7    1.12    0.53
  -3   1  -8    8.72    0.95
  -3   1  -8    8.00    1.04
  -3   1  -8    9.34    0.85
  -3   1  -8    7.83    0.88
  -3   1  -8    8.46    0.89
  -3   1  -9  116.44    3.89
  -3   1  -9  110.70    3.47
  -3   1  -9  111.44    3.57
  -3   1  -9  114.20    3.46
  -3   1  -9  114.26    3.27
  -3   1 -10  431.73    5.14
  -3   1 -10   -0.09    0.14
  -3   1 -11    6.20    0.62
   3   0 -11   42.23    1.58
   3   0 -11   40.19    1.54
   3   0 -10    0.30    0.46
  -3   0   9    3.38    0.74
   3   0  -9    3.12    0.69
   3   0  -8  500.08   12.28
  -3   0   8  495.00   12.45
   3   0  -7  161.92    4.87
   3   0  -7  174.87    5.35
   3   0  -6   -0.09    0.42
   3   0  -6    0.52    0.59
   3   0  -5    8.03    0.50
   3   0  -5    7.21    0.69
   3   0  -5    6.88    0.87
  -3   0   4   -0.02    0.28
   3   0  -4    1.60    0.30
  -3   0   3    1.30    0.36
  -3   0   2    1.26    0.39
  -3   0   1    0.91    0.45
  -3   0   1    1.43    0.47
  -3   0   1    0.95    0.39
  -3   0   0   13.01    0.78
  -3   0  -1  136.32    3.64
  -3   0  -1  135.62    3.52
  -3   0  -1  131.92    3.47
  -3   0  -2  164.91    4.29
  -3   0  -2  164.04    4.38
  -3   0  -3    6.79    0.57
  -3   0  -3    6.39    0.78
  -3   0  -4  229.73    6.30
   3   0   4  227.48    5.49
  -3   0  -4  227.40    5.59
  -3   0  -5  135.37    3.91
  -3   0  -5  125.97    3.87
  -3   0  -5  130.93    3.93
  -3   0  -5  127.06    3.58
  -3   0  -5  136.16    4.39
  -3   0  -5  126.77    3.92
  -3   0  -6    7.16    0.83
  -3   0  -6    5.82    0.81
  -3   0  -6    6.82    0.70
  -3   0  -6    6.93    0.86
  -3   0  -6    8.41    0.87
  -3   0  -6    8.71    1.19
  -3   0  -7    7.53    0.94
  -3   0  -7    6.55    0.92
  -3   0  -7    7.44    0.76
  -3   0  -7    7.18    0.83
  -3   0  -7    7.37    0.91
  -3   0  -7    6.78    1.21
  -3   0  -8  261.63    7.11
  -3   0  -8  255.54    7.18
  -3   0  -8  250.12    6.61
  -3   0  -8  267.02    6.73
  -3   0  -9   59.61    2.48
  -3   0  -9   54.08    2.26
  -3   0  -9   59.15    2.24
  -3   0 -10  521.90    5.42
  -3   0 -10  464.94    4.12
   3   1 -11   48.43    1.76
   3   1 -10   -0.09    0.49
  -3  -1   9   23.45    1.36
   3   1  -9   25.40    1.54
   3   1  -8   53.80    2.63
   3   1  -8   48.70    2.24
  -3  -1   8   52.51    2.32
   3   1  -7   22.34    1.62
   3   1  -7   21.88    1.39
  -3  -1   7   22.50    1.55
   3   1  -6   16.11    1.35
   3   1  -6   15.26    1.09
  -3  -1   6   14.38    1.28
  -3  -1   5  164.87    4.29
   3   1  -5  165.10    4.13
  -3  -1   5  161.40    4.61
   3   1  -5  160.21    4.53
   3   1  -5  169.07    4.97
  -3  -1   5  160.02    4.82
   3   1  -4  922.88   20.62
  -3  -1   4  927.34   20.86
  -3  -1   3  431.76   10.12
   3   1  -3  420.97    9.84
  -3  -1   2  795.90   18.08
  -3  -1   2  797.31   18.05
   3   1  -2  795.91   17.85
  -3  -1   1   56.88    1.99
  -3  -1   1   57.42    1.92
  -3  -1   0  184.59    4.52
   3   1   0  186.06    4.51
  -3  -1  -1   21.40    1.12
   3   1   1   22.18    1.00
  -3  -1  -1   22.32    1.04
  -3  -1  -2    2.51    0.46
  -3  -1  -2    2.72    0.56
   3   1   2    2.14    0.39
   3   1   3  168.88    4.25
  -3  -1  -3  163.18    4.43
  -3  -1  -3  165.27    4.76
  -3  -1  -4  154.71    4.23
   3   1   4  170.23    4.11
  -3  -1  -4  155.27    4.58
  -3  -1  -4  159.84    4.64
  -3  -1  -4  161.87    4.51
  -3  -1  -4  160.46    4.48
  -3  -1  -4  153.35    4.57
  -3  -1  -4  160.19    4.89
  -3  -1  -5  138.94    4.37
  -3  -1  -5  135.11    4.31
  -3  -1  -5  135.48    4.15
  -3  -1  -5  139.43    4.23
  -3  -1  -5  145.15    4.72
  -3  -1  -6   60.15    2.41
  -3  -1  -6   57.61    2.40
  -3  -1  -6   56.20    2.51
  -3  -1  -6   54.22    2.30
  -3  -1  -6   52.91    2.78
  -3  -1  -7   16.15    1.16
  -3  -1  -7   15.16    1.22
  -3  -1  -7   16.54    1.32
  -3  -1  -7   15.34    1.33
  -3  -1  -7   17.51    1.66
  -3  -1  -8   67.34    2.41
  -3  -1  -8   75.83    2.93
  -3  -1  -8   74.01    2.90
  -3  -1  -8   72.33    2.79
  -3  -1  -9   24.59    1.42
  -3  -1 -10   83.44    1.75
  -3  -1 -10    0.03    0.13
   3   2 -11   -0.06    0.09
   3   2 -10    1.94    0.61
  -3  -2   9    1.74    0.52
   3   2  -9    2.67    0.82
   3   2  -9    1.37    0.61
  -3  -2   8  471.59   11.60
   3   2  -8  490.29   12.45
   3   2  -8  474.84   11.95
  -3  -2   7   13.97    1.19
   3   2  -7   12.89    1.37
   3   2  -7   13.92    1.20
  -3  -2   6    4.37    0.87
   3   2  -6    4.56    0.91
   3   2  -6    4.53    0.75
  -3  -2   6    4.52    0.66
  -3  -2   5    7.03    0.87
  -3  -2   5    8.73    0.73
   3   2  -5    7.74    0.97
   3   2  -5    6.71    0.78
   3   2  -5    7.29    0.61
  -3  -2   4 1101.86   24.35
   3   2  -4 1096.07   24.63
   3   2  -4 1040.26   24.36
  -3  -2   4 1073.11   24.15
   3   2  -4 1095.13   24.07
  -3  -2   4 1048.63   24.50
   3   2  -3  132.04    3.58
  -3  -2   3  131.90    3.79
  -3  -2   3  125.85    3.65
  -3  -2   3  131.49    3.72
  -3  -2   2   29.66    1.34
   3   2  -2   29.71    1.25
  -3  -2   2   28.02    1.31
  -3  -2   2   29.63    1.29
  -3  -2   2   29.58    1.39
  -3  -2   1  118.38    3.50
  -3  -2   1  121.58    3.28
   3   2   0    4.51    0.53
  -3  -2   0    4.78    0.49
  -3  -2   0    4.14    0.43
   3   2   1   77.27    2.35
  -3  -2  -1   76.45    2.54
  -3  -2  -1   72.82    2.44
  -3  -2  -1   74.51    2.38
   3   2   2   96.19    2.79
  -3  -2  -2   98.32    3.03
  -3  -2  -2   93.01    2.88
  -3  -2  -2   92.88    3.07
  -3  -2  -3  130.31    3.72
  -3  -2  -3  120.05    3.64
   3   2   3  132.06    3.49
  -3  -2  -3  117.34    3.47
  -3  -2  -3  127.24    4.00
  -3  -2  -4    7.45    0.70
  -3  -2  -4    7.23    0.85
  -3  -2  -4    6.39    0.74
   3   2   4    7.49    0.63
  -3  -2  -4    7.38    1.04
  -3  -2  -5  150.00    4.62
  -3  -2  -5  151.68    4.76
  -3  -2  -5  152.09    5.10
  -3  -2  -5  151.12    4.88
  -3  -2  -5  152.24    4.59
  -3  -2  -6    0.27    0.55
  -3  -2  -6    0.27    0.62
  -3  -2  -6    0.05    0.49
  -3  -2  -6    0.08    0.81
  -3  -2  -7   -0.40    0.63
  -3  -2  -7   -0.09    0.46
  -3  -2  -7   -0.51    0.81
  -3  -2  -8   10.61    1.02
  -3  -2  -8    8.37    1.01
  -3  -2  -9   23.61    1.32
  -3  -2 -10    0.19    0.31
   3   3 -11   18.95    0.76
   3   3 -11   16.29    0.89
   3   3 -10    8.50    0.64
  -3  -3   9    0.20    0.36
   3   3  -9    0.19    0.66
  -3  -3   8    3.32    0.62
   3   3  -8    2.76    0.92
   3   3  -8    2.46    0.74
  -3  -3   7   40.34    1.84
   3   3  -7   38.49    2.06
   3   3  -7   40.82    2.34
   3   3  -7   40.73    2.22
  -3  -3   6   76.12    2.67
   3   3  -6   70.96    3.07
   3   3  -6   71.09    3.01
   3   3  -6   70.73    2.86
  -3  -3   6   67.73    2.67
  -3  -3   5  223.96    6.01
  -3  -3   5  219.44    5.96
   3   3  -5  225.35    6.38
  -3  -3   5  220.81    5.71
   3   3  -5  221.38    5.78
  -3  -3   4   49.84    2.01
  -3  -3   4   51.72    2.11
   3   3  -4   49.44    2.19
  -3  -3   4   51.50    2.08
  -3  -3   4   50.83    1.91
  -3  -3   4   49.81    1.88
   3   3  -4   49.91    1.91
  -3  -3   3   18.59    1.02
  -3  -3   3   20.62    1.25
  -3  -3   3   20.40    1.24
   3   3  -3   19.34    1.26
   3   3  -3   21.16    1.14
  -3  -3   3   22.18    1.18
  -3  -3   2  224.42    5.72
  -3  -3   2  218.13    6.01
   3   3  -2  232.13    5.81
  -3  -3   2  215.09    5.49
  -3  -3   2  224.80    5.85
  -3  -3   2  226.09    6.01
  -3  -3   1   13.02    0.80
  -3  -3   1   11.93    0.99
  -3  -3   1   13.15    1.01
  -3  -3   1   12.55    0.91
  -3  -3   1   14.71    0.76
  -3  -3   0   49.22    1.67
  -3  -3   0   47.11    2.05
   3   3   0   54.65    1.95
  -3  -3   0   53.34    2.00
  -3  -3  -1  538.50   11.81
  -3  -3  -1  502.78   12.43
  -3  -3  -1  522.14   12.44
  -3  -3  -1  503.15   12.20
  -3  -3  -1  493.12   12.22
   3   3   1  526.39   12.19
  -3  -3  -2    9.65    0.66
  -3  -3  -2    9.61    0.92
  -3  -3  -2    9.89    0.88
  -3  -3  -2    9.40    0.79
  -3  -3  -2    9.63    0.79
   3   3   2    9.69    0.82
  -3  -3  -2    9.10    0.95
  -3  -3  -3    8.39    0.87
  -3  -3  -3    8.68    0.85
  -3  -3  -3    7.57    0.80
   3   3   3    9.27    0.77
  -3  -3  -3    9.87    1.13
  -3  -3  -3    8.79    0.76
  -3  -3  -4   28.01    1.43
  -3  -3  -4   27.31    1.64
  -3  -3  -4   30.21    1.59
  -3  -3  -4   27.70    1.84
  -3  -3  -5   69.39    2.88
  -3  -3  -5   73.14    2.79
  -3  -3  -5   68.78    3.08
  -3  -3  -5   72.40    2.85
  -3  -3  -5   72.87    3.23
  -3  -3  -6   37.38    2.18
  -3  -3  -6   33.30    1.95
  -3  -3  -6   37.76    1.91
  -3  -3  -6   34.55    1.77
  -3  -3  -6   34.87    2.25
  -3  -3  -7   79.80    2.73
  -3  -3  -7   81.48    3.24
  -3  -3  -7   85.23    3.09
  -3  -3  -8  182.39    5.27
  -3  -3  -9   -0.11    0.16
   3   4 -11    5.60    0.43
   3   4 -10    4.38    0.69
   3   4  -9   35.61    1.87
  -3  -4   8    6.04    0.61
   3   4  -8    5.16    0.97
  -3  -4   7   13.99    0.96
   3   4  -7   12.56    1.35
   3   4  -7   11.98    1.30
  -3  -4   6  202.81    5.40
   3   4  -6  199.31    6.09
  -3  -4   5   36.04    1.63
   3   4  -5   34.17    1.66
  -3  -4   5   31.74    1.69
   3   4  -5   31.97    1.91
  -3  -4   5   35.13    1.78
   3   4  -5   37.66    1.70
  -3  -4   4  156.61    4.26
  -3  -4   4  147.10    4.58
  -3  -4   4  142.68    4.52
   3   4  -4  147.72    4.65
   3   4  -4  149.01    4.43
  -3  -4   3   91.43    2.79
  -3  -4   3   84.62    3.12
   3   4  -3   82.68    3.00
  -3  -4   3   90.61    2.92
   3   4  -3   83.25    2.95
  -3  -4   3   83.27    3.08
  -3  -4   2   20.11    1.09
  -3  -4   2   20.11    1.34
  -3  -4   2   18.61    1.29
  -3  -4   2   20.83    1.23
   3   4  -2   18.49    1.21
  -3  -4   1  197.75    5.02
  -3  -4   1  185.29    5.56
  -3  -4   1  182.89    5.55
  -3  -4   1  206.45    5.39
   3   4  -1  193.34    5.41
  -3  -4   0    2.13    0.45
  -3  -4   0    1.28    0.62
  -3  -4   0    1.75    0.53
  -3  -4   0    1.88    0.58
   3   4   0    1.60    0.56
  -3  -4  -1   15.16    0.88
  -3  -4  -1   13.16    1.12
  -3  -4  -1   13.12    1.00
   3   4   1   15.73    1.14
  -3  -4  -1   13.54    1.11
  -3  -4  -2  135.83    4.28
  -3  -4  -2  131.68    3.70
  -3  -4  -2  137.91    4.28
  -3  -4  -2  135.53    3.95
  -3  -4  -2  127.47    4.26
   3   4   2  138.82    4.12
   3   4   3   36.16    1.73
  -3  -4  -3   36.34    1.81
  -3  -4  -3   34.23    1.77
  -3  -4  -3   36.68    1.73
  -3  -4  -3   30.78    1.95
   3   4   3   39.05    1.75
  -3  -4  -4    1.18    0.59
  -3  -4  -4    1.24    0.59
  -3  -4  -4    1.73    0.83
  -3  -4  -5   21.06    1.51
  -3  -4  -5   22.74    1.75
  -3  -4  -5   23.82    1.51
  -3  -4  -6   33.61    2.00
  -3  -4  -6   34.87    1.77
  -3  -4  -6   32.25    1.62
  -3  -4  -7  246.17    6.95
  -3  -4  -7  262.10    6.76
  -3  -4  -8   97.92    3.03
   3   5 -10    4.64    0.39
   3   5  -9   27.50    1.10
   3   5  -9   26.41    1.41
  -3  -5   8   20.70    0.92
   3   5  -8   19.93    1.42
  -3  -5   7    9.57    0.74
   3   5  -7    8.43    1.11
  -3  -5   6  331.41    7.97
   3   5  -6  332.08    8.75
   3   5  -6  312.81    8.11
  -3  -5   5  214.22    5.50
  -3  -5   5  202.47    5.91
   3   5  -5  208.13    6.11
   3   5  -5  199.12    5.86
   3   5  -5  214.78    5.84
  -3  -5   4  881.98   19.57
  -3  -5   4  830.34   20.18
   3   5  -4  848.40   20.15
  -3  -5   4  824.87   20.15
   3   5  -4  839.95   20.11
   3   5  -4  906.00   20.11
  -3  -5   3  189.32    5.03
  -3  -5   3  189.07    5.67
   3   5  -3  192.38    5.56
  -3  -5   3  186.03    5.61
   3   5  -3  179.80    5.33
   3   5  -3  193.64    5.52
  -3  -5   2   60.55    2.65
  -3  -5   2   59.79    2.61
   3   5  -2   61.67    2.56
   3   5  -2   63.15    2.58
  -3  -5   1   47.59    2.30
   3   5  -1   49.94    2.27
  -3  -5   1   52.27    1.91
   3   5  -1   46.10    2.22
   3   5   0   21.80    1.47
  -3  -5   0   22.32    1.20
  -3  -5   0   23.30    1.57
  -3  -5   0   21.38    1.49
   3   5   0   23.87    1.55
  -3  -5  -1   38.84    1.63
  -3  -5  -1   39.32    2.06
   3   5   1   35.58    1.95
  -3  -5  -1   38.10    2.00
   3   5   1   41.01    1.96
  -3  -5  -2    8.53    1.05
   3   5   2    6.28    0.96
   3   5   2    7.63    0.95
  -3  -5  -2    6.18    0.87
  -3  -5  -3  191.70    5.58
  -3  -5  -3  195.42    5.38
   3   5   3  197.05    5.49
  -3  -5  -4    2.49    0.59
  -3  -5  -5    7.32    0.81
  -3  -5  -5    6.79    1.01
  -3  -5  -5    6.13    0.79
  -3  -5  -6   27.70    1.52
  -3  -5  -6   27.38    1.25
  -3  -5  -7   19.75    1.15
  -3  -5  -8    0.41    0.25
   3   6  -9   10.48    0.67
  -3  -6   8   -0.16    0.24
   3   6  -8    0.13    0.26
   3   6  -8   -0.07    0.45
  -3  -6   7   11.34    0.69
   3   6  -7   10.49    0.65
   3   6  -7    9.12    0.96
  -3  -6   6    3.31    0.48
   3   6  -6    3.06    0.41
   3   6  -6    3.05    0.75
  -3  -6   5    5.62    0.62
   3   6  -5    3.92    0.72
  -3  -6   5    4.74    0.76
  -3  -6   4   99.92    3.04
  -3  -6   4  100.75    3.56
   3   6  -4   97.94    3.43
  -3  -6   3   85.52    2.73
  -3  -6   3   82.78    3.22
   3   6  -3   81.47    3.13
  -3  -6   2   77.63    3.13
  -3  -6   2   77.20    3.08
  -3  -6   1   61.17    2.26
   3   6  -1   60.69    2.61
  -3  -6   0   47.64    2.31
  -3  -6   0   45.57    1.85
   3   6   0   47.26    2.22
  -3  -6  -1  128.93    4.22
   3   6   1  122.72    4.08
   3   6   2    1.30    0.67
  -3  -6  -2    1.38    0.61
   3   6   3   -0.46    0.57
  -3  -6  -3   -0.21    0.43
  -3  -6  -4   85.29    2.84
  -3  -6  -4   90.70    3.28
  -3  -6  -4   81.40    2.58
  -3  -6  -5    0.09    0.50
  -3  -6  -5    0.05    0.13
  -3  -6  -6    2.63    0.48
   3   7  -7   31.92    1.22
  -3  -7   6    8.39    0.58
   3   7  -6    6.25    0.64
  -3  -7   6    7.07    0.63
  -3  -7   5    5.97    0.60
   3   7  -5    5.26    0.67
  -3  -7   4   48.04    2.03
  -3  -7   4   47.76    1.74
   3   7  -4   41.96    1.93
  -3  -7   3   10.34    1.02
  -3  -7   3    9.26    0.77
   3   7  -3   10.15    1.05
  -3  -7   2   -0.27    0.58
   3   7  -1    4.85    0.84
   3   7   0    5.07    0.83
  -3  -7   0    4.76    0.81
  -3  -7  -1  114.78    3.62
   3   7   1  111.56    3.60
  -3  -7  -2    6.81    0.71
   3   7   2    6.32    0.73
  -3  -7  -3    5.41    0.77
  -3  -7  -3    4.58    0.60
  -3  -7  -4   -0.03    0.39
   3   8  -4    0.63    0.37
  -3  -8   4    0.78    0.35
   3   8  -3    1.29    0.47
  -3  -8   3    1.09    0.44
  -3  -8   2   16.16    1.01
   3   8  -1    0.14    0.44
   3   8   0    0.84    0.44
  -3  -8   0    0.44    0.38
   4 -10   2   10.31    0.61
   4  -9  -2    1.59    0.51
   4  -9  -2    0.89    0.31
  -4   9   2    0.55    0.46
   4  -9  -1    1.51    0.57
   4  -9  -1    1.58    0.42
  -4   9   1    0.96    0.50
   4  -9   0    6.99    0.68
  -4   9   0    5.71    0.64
  -4   9  -1   15.51    1.03
   4  -9   2   17.44    1.01
  -4   9  -2   15.36    1.08
   4  -9   3   13.23    0.87
  -4   9  -3   12.79    0.99
   4  -9   4   -0.21    0.38
  -4   9  -4    0.45    0.49
   4  -9   5    0.42    0.27
  -4   9  -5   -0.07    0.48
  -4   8   5    1.51    0.33
   4  -8  -4    1.51    0.54
  -4   8   4    2.33    0.48
   4  -8  -3   15.52    0.86
   4  -8  -3   14.86    1.21
  -4   8   3   14.46    0.99
   4  -8  -2    5.84    0.64
   4  -8  -2    4.90    0.90
  -4   8   2    5.56    0.65
  -4   8   2    5.39    0.78
  -4   8   1   -0.06    0.65
   4  -8  -1   -0.21    0.44
  -4   8   1    0.04    0.49
  -4   8   1    0.14    0.53
  -4   8   0  176.67    5.65
   4  -8   0  187.47    4.98
  -4   8   0  179.27    5.11
  -4   8   0  171.53    5.26
  -4   8  -1   93.32    3.69
   4  -8   1   92.95    3.04
  -4   8  -1   93.99    3.24
  -4   8  -1   93.05    3.42
   4  -8   2    0.96    0.49
  -4   8  -2    0.51    0.66
  -4   8  -3   36.93    2.08
   4  -8   3   36.52    1.61
  -4   8  -3   37.94    1.94
   4  -8   4   64.66    2.21
  -4   8  -4   64.86    2.61
  -4   8  -4   59.82    2.27
   4  -8   5  284.51    7.02
  -4   8  -5  291.59    7.34
  -4   8  -6    1.97    0.67
  -4   8  -6    1.87    0.55
  -4   8  -7    0.07    0.48
  -4   8  -7    0.12    0.40
  -4   7   6    2.80    0.47
  -4   7   6    2.89    0.43
  -4   7   5   14.78    0.97
   4  -7  -5   14.75    1.16
  -4   7   5   14.06    0.88
   4  -7  -4    8.96    1.06
  -4   7   4   10.13    0.90
  -4   7   4   10.87    0.87
   4  -7  -3   96.15    3.61
   4  -7  -3   96.05    2.92
  -4   7   3   95.78    3.09
  -4   7   2  393.06   10.43
  -4   7   2  396.36    9.79
  -4   7   1   65.29    2.94
   4  -7  -1   60.23    2.26
  -4   7   1   60.88    2.35
  -4   7   1   61.24    2.93
  -4   7   1   61.38    2.44
  -4   7   0  387.24   10.41
   4  -7   0  376.75    9.42
  -4   7   0  372.38   10.41
  -4   7   0  391.67    9.71
  -4   7  -1   16.95    1.61
   4  -7   1   15.88    1.10
  -4   7  -2    0.15    0.72
  -4   7  -2    0.39    0.73
  -4   7  -2    1.05    0.74
   4  -7   2    0.86    0.44
  -4   7  -2    0.86    0.71
  -4   7  -2    0.72    0.53
  -4   7  -3    2.01    0.89
  -4   7  -3    2.92    0.83
  -4   7  -3    2.50    0.81
   4  -7   3    3.00    0.57
  -4   7  -3    3.16    0.86
  -4   7  -3    3.33    0.74
  -4   7  -4    4.92    0.82
   4  -7   5   80.75    2.59
  -4   7  -5   87.31    3.12
  -4   7  -5   81.93    3.15
  -4   7  -6  222.90    6.17
  -4   7  -6  208.09    5.60
  -4   7  -6  226.13    6.16
  -4   7  -7   42.23    1.90
  -4   7  -7   45.35    1.95
  -4   7  -8   -0.16    0.50
  -4   7  -8   -0.08    0.50
  -4   7  -9    0.66    0.38
  -4   6   8    6.34    0.47
  -4   6   7    6.83    0.60
  -4   6   7    6.10    0.54
  -4   6   6   28.27    1.32
  -4   6   6   27.86    1.25
  -4   6   5  127.05    3.74
  -4   6   5  135.43    3.72
  -4   6   4  241.98    6.25
  -4   6   4  249.62    6.23
   4  -6  -3   10.18    1.17
   4  -6  -3   11.18    0.85
  -4   6   3   10.59    1.21
  -4   6   3   12.17    0.95
  -4   6   2  602.38   15.13
   4  -6  -2  609.57   14.27
  -4   6   2  628.06   14.33
  -4   6   2  579.37   15.17
  -4   6   2  602.26   14.32
  -4   6   2  619.90   14.38
  -4   6   1    2.73    0.84
  -4   6   1    2.32    0.84
  -4   6   1    2.14    0.55
   4  -6  -1    2.52    0.56
  -4   6   1    2.28    0.60
  -4   6   0  101.61    3.88
  -4   6   0  104.61    3.19
  -4   6   0   97.23    3.88
  -4   6   0  100.41    3.12
   4  -6   1   10.84    0.91
  -4   6  -1   11.24    0.99
  -4   6  -1    8.23    0.96
  -4   6  -2   62.98    2.96
  -4   6  -2   65.00    2.96
   4  -6   2   63.23    2.34
  -4   6  -2   65.39    2.56
  -4   6  -2   69.06    2.65
  -4   6  -3    1.72    0.81
  -4   6  -3    2.98    0.89
   4  -6   3    1.66    0.51
  -4   6  -3    0.77    0.69
  -4   6  -3    2.07    0.73
  -4   6  -4   26.22    1.84
   4  -6   4   30.59    1.41
  -4   6  -4   32.20    1.83
  -4   6  -4   29.53    1.44
  -4   6  -5  126.50    4.16
  -4   6  -5  123.48    3.80
  -4   6  -6    6.27    0.79
  -4   6  -6    5.25    0.94
  -4   6  -7   10.73    1.08
  -4   6  -7   10.59    0.99
  -4   6  -8  124.00    3.65
  -4   6  -8  122.24    3.68
  -4   6  -9   65.18    2.31
  -4   5   9   55.84    1.57
  -4   5   8   29.47    1.20
  -4   5   7    0.35    0.43
  -4   5   6   21.17    1.19
  -4   5   5   48.67    1.90
  -4   5   5   45.59    1.82
   4  -5  -4    9.77    1.11
  -4   5   4   11.45    0.89
   4  -5  -3   67.76    2.84
   4  -5  -3   74.67    2.43
  -4   5   3   77.08    2.51
  -4   5   3   67.61    2.97
  -4   5   3   77.61    2.56
  -4   5   2  116.58    4.02
   4  -5  -2  113.79    3.37
  -4   5   2  111.81    3.35
  -4   5   2  116.15    3.42
  -4   5   2  117.23    4.12
  -4   5   1  208.59    6.25
   4  -5  -1  213.66    5.52
  -4   5   1  207.26    5.42
  -4   5   1  211.80    6.31
  -4   5   0    5.89    0.96
  -4   5   0    6.48    0.63
  -4   5   0    6.58    0.64
  -4   5   0    6.35    0.68
  -4   5   0    5.27    0.99
  -4   5   0    4.94    0.74
  -4   5  -1  215.30    5.43
   4  -5   1  209.79    5.55
  -4   5  -1  210.09    5.40
  -4   5  -1  212.35    5.54
  -4   5  -1  207.24    5.84
  -4   5  -2    0.39    0.64
  -4   5  -2    0.13    0.61
  -4   5  -2   -0.15    0.35
   4  -5   2    0.51    0.42
  -4   5  -2    0.40    0.30
  -4   5  -2    0.36    0.50
  -4   5  -2    0.60    0.56
  -4   5  -3  310.49    8.41
   4  -5   3  315.24    7.63
  -4   5  -3  306.70    8.45
  -4   5  -3  303.81    7.60
  -4   5  -3  298.08    7.89
  -4   5  -4  170.39    4.83
  -4   5  -4  158.53    5.07
  -4   5  -4  158.27    4.47
   4  -5   4  158.17    4.30
  -4   5  -5    1.03    0.62
  -4   5  -5    1.99    0.57
  -4   5  -6   11.59    1.15
  -4   5  -6   13.35    1.18
  -4   5  -6   13.78    1.14
  -4   5  -7   68.04    2.63
  -4   5  -7   73.04    2.75
  -4   5  -8   22.86    1.40
  -4   5  -9  162.03    4.62
  -4   5  -9  170.32    4.78
  -4   5 -10   52.17    1.79
  -4   4   9   14.34    0.76
  -4   4   8   54.87    1.92
  -4   4   7   72.73    2.46
   4  -4  -7   70.19    2.64
   4  -4  -6   26.61    1.52
  -4   4   6   26.49    1.26
   4  -4  -5  125.10    3.86
  -4   4   5  120.96    3.58
  -4   4   4    9.55    1.02
   4  -4  -4   10.84    0.95
   4  -4  -4   11.11    0.74
  -4   4   4    9.96    0.94
  -4   4   4   10.57    1.04
  -4   4   4   11.03    0.86
  -4   4   3   47.44    2.23
  -4   4   3   44.23    1.89
  -4   4   3   47.18    1.85
   4  -4  -3   48.94    1.76
  -4   4   2  299.91    7.12
  -4   4   2  286.04    7.88
  -4   4   2  283.35    7.25
  -4   4   2  280.25    7.24
   4  -4  -2  304.27    7.26
  -4   4   1   24.30    1.06
   4  -4  -1   22.48    1.16
  -4   4   1   23.83    1.13
  -4   4   1   21.64    1.13
  -4   4   1   22.72    1.54
  -4   4   1   22.51    1.32
  -4   4   0  410.14   10.29
  -4   4   0  400.09    9.35
  -4   4   0  405.57   10.34
  -4   4   0  391.35    9.41
  -4   4   0  412.52    9.54
  -4   4   0  400.44    9.95
  -4   4  -1    5.02    0.51
   4  -4   1    3.00    0.55
  -4   4  -1    3.34    0.44
  -4   4  -1    3.64    0.48
  -4   4  -1    4.16    0.67
  -4   4  -2  383.68    9.78
  -4   4  -2  374.57    9.00
   4  -4   2  382.88    9.05
  -4   4  -2  375.02    8.75
  -4   4  -2  359.88    8.94
  -4   4  -2  378.12    9.41
  -4   4  -3  213.74    5.99
   4  -4   3  205.42    5.25
  -4   4  -3  204.31    5.39
  -4   4  -3  207.99    5.30
  -4   4  -4  116.95    3.88
   4  -4   4  133.91    3.55
  -4   4  -4  127.78    3.78
  -4   4  -4  127.38    3.71
  -4   4  -4  115.75    3.71
  -4   4  -5    0.84    0.56
  -4   4  -5    0.58    0.47
  -4   4  -5    0.83    0.49
  -4   4  -5    0.41    0.49
  -4   4  -5    0.43    0.51
  -4   4  -6    1.34    0.59
  -4   4  -6    0.41    0.55
  -4   4  -6    1.15    0.55
  -4   4  -7  154.85    4.61
  -4   4  -7  159.84    4.52
  -4   4  -8   75.51    2.64
  -4   4  -9    2.73    0.53
  -4   4  -9    2.53    0.64
  -4   4 -10   50.42    1.48
  -4   4 -10    0.05    0.14
  -4   3  10   21.39    0.83
   4  -3  -9   48.24    1.88
  -4   3   9   46.35    1.67
   4  -3  -8    3.94    0.71
   4  -3  -7    6.70    0.88
   4  -3  -6    0.62    0.55
  -4   3   6    1.20    0.41
   4  -3  -5    8.46    0.88
  -4   3   5    5.29    0.66
   4  -3  -4  139.00    3.72
   4  -3  -4  141.75    4.00
  -4   3   4  128.86    4.14
  -4   3   4  133.26    3.93
  -4   3   3  107.86    3.76
   4  -3  -3  130.43    3.57
  -4   3   3  115.02    3.71
   4  -3  -3  122.89    3.47
  -4   3   3  118.55    3.87
  -4   3   3  122.96    3.61
  -4   3   3  129.43    3.49
  -4   3   2  473.33   11.34
   4  -3  -2  479.78   11.22
  -4   3   2  473.66   11.26
  -4   3   2  471.20   11.14
  -4   3   1   16.03    0.98
  -4   3   1   14.31    1.19
   4  -3  -1   14.87    0.95
  -4   3   1   17.19    0.96
  -4   3   1   16.31    1.10
  -4   3   0  134.44    4.16
  -4   3   0  127.52    3.60
  -4   3   0  130.71    3.87
  -4   3  -1   12.73    0.81
  -4   3  -1   12.42    0.97
  -4   3  -2   85.96    3.12
   4  -3   2   84.74    2.68
  -4   3  -2   87.91    2.65
  -4   3  -2   82.72    2.88
  -4   3  -3  103.34    3.48
  -4   3  -3  102.20    3.22
  -4   3  -3  107.31    3.55
   4  -3   3  108.79    3.15
  -4   3  -3  103.27    3.24
  -4   3  -3  116.03    3.17
  -4   3  -4   46.84    1.94
   4  -3   4   45.73    1.69
  -4   3  -4   50.29    2.12
  -4   3  -4   49.67    1.88
  -4   3  -4   42.49    1.96
  -4   3  -4   51.08    1.96
  -4   3  -5    0.98    0.55
  -4   3  -5    1.75    0.55
  -4   3  -5    1.03    0.47
  -4   3  -5    2.39    0.58
  -4   3  -6    0.60    0.52
  -4   3  -6    1.73    0.54
  -4   3  -6    0.83    0.55
  -4   3  -7   75.60    2.66
  -4   3  -7   80.27    2.82
  -4   3  -7   78.76    2.87
  -4   3  -8    9.72    0.95
  -4   3  -8   11.80    0.97
  -4   3  -8   10.58    1.04
  -4   3  -8   11.18    1.06
  -4   3  -9   58.17    2.16
  -4   3  -9   59.37    2.27
  -4   3  -9   54.93    2.15
  -4   3 -10    0.05    0.15
  -4   3 -10   45.37    1.40
  -4   2  10   -0.10    0.40
   4  -2 -10    0.31    0.39
   4  -2  -9   24.37    1.35
  -4   2   9   22.80    1.47
   4  -2  -8   98.21    3.33
   4  -2  -7  294.84    7.80
   4  -2  -6    3.55    0.70
  -4   2   6    4.23    0.58
   4  -2  -5   31.72    1.58
  -4   2   5   31.26    1.49
   4  -2  -4  357.09    8.95
  -4   2   4  375.44    9.18
   4  -2  -4  368.91    8.80
  -4   2   4  365.69    9.07
  -4   2   3  126.57    4.05
  -4   2   3  140.38    4.15
  -4   2   3  136.50    3.96
  -4   2   3  139.68    3.83
  -4   2   2   29.66    1.53
  -4   2   2   30.07    1.47
  -4   2   2   31.50    1.62
  -4   2   2   32.53    1.40
  -4   2   1  187.73    5.34
  -4   2   1  193.93    5.18
  -4   2   1  196.13    5.44
  -4   2   1  190.69    5.13
  -4   2   1  207.20    5.35
  -4   2   0   99.79    3.32
  -4   2   0  104.77    3.12
  -4   2   0  106.34    3.44
  -4   2   0  105.78    3.15
  -4   2   0  113.06    3.33
  -4   2  -1  201.31    5.81
  -4   2  -1  203.73    5.88
  -4   2  -2   84.81    3.04
  -4   2  -2   88.60    3.16
  -4   2  -2   90.64    2.87
  -4   2  -2   92.66    3.03
  -4   2  -3    3.97    0.70
  -4   2  -3    5.62    0.67
  -4   2  -3    5.25    0.74
  -4   2  -3    6.36    0.63
  -4   2  -3    5.25    0.72
  -4   2  -4    7.06    0.78
  -4   2  -4    5.19    0.73
   4  -2   4    6.45    0.61
  -4   2  -4    4.74    0.69
  -4   2  -4    7.60    0.79
  -4   2  -4    6.28    0.79
  -4   2  -4    6.32    0.58
  -4   2  -5   21.70    1.31
  -4   2  -5   22.76    1.26
  -4   2  -6   68.35    2.63
  -4   2  -6   67.47    2.52
  -4   2  -6   73.16    2.64
  -4   2  -7  122.29    3.91
  -4   2  -7  130.71    3.99
  -4   2  -7  127.95    3.96
  -4   2  -7  120.24    3.90
  -4   2  -7  125.92    3.99
  -4   2  -8   84.25    2.94
  -4   2  -8   86.70    2.86
  -4   2  -8   79.10    2.79
  -4   2  -8   84.04    2.95
  -4   2  -8   76.02    2.79
  -4   2  -9   66.03    2.41
  -4   2  -9   70.64    2.44
  -4   2  -9   71.71    2.30
  -4   2 -10   48.89    1.72
  -4   1  10   -0.10    0.39
   4  -1 -10    0.68    0.43
  -4   1   9    2.15    0.76
   4  -1  -9    3.10    0.68
   4  -1  -8   56.77    2.38
   4  -1  -7   24.58    1.53
   4  -1  -6  489.64   12.31
  -4   1   6  522.21   12.17
  -4   1   5   69.10    2.46
   4  -1  -5   62.91    2.01
  -4   1   4    0.04    0.44
  -4   1   4   -0.03    0.30
  -4   1   4   -0.17    0.39
  -4   1   3  388.29    9.66
  -4   1   3  403.91    9.71
  -4   1   3  384.24    9.57
  -4   1   3  386.18    9.38
  -4   1   2   80.87    2.79
  -4   1   2   84.62    2.85
  -4   1   2   79.91    2.61
  -4   1   1  118.61    3.70
  -4   1   1  121.26    3.74
  -4   1   1  122.67    3.56
  -4   1   0   53.51    1.99
  -4   1  -1 9999.00  216.23
  -4   1  -1 9950.26  216.25
  -4   1  -1 9947.84  215.98
  -4   1  -2 2659.41   59.72
  -4   1  -2 2709.15   59.75
  -4   1  -2 2707.39   59.60
  -4   1  -2 2757.35   59.51
  -4   1  -3  865.18   19.66
  -4   1  -3  847.23   19.49
  -4   1  -3  853.62   19.59
  -4   1  -3  863.83   19.38
  -4   1  -3  830.08   19.55
  -4   1  -4   23.46    1.30
  -4   1  -4   26.67    1.45
  -4   1  -4   25.66    1.25
  -4   1  -4   27.64    1.23
  -4   1  -4   24.50    1.39
  -4   1  -4   25.41    1.19
  -4   1  -5    1.64    0.48
  -4   1  -5    1.67    0.58
  -4   1  -5    1.91    0.65
  -4   1  -5    1.06    0.45
  -4   1  -5    0.49    0.64
  -4   1  -5    1.22    0.53
  -4   1  -6   90.44    3.06
  -4   1  -6   92.95    3.21
  -4   1  -6   90.24    3.20
  -4   1  -6   88.94    2.98
  -4   1  -6   89.15    3.03
  -4   1  -7    2.56    0.65
  -4   1  -7    2.38    0.70
  -4   1  -7    1.64    0.67
  -4   1  -7    2.11    0.62
  -4   1  -8  150.64    4.60
  -4   1  -8  157.34    4.63
  -4   1  -8  158.30    4.53
  -4   1  -8  158.17    4.51
  -4   1  -9    1.36    0.55
  -4   1  -9    1.37    0.52
  -4   1  -9    1.62    0.42
  -4   1  -9    1.21    0.44
  -4   1 -10    0.06    0.11
   4   0 -11   14.73    0.76
  -4   0  10   12.93    0.78
   4   0 -10   14.25    0.95
   4   0  -9   30.31    1.62
  -4   0   9   31.96    1.64
   4   0  -8   86.96    3.16
   4   0  -8   88.55    2.97
  -4   0   8   87.61    3.35
  -4   0   7  130.73    4.50
   4   0  -6  271.72    7.33
  -4   0   6  253.50    6.88
   4   0  -5   23.24    1.05
   4   0  -5   23.57    1.45
  -4   0   5   23.42    1.37
   4   0  -4  233.72    6.14
  -4   0   4  232.18    6.03
  -4   0   4  214.20    6.13
   4   0  -4  233.31    5.73
  -4   0   4  229.58    5.92
  -4   0   4  218.39    5.84
  -4   0   3  118.29    3.54
  -4   0   3  120.35    3.65
  -4   0   3  118.65    3.68
  -4   0   3  113.21    3.64
   4   0  -3  119.98    3.35
  -4   0   2  102.52    3.21
  -4   0   2  108.42    3.29
  -4   0   2  102.10    3.29
  -4   0   1    4.11    0.65
  -4   0   1    4.43    0.64
  -4   0   1    3.05    0.59
  -4   0   0  509.02   11.92
  -4   0  -1  883.98   20.10
  -4   0  -1  853.79   20.19
  -4   0  -1  896.65   19.93
  -4   0  -2 2307.01   49.76
  -4   0  -2 2280.01   49.87
  -4   0  -2 2255.83   49.80
  -4   0  -2 2243.12   49.57
  -4   0  -2 2191.41   49.70
  -4   0  -3   27.67    1.35
  -4   0  -3   25.10    1.35
  -4   0  -3   26.06    1.44
  -4   0  -3   26.64    1.42
   4   0   3   27.30    1.22
  -4   0  -3   25.87    1.35
  -4   0  -3   23.91    1.26
   4   0   4    2.67    0.43
  -4   0  -4    2.25    0.46
  -4   0  -4    3.22    0.50
  -4   0  -4    3.04    0.77
  -4   0  -4    3.68    0.58
  -4   0  -5    2.64    0.58
  -4   0  -5    2.90    0.69
  -4   0  -5    2.25    0.50
  -4   0  -5    3.07    0.83
  -4   0  -6  218.79    5.94
  -4   0  -6  220.51    6.15
  -4   0  -6  208.84    5.68
  -4   0  -6  212.74    6.49
  -4   0  -7   18.65    1.30
  -4   0  -7   19.37    1.35
  -4   0  -7   19.00    1.32
  -4   0  -7   17.02    1.11
  -4   0  -7   18.99    1.64
  -4   0  -8    2.28    0.62
  -4   0  -8    4.01    0.72
  -4   0  -8    2.46    0.57
  -4   0  -9  160.35    4.42
  -4   0  -9  154.50    4.07
  -4   0 -10   58.42    1.78
   4   1 -11  147.69    3.73
  -4  -1  10   12.47    0.70
   4   1 -10   11.72    0.89
  -4  -1   9   21.93    1.23
   4   1  -9   20.30    1.20
   4   1  -9   18.81    1.28
  -4  -1   8    3.07    0.81
   4   1  -8    3.42    0.67
   4   1  -7  612.02   14.61
   4   1  -7  578.03   13.99
  -4  -1   7  564.47   13.86
  -4  -1   7  602.76   14.47
  -4  -1   6    1.29    0.83
   4   1  -6    1.29    0.69
  -4  -1   6    2.06    0.58
  -4  -1   5  112.85    3.50
   4   1  -5  123.56    3.37
   4   1  -5  118.45    3.92
  -4  -1   5  117.45    3.85
  -4  -1   5  115.66    4.00
  -4  -1   4  263.25    6.98
   4   1  -4  274.11    6.76
   4   1  -4  272.68    7.15
  -4  -1   4  272.53    6.99
  -4  -1   4  268.61    7.18
  -4  -1   4  274.77    7.27
  -4  -1   3    0.19    0.56
   4   1  -3    0.13    0.36
  -4  -1   3    0.08    0.41
  -4  -1   3    0.60    0.54
  -4  -1   3    0.38    0.39
  -4  -1   2   17.65    1.15
  -4  -1   2   22.40    1.26
  -4  -1   2   19.06    1.18
  -4  -1   2   20.57    1.18
   4   1  -2   18.57    1.03
  -4  -1   2   16.72    1.15
  -4  -1   1  102.57    3.14
  -4  -1   1  100.79    3.34
  -4  -1   1  102.99    3.35
  -4  -1   1  105.51    3.33
  -4  -1   1  105.83    3.15
   4   1   0  341.00    8.35
  -4  -1   0  346.85    8.34
  -4  -1  -1   10.57    0.90
  -4  -1  -1   11.62    0.96
  -4  -1  -1   10.77    0.94
  -4  -1  -1   11.95    0.85
   4   1   1   11.93    0.83
   4   1   2  230.55    5.78
  -4  -1  -2  236.92    6.08
  -4  -1  -2  207.40    5.90
  -4  -1  -2  217.54    5.77
  -4  -1  -3   11.10    0.91
   4   1   3   12.21    0.82
  -4  -1  -3   10.46    0.99
  -4  -1  -3    9.67    0.87
  -4  -1  -3   10.98    0.93
  -4  -1  -3    9.40    0.96
  -4  -1  -4   90.09    2.94
   4   1   4   93.67    2.78
  -4  -1  -4   92.97    3.18
  -4  -1  -4   92.04    3.30
  -4  -1  -4   94.65    2.78
  -4  -1  -4   88.61    3.32
  -4  -1  -4   87.53    2.89
  -4  -1  -5  171.08    5.07
  -4  -1  -5  166.83    5.13
  -4  -1  -5  166.18    5.34
  -4  -1  -6    0.50    0.57
  -4  -1  -6   -0.07    0.80
  -4  -1  -7   96.19    3.30
  -4  -1  -8   -0.09    0.51
  -4  -1  -8    0.07    0.39
  -4  -1  -9    0.03    0.43
  -4  -1 -10   30.73    1.09
   4   2 -11    9.91    0.55
   4   2 -10    1.66    0.49
  -4  -2   9    9.92    0.80
  -4  -2   8   52.21    2.14
   4   2  -8   49.99    2.41
  -4  -2   7   47.64    2.20
   4   2  -7   46.02    2.31
  -4  -2   7   47.11    2.01
  -4  -2   6  118.35    3.95
   4   2  -6  115.44    4.09
  -4  -2   6  117.29    3.90
  -4  -2   6  119.00    3.89
  -4  -2   5  391.79    9.87
  -4  -2   5  378.69    9.57
   4   2  -5  372.38    9.91
   4   2  -5  393.14    9.34
  -4  -2   5  393.51    9.39
  -4  -2   5  382.25    9.77
  -4  -2   5  378.77    9.89
  -4  -2   4  119.85    3.79
   4   2  -4  118.28    3.51
  -4  -2   4  119.60    3.62
  -4  -2   4  114.65    3.70
  -4  -2   3   34.81    1.72
  -4  -2   3   35.60    1.77
  -4  -2   3   36.60    1.78
   4   2  -3   35.45    1.56
  -4  -2   3   36.46    1.68
  -4  -2   3   37.11    1.68
  -4  -2   2   11.43    0.94
  -4  -2   2   13.34    1.09
   4   2  -2   12.55    0.91
  -4  -2   2   13.89    1.10
  -4  -2   2   12.78    0.99
  -4  -2   2   11.77    0.89
  -4  -2   1  107.54    3.14
  -4  -2   1  100.12    3.49
  -4  -2   1  109.11    3.57
  -4  -2   1  104.50    3.39
  -4  -2   1  106.83    3.16
  -4  -2   0   38.66    1.47
  -4  -2   0   40.03    1.92
   4   2   0   42.87    1.72
  -4  -2   0   41.91    1.63
  -4  -2  -1   41.69    1.43
  -4  -2  -1   44.40    1.99
   4   2   1   44.91    1.81
  -4  -2  -1   44.59    2.01
  -4  -2  -1   42.83    1.88
  -4  -2  -2   90.82    3.14
  -4  -2  -2   89.29    3.12
   4   2   2   90.64    2.86
  -4  -2  -2   86.46    2.89
  -4  -2  -2   85.04    2.93
   4   2   3    0.43    0.36
  -4  -2  -3    0.69    0.47
  -4  -2  -3    0.57    0.45
  -4  -2  -3    0.82    0.55
  -4  -2  -4    0.05    0.54
  -4  -2  -4   -0.37    0.51
  -4  -2  -4    0.70    0.61
  -4  -2  -4    0.13    0.38
  -4  -2  -4    0.52    0.35
  -4  -2  -4   -0.24    0.70
  -4  -2  -5  222.87    6.34
  -4  -2  -5  231.84    6.41
  -4  -2  -5  226.84    6.49
  -4  -2  -5  219.43    6.66
  -4  -2  -6    6.72    0.96
  -4  -2  -6    7.05    0.90
  -4  -2  -6    6.88    0.92
  -4  -2  -7   -0.04    0.15
  -4  -2  -7    0.49    0.51
  -4  -2  -8    8.38    0.66
  -4  -2  -9   37.24    1.46
   4   3 -10    4.41    0.42
   4   3 -10    2.95    0.47
  -4  -3   9   -0.10    0.32
  -4  -3   8  165.22    4.45
   4   3  -8  163.69    5.03
  -4  -3   7  127.66    3.81
   4   3  -7  122.86    4.21
  -4  -3   7  124.37    3.87
  -4  -3   6   36.68    1.78
   4   3  -6   35.24    2.00
  -4  -3   6   36.81    1.89
  -4  -3   5   10.27    1.04
  -4  -3   5    8.57    0.91
   4   3  -5    9.46    1.09
  -4  -3   5    9.83    0.84
   4   3  -5    8.81    0.85
  -4  -3   4    3.24    0.72
  -4  -3   4    2.80    0.62
   4   3  -4    2.70    0.60
  -4  -3   4    2.99    0.69
  -4  -3   3    8.75    0.88
   4   3  -3    8.39    0.83
  -4  -3   3    6.72    0.89
  -4  -3   3    7.56    0.95
  -4  -3   3    8.49    0.88
  -4  -3   2    2.56    0.57
  -4  -3   2    2.71    0.74
   4   3  -2    2.51    0.58
  -4  -3   2    2.37    0.64
  -4  -3   2    2.38    0.69
  -4  -3   1  492.46   11.45
  -4  -3   1  477.87   12.19
  -4  -3   1  483.50   12.18
  -4  -3   1  496.76   11.92
  -4  -3   0  233.33    5.78
  -4  -3   0  227.77    6.55
   4   3   0  230.56    6.20
  -4  -3   0  232.98    6.29
  -4  -3  -1  195.68    5.73
  -4  -3  -1  196.13    4.89
  -4  -3  -1  196.86    5.74
   4   3   1  193.19    5.36
  -4  -3  -1  188.41    5.40
  -4  -3  -2   21.25    1.45
  -4  -3  -2   21.19    1.43
  -4  -3  -2   19.94    1.22
   4   3   2   21.59    1.31
  -4  -3  -2   22.35    1.29
  -4  -3  -3  190.24    5.45
  -4  -3  -3  183.35    5.41
  -4  -3  -3  181.06    5.26
  -4  -3  -3  189.41    5.08
   4   3   3  184.20    5.16
  -4  -3  -4  127.18    4.28
  -4  -3  -4  131.58    4.13
  -4  -3  -4  127.64    4.33
  -4  -3  -5   61.12    2.61
  -4  -3  -5   64.54    2.58
  -4  -3  -5   58.08    2.57
  -4  -3  -6    2.52    0.65
  -4  -3  -6    2.93    0.65
  -4  -3  -7    0.07    0.13
  -4  -3  -7    9.83    0.77
  -4  -3  -8    3.42    0.57
  -4  -4   9    0.51    0.25
  -4  -4   8   11.34    0.72
   4   4  -8   11.31    1.00
  -4  -4   7    4.76    0.63
   4   4  -7    3.75    0.77
  -4  -4   7    4.98    0.66
  -4  -4   6  419.43    9.70
  -4  -4   6  395.39   10.11
  -4  -4   5   59.67    2.20
  -4  -4   5   59.48    2.43
   4   4  -5   56.93    2.30
   4   4  -5   57.24    2.26
  -4  -4   4   54.94    2.53
  -4  -4   4   62.24    2.61
   4   4  -4   62.39    2.45
  -4  -4   3   21.63    1.22
  -4  -4   3   19.30    1.48
  -4  -4   3   20.70    1.46
  -4  -4   3   21.20    1.32
   4   4  -3   22.83    1.42
  -4  -4   2   67.26    2.31
  -4  -4   2   66.08    2.83
  -4  -4   2   63.36    2.77
  -4  -4   2   68.70    2.59
   4   4  -2   68.14    2.66
  -4  -4   1   20.73    1.10
  -4  -4   1   18.32    1.45
  -4  -4   1   18.48    1.42
  -4  -4   1   20.04    1.33
   4   4  -1   21.02    1.36
  -4  -4   0   42.57    1.62
  -4  -4   0   39.59    2.11
  -4  -4   0   38.71    2.09
  -4  -4   0   40.31    1.88
   4   4   0   41.84    1.98
  -4  -4  -1   40.25    2.13
  -4  -4  -1   42.46    1.64
  -4  -4  -1   40.81    2.13
  -4  -4  -1   44.51    1.98
   4   4   1   42.93    2.04
   4   4   2    5.60    0.79
  -4  -4  -2    5.63    0.92
  -4  -4  -2    6.49    0.91
  -4  -4  -3   10.02    1.04
  -4  -4  -3   10.58    1.02
  -4  -4  -4    1.01    0.54
  -4  -4  -4    0.54    0.63
  -4  -4  -4    0.06    0.59
  -4  -4  -5   44.02    2.09
  -4  -4  -5   45.41    2.05
  -4  -4  -6   -0.16    0.18
  -4  -4  -6   60.90    1.75
  -4  -4  -7    5.88    0.63
  -4  -4  -8  100.73    2.66
  -4  -5   8    0.35    0.26
   4   5  -8    0.49    0.26
   4   5  -8    0.56    0.39
  -4  -5   7    4.03    0.48
   4   5  -7    3.09    0.60
  -4  -5   7    2.99    0.48
  -4  -5   6    2.25    0.48
   4   5  -6    2.11    0.58
  -4  -5   6    1.66    0.56
  -4  -5   5   98.07    3.37
  -4  -5   5  104.29    3.06
   4   5  -5   99.13    3.25
  -4  -5   4  245.63    6.33
  -4  -5   4  249.06    6.96
   4   5  -4  255.01    6.77
  -4  -5   3   93.58    3.58
   4   5  -3  102.56    3.47
   4   5  -2   11.15    1.09
  -4  -5   2   10.73    0.84
  -4  -5   2   10.37    1.17
  -4  -5   2   10.34    1.13
  -4  -5   1   13.19    0.92
   4   5  -1   13.37    1.21
   4   5  -1   11.21    1.14
   4   5   0    0.98    0.67
  -4  -5   0    0.10    0.45
  -4  -5   0    0.19    0.61
  -4  -5   0    0.13    0.48
   4   5   1    0.42    0.62
  -4  -5  -1    0.06    0.61
  -4  -5  -2   67.34    2.68
   4   5   2   64.07    2.50
   4   5   3  280.10    7.20
  -4  -5  -4   18.91    1.33
  -4  -5  -4   23.78    1.39
  -4  -5  -5  324.44    3.49
  -4  -5  -5  325.76    3.85
  -4  -5  -6    0.13    0.30
  -4  -6   7   35.59    1.19
  -4  -6   6    5.66    0.51
  -4  -6   6    4.49    0.59
   4   6  -5    1.40    0.51
  -4  -6   5    1.99    0.43
   4   6  -4    1.63    0.58
  -4  -6   4    1.62    0.48
  -4  -6   4    2.28    0.62
  -4  -6   3  150.15    4.62
   4   6  -3  147.76    4.46
  -4  -6   2  374.53    9.57
  -4  -6   2  363.54    8.87
   4   6  -1    0.20    0.59
  -4  -6   1    0.03    0.42
  -4  -6   0   30.64    1.73
   4   6   0   30.00    1.64
   4   6   1    1.44    0.60
  -4  -6  -1    2.55    0.67
   4   6   2   95.32    3.05
  -4  -6  -3    1.86    0.46
  -4  -6  -3  144.25    2.74
  -4  -6  -4    6.91    0.64
  -4  -7   5   11.63    0.72
   4   7  -4    1.35    0.44
  -4  -7   3   21.08    1.16
   4   7  -3   18.31    1.11
  -4  -7   2   58.03    2.17
   4   7  -1    3.46    0.66
  -4  -7   0   12.85    0.93
   4   7   0   12.23    0.92
   4   7   1    2.96    0.51
  -4  -7  -2   54.79    1.81
  -5   9   2   16.87    0.91
   5  -9  -1    0.08    0.30
  -5   9   1   -0.17    0.42
  -5   9   1   -0.18    0.44
   5  -9   0   -0.22    0.33
  -5   9   0   -0.20    0.40
  -5   9   0    0.40    0.51
  -5   9  -1    9.72    0.92
  -5   9  -1    9.74    0.79
   5  -9   2   39.74    1.46
  -5   9  -2   41.26    1.62
   5  -9   3    6.51    0.57
  -5   9  -3    6.17    0.72
  -5   9  -3    6.95    0.73
   5  -9   4    2.14    0.34
  -5   9  -4    1.92    0.50
  -5   9  -4    1.58    0.40
  -5   8   4    0.13    0.36
  -5   8   3    1.57    0.48
  -5   8   3    2.52    0.53
   5  -8  -2   23.83    1.08
  -5   8   2   19.25    1.33
  -5   8   2   22.54    1.15
  -5   8   2   23.02    1.26
   5  -8  -1   29.10    1.54
   5  -8  -1   32.52    1.39
  -5   8   1   30.45    1.49
  -5   8   1   33.34    1.65
  -5   8   0    8.63    0.92
  -5   8  -1   46.79    2.05
  -5   8  -2  178.01    4.99
  -5   8  -2  160.88    4.95
   5  -8   3   24.53    1.19
  -5   8  -3   24.29    1.47
   5  -8   4    7.65    0.65
  -5   8  -4    6.09    0.83
  -5   8  -4    5.27    0.71
   5  -8   5    4.47    0.46
  -5   8  -5    5.42    0.76
  -5   8  -5    4.43    0.63
  -5   8  -6   26.86    1.29
  -5   8  -6   23.76    1.19
  -5   7   6    4.98    0.49
  -5   7   6    4.55    0.46
  -5   7   5    0.68    0.39
  -5   7   5    0.88    0.39
  -5   7   4    0.16    0.42
  -5   7   3   -0.31    0.56
  -5   7   3   -0.04    0.47
  -5   7   3    0.04    0.51
  -5   7   2   10.46    0.91
  -5   7   2   10.68    0.99
  -5   7   1   38.97    1.69
  -5   7   0   66.65    2.58
  -5   7  -1    0.36    0.60
  -5   7  -2   15.39    1.31
  -5   7  -2   14.01    1.18
  -5   7  -3    5.85    0.90
  -5   7  -3    5.55    0.86
  -5   7  -4    1.41    0.71
  -5   7  -4    1.27    0.65
  -5   7  -4    1.94    0.70
   5  -7   5  114.41    3.06
  -5   7  -5   92.92    3.34
  -5   7  -5  117.85    3.64
  -5   7  -5   99.90    3.07
  -5   7  -5  112.09    3.64
  -5   7  -6   51.08    2.07
  -5   7  -6   46.74    1.74
  -5   7  -6   53.38    2.17
  -5   7  -7  369.53    8.65
  -5   7  -7  400.55    8.99
  -5   7  -8    2.46    0.51
  -5   6   7    9.62    0.63
  -5   6   7    9.72    0.60
  -5   6   6   17.32    0.96
  -5   6   6   18.10    0.95
  -5   6   5  134.04    3.80
  -5   6   4  249.71    6.11
  -5   6   4  252.86    6.14
  -5   6   3   41.94    1.74
  -5   6   3   42.83    1.79
  -5   6   3   43.54    1.81
  -5   6   2    2.25    0.53
   5  -6  -2    1.99    0.49
   5  -6  -1   39.38    1.73
  -5   6   1   37.96    1.65
  -5   6   1   35.07    2.28
  -5   6   1   41.09    1.74
  -5   6   1   39.34    1.77
  -5   6   0  173.17    4.82
  -5   6   0  175.87    5.87
  -5   6   0  177.58    4.85
  -5   6   0  176.95    5.01
  -5   6   0  184.58    5.26
   5  -6   1   17.15    1.12
  -5   6  -1   16.35    1.01
  -5   6  -1   15.42    1.17
  -5   6  -1   17.80    1.38
  -5   6  -2    1.81    0.79
   5  -6   2    2.95    0.61
  -5   6  -2    2.31    0.66
  -5   6  -2    3.96    0.87
  -5   6  -3    1.54    0.48
   5  -6   3    2.09    0.54
  -5   6  -3    1.48    0.68
  -5   6  -3    1.59    0.76
  -5   6  -4  120.59    4.31
  -5   6  -4  139.69    4.27
   5  -6   4  126.34    3.74
  -5   6  -4  127.28    3.83
  -5   6  -4  136.41    4.39
  -5   6  -5   33.66    1.81
  -5   6  -5   38.06    1.89
  -5   6  -5   37.06    1.67
  -5   6  -5   39.02    2.06
  -5   6  -6   83.11    2.92
  -5   6  -6   81.19    2.80
  -5   6  -6   85.95    3.18
  -5   6  -7  280.94    7.00
  -5   6  -7  292.15    7.38
  -5   6  -8    9.74    0.78
  -5   6  -9   86.74    2.55
  -5   5   8    0.17    0.28
  -5   5   8    0.16    0.26
  -5   5   7   49.92    1.76
  -5   5   6   53.39    1.95
  -5   5   5  306.81    7.67
  -5   5   4  176.99    4.81
  -5   5   4  185.77    4.91
  -5   5   3  126.29    4.45
   5  -5  -3  137.92    3.86
  -5   5   3  136.79    3.89
  -5   5   3  121.41    4.47
  -5   5   3  141.32    4.02
  -5   5   2    1.79    0.80
  -5   5   2    1.95    0.49
  -5   5   2    0.66    0.68
   5  -5  -2    1.20    0.50
  -5   5   1   71.20    2.34
   5  -5  -1   66.70    2.45
  -5   5   1   70.41    2.44
  -5   5   1   73.55    2.46
  -5   5   1   67.70    2.72
  -5   5   0    2.27    0.47
  -5   5   0    2.89    0.92
  -5   5   0    1.87    0.46
  -5   5   0    1.82    0.53
  -5   5   0    1.89    0.68
  -5   5  -1   90.56    2.82
   5  -5   1   98.75    3.15
  -5   5  -1   98.73    2.95
  -5   5  -1   97.60    2.93
  -5   5  -1   98.92    3.07
  -5   5  -1   97.80    3.51
   5  -5   2  140.63    4.09
  -5   5  -2  138.07    3.96
  -5   5  -2  140.53    3.82
  -5   5  -2  134.76    4.11
  -5   5  -2  146.56    4.61
  -5   5  -3    0.07    0.69
  -5   5  -3   -0.07    0.67
  -5   5  -3    0.23    0.44
   5  -5   3    0.19    0.42
  -5   5  -3    0.51    0.52
  -5   5  -3    0.25    0.65
  -5   5  -4   -0.20    0.63
  -5   5  -4    0.06    0.64
  -5   5  -4    0.04    0.49
  -5   5  -4    0.14    0.58
  -5   5  -4    0.30    0.47
   5  -5   4    0.21    0.37
  -5   5  -4    0.45    0.69
  -5   5  -5   29.29    1.70
  -5   5  -5   33.74    1.73
  -5   5  -5   31.43    1.63
  -5   5  -5   31.72    1.92
  -5   5  -6    0.44    0.55
  -5   5  -6    0.37    0.55
  -5   5  -7    2.06    0.60
  -5   5  -7    2.90    0.77
  -5   5  -8   31.66    1.51
  -5   5  -8   29.93    1.58
  -5   5  -9   15.95    0.91
  -5   5  -9   13.07    0.90
  -5   4   9   -0.15    0.42
  -5   4   9    0.02    0.24
  -5   4   8    3.61    0.50
  -5   4   7    9.18    0.77
  -5   4   7    8.18    0.63
  -5   4   6   22.44    1.15
  -5   4   5   80.11    3.06
  -5   4   5   98.92    2.99
  -5   4   4    1.03    0.65
  -5   4   4    2.21    0.64
   5  -4  -4    1.84    0.44
  -5   4   4    1.25    0.51
  -5   4   3    1.12    0.66
  -5   4   3    2.22    0.48
  -5   4   3    1.41    0.56
  -5   4   3    1.76    0.69
   5  -4  -3    1.25    0.45
  -5   4   3    0.92    0.52
  -5   4   2    0.39    0.64
  -5   4   2    0.57    0.47
  -5   4   2    0.07    0.66
   5  -4  -2    0.92    0.47
  -5   4   1   20.29    1.54
  -5   4   1   21.59    1.04
  -5   4   1   21.65    1.20
   5  -4  -1   22.73    1.30
  -5   4   1   21.01    1.61
  -5   4   1   23.68    1.27
  -5   4   1   19.91    1.44
  -5   4   0    2.76    0.85
  -5   4   0    2.10    0.37
  -5   4   0    2.88    0.52
  -5   4   0    1.44    0.75
  -5   4   0    1.90    0.45
  -5   4   0    2.10    0.46
  -5   4   0    2.22    0.73
  -5   4  -1   43.54    1.67
   5  -4   1   43.69    1.87
  -5   4  -1   45.33    1.77
  -5   4  -1   42.65    1.66
  -5   4  -1   41.79    1.63
  -5   4  -1   40.71    2.07
  -5   4  -2  130.87    4.42
  -5   4  -2  131.67    3.77
   5  -4   2  134.75    3.90
  -5   4  -2  129.66    4.47
  -5   4  -2  131.64    3.54
  -5   4  -2  115.84    3.60
  -5   4  -2  132.58    4.29
  -5   4  -3    3.87    0.87
  -5   4  -3    3.42    0.62
  -5   4  -3    4.18    0.89
  -5   4  -3    4.55    0.66
   5  -4   3    3.60    0.61
  -5   4  -3    3.47    0.80
  -5   4  -4    6.78    0.95
   5  -4   4    8.35    0.75
  -5   4  -4    7.59    0.83
  -5   4  -4    7.40    0.83
  -5   4  -4    6.61    0.97
  -5   4  -5   27.38    1.64
  -5   4  -5   30.44    1.55
  -5   4  -5   32.54    1.66
  -5   4  -5   31.74    1.63
  -5   4  -5   32.69    1.90
  -5   4  -6   64.15    2.45
  -5   4  -6   59.96    2.46
  -5   4  -6   59.05    2.66
  -5   4  -7   13.72    1.11
  -5   4  -7   14.65    1.24
  -5   4  -8    5.71    0.82
  -5   4  -9    0.48    0.44
  -5   4  -9    0.56    0.36
  -5   3   9    2.71    0.61
  -5   3   9    2.93    0.42
   5  -3  -8    0.49    0.49
   5  -3  -7   78.55    2.70
  -5   3   7   73.49    2.34
   5  -3  -6   47.17    2.02
  -5   3   6   51.71    1.92
   5  -3  -5   65.61    2.37
  -5   3   5   63.42    2.34
  -5   3   4    7.21    0.96
   5  -3  -4    7.74    0.81
  -5   3   4    9.11    1.08
   5  -3  -4    8.18    0.74
  -5   3   4    7.43    0.94
  -5   3   4    8.70    0.85
   5  -3  -3    0.13    0.35
  -5   3   3   -0.24    0.59
  -5   3   3    0.31    0.56
  -5   3   3    0.12    0.57
   5  -3  -3    0.04    0.42
  -5   3   3   -0.18    0.43
  -5   3   3    0.26    0.38
  -5   3   2  592.96   14.91
  -5   3   2  598.25   14.53
   5  -3  -2  609.51   14.47
  -5   3   2  609.05   15.04
  -5   3   2  642.16   14.43
  -5   3   1    0.12    0.39
  -5   3   1    0.06    0.60
  -5   3   1   -0.04    0.47
  -5   3   1   -0.06    0.60
  -5   3   1    0.40    0.42
  -5   3   1    0.54    0.54
  -5   3   0  124.96    4.23
  -5   3   0  132.44    3.83
  -5   3   0  126.74    4.35
  -5   3   0  129.85    3.80
  -5   3   0  128.08    3.87
  -5   3   0  135.71    4.24
  -5   3  -1   20.16    1.43
  -5   3  -1   18.86    1.08
  -5   3  -1   18.61    1.13
  -5   3  -1   20.83    1.52
  -5   3  -1   19.86    1.08
  -5   3  -1   20.60    1.20
  -5   3  -1   21.05    1.43
  -5   3  -2   52.05    2.39
  -5   3  -2   50.79    1.99
  -5   3  -2   48.12    2.38
   5  -3   2   49.33    2.03
  -5   3  -2   50.13    1.77
  -5   3  -2   53.33    2.04
  -5   3  -3    1.68    0.67
  -5   3  -3    1.38    0.52
  -5   3  -3    1.59    0.68
   5  -3   3    1.20    0.52
  -5   3  -3    1.57    0.46
  -5   3  -4    9.27    1.04
  -5   3  -4    9.45    0.95
  -5   3  -4    8.67    0.90
   5  -3   4    6.82    0.71
  -5   3  -4    7.89    0.98
  -5   3  -4    8.31    0.83
  -5   3  -4    7.74    0.98
  -5   3  -5  315.73    8.25
  -5   3  -5  313.95    8.26
  -5   3  -5  326.09    8.58
  -5   3  -6    6.20    0.84
  -5   3  -6    6.08    0.99
  -5   3  -7  329.21    8.17
  -5   3  -7  313.20    8.17
  -5   3  -7  303.81    8.26
  -5   3  -8    0.19    0.43
  -5   3  -8    0.52    0.50
  -5   3  -8   -0.09    0.49
  -5   3  -9   -0.13    0.40
  -5   2  10    7.74    0.47
   5  -2  -9   94.46    2.71
  -5   2   9   78.38    2.81
   5  -2  -8   23.57    1.30
   5  -2  -7  653.62   15.54
  -5   2   7  664.76   15.21
   5  -2  -6    1.16    0.54
  -5   2   6    0.70    0.65
  -5   2   6    0.83    0.45
   5  -2  -5  143.49    4.17
  -5   2   5  138.36    4.57
  -5   2   5  141.47    4.28
   5  -2  -4    1.47    0.50
  -5   2   4    1.68    0.61
  -5   2   4    0.92    0.70
  -5   2   4    1.37    0.57
  -5   2   4    1.29    0.42
  -5   2   3   78.21    3.01
  -5   2   3   74.04    2.91
  -5   2   3   77.41    3.03
  -5   2   3   78.69    2.87
  -5   2   3   82.10    2.76
  -5   2   3   79.16    2.67
  -5   2   2   61.93    2.61
  -5   2   2   56.68    2.37
  -5   2   2   58.40    2.57
  -5   2   2   64.15    2.36
  -5   2   2   60.31    2.26
  -5   2   1    3.16    0.58
  -5   2   1    4.93    0.86
  -5   2   1    3.70    0.63
  -5   2   1    3.58    0.65
  -5   2   1    3.04    0.75
  -5   2   1    3.29    0.59
  -5   2   0    1.58    0.48
  -5   2   0    1.91    0.72
  -5   2   0    1.66    0.49
  -5   2   0    1.60    0.53
  -5   2   0    1.28    0.66
  -5   2   0    1.41    0.46
  -5   2   0    2.35    0.66
  -5   2  -1   25.66    1.60
  -5   2  -1   23.97    1.26
  -5   2  -1   23.37    1.30
  -5   2  -1   24.12    1.59
  -5   2  -1   23.94    1.25
  -5   2  -1   25.80    1.40
  -5   2  -1   25.31    1.35
  -5   2  -2    4.76    0.65
  -5   2  -2    7.20    0.82
  -5   2  -2    4.38    0.83
  -5   2  -2    6.27    0.76
  -5   2  -2    4.59    0.88
  -5   2  -2    4.73    0.55
  -5   2  -2    5.66    0.70
  -5   2  -2    5.87    0.86
  -5   2  -3    0.51    0.38
  -5   2  -3    1.32    0.55
  -5   2  -3    1.16    0.50
  -5   2  -3    0.68    0.59
  -5   2  -3    0.74    0.51
  -5   2  -3    0.58    0.60
  -5   2  -3    0.86    0.58
  -5   2  -4    2.95    0.71
  -5   2  -4    3.12    0.70
  -5   2  -4    3.42    0.63
   5  -2   4    2.77    0.54
  -5   2  -4    2.64    0.73
  -5   2  -4    3.27    0.54
  -5   2  -5   52.74    2.27
  -5   2  -5   52.07    2.28
  -5   2  -5   52.09    2.12
  -5   2  -5   49.54    2.28
  -5   2  -6   47.44    2.11
  -5   2  -6   44.21    1.97
  -5   2  -6   42.49    2.05
  -5   2  -7   13.22    1.08
  -5   2  -7   15.03    1.12
  -5   2  -7   13.96    1.09
  -5   2  -7   13.64    1.11
  -5   2  -8   12.81    0.98
  -5   2  -8   15.74    1.03
  -5   2  -8   14.28    1.03
  -5   2  -9    1.10    0.39
  -5   2  -9    0.33    0.38
   5  -1 -10  109.66    2.93
   5  -1  -9   28.91    1.31
  -5   1   9   27.10    1.42
   5  -1  -8   39.14    1.73
  -5   1   8   36.22    1.98
   5  -1  -7  889.24   20.34
  -5   1   7  905.06   20.09
   5  -1  -6   11.73    1.01
  -5   1   6   13.59    1.07
   5  -1  -5   62.66    2.34
  -5   1   5   64.17    2.54
   5  -1  -4    5.20    0.65
  -5   1   4    5.29    0.66
  -5   1   4    5.27    0.81
  -5   1   4    5.95    0.94
   5  -1  -4    6.32    0.66
  -5   1   4    4.89    0.75
  -5   1   4    5.51    0.66
  -5   1   3    2.64    0.57
  -5   1   3    2.33    0.71
  -5   1   3    2.27    0.51
  -5   1   3    2.85    0.73
  -5   1   3    2.90    0.64
  -5   1   2  179.08    5.22
  -5   1   2  169.36    5.00
  -5   1   2  171.43    4.95
  -5   1   2  171.74    4.91
  -5   1   1  136.18    4.28
  -5   1   1  135.21    4.03
  -5   1   1  128.19    4.02
  -5   1   1  132.86    4.04
  -5   1   1  131.40    3.99
  -5   1   1  123.06    3.90
  -5   1   0   15.40    1.00
  -5   1   0   17.18    1.13
  -5   1   0   17.13    1.11
  -5   1   0   17.19    1.18
  -5   1   0   16.66    1.26
  -5   1  -1    7.04    0.76
  -5   1  -1    6.38    0.92
  -5   1  -1    5.64    0.71
  -5   1  -1    6.07    0.76
  -5   1  -1    5.63    0.66
  -5   1  -1    6.67    0.78
  -5   1  -1    6.45    0.77
  -5   1  -1    6.10    0.86
  -5   1  -2   79.35    2.95
  -5   1  -2   72.05    2.61
  -5   1  -2   69.27    2.63
  -5   1  -2   73.23    2.69
  -5   1  -2   76.42    2.84
  -5   1  -2   74.14    2.66
  -5   1  -3   53.97    2.33
  -5   1  -3   53.87    2.28
  -5   1  -3   51.72    2.20
  -5   1  -3   54.27    2.15
  -5   1  -3   56.96    2.36
  -5   1  -3   56.00    2.16
  -5   1  -4    3.21    0.53
  -5   1  -4    2.76    0.55
  -5   1  -4    2.63    0.63
  -5   1  -4    3.40    0.73
  -5   1  -4    2.67    0.60
   5  -1   4    2.67    0.51
  -5   1  -4    2.12    0.64
  -5   1  -4    2.68    0.71
  -5   1  -5   68.17    2.48
  -5   1  -5   64.88    2.57
  -5   1  -6    6.92    0.95
  -5   1  -6    6.63    0.91
  -5   1  -6    6.58    0.79
  -5   1  -6    6.78    0.82
  -5   1  -7    1.74    0.64
  -5   1  -7    1.59    0.57
  -5   1  -7    1.70    0.55
  -5   1  -8   33.60    1.58
  -5   1  -8   32.84    1.50
  -5   1  -8   30.38    1.39
  -5   1  -9   18.86    0.98
  -5   1  -9   19.53    0.92
   5   0 -10    1.40    0.34
  -5   0   9    1.08    0.55
   5   0  -9    1.24    0.45
   5   0  -8    9.45    0.86
  -5   0   8    8.41    1.03
   5   0  -7  118.70    3.83
  -5   0   7  131.44    3.80
  -5   0   7  124.06    4.31
   5   0  -6   18.84    1.23
  -5   0   6   21.55    1.35
  -5   0   6   18.73    1.57
   5   0  -5   -0.16    0.48
  -5   0   5   -0.43    0.70
  -5   0   5    0.06    0.46
  -5   0   4   40.84    1.89
  -5   0   4   38.81    2.01
  -5   0   4   39.32    1.98
  -5   0   4   39.41    1.81
  -5   0   4   38.91    1.77
  -5   0   4   38.97    2.11
   5   0  -4   41.39    1.70
  -5   0   3    4.54    0.68
  -5   0   3    4.50    0.89
  -5   0   3    4.62    0.78
  -5   0   3    5.96    0.83
  -5   0   3    5.07    0.73
  -5   0   3    4.20    0.76
   5   0  -3    4.89    0.68
  -5   0   2  146.15    4.40
  -5   0   2  140.32    4.46
  -5   0   2  146.10    4.36
   5   0  -2  148.49    4.18
  -5   0   2  136.80    4.28
  -5   0   2  139.76    4.34
  -5   0   1   34.84    1.79
  -5   0   1   38.65    1.90
  -5   0   1   34.55    1.68
  -5   0   1   34.51    1.73
  -5   0   1   32.06    1.60
  -5   0   0    1.22    0.43
  -5   0   0    0.65    0.41
  -5   0   0    0.48    0.48
   5   0   0    0.55    0.44
  -5   0   0    0.80    0.47
  -5   0  -1   16.39    1.19
  -5   0  -1   15.02    1.21
  -5   0  -1   15.96    1.04
  -5   0  -1   16.00    1.15
  -5   0  -1   17.35    1.13
  -5   0  -1   14.36    1.07
   5   0   1   14.65    1.04
  -5   0  -2   41.00    1.81
  -5   0  -2   39.09    1.93
  -5   0  -2   39.40    1.90
  -5   0  -2   38.04    1.69
   5   0   2   42.31    1.76
  -5   0  -2   34.47    1.79
  -5   0  -2   43.10    1.91
  -5   0  -2   40.00    1.88
  -5   0  -3   11.96    1.07
  -5   0  -3   12.37    1.09
  -5   0  -3   14.53    1.23
  -5   0  -3   14.39    1.06
  -5   0  -3   11.66    1.04
   5   0   3   16.42    1.04
  -5   0  -3   13.36    1.04
  -5   0  -4   -0.08    0.38
   5   0   4    0.57    0.39
  -5   0  -4    0.47    0.56
  -5   0  -4   -0.04    0.35
  -5   0  -4    0.23    0.60
  -5   0  -4    0.60    0.48
  -5   0  -4    0.53    0.45
  -5   0  -4    0.13    0.45
  -5   0  -5    3.81    0.81
  -5   0  -5    3.82    0.59
  -5   0  -6    5.98    0.93
  -5   0  -6    5.69    0.69
  -5   0  -7    6.96    0.84
  -5   0  -7    5.85    0.63
  -5   0  -8   44.42    1.87
  -5   0  -8   45.83    1.77
  -5   0  -9   69.44    1.55
  -5   0  -9   -0.02    0.10
   5   1 -10   58.41    1.74
  -5  -1   9    4.09    0.59
   5   1  -9    3.50    0.54
  -5  -1   8  114.15    3.51
   5   1  -8  104.26    3.33
  -5  -1   7  103.47    3.57
  -5  -1   7  107.93    3.34
  -5  -1   6    7.40    1.08
  -5  -1   6    6.26    0.96
  -5  -1   6    8.21    0.92
  -5  -1   5   13.74    1.01
  -5  -1   5   15.67    1.28
  -5  -1   5   16.05    1.25
  -5  -1   5   15.08    1.07
  -5  -1   4  278.43    7.57
  -5  -1   4  276.96    7.38
   5   1  -4  282.40    7.11
  -5  -1   4  279.71    7.32
  -5  -1   4  272.38    7.46
  -5  -1   4  273.71    7.60
  -5  -1   4  268.19    7.28
  -5  -1   3  424.81   10.60
  -5  -1   3  413.62   10.58
   5   1  -3  425.24   10.29
  -5  -1   3  429.50   10.59
  -5  -1   3  418.17   10.50
  -5  -1   3  411.58   10.72
  -5  -1   2  241.18    6.53
   5   1  -2  260.59    6.55
  -5  -1   2  244.54    6.81
  -5  -1   2  247.32    6.81
  -5  -1   2  238.03    6.57
  -5  -1   1   31.23    1.47
  -5  -1   1   35.30    1.82
  -5  -1   1   35.49    1.81
  -5  -1   1   31.55    1.57
  -5  -1   1   31.31    1.71
   5   1   0   18.60    1.18
  -5  -1   0   18.40    0.98
  -5  -1   0   20.84    1.24
  -5  -1   0   18.92    1.29
   5   1   1   73.60    2.57
  -5  -1  -1   69.99    2.77
  -5  -1  -1   66.90    2.43
  -5  -1  -1   68.10    2.71
  -5  -1  -1   72.85    2.67
  -5  -1  -2   28.97    1.63
   5   1   2   29.15    1.48
  -5  -1  -2   27.92    1.62
  -5  -1  -2   28.75    1.68
  -5  -1  -2   30.75    1.54
  -5  -1  -2   26.97    1.45
  -5  -1  -3    1.03    0.52
   5   1   3    2.41    0.53
  -5  -1  -3    1.31    0.59
  -5  -1  -3    1.35    0.66
  -5  -1  -3    2.59    0.65
  -5  -1  -3    2.09    0.57
  -5  -1  -4   36.88    1.88
  -5  -1  -4   38.08    1.65
  -5  -1  -4   37.19    2.02
  -5  -1  -4   38.49    1.59
  -5  -1  -4   35.26    1.68
  -5  -1  -5  153.43    4.77
  -5  -1  -5  155.75    4.91
  -5  -1  -6   27.03    1.61
  -5  -1  -6   28.85    1.68
  -5  -1  -7    7.37    0.88
  -5  -1  -7    6.50    0.81
  -5  -1  -8   15.12    0.86
  -5  -1  -9    0.24    0.27
  -5  -2   9    1.86    0.39
   5   2  -9    1.40    0.37
  -5  -2   8    7.01    0.75
   5   2  -8    4.59    0.61
  -5  -2   7  182.21    5.11
  -5  -2   7  176.83    5.00
  -5  -2   6    1.20    0.71
  -5  -2   6    1.42    0.54
  -5  -2   5   37.76    1.64
  -5  -2   5   32.46    1.74
  -5  -2   5   33.69    1.88
  -5  -2   5   34.58    1.67
  -5  -2   4   37.21    1.88
  -5  -2   4   36.88    1.87
   5   2  -4   38.79    1.71
  -5  -2   4   37.84    1.79
  -5  -2   4   34.18    1.75
  -5  -2   4   35.02    1.97
  -5  -2   3  144.29    4.27
  -5  -2   3  133.65    4.45
   5   2  -3  143.23    4.19
  -5  -2   3  139.92    4.34
  -5  -2   3  134.96    4.15
  -5  -2   3  137.50    4.60
  -5  -2   2   55.98    2.13
  -5  -2   2   52.08    2.41
   5   2  -2   50.19    2.14
  -5  -2   2   50.88    2.27
  -5  -2   2   52.43    2.08
  -5  -2   1    9.73    0.82
  -5  -2   1    8.50    1.01
  -5  -2   1    9.71    1.02
  -5  -2   1    9.33    0.86
  -5  -2   0    4.49    0.56
   5   2   0    5.50    0.74
  -5  -2  -1   26.98    1.66
   5   2   1   27.94    1.49
  -5  -2  -1   24.72    1.33
  -5  -2  -1   28.27    1.64
  -5  -2  -2   90.96    3.29
   5   2   2   92.60    3.04
  -5  -2  -2   81.06    2.91
  -5  -2  -2   88.48    3.12
  -5  -2  -2   83.93    3.01
  -5  -2  -3    1.29    0.59
   5   2   3    2.12    0.55
  -5  -2  -3    2.97    0.76
  -5  -2  -3    2.00    0.57
  -5  -2  -3    1.49    0.53
  -5  -2  -4    5.50    0.70
  -5  -2  -4    4.66    0.78
  -5  -2  -4    5.76    0.64
  -5  -2  -5    1.74    0.66
  -5  -2  -5    1.54    0.68
  -5  -2  -6    1.09    0.54
  -5  -2  -6    1.09    0.58
  -5  -2  -7    0.41    0.46
  -5  -2  -7    0.67    0.43
  -5  -2  -8   18.88    0.88
  -5  -2  -8   -0.07    0.08
  -5  -3   9    9.55    0.50
   5   3  -9    6.96    0.48
  -5  -3   8    1.64    0.41
   5   3  -8    1.89    0.41
  -5  -3   7    0.22    0.45
  -5  -3   7    0.60    0.41
  -5  -3   6    0.96    0.54
  -5  -3   6    0.93    0.54
  -5  -3   5  112.23    3.89
  -5  -3   4    1.99    0.60
  -5  -3   4    2.72    0.62
  -5  -3   4    2.49    0.64
   5   3  -4    2.62    0.59
  -5  -3   4    2.53    0.72
  -5  -3   3   65.00    2.33
  -5  -3   3   60.67    2.67
  -5  -3   3   64.47    2.52
   5   3  -3   62.80    2.48
  -5  -3   2   22.53    1.20
  -5  -3   2   21.00    1.54
   5   3  -2   21.28    1.35
  -5  -3   2   20.72    1.41
  -5  -3   1    0.27    0.39
  -5  -3   1    0.46    0.62
  -5  -3   1    0.51    0.56
  -5  -3   1    0.27    0.53
  -5  -3   0   41.58    1.54
  -5  -3   0   41.93    2.17
   5   3   0   38.46    1.91
  -5  -3   0   44.39    2.07
  -5  -3  -1   41.22    1.50
  -5  -3  -1   40.74    2.11
   5   3   1   40.72    1.93
  -5  -3  -1   40.38    1.93
  -5  -3  -2   99.59    3.67
  -5  -3  -2  106.70    3.33
  -5  -3  -2  110.29    3.49
   5   3   2  109.27    3.55
  -5  -3  -3    9.91    0.90
  -5  -3  -3    7.89    1.05
  -5  -3  -4    8.81    0.87
  -5  -3  -4    7.16    0.71
  -5  -3  -5    1.19    0.51
  -5  -3  -5    0.78    0.58
  -5  -3  -6   20.63    1.17
  -5  -3  -6   22.72    1.23
  -5  -3  -7   47.31    1.61
  -5  -3  -7   40.79    1.42
  -5  -4   8   16.69    0.72
  -5  -4   7   38.50    1.36
  -5  -4   7   33.95    1.41
  -5  -4   6   81.02    2.50
  -5  -4   6   80.19    2.81
   5   4  -5  106.43    3.23
  -5  -4   5  100.19    3.54
  -5  -4   4  325.61    7.94
   5   4  -4  333.83    8.32
  -5  -4   3   37.07    1.57
  -5  -4   2   98.36    3.71
  -5  -4   2  103.54    3.06
  -5  -4   2  104.68    3.43
  -5  -4   1   75.18    2.38
  -5  -4   0   30.68    1.85
  -5  -4   0   31.38    1.32
  -5  -4   0   32.01    1.66
  -5  -4  -1    0.38    0.33
   5   4   2    3.99    0.72
  -5  -4  -2    2.05    0.52
   5   4   3  100.10    3.13
  -5  -4  -4    9.72    0.76
  -5  -4  -4    8.71    0.91
  -5  -4  -5    0.03    0.38
  -5  -4  -5    0.60    0.45
  -5  -4  -6   32.62    1.19
  -5  -4  -6   33.78    1.23
  -5  -5   7   13.20    0.63
  -5  -5   6    1.79    0.37
  -5  -5   6    1.09    0.38
   5   5  -5   22.70    1.19
  -5  -5   5   49.97    1.84
  -5  -5   4  200.81    5.00
   5   5  -4  190.17    5.29
  -5  -5   4  196.55    5.59
  -5  -5   3  255.17    6.20
   5   5  -3  241.57    6.59
  -5  -5   2   83.37    2.54
  -5  -5   1   36.00    1.45
   5   5  -1   37.94    1.81
   5   5   0   -0.14    0.56
   5   5   1   21.86    1.29
   5   5   2    2.68    0.57
  -5  -5  -2    2.89    0.66
  -5  -5  -3    0.02    0.11
  -5  -5  -4   57.47    1.98
  -5  -6   5   21.52    0.99
   5   6  -4    0.38    0.40
  -5  -6   4    0.31    0.31
  -5  -6   4    0.68    0.40
   5   6  -3    1.70    0.53
  -5  -6   3    1.78    0.38
  -5  -6   3    1.79    0.49
  -5  -6   2   12.31    0.93
   5   6  -1   21.53    1.21
  -5  -6   1   20.64    1.15
   5   6   0    9.45    0.82
  -5  -6   0    8.19    0.70
  -5  -6  -1   43.96    1.42
   5   6   1   41.66    1.30
  -5  -6  -3    5.60    0.48
   6  -9   0    3.97    0.38
  -6   9   0    3.62    0.42
   6  -9   1   49.95    1.50
  -6   9  -1   46.54    1.71
  -6   9  -1   45.57    1.56
   6  -9   2    5.44    0.46
  -6   9  -2    4.75    0.58
  -6   9  -2    5.22    0.55
  -6   9  -3    4.32    0.49
  -6   8   4    3.22    0.40
  -6   8   3    3.44    0.50
   6  -8  -2    3.71    0.42
  -6   8   2    4.73    0.55
  -6   8   2    2.99    0.56
   6  -8  -1    3.10    0.45
  -6   8   1    4.34    0.62
  -6   8   1    2.61    0.64
  -6   8   0   30.39    1.41
  -6   8   0   28.06    1.41
  -6   8  -1  114.58    3.84
  -6   8  -1  119.88    3.67
  -6   8  -2    9.45    0.88
  -6   8  -2    6.75    0.86
   6  -8   3    0.58    0.34
  -6   8  -3    0.55    0.53
   6  -8   4   11.39    0.63
  -6   8  -4    9.31    0.80
  -6   8  -4   12.57    0.89
  -6   8  -4    9.51    0.74
  -6   8  -5   59.33    1.81
  -6   8  -5   44.62    1.65
  -6   7   5   11.92    0.68
  -6   7   5   14.03    0.75
  -6   7   4    1.82    0.41
  -6   7   4    2.45    0.49
  -6   7   3   42.61    1.88
  -6   7   3   51.90    1.75
  -6   7   2  210.74    6.07
  -6   7   2  221.55    5.71
  -6   7   1  258.43    7.57
  -6   7   1  294.06    7.22
  -6   7   0   91.68    3.57
  -6   7   0  105.16    3.29
  -6   7  -1   96.43    3.21
  -6   7  -2    3.04    0.83
  -6   7  -2    2.01    0.64
  -6   7  -2    2.10    0.62
  -6   7  -3    0.72    0.62
  -6   7  -3    1.53    0.69
  -6   7  -3    0.73    0.56
  -6   7  -4   -0.49    0.56
  -6   7  -4    0.57    0.54
  -6   7  -4    0.09    0.53
   6  -7   5   18.43    0.71
  -6   7  -5   19.25    1.05
  -6   7  -5   15.76    0.76
  -6   7  -5   18.04    1.15
  -6   7  -6    2.13    0.38
  -6   7  -6    2.83    0.60
  -6   7  -7   53.10    1.82
  -6   6   6    2.61    0.40
  -6   6   6    2.50    0.40
  -6   6   5   70.54    2.23
  -6   6   5   75.50    2.31
  -6   6   4   20.94    1.07
  -6   6   3  179.27    4.65
  -6   6   3  178.25    4.74
  -6   6   3  176.12    4.74
  -6   6   2    1.06    0.39
  -6   6   2    0.65    0.67
  -6   6   2    0.89    0.52
  -6   6   1   60.96    2.85
  -6   6   1   64.59    2.23
  -6   6   1   71.87    2.40
  -6   6   1   70.81    2.46
  -6   6   0    7.37    1.14
  -6   6   0    7.91    0.73
  -6   6   0    7.72    0.84
  -6   6  -1    0.31    0.55
  -6   6  -1   -0.29    0.62
  -6   6  -2    0.49    0.70
  -6   6  -2    0.23    0.39
  -6   6  -2    0.14    0.52
  -6   6  -2   -0.24    0.66
  -6   6  -3   39.44    2.13
  -6   6  -3   40.81    1.68
  -6   6  -3   43.11    2.17
  -6   6  -4   22.02    1.48
  -6   6  -4   23.74    1.41
  -6   6  -4   24.10    1.25
  -6   6  -4   23.14    1.54
  -6   6  -5   35.40    1.44
  -6   6  -5   37.38    1.39
  -6   6  -5   36.15    1.73
  -6   6  -6   36.49    1.33
  -6   6  -6   38.91    1.65
  -6   6  -7   24.99    1.14
  -6   6  -8    0.02    0.27
  -6   6  -8    0.02    0.34
  -6   5   7    2.65    0.39
  -6   5   6   14.48    0.84
  -6   5   5    0.30    0.39
  -6   5   5    1.22    0.43
  -6   5   4    0.03    0.38
  -6   5   4   -0.15    0.53
  -6   5   4    0.53    0.41
  -6   5   3    0.42    0.42
  -6   5   3    0.19    0.63
  -6   5   3    0.34    0.44
  -6   5   2   63.98    2.92
  -6   5   2   64.83    2.19
   6  -5  -2   64.63    2.35
  -6   5   2   67.81    2.33
  -6   5   1  114.71    4.28
  -6   5   1  114.10    3.34
   6  -5  -1  120.37    3.68
  -6   5   1  114.73    4.34
  -6   5   1  125.58    3.63
  -6   5   1  122.58    3.56
  -6   5   0  116.33    4.43
  -6   5   0  121.41    4.55
  -6   5   0  131.84    3.71
  -6   5   0  123.88    3.67
  -6   5   0  127.22    4.27
   6  -5   1    5.12    0.69
  -6   5  -1    5.18    0.65
  -6   5  -1    4.93    0.60
  -6   5  -1    4.08    0.66
  -6   5  -1    4.36    0.95
  -6   5  -2  155.20    5.24
   6  -5   2  165.27    4.58
  -6   5  -2  154.96    5.30
  -6   5  -2  167.96    4.53
  -6   5  -2  154.84    4.20
  -6   5  -2  151.32    4.48
  -6   5  -2  163.66    5.17
  -6   5  -3    0.21    0.67
  -6   5  -3    0.61    0.50
   6  -5   3   -0.23    0.40
  -6   5  -3    0.07    0.71
  -6   5  -4  182.85    5.54
  -6   5  -4  184.16    5.17
  -6   5  -4  181.68    5.10
  -6   5  -4  183.02    5.65
  -6   5  -5   28.65    1.55
  -6   5  -5   28.91    1.46
  -6   5  -5   32.54    1.56
  -6   5  -6   -0.24    0.51
  -6   5  -6   -0.16    0.60
  -6   5  -7    0.38    0.45
  -6   5  -7    0.61    0.51
  -6   5  -8    0.32    0.38
  -6   5  -8    0.03    0.39
  -6   4   8   -0.18    0.48
  -6   4   7   38.04    1.40
  -6   4   7   35.85    1.26
  -6   4   6   62.70    2.11
  -6   4   6   62.86    2.10
  -6   4   5    0.49    0.40
  -6   4   5    0.18    0.40
  -6   4   4   13.18    1.20
  -6   4   4   15.41    0.97
  -6   4   4   14.59    1.06
  -6   4   3   12.66    1.29
  -6   4   3   14.23    0.89
   6  -4  -3   12.80    0.97
  -6   4   3   13.34    1.07
  -6   4   3   12.39    1.26
  -6   4   3   13.23    1.02
  -6   4   2  118.78    4.35
  -6   4   2  122.32    3.43
   6  -4  -2  127.64    3.82
  -6   4   2  117.80    3.73
  -6   4   2  120.35    4.36
  -6   4   1   39.72    2.29
  -6   4   1   40.57    1.51
   6  -4  -1   43.40    1.91
  -6   4   1   39.73    1.80
  -6   4   1   43.91    2.38
  -6   4   1   41.38    1.81
  -6   4   0    3.37    0.97
  -6   4   0    4.58    0.68
  -6   4   0    4.08    0.97
  -6   4   0    4.29    0.59
  -6   4   0    4.71    0.61
  -6   4   0    4.99    0.95
   6  -4   1   53.92    2.21
  -6   4  -1   49.93    2.59
  -6   4  -1   54.54    1.96
  -6   4  -1   49.02    1.87
  -6   4  -1   53.87    2.55
  -6   4  -2   12.03    1.37
  -6   4  -2   13.79    0.99
   6  -4   2   13.63    1.05
  -6   4  -2   12.08    1.35
  -6   4  -2   14.16    0.85
  -6   4  -2   13.64    1.36
  -6   4  -3   12.20    1.31
  -6   4  -3   12.81    1.01
   6  -4   3   12.23    0.98
  -6   4  -3   12.30    1.33
  -6   4  -3   13.66    1.03
  -6   4  -4   42.97    2.14
  -6   4  -4   39.78    1.79
  -6   4  -4   44.51    1.91
  -6   4  -4   41.23    1.88
  -6   4  -5    0.09    0.45
  -6   4  -5    0.87    0.55
  -6   4  -5    0.18    0.55
  -6   4  -5    0.81    0.70
  -6   4  -6    1.39    0.55
  -6   4  -6    0.96    0.59
  -6   4  -6    0.89    0.64
  -6   4  -7    7.06    0.75
  -6   4  -7    5.98    0.83
  -6   4  -8   76.09    2.42
  -6   4  -9   16.50    0.76
  -6   3   9    3.32    0.32
  -6   3   8   11.26    0.99
  -6   3   7   39.16    1.41
  -6   3   6    5.77    0.65
  -6   3   5    1.21    0.52
  -6   3   4   73.55    2.89
  -6   3   4   71.84    2.82
   6  -3  -4   73.57    2.52
  -6   3   4   74.07    2.70
  -6   3   3   97.90    3.67
  -6   3   3   91.85    3.35
   6  -3  -3   98.92    3.25
  -6   3   3  100.87    3.34
  -6   3   3  102.93    3.25
  -6   3   2   31.97    1.97
  -6   3   2   30.04    1.25
  -6   3   2   29.03    1.61
   6  -3  -2   30.45    1.62
  -6   3   2   29.40    1.92
  -6   3   2   30.33    1.61
  -6   3   2   31.08    1.58
  -6   3   1  103.01    3.95
  -6   3   1   99.79    3.40
   6  -3  -1  105.99    3.55
  -6   3   1  102.27    3.95
  -6   3   1  105.96    3.41
  -6   3   1  110.29    3.51
  -6   3   0   -0.36    0.73
  -6   3   0   -0.41    0.50
  -6   3   0   -0.15    0.68
  -6   3   0   -0.04    0.43
  -6   3   0    0.26    0.68
  -6   3   0    0.43    0.50
  -6   3  -1   55.60    2.67
  -6   3  -1   51.84    1.98
  -6   3  -1   55.31    2.24
   6  -3   1   52.39    2.24
  -6   3  -1   52.56    2.61
  -6   3  -1   51.06    1.99
  -6   3  -1   53.04    2.52
  -6   3  -2   -0.35    0.87
  -6   3  -2    1.33    0.52
  -6   3  -2   -0.22    0.64
   6  -3   2    0.05    0.47
  -6   3  -2    0.18    0.30
  -6   3  -2   -0.28    0.63
  -6   3  -3   86.64    3.40
  -6   3  -3   80.98    2.95
   6  -3   3   85.68    2.96
  -6   3  -3   90.41    3.05
  -6   3  -3   87.53    2.96
  -6   3  -3   88.84    3.43
  -6   3  -4    4.59    0.82
  -6   3  -4    4.53    0.78
  -6   3  -4    4.50    0.76
  -6   3  -4    5.42    1.01
  -6   3  -5    2.69    0.65
  -6   3  -5    1.40    0.73
  -6   3  -6    2.42    0.61
  -6   3  -6    1.37    0.62
  -6   3  -6    1.24    0.70
  -6   3  -7   30.09    1.48
  -6   3  -7   29.17    1.52
  -6   3  -8    4.98    0.57
  -6   3  -8    4.59    0.59
  -6   3  -9    6.35    0.47
  -6   2   9    3.36    0.47
  -6   2   8   18.42    1.21
   6  -2  -7   26.93    1.20
  -6   2   7   24.71    1.13
   6  -2  -6  164.38    4.47
  -6   2   6  166.47    4.65
  -6   2   5   48.27    2.09
  -6   2   4    7.94    0.97
  -6   2   4    8.55    1.02
   6  -2  -4    8.86    0.87
  -6   2   4    9.34    0.95
   6  -2  -4    7.84    0.77
  -6   2   4    7.31    0.75
  -6   2   3  140.59    4.63
  -6   2   3  133.74    4.41
  -6   2   3  146.21    4.47
  -6   2   3  141.28    4.23
  -6   2   2   56.72    2.62
  -6   2   2   53.61    2.35
  -6   2   2   53.97    2.35
  -6   2   2   58.98    2.38
  -6   2   2   55.14    2.28
  -6   2   1   14.94    1.39
  -6   2   1   17.93    1.26
  -6   2   1   14.70    1.16
  -6   2   1   15.66    1.19
  -6   2   1   16.26    1.20
  -6   2   1   14.84    1.20
  -6   2   0    0.86    0.51
  -6   2   0    0.16    0.47
  -6   2   0   -0.05    0.57
  -6   2   0    0.28    0.47
  -6   2  -1  344.29    9.58
  -6   2  -1  349.65    8.89
  -6   2  -1  367.11    9.20
  -6   2  -1  349.49    8.89
  -6   2  -1  365.80    9.28
  -6   2  -1  359.79    9.18
  -6   2  -1  381.97    9.62
  -6   2  -2  854.96   20.66
  -6   2  -2  860.14   20.07
  -6   2  -2  841.96   19.64
  -6   2  -2  891.83   20.24
  -6   2  -2  860.60   20.12
  -6   2  -2  909.31   20.65
  -6   2  -3    0.18    0.49
  -6   2  -3    1.17    0.69
  -6   2  -3    0.35    0.54
  -6   2  -3    0.63    0.71
  -6   2  -4   19.24    1.35
  -6   2  -4   18.25    1.36
  -6   2  -4   20.96    1.39
  -6   2  -4   19.04    1.26
  -6   2  -4   20.58    1.17
  -6   2  -4   18.07    1.45
  -6   2  -5   22.52    1.46
  -6   2  -5   27.33    1.47
  -6   2  -5   23.92    1.55
  -6   2  -6    0.32    0.52
  -6   2  -6    0.56    0.51
  -6   2  -6    0.58    0.48
  -6   2  -6   -0.14    0.52
  -6   2  -7   28.09    1.37
  -6   2  -8   34.77    1.35
  -6   2  -8   28.91    1.24
  -6   1   9    0.40    0.34
  -6   1   8   26.71    1.41
   6  -1  -8   27.15    1.11
   6  -1  -7   95.60    2.81
  -6   1   7   93.40    2.86
  -6   1   7   95.49    3.37
   6  -1  -6   88.54    2.75
  -6   1   6   92.64    3.05
  -6   1   5  132.21    4.01
  -6   1   5  142.91    4.32
  -6   1   5  129.02    4.49
  -6   1   4   15.27    1.21
  -6   1   4   13.57    1.26
  -6   1   4   14.95    1.22
  -6   1   4   13.14    1.03
  -6   1   4   14.68    1.05
   6  -1  -4   14.26    1.02
  -6   1   4   14.37    1.36
  -6   1   3   33.79    1.88
  -6   1   3   33.73    1.83
  -6   1   3   35.12    1.89
  -6   1   3   35.05    1.74
   6  -1  -3   35.22    1.64
  -6   1   3   31.52    1.67
  -6   1   3   29.69    1.82
  -6   1   2   41.63    2.16
  -6   1   2   37.68    1.93
  -6   1   2   41.97    2.05
   6  -1  -2   39.09    1.80
  -6   1   2   42.07    1.99
  -6   1   2   40.39    1.96
  -6   1   2   37.93    1.98
  -6   1   1   94.79    3.15
  -6   1   1   99.13    3.69
  -6   1   1   93.80    3.31
  -6   1   1   96.84    3.40
   6  -1  -1   98.30    3.27
  -6   1   1   98.07    3.45
  -6   1   1   98.08    3.43
  -6   1   0  229.82    6.40
  -6   1   0  236.36    6.46
  -6   1  -1    2.82    0.67
  -6   1  -1    1.99    0.81
  -6   1  -1    3.20    0.67
  -6   1  -1    3.55    0.67
  -6   1  -1    3.07    0.73
   6  -1   1    3.08    0.62
  -6   1  -1    2.90    0.63
  -6   1  -2 3065.74   66.46
  -6   1  -2 2986.09   66.90
  -6   1  -2 2980.94   66.51
  -6   1  -2 2971.82   66.06
   6  -1   2 2985.31   66.37
  -6   1  -2 3055.09   66.60
  -6   1  -2 3050.06   66.55
  -6   1  -3  342.57    8.95
  -6   1  -3  338.83    9.07
  -6   1  -3  348.67    9.05
  -6   1  -3  352.37    8.90
   6  -1   3  344.97    8.75
  -6   1  -3  353.22    8.86
  -6   1  -3  342.80    9.08
  -6   1  -4  138.16    4.39
  -6   1  -4  141.13    4.23
  -6   1  -4  147.16    4.51
  -6   1  -4  140.56    4.13
  -6   1  -4  141.01    4.06
  -6   1  -5   13.28    1.15
  -6   1  -5   11.90    1.10
  -6   1  -5   10.57    0.94
  -6   1  -6   36.02    1.60
  -6   1  -7   33.10    1.53
  -6   1  -7   31.90    1.50
  -6   1  -7   30.27    1.31
  -6   1  -8    0.12    0.33
  -6   0   9    6.55    0.53
  -6   0   8    2.24    0.57
   6   0  -8    2.20    0.37
  -6   0   7  106.75    3.52
  -6   0   7  109.12    3.20
  -6   0   6    6.51    0.80
  -6   0   5  246.24    6.44
  -6   0   5  254.17    6.88
  -6   0   5  240.83    6.32
  -6   0   5  243.87    6.90
  -6   0   4   10.54    1.18
   6   0  -4   12.73    0.95
  -6   0   4   12.99    1.11
  -6   0   4   10.25    1.06
  -6   0   4   12.82    1.16
  -6   0   4   11.59    0.99
  -6   0   4   12.72    1.02
  -6   0   3  132.01    4.22
   6   0  -3  130.67    4.00
  -6   0   3  135.48    4.34
  -6   0   3  132.60    4.23
  -6   0   3  126.84    4.35
  -6   0   3  133.82    4.24
  -6   0   3  128.66    4.19
  -6   0   2    2.29    0.65
  -6   0   2    2.28    0.72
   6   0  -2    1.84    0.56
  -6   0   2    2.92    0.78
  -6   0   2    1.66    0.61
  -6   0   2    1.97    0.62
  -6   0   2    2.72    0.71
  -6   0   1    0.80    0.62
  -6   0   1    0.33    0.45
  -6   0   1   -0.06    0.65
  -6   0   1    0.82    0.55
  -6   0   1   -0.10    0.51
  -6   0   1    0.63    0.53
  -6   0   0    0.59    0.48
  -6   0   0    0.93    0.57
  -6   0   0    1.08    0.52
   6   0   0    1.31    0.54
   6   0   1    1.82    0.60
  -6   0  -1    1.76    0.67
  -6   0  -1    2.51    0.60
  -6   0  -1    1.37    0.60
  -6   0  -1    2.32    0.78
  -6   0  -1    1.87    0.64
  -6   0  -1    1.99    0.54
   6   0   2   29.49    1.53
  -6   0  -2   26.63    1.51
  -6   0  -2   27.67    1.70
  -6   0  -2   27.35    1.64
  -6   0  -2   24.96    1.37
  -6   0  -2   28.19    1.63
  -6   0  -2   27.76    1.61
   6   0   3   87.41    2.97
  -6   0  -3   92.46    3.19
  -6   0  -3   92.36    3.20
  -6   0  -3   90.58    3.33
  -6   0  -3   87.39    3.12
  -6   0  -3   86.49    3.09
  -6   0  -4   11.92    1.07
  -6   0  -4   11.36    0.95
  -6   0  -4   11.72    1.10
  -6   0  -4   11.75    0.93
  -6   0  -4   11.67    0.90
  -6   0  -5   18.94    1.30
  -6   0  -5   20.54    1.41
  -6   0  -5   17.60    1.06
  -6   0  -6    1.13    0.58
  -6   0  -6    0.41    0.36
  -6   0  -7   73.80    2.44
  -6   0  -8    8.94    0.65
  -6   0  -8    9.56    0.61
  -6  -1   9   -0.17    0.24
  -6  -1   8    5.80    0.61
  -6  -1   7   23.43    1.29
  -6  -1   7   23.16    1.16
  -6  -1   6  272.00    7.17
  -6  -1   5   11.58    1.13
  -6  -1   5   12.60    0.93
  -6  -1   5   14.40    1.17
  -6  -1   5   11.96    0.91
  -6  -1   4    9.00    0.99
  -6  -1   4    9.97    0.97
  -6  -1   4    9.93    1.07
  -6  -1   4   10.17    0.96
  -6  -1   3   33.89    1.67
   6   1  -3   33.73    1.65
  -6  -1   3   34.75    1.83
  -6  -1   3   30.45    1.67
  -6  -1   3   32.12    1.79
  -6  -1   3   32.13    1.77
  -6  -1   2   17.32    1.13
   6   1  -2   16.12    1.16
  -6  -1   2   17.58    1.35
  -6  -1   2   14.40    1.14
  -6  -1   2   15.58    1.34
  -6  -1   2   14.43    1.25
  -6  -1   2   15.68    1.30
  -6  -1   1   11.26    1.14
  -6  -1   1   10.64    0.83
  -6  -1   1   12.41    1.18
  -6  -1   1   10.75    0.94
  -6  -1   1   11.32    1.03
  -6  -1   1   14.12    1.22
  -6  -1   1   13.64    1.23
   6   1   0    0.54    0.49
  -6  -1   0    0.05    0.53
  -6  -1   0    0.23    0.49
   6   1   1   60.96    2.41
  -6  -1  -1   55.58    2.17
  -6  -1  -1   60.09    2.58
  -6  -1  -1   57.21    2.48
  -6  -1  -1   61.24    2.45
  -6  -1  -1   59.45    2.59
  -6  -1  -1   58.14    2.57
  -6  -1  -2    0.33    0.52
  -6  -1  -2    0.44    0.51
   6   1   2    0.05    0.45
  -6  -1  -2    0.17    0.59
  -6  -1  -2    0.26    0.53
  -6  -1  -2    0.23    0.47
  -6  -1  -2    0.25    0.36
  -6  -1  -3   39.21    1.85
  -6  -1  -3   41.48    1.87
  -6  -1  -3   38.25    2.04
  -6  -1  -3   40.76    1.66
  -6  -1  -3   40.07    1.87
  -6  -1  -4    7.93    0.89
  -6  -1  -4    7.05    0.69
  -6  -1  -4    6.63    0.94
  -6  -1  -4    7.85    0.68
  -6  -1  -4    7.78    0.73
  -6  -1  -5   50.53    2.10
  -6  -1  -6   75.67    2.61
  -6  -1  -6   80.00    2.70
  -6  -1  -7    0.20    0.37
  -6  -1  -7    0.24    0.34
  -6  -2   8   36.90    1.26
  -6  -2   7  103.02    2.94
  -6  -2   7   99.27    2.94
  -6  -2   6    8.80    0.87
  -6  -2   5   48.92    1.95
  -6  -2   5   48.41    1.80
  -6  -2   5   46.47    2.12
  -6  -2   5   42.78    1.82
  -6  -2   4  122.03    3.70
  -6  -2   4  130.81    3.82
  -6  -2   4  119.97    4.12
  -6  -2   4  121.08    3.90
  -6  -2   3    4.18    0.76
  -6  -2   3    5.01    0.72
  -6  -2   3    3.59    0.72
  -6  -2   2    0.16    0.42
  -6  -2   2    0.16    0.56
  -6  -2   2    0.25    0.50
  -6  -2   2    0.06    0.54
  -6  -2   1   29.10    1.80
  -6  -2   1   33.74    1.34
  -6  -2   1   34.88    1.83
  -6  -2   1   30.09    1.63
  -6  -2   1   32.41    1.82
  -6  -2   0  201.56    6.06
   6   2   0  213.52    5.80
  -6  -2   0  202.47    5.83
  -6  -2   0  201.58    5.93
  -6  -2  -1    0.72    0.58
  -6  -2  -1    2.83    0.72
  -6  -2  -1    2.13    0.57
  -6  -2  -2   37.14    1.60
  -6  -2  -2   35.34    1.89
  -6  -2  -2   32.32    1.57
  -6  -2  -2   34.56    1.81
  -6  -2  -3   54.49    2.10
  -6  -2  -3   56.71    2.07
  -6  -2  -3   55.38    2.42
  -6  -2  -3   52.17    2.15
  -6  -2  -4   16.24    1.04
  -6  -2  -4   15.72    1.20
  -6  -2  -5   27.53    1.33
  -6  -2  -6   45.20    1.65
  -6  -2  -6   45.43    1.71
  -6  -2  -7    1.16    0.32
  -6  -2  -7    1.47    0.28
  -6  -3   7   27.82    1.05
  -6  -3   7   26.21    1.06
  -6  -3   6  103.76    3.17
  -6  -3   5   70.25    2.10
  -6  -3   5   66.39    2.43
  -6  -3   5   63.60    2.11
  -6  -3   4   12.92    0.86
  -6  -3   4   15.14    0.97
  -6  -3   4   14.09    1.17
  -6  -3   4   11.85    1.00
  -6  -3   3   21.01    1.07
  -6  -3   3   20.48    1.24
  -6  -3   2    0.08    0.35
  -6  -3   2    0.47    0.44
  -6  -3   2   -0.04    0.49
  -6  -3   2    0.87    0.61
  -6  -3   1   18.95    0.92
  -6  -3   1   18.72    1.27
  -6  -3   1   18.72    1.23
  -6  -3   1   20.15    1.41
  -6  -3   0  114.67    3.55
  -6  -3   0  105.09    3.56
  -6  -3   0  102.45    3.56
  -6  -3  -1   54.01    2.09
  -6  -3  -1   50.58    2.22
  -6  -3  -1   47.51    2.02
  -6  -3  -2   30.69    1.68
  -6  -3  -2   31.58    1.58
  -6  -3  -3    4.75    0.78
   6   3   3    5.72    0.67
  -6  -3  -3    4.96    0.61
  -6  -3  -4   51.91    1.74
  -6  -3  -5   11.66    0.69
  -6  -3  -5   12.32    0.84
  -6  -3  -6    6.06    0.47
  -6  -4   6    1.80    0.38
  -6  -4   5  165.33    2.09
  -6  -4   5  153.61    2.72
   6   4  -4   50.98    1.87
  -6  -4   4   47.01    2.01
  -6  -4   4   46.68    1.86
   6   4  -3    1.95    0.58
  -6  -4   3    2.52    0.44
  -6  -4   2    7.37    0.58
  -6  -4   2    6.30    0.67
   6   4  -2    7.91    0.87
  -6  -4   2    6.67    0.83
  -6  -4   1   36.37    1.44
  -6  -4   1   39.25    1.61
   6   4   0    0.50    0.54
  -6  -4   0    0.54    0.47
  -6  -4   0    0.12    0.40
   6   4   1    1.72    0.54
  -6  -4  -1    1.29    0.54
  -6  -4  -1    0.85    0.36
  -6  -4  -2    6.14    0.73
   6   4   2    6.76    0.68
  -6  -4  -2    6.79    0.66
  -6  -4  -3   -0.05    0.08
  -6  -4  -3   18.03    0.99
  -6  -5   5    1.05    0.29
  -6  -5   4   33.12    1.34
   6   5  -4   29.56    1.20
  -6  -5   4   31.31    1.18
  -6  -5   3  125.36    3.12
   6   5  -3  122.17    3.40
  -6  -5   3  119.55    3.39
  -6  -5   2   97.60    2.74
  -6  -5   2  109.97    3.12
  -6  -5   1    8.18    0.65
   6   5  -1    7.83    0.73
  -6  -5   1    8.00    0.68
  -6  -5   0   12.02    0.81
   6   5   0   12.37    0.83
  -6  -5   0   11.38    0.71
  -6  -5   0   11.73    0.79
  -6  -5  -1    1.31    0.35
   6   5   1    1.18    0.37
  -6  -5  -1    1.91    0.43
  -6  -5  -2   -0.05    0.30
   7  -8  -1   16.33    0.67
  -7   8   1   17.89    0.84
   7  -8   0   20.18    0.82
  -7   8   0   21.10    0.96
   7  -8   1    0.07    0.26
   7  -8   2   26.20    0.94
  -7   8  -2   22.58    1.13
  -7   8  -2   24.71    1.08
   7  -8   3   38.45    1.20
  -7   8  -3   44.10    1.41
  -7   7   4   15.66    0.73
  -7   7   3    0.15    0.33
  -7   7   2    4.60    0.63
  -7   7   2    5.69    0.60
  -7   7   1   18.51    1.22
  -7   7   1   19.30    1.03
  -7   7   0   16.23    1.19
  -7   7   0   16.73    0.97
  -7   7  -1   40.92    1.56
  -7   7  -2    3.46    0.63
  -7   7  -2    3.14    0.68
  -7   7  -3    4.98    0.61
  -7   7  -3    3.39    0.63
  -7   7  -4    4.14    0.51
  -7   7  -4   -0.03    0.13
  -7   6   5   40.45    1.27
  -7   6   5   46.67    1.41
  -7   6   4  158.19    4.00
  -7   6   4  168.92    4.17
  -7   6   3  112.69    3.43
  -7   6   3  107.06    2.99
  -7   6   2    8.21    0.95
  -7   6   2    8.56    0.68
  -7   6   2    8.06    0.72
  -7   6   1    1.74    0.73
  -7   6   1    3.03    0.48
  -7   6   1    2.39    0.52
  -7   6   0   -0.06    0.64
  -7   6   0    0.76    0.46
  -7   6  -1   40.25    1.61
  -7   6  -2   12.51    1.17
  -7   6  -2   10.35    0.73
  -7   6  -3    0.73    0.48
  -7   6  -3    0.39    0.56
  -7   6  -3    0.99    0.38
  -7   6  -3    1.11    0.63
  -7   6  -4    0.64    0.43
  -7   6  -4    0.92    0.48
  -7   6  -4    1.26    0.41
  -7   6  -4    1.25    0.61
  -7   6  -5   15.04    0.85
  -7   6  -5   15.54    1.07
  -7   6  -6   17.08    0.82
  -7   5   6   22.86    0.82
  -7   5   6   24.45    0.89
  -7   5   5   85.76    2.39
  -7   5   5   87.92    2.49
  -7   5   5   87.94    2.48
  -7   5   4   88.33    2.52
  -7   5   4   94.82    2.73
  -7   5   4   90.35    2.65
  -7   5   3   14.19    1.12
  -7   5   3   12.47    0.73
  -7   5   3   12.36    0.82
  -7   5   2   50.06    2.31
  -7   5   2   53.68    1.93
  -7   5   2   48.38    1.78
  -7   5   1    7.43    1.08
  -7   5   1    6.62    0.61
  -7   5   1    8.59    0.73
  -7   5   1    7.94    0.70
  -7   5   0   29.77    1.90
  -7   5   0   29.09    1.30
  -7   5   0   30.12    1.30
  -7   5   0   26.29    1.26
  -7   5  -1    0.23    0.41
  -7   5  -1    0.42    0.31
  -7   5  -2   81.58    3.21
  -7   5  -2   78.48    2.61
  -7   5  -2   86.39    3.21
  -7   5  -3   40.13    2.02
  -7   5  -3   44.03    1.78
  -7   5  -3   43.69    1.75
  -7   5  -3   42.48    2.11
  -7   5  -4    2.95    0.64
  -7   5  -4    1.50    0.51
  -7   5  -5   15.68    0.98
  -7   5  -6   20.65    1.04
  -7   5  -6   21.37    1.21
  -7   5  -7    0.54    0.31
  -7   4   7    0.36    0.20
  -7   4   7    0.69    0.25
  -7   4   6    1.31    0.54
  -7   4   6    1.72    0.32
  -7   4   6    1.66    0.34
  -7   4   5    6.36    0.54
  -7   4   5    8.55    0.66
  -7   4   5    7.26    0.90
  -7   4   4    1.66    0.36
  -7   4   4    1.48    0.50
  -7   4   4    1.97    0.48
  -7   4   3    0.58    0.29
  -7   4   3    1.03    0.61
  -7   4   2   45.71    2.20
  -7   4   2   46.05    1.76
  -7   4   2   44.69    1.55
  -7   4   1   47.13    2.44
  -7   4   1   47.96    1.87
  -7   4   1   45.87    1.67
  -7   4   0    5.54    1.06
  -7   4   0    6.08    0.66
  -7   4  -1    2.01    0.42
  -7   4  -2   10.52    1.19
  -7   4  -2   10.82    0.80
  -7   4  -2   12.54    0.96
  -7   4  -2   11.41    1.25
  -7   4  -3    2.01    0.71
  -7   4  -3    1.43    0.46
  -7   4  -3    1.59    0.56
  -7   4  -4    9.32    0.78
  -7   4  -4    7.76    0.81
  -7   4  -4    7.15    1.00
  -7   4  -5    4.12    0.58
  -7   4  -5    4.04    0.62
  -7   4  -5    3.76    0.73
  -7   4  -6    1.84    0.49
  -7   4  -6    1.76    0.55
  -7   3   7   35.32    1.13
  -7   3   7   33.06    1.07
  -7   3   7   33.52    1.40
  -7   3   6  129.76    3.37
  -7   3   6  135.69    3.51
  -7   3   6  124.94    3.85
  -7   3   5    1.11    0.65
  -7   3   5    1.55    0.36
  -7   3   5    0.87    0.39
  -7   3   4   48.97    2.04
  -7   3   4   48.46    1.62
  -7   3   4   51.37    2.01
  -7   3   4   44.46    2.09
  -7   3   3   23.25    1.49
  -7   3   3   19.83    1.35
  -7   3   2   -0.13    0.52
  -7   3   2    0.70    0.69
  -7   3   2    0.44    0.44
  -7   3   2    0.28    0.31
  -7   3   2    0.52    0.44
  -7   3   1  113.27    4.12
  -7   3   1  113.69    3.56
  -7   3   1  113.98    3.67
  -7   3   0    0.07    0.73
  -7   3   0   -0.12    0.42
  -7   3   0   -0.05    0.52
  -7   3  -1   16.11    1.47
  -7   3  -1   17.14    0.98
  -7   3  -2   -0.06    0.63
  -7   3  -2    0.14    0.40
  -7   3  -2    0.53    0.47
  -7   3  -3   29.92    1.75
  -7   3  -3   31.90    1.49
  -7   3  -3   30.99    1.55
  -7   3  -3   30.71    1.82
  -7   3  -4   -0.19    0.42
  -7   3  -4    0.48    0.52
  -7   3  -4   -0.05    0.60
  -7   3  -5    3.83    0.60
  -7   3  -6  120.42    3.43
  -7   3  -6  120.00    3.45
  -7   3  -7    4.78    0.49
  -7   3  -7    3.53    0.48
  -7   2   7  157.22    4.23
  -7   2   7  153.96    3.86
  -7   2   7  162.80    3.88
  -7   2   6  366.35    8.48
  -7   2   6  338.97    8.76
  -7   2   5   20.99    1.19
  -7   2   5   21.06    1.35
  -7   2   4   15.33    1.14
  -7   2   4   17.22    1.16
  -7   2   4   17.42    1.01
  -7   2   4   15.16    1.20
  -7   2   3    1.48    0.67
  -7   2   3    1.17    0.62
  -7   2   3    2.19    0.55
  -7   2   2   21.40    1.27
  -7   2   2   23.61    1.62
  -7   2   2   26.24    1.48
  -7   2   2   23.96    1.40
  -7   2   1  107.14    3.96
  -7   2   1  113.76    3.60
  -7   2   1  106.62    3.61
  -7   2   0    0.50    0.54
  -7   2   0    0.55    0.45
  -7   2  -1    3.46    0.70
  -7   2  -1    4.40    0.88
  -7   2  -1    3.43    0.54
  -7   2  -2    2.06    0.72
  -7   2  -2    2.45    0.58
  -7   2  -2    3.04    0.65
  -7   2  -3   16.54    1.28
  -7   2  -3   17.35    1.16
  -7   2  -3   17.21    1.16
  -7   2  -3   18.21    1.14
  -7   2  -4    0.25    0.49
  -7   2  -4    0.68    0.47
  -7   2  -4    0.23    0.43
  -7   2  -5    1.27    0.50
  -7   2  -5    0.63    0.46
  -7   2  -6   -0.15    0.39
  -7   2  -6    0.17    0.36
  -7   2  -7    6.56    0.55
  -7   2  -7    5.45    0.48
  -7   1   7   98.19    2.86
  -7   1   7   96.83    2.59
  -7   1   6  242.03    6.38
  -7   1   6  254.31    6.25
  -7   1   5    2.05    0.67
  -7   1   5    1.87    0.53
  -7   1   4    5.15    0.79
  -7   1   4    3.80    0.68
  -7   1   4    4.59    0.73
  -7   1   4    5.84    0.64
  -7   1   3    3.27    0.64
  -7   1   3    3.45    0.66
  -7   1   3    3.40    0.76
  -7   1   2    2.31    0.58
  -7   1   2    2.21    0.53
  -7   1   2    1.60    0.73
  -7   1   2    1.77    0.59
  -7   1   1    3.95    0.72
  -7   1   1    5.51    0.98
  -7   1   1    5.50    0.82
  -7   1   0    3.23    0.61
  -7   1  -1    0.40    0.48
  -7   1  -1    0.35    0.43
  -7   1  -1    0.72    0.71
  -7   1  -1    0.08    0.39
  -7   1  -2    5.39    0.76
  -7   1  -2    4.17    0.70
  -7   1  -2    5.17    0.88
  -7   1  -3   40.48    1.90
  -7   1  -3   42.80    1.91
  -7   1  -3   42.02    1.79
  -7   1  -3   43.13    1.81
  -7   1  -4   11.42    0.94
  -7   1  -4    9.20    0.80
  -7   1  -4    9.91    0.72
  -7   1  -5    7.89    0.78
  -7   1  -5    6.62    0.65
  -7   1  -6   13.11    0.87
  -7   1  -6   12.85    0.74
  -7   0   7    4.66    0.52
  -7   0   7    3.08    0.38
  -7   0   6   14.08    0.93
  -7   0   6   12.58    0.84
  -7   0   5    0.66    0.49
  -7   0   5    0.90    0.37
  -7   0   5    1.10    0.48
  -7   0   4    0.84    0.40
  -7   0   4    0.66    0.49
  -7   0   4    0.24    0.47
  -7   0   4    0.34    0.51
  -7   0   3   94.41    2.96
  -7   0   3   96.19    3.28
  -7   0   3   94.68    3.18
  -7   0   2    0.80    0.52
  -7   0   2    0.90    0.44
  -7   0   2    0.60    0.66
  -7   0   2    0.16    0.50
  -7   0   1  115.04    3.84
  -7   0   1  110.11    3.65
  -7   0   0    2.16    0.56
  -7   0  -1    2.88    0.67
  -7   0  -1    2.54    0.60
  -7   0  -1    2.72    0.73
  -7   0  -1    3.51    0.57
  -7   0  -2   10.51    1.01
  -7   0  -2    8.66    0.90
  -7   0  -2    8.85    0.87
  -7   0  -3    0.75    0.42
  -7   0  -3    0.84    0.55
  -7   0  -3    0.27    0.45
  -7   0  -3    0.46    0.41
  -7   0  -4    5.07    0.71
  -7   0  -4    4.87    0.54
  -7   0  -4    4.00    0.46
  -7   0  -5    1.76    0.52
  -7   0  -5   -0.02    0.10
  -7   0  -6    8.66    0.67
  -7   0  -7    1.34    0.27
  -7  -1   7  117.27    2.77
  -7  -1   7   95.86    2.63
  -7  -1   6   56.96    1.82
  -7  -1   6   56.94    1.93
  -7  -1   5    2.56    0.51
  -7  -1   5    2.94    0.42
  -7  -1   5    3.28    0.59
  -7  -1   4    0.31    0.36
  -7  -1   4    0.17    0.40
  -7  -1   4    0.59    0.43
  -7  -1   4   -0.28    0.47
  -7  -1   3  186.38    4.77
  -7  -1   3  187.07    5.19
  -7  -1   3  183.84    5.21
  -7  -1   2   84.18    2.45
  -7  -1   2   85.42    3.01
  -7  -1   2   87.26    3.09
  -7  -1   2   85.16    3.03
  -7  -1   1   49.54    2.15
  -7  -1   1   44.71    2.02
  -7  -1   1   46.33    2.12
  -7  -1   0    2.58    0.51
  -7  -1   0    1.55    0.53
  -7  -1  -1    0.38    0.50
  -7  -1  -1    1.58    0.51
  -7  -1  -1    1.51    0.57
  -7  -1  -1    0.50    0.38
  -7  -1  -2    0.62    0.43
  -7  -1  -2    0.73    0.50
  -7  -1  -2    0.35    0.46
  -7  -1  -2    1.00    0.37
  -7  -1  -3   26.75    1.09
  -7  -1  -3   29.20    1.35
  -7  -1  -3   26.89    1.11
  -7  -1  -4    7.61    0.76
  -7  -1  -5    0.48    0.37
  -7  -2   6   30.00    1.03
  -7  -2   6   28.09    1.13
  -7  -2   5    3.57    0.42
  -7  -2   5    3.45    0.53
  -7  -2   4   45.31    1.49
  -7  -2   4   45.79    1.64
  -7  -2   4   44.36    1.86
  -7  -2   4   41.66    1.64
  -7  -2   3    0.19    0.42
  -7  -2   3    0.54    0.31
  -7  -2   3    0.55    0.45
  -7  -2   2    8.21    0.79
  -7  -2   2    8.50    0.84
  -7  -2   2    8.19    0.84
  -7  -2   1   29.59    1.49
  -7  -2   1   26.73    1.45
  -7  -2   1   29.67    1.55
  -7  -2   0    0.62    0.40
  -7  -2   0    1.28    0.51
  -7  -2   0    0.68    0.39
  -7  -2  -1   -0.04    0.43
  -7  -2  -1    0.33    0.41
  -7  -2  -1    0.21    0.42
  -7  -2  -1    0.03    0.13
  -7  -2  -2   41.33    1.76
  -7  -2  -2   44.96    1.76
  -7  -2  -3   24.69    1.22
  -7  -2  -3   21.56    0.97
  -7  -2  -4    0.38    0.37
  -7  -2  -5    0.09    0.25
  -7  -3   5   51.33    1.43
  -7  -3   5   48.54    1.66
  -7  -3   4   16.29    0.68
   7   3  -4   15.00    0.81
  -7  -3   4   15.87    0.93
  -7  -3   4   15.66    0.80
   7   3  -3   44.73    1.37
  -7  -3   3   40.45    1.31
  -7  -3   2    6.01    0.67
  -7  -3   2    4.98    0.62
  -7  -3   1    1.59    0.49
  -7  -3   1    1.66    0.44
  -7  -3   0   18.04    0.95
  -7  -3   0   16.92    0.93
  -7  -3  -1   11.12    0.78
   7   3   1   13.11    0.85
  -7  -3  -1   10.79    0.77
  -7  -3  -2    3.06    0.40
   7   3   2    3.83    0.46
  -7  -3  -2    3.50    0.51
  -7  -3  -3   24.26    1.03
  -7  -4   4    1.81    0.29
  -7  -4   3  223.44    5.41
  -7  -4   3  222.50    5.32
  -7  -4   2   -0.09    0.26
   7   4  -2    0.06    0.31
  -7  -4   2    0.02    0.25
   7   4  -1   35.86    1.27
  -7  -4   1   29.08    1.09
   7   4   0   21.79    0.94
  -7  -4   0   20.13    0.89
  -8   7   0   52.78    1.59
  -8   6   2   44.97    1.56
  -8   6   1    5.60    0.64
  -8   6   0    1.07    0.48
  -8   6  -1    6.76    0.59
  -8   6  -2    8.85    0.74
  -8   6  -2    4.30    0.43
  -8   5   4    8.55    0.50
  -8   5   3   -0.11    0.30
  -8   5   3    0.50    0.28
  -8   5   2    0.24    0.42
  -8   5   2    0.70    0.29
  -8   5   1   47.56    1.98
  -8   5   1   49.98    1.59
  -8   5   0   24.24    1.38
  -8   5   0   22.82    0.99
  -8   5   0   25.54    0.96
  -8   5  -1   40.20    1.43
  -8   5  -2    0.02    0.11
  -8   5  -2    0.26    0.50
  -8   5  -2   -0.09    0.32
  -8   5  -3   66.39    2.21
  -8   5  -3   70.89    2.10
  -8   5  -4    2.52    0.40
  -8   5  -5   34.02    1.15
  -8   4   5   10.52    0.54
  -8   4   4    0.21    0.26
  -8   4   3    6.29    0.65
  -8   4   3    7.37    0.57
  -8   4   2    2.77    0.62
  -8   4   2    3.10    0.43
  -8   4   1   56.77    2.33
  -8   4   1   62.54    1.94
  -8   4   0    2.36    0.69
  -8   4   0    2.55    0.46
  -8   4   0    1.94    0.34
  -8   4  -1   13.13    1.08
  -8   4  -1   11.50    0.81
  -8   4  -2   -0.21    0.53
  -8   4  -2    0.29    0.39
  -8   4  -3   -0.13    0.43
  -8   4  -3    0.97    0.38
  -8   4  -4    2.49    0.45
  -8   4  -5    1.90    0.38
  -8   3   5    4.84    0.43
  -8   3   4    0.94    0.32
  -8   3   4    0.91    0.34
  -8   3   3   55.01    2.06
  -8   3   3   60.17    1.95
  -8   3   2   46.66    1.97
  -8   3   2   45.88    1.69
  -8   3   1    3.97    0.74
  -8   3   1    4.38    0.52
  -8   3   0   20.58    0.95
  -8   3  -1    2.09    0.65
  -8   3  -1    2.55    0.52
  -8   3  -2    4.44    0.72
  -8   3  -2    5.51    0.65
  -8   3  -3   17.44    1.04
  -8   3  -3   16.57    0.81
  -8   3  -3   19.79    1.03
  -8   3  -4    6.77    0.54
  -8   3  -5    0.39    0.30
  -8   2   5   57.01    1.75
  -8   2   4   32.25    1.05
  -8   2   4   34.24    1.13
  -8   2   3    1.29    0.49
  -8   2   3    1.47    0.45
  -8   2   2   65.70    2.45
  -8   2   2   64.87    2.22
  -8   2   2   70.11    2.30
  -8   2   1    0.51    0.57
  -8   2   1    0.12    0.36
  -8   2   1    0.32    0.43
  -8   2   0    0.64    0.32
  -8   2   0    0.55    0.42
  -8   2  -1   19.49    1.27
  -8   2  -1   20.47    1.13
  -8   2  -2  413.51   10.42
  -8   2  -2  447.66   10.28
  -8   2  -3  496.57   11.48
  -8   2  -3  481.59   11.25
  -8   2  -3  502.29   11.47
  -8   2  -4   10.56    0.66
  -8   2  -4   11.46    0.73
  -8   2  -5    5.64    0.44
  -8   2  -5    5.49    0.47
  -8   1   5   74.14    2.15
  -8   1   4    4.76    0.48
  -8   1   4    6.37    0.57
  -8   1   3   16.88    1.01
  -8   1   3   17.62    1.00
  -8   1   3   16.70    0.91
  -8   1   2   26.68    1.37
  -8   1   2   26.75    1.25
  -8   1   2   25.88    1.27
  -8   1   1    0.39    0.39
  -8   1   1   -0.25    0.49
  -8   1   1    0.40    0.36
  -8   1   0    7.61    0.61
  -8   1  -1   81.12    2.79
  -8   1  -1   88.20    2.75
  -8   1  -2   16.90    1.04
  -8   1  -2   16.55    0.83
  -8   1  -2   17.94    0.98
  -8   1  -2   18.37    0.98
  -8   1  -3  506.69    3.85
  -8   1  -3  519.33    4.07
  -8   1  -4   32.19    1.16
  -8   1  -4   30.16    1.11
  -8   1  -5    7.26    0.47
  -8   0   5    1.28    0.29
  -8   0   4   66.18    1.89
  -8   0   4   61.90    1.82
  -8   0   3   20.33    1.02
  -8   0   3   19.31    1.02
  -8   0   3   19.69    0.97
  -8   0   2   14.25    0.94
  -8   0   2   13.35    0.85
  -8   0   2   15.35    0.92
  -8   0   1    0.20    0.38
  -8   0   1    0.39    0.43
  -8   0   1    0.03    0.32
  -8   0   0   13.16    0.74
  -8   0  -1    1.49    0.42
  -8   0  -1    0.70    0.42
  -8   0  -1    1.17    0.38
  -8   0  -2    2.10    0.36
  -8   0  -2    1.63    0.42
  -8   0  -2    1.19    0.34
  -8   0  -2    1.72    0.39
  -8   0  -3   -0.01    0.08
  -8   0  -3    0.03    0.11
  -8   0  -4    0.42    0.23
  -8  -1   5   54.92    1.56
  -8  -1   3   18.59    0.86
  -8  -1   3   17.61    0.89
  -8  -1   3   16.09    0.81
  -8  -1   2    0.29    0.32
  -8  -1   2    0.21    0.34
  -8  -1   2    0.57    0.31
  -8  -1   1    3.40    0.50
  -8  -1   1    3.98    0.53
  -8  -1   1    3.35    0.42
  -8  -1   0    3.42    0.50
  -8  -1   0   -0.02    0.07
  -8  -1  -1    5.62    0.54
  -8  -1  -1    4.92    0.49
  -8  -1  -2    0.50    0.23
  -8  -1  -2    0.24    0.24
  -8  -2   3    3.62    0.35
  -8  -2   2   -0.22    0.26
  -8  -2   2    0.03    0.20
  -8  -2   1   -0.02    0.24
  -8  -2   0   38.22    1.30
  -8  -2  -1   71.65    1.95
  -9   3   1    4.25    0.36
  -9   3   0    3.71    0.37
  -9   3  -1    0.47    0.24
  -9   3  -2    1.52    0.26
  -9   2   2    0.16    0.20
  -9   2   1    5.53    0.43
  -9   1   1    3.97    0.34
   0   0   0    0.00    0.00



TITL TX758 in P-1
REM P-1 (#2 in standard setting)
CELL 1.54184   7.282403   8.233323   9.998365  97.9005  90.7844 104.7583
ZERR    3.00   0.000245   0.000323   0.000370   0.0031   0.0029   0.0031
LATT  1
SFAC C H N O
UNIT 33.00 30.00 3.00 3.00
TREF
HKLF 4
END
_computing_structure_solution     'SHELXT 2018/2 (Sheldrick, 2018)'
_computing_structure_solution     'SHELXT 2014/5 (Sheldrick, 2014)'
;
_shelx_hkl_checksum              27793
_olex2_submission_special_instructions 'No special instructions were received'
_oxdiff_exptl_absorpt_empirical_details
;
Empirical correction (ABSPACK) includes:
- Absorption correction using spherical harmonics
- Frame scaling
;
_oxdiff_exptl_absorpt_empirical_full_max 1.526
_oxdiff_exptl_absorpt_empirical_full_min 0.555
loop_
_space_group_symop_operation_xyz
'x, y, z'
'-x, -y, -z'
loop_
_atom_site_label
_atom_site_type_symbol
_atom_site_fract_x
_atom_site_fract_y
_atom_site_fract_z
_atom_site_U_iso_or_equiv
_atom_site_adp_type
_atom_site_occupancy
_atom_site_site_symmetry_order
_atom_site_calc_flag
_atom_site_refinement_flags_posn
O1 O 0.82509(13) 0.27324(11) 0.14660(9) 0.0390(2) Uani 1 1 d .
O2 O 0.59666(13) 0.11758(12) 0.72010(9) 0.0376(2) Uani 1 1 d .
N1 N 0.77128(13) 0.52614(12) 0.44737(9) 0.0284(2) Uani 1 1 d .
C14 C 0.76160(16) 0.36579(15) 0.37865(11) 0.0292(3) Uani 1 1 d .
C7 C 0.72103(15) 0.51383(15) 0.57873(11) 0.0279(3) Uani 1 1 d .
C6 C 0.82582(15) 0.65154(15) 0.36253(11) 0.0279(3) Uani 1 1 d .
C1 C 0.85631(15) 0.57046(15) 0.23546(12) 0.0289(3) Uani 1 1 d .
C12 C 0.68001(15) 0.33902(16) 0.59065(11) 0.0289(3) Uani 1 1 d .
C8 C 0.71015(17) 0.63824(17) 0.68640(12) 0.0332(3) Uani 1 1 d .
H8 H 0.735113 0.752507 0.676952 0.040 Uiso 1 1 calc R
C15 C 0.81641(16) 0.38458(16) 0.23858(11) 0.0303(3) Uani 1 1 d .
C5 C 0.84744(17) 0.82399(16) 0.38882(12) 0.0332(3) Uani 1 1 d .
H5 H 0.825980 0.876512 0.473450 0.040 Uiso 1 1 calc R
C10 C 0.62166(17) 0.40916(17) 0.82457(12) 0.0350(3) Uani 1 1 d .
H10 H 0.590221 0.377370 0.908761 0.042 Uiso 1 1 calc R
C13 C 0.70384(16) 0.24718(15) 0.46319(11) 0.0305(3) Uani 1 1 d .
H13 H 0.684093 0.130273 0.441831 0.037 Uiso 1 1 calc R
C2 C 0.91229(17) 0.66451(17) 0.13110(12) 0.0332(3) Uani 1 1 d .
H2 H 0.933880 0.612047 0.046483 0.040 Uiso 1 1 calc R
C9 C 0.65997(17) 0.58085(17) 0.80777(12) 0.0360(3) Uani 1 1 d .
H9 H 0.651183 0.659786 0.881829 0.043 Uiso 1 1 calc R
C11 C 0.63030(16) 0.28707(16) 0.71704(12) 0.0309(3) Uani 1 1 d .
C4 C 0.90321(18) 0.91679(17) 0.28237(13) 0.0367(3) Uani 1 1 d .
H4 H 0.919165 1.033684 0.296647 0.044 Uiso 1 1 calc R
C3 C 0.93524(18) 0.83867(17) 0.15614(13) 0.0379(3) Uani 1 1 d .
H3 H 0.972553 0.903773 0.087455 0.045 Uiso 1 1 calc R
C16 C 0.5551(2) 0.06038(19) 0.84791(13) 0.0417(3) Uani 1 1 d .
H16A H 0.536642 -0.060428 0.837880 0.063 Uiso 1 1 calc GR
H16B H 0.441548 0.088562 0.879450 0.063 Uiso 1 1 calc GR
H16C H 0.659175 0.114660 0.912112 0.063 Uiso 1 1 calc GR
loop_
_atom_site_aniso_label
_atom_site_aniso_U_11
_atom_site_aniso_U_22
_atom_site_aniso_U_33
_atom_site_aniso_U_23
_atom_site_aniso_U_13
_atom_site_aniso_U_12
O1 0.0510(5) 0.0387(5) 0.0269(5) 0.0030(4) 0.0098(4) 0.0115(4)
O2 0.0462(5) 0.0402(5) 0.0278(5) 0.0144(4) 0.0071(4) 0.0084(4)
N1 0.0329(5) 0.0304(5) 0.0217(5) 0.0055(4) 0.0044(4) 0.0069(4)
C14 0.0321(6) 0.0317(6) 0.0241(6) 0.0040(5) 0.0029(4) 0.0086(5)
C7 0.0258(5) 0.0372(6) 0.0208(5) 0.0066(5) 0.0022(4) 0.0071(4)
C6 0.0247(5) 0.0342(6) 0.0248(6) 0.0081(5) 0.0012(4) 0.0054(4)
C1 0.0266(5) 0.0358(6) 0.0249(6) 0.0070(5) 0.0027(4) 0.0077(5)
C12 0.0267(5) 0.0373(7) 0.0237(6) 0.0085(5) 0.0022(4) 0.0080(5)
C8 0.0338(6) 0.0376(7) 0.0278(6) 0.0043(5) 0.0032(5) 0.0086(5)
C15 0.0303(6) 0.0370(7) 0.0240(6) 0.0058(5) 0.0038(4) 0.0088(5)
C5 0.0350(6) 0.0343(6) 0.0297(6) 0.0053(5) 0.0030(5) 0.0075(5)
C10 0.0330(6) 0.0496(8) 0.0229(6) 0.0093(5) 0.0051(5) 0.0094(5)
C13 0.0343(6) 0.0327(6) 0.0257(6) 0.0065(5) 0.0039(5) 0.0094(5)
C2 0.0340(6) 0.0421(7) 0.0260(6) 0.0104(5) 0.0056(5) 0.0115(5)
C9 0.0372(6) 0.0464(7) 0.0240(6) 0.0011(5) 0.0041(5) 0.0118(5)
C11 0.0278(5) 0.0396(7) 0.0263(6) 0.0104(5) 0.0031(4) 0.0072(5)
C4 0.0387(6) 0.0341(6) 0.0389(7) 0.0121(5) 0.0050(5) 0.0087(5)
C3 0.0381(6) 0.0438(7) 0.0355(7) 0.0180(6) 0.0086(5) 0.0106(5)
C16 0.0455(7) 0.0491(8) 0.0330(7) 0.0206(6) 0.0075(6) 0.0087(6)
loop_
_atom_type_symbol
_atom_type_description
_atom_type_scat_dispersion_real
_atom_type_scat_dispersion_imag
_atom_type_scat_source
C C 0.0181 0.0091 'International Tables Vol C Tables 4.2.6.8 and 6.1.1.4'
H H 0.0000 0.0000 'International Tables Vol C Tables 4.2.6.8 and 6.1.1.4'
N N 0.0311 0.0180 'International Tables Vol C Tables 4.2.6.8 and 6.1.1.4'
O O 0.0492 0.0322 'International Tables Vol C Tables 4.2.6.8 and 6.1.1.4'
loop_
_geom_angle_atom_site_label_1
_geom_angle_atom_site_label_2
_geom_angle_atom_site_label_3
_geom_angle
C11 O2 C16 117.06(10)
C14 N1 C6 111.31(10)
C7 N1 C14 109.60(10)
C7 N1 C6 139.08(11)
N1 C14 C15 107.89(10)
C13 C14 N1 109.63(10)
C13 C14 C15 142.48(11)
N1 C7 C12 105.98(10)
N1 C7 C8 131.20(11)
C8 C7 C12 122.82(11)
C1 C6 N1 107.65(10)
C5 C6 N1 130.14(11)
C5 C6 C1 122.21(11)
C6 C1 C15 109.21(10)
C2 C1 C6 120.10(11)
C2 C1 C15 130.69(11)
C7 C12 C13 108.64(10)
C11 C12 C7 119.09(11)
C11 C12 C13 132.25(11)
C7 C8 H8 122.1
C9 C8 C7 115.86(12)
C9 C8 H8 122.1
O1 C15 C14 128.00(11)
O1 C15 C1 128.06(11)
C14 C15 C1 103.94(10)
C6 C5 H5 121.5
C6 C5 C4 116.95(11)
C4 C5 H5 121.5
C9 C10 H10 119.7
C11 C10 H10 119.7
C11 C10 C9 120.52(11)
C14 C13 C12 106.13(11)
C14 C13 H13 126.9
C12 C13 H13 126.9
C1 C2 H2 120.8
C3 C2 C1 118.38(12)
C3 C2 H2 120.8
C8 C9 C10 123.13(12)
C8 C9 H9 118.4
C10 C9 H9 118.4
O2 C11 C12 115.22(11)
O2 C11 C10 126.21(11)
C10 C11 C12 118.57(12)
C5 C4 H4 119.2
C3 C4 C5 121.59(12)
C3 C4 H4 119.2
C2 C3 H3 119.6
C4 C3 C2 120.77(11)
C4 C3 H3 119.6
O2 C16 H16A 109.5
O2 C16 H16B 109.5
O2 C16 H16C 109.5
H16A C16 H16B 109.5
H16A C16 H16C 109.5
H16B C16 H16C 109.5
loop_
_geom_bond_atom_site_label_1
_geom_bond_atom_site_label_2
_geom_bond_distance
O1 C15 1.2204(15)
O2 C11 1.3587(15)
O2 C16 1.4317(14)
N1 C14 1.3863(16)
N1 C7 1.3785(14)
N1 C6 1.4087(15)
C14 C15 1.4792(15)
C14 C13 1.3684(16)
C7 C12 1.4156(17)
C7 C8 1.3982(17)
C6 C1 1.3997(16)
C6 C5 1.3756(17)
C1 C15 1.4881(17)
C1 C2 1.3883(16)
C12 C13 1.4262(16)
C12 C11 1.4118(15)
C8 H8 0.9300
C8 C9 1.3824(17)
C5 H5 0.9300
C5 C4 1.3996(17)
C10 H10 0.9300
C10 C9 1.4035(19)
C10 C11 1.3810(18)
C13 H13 0.9300
C2 H2 0.9300
C2 C3 1.3874(19)
C9 H9 0.9300
C4 H4 0.9300
C4 C3 1.3865(19)
C3 H3 0.9300
C16 H16A 0.9600
C16 H16B 0.9600
C16 H16C 0.9600
