#------------------------------------------------------------------------------
#$Date: 2019-11-10 21:05:58 +0200 (Sun, 10 Nov 2019) $
#$Revision: 226187 $
#$URL: file:///home/coder/svn-repositories/cod/cif/4/51/62/4516200.cif $
#------------------------------------------------------------------------------
#
# This file is available in the Crystallography Open Database (COD),
# http://www.crystallography.net/
#
# All data on this site have been placed in the public domain by the
# contributors.
#
data_4516200
loop_
_publ_author_name
'Tsai, Cheng-Min'
'Lin, Yu-Pei'
'Pola, Murali Krishna'
'Narra, Sudhakar'
'Jokar, Efat'
'Yang, Yaw-Wen'
'Diau, Eric Wei-Guang'
_publ_section_title
;
 Control of Crystal Structures and Optical Properties with Hybrid
 Formamidinium and 2-Hydroxyethylammonium Cations for Mesoscopic
 Carbon-Electrode Tin-Based Perovskite Solar Cells
;
_journal_issue                   9
_journal_name_full               'ACS Energy Letters'
_journal_page_first              2077
_journal_paper_doi               10.1021/acsenergylett.8b01046
_journal_volume                  3
_journal_year                    2018
_chemical_formula_sum            'C1.4 H6.2 I3 N1.6 O0.4 Sn'
_chemical_formula_weight         551.27
_space_group_crystal_system      trigonal
_space_group_IT_number           146
_space_group_name_Hall           'R 3'
_space_group_name_H-M_alt        'R 3 :H'
_atom_sites_solution_primary     direct
_atom_sites_solution_secondary   difmap
_cell_angle_alpha                90
_cell_angle_beta                 90
_cell_angle_gamma                120
_cell_formula_units_Z            3
_cell_length_a                   8.920(4)
_cell_length_b                   8.920(4)
_cell_length_c                   10.934(4)
_cell_measurement_reflns_used    153
_cell_measurement_temperature    296.(2)
_cell_measurement_theta_max      24.9332
_cell_measurement_theta_min      3.1994
_cell_volume                     753.4(6)
_computing_cell_refinement       'SAINT V8.27B (Bruker AXS Inc., 2012)'
_computing_data_reduction        'SAINT V8.27B (Bruker AXS Inc., 2012)'
_computing_structure_refinement  'SHELXL-97 (Sheldrick, 2008)'
_computing_structure_solution    'SHELXS-97 (Sheldrick, 2008)'
_diffrn_ambient_temperature      296.(2)
_diffrn_detector_area_resol_mean 8.3333
_diffrn_measured_fraction_theta_full 1.000
_diffrn_measured_fraction_theta_max 1.000
_diffrn_measurement_device_type  'APEX II CCD'
_diffrn_measurement_method       '\w scans'
_diffrn_radiation_monochromator  'Highly-Ordered Pyrolytic Graphite'
_diffrn_radiation_type           'Mo K\a'
_diffrn_radiation_wavelength     0.71073
_diffrn_reflns_av_R_equivalents  0.0256
_diffrn_reflns_av_sigmaI/netI    0.0121
_diffrn_reflns_limit_h_max       10
_diffrn_reflns_limit_h_min       -10
_diffrn_reflns_limit_k_max       10
_diffrn_reflns_limit_k_min       -10
_diffrn_reflns_limit_l_max       12
_diffrn_reflns_limit_l_min       -12
_diffrn_reflns_number            4290
_diffrn_reflns_theta_full        24.94
_diffrn_reflns_theta_max         24.94
_diffrn_reflns_theta_min         3.23
_diffrn_source                   'fine-focus sealed tube'
_diffrn_source_type              'Mo K\a'
_exptl_absorpt_coefficient_mu    11.691
_exptl_absorpt_correction_T_max  0.7452
_exptl_absorpt_correction_T_min  0.6729
_exptl_absorpt_correction_type   multi-scan
_exptl_absorpt_process_details   'SADABS V2012/1 (Bruker AXS Inc.)'
_exptl_crystal_colour            black
_exptl_crystal_density_diffrn    3.645
_exptl_crystal_density_method    'not measured'
_exptl_crystal_description       octahedral
_exptl_crystal_F_000             714
_exptl_crystal_size_max          0.11
_exptl_crystal_size_mid          0.11
_exptl_crystal_size_min          0.09
_platon_squeeze_details
;

TITL 146.ins in R3                                                             
CELL    8.9200    8.9200   10.9340     90.00     90.00    120.00
SPGR R3          
# Note: Atoms in Void as Cxxx and Qxxx all others
C101 1.000 0.993 0.031 !      18.90 eA-3
C102 1.000 1.007 0.688 !      15.35 eA-3
C103 0.843 0.685 0.842 !      11.71 eA-3
Q104 0.993 0.499 0.515 !       9.05 eA-3
C105 0.997 0.991 0.907 !       3.81 eA-3
C106 0.375 0.748 0.467 !       2.61 eA-3
C107 0.428 0.726 0.608 !       2.10 eA-3
C108 0.475 0.217 0.143 !       1.78 eA-3
C109 0.485 0.742 0.515 !       1.41 eA-3
Q110 0.867 0.720 0.485 !       1.40 eA-3
Q111 0.805 0.186 0.568 !       1.39 eA-3
Q112 0.999 1.005 0.501 !       1.24 eA-3
Q113 1.001 0.994 0.218 !       1.23 eA-3
C114 0.563 0.125 0.263 !       1.16 eA-3
Q115 0.408 0.715 0.794 !       1.06 eA-3
Q116 0.935 0.750 0.733 !       0.98 eA-3
C117 0.463 0.532 0.315 !       0.98 eA-3
Q118 0.663 0.322 0.911 !       0.96 eA-3
Q119 0.659 0.401 0.937 !       0.93 eA-3
Q120 0.593 0.338 0.936 !       0.85 eA-3
Q121 0.684 0.597 0.207 !       0.84 eA-3
C122 0.033 0.156 0.885 !       0.82 eA-3
Q123 0.428 0.553 0.145 !       0.78 eA-3
Q124 0.300 0.222 0.360 !       0.78 eA-3
Q125 0.959 0.540 0.688 !       0.76 eA-3
Q126 0.774 0.690 0.364 !       0.75 eA-3
Q127 0.249 0.059 0.735 !       0.73 eA-3
C128 0.854 0.966 0.893 !       0.72 eA-3
Q129 0.750 0.536 0.469 !       0.64 eA-3
Q130 0.747 1.006 0.873 !       0.61 eA-3
Q131 0.598 0.533 0.360 !       0.57 eA-3
Q132 0.410 0.124 0.094 !       0.56 eA-3
Q133 0.257 0.744 0.326 !       0.56 eA-3
Q134 0.910 0.661 0.669 !       0.53 eA-3
Q135 0.874 0.438 0.576 !       0.53 eA-3
Q136 0.496 0.747 0.327 !       0.53 eA-3
Q137 0.510 0.752-0.002 !       0.51 eA-3
)
;
_refine_diff_density_max         3.502
_refine_diff_density_min         -1.547
_refine_ls_abs_structure_details 'Flack H D (1983), Acta Cryst. A39, 876-881'
_refine_ls_abs_structure_Flack   0.3(5)
_refine_ls_extinction_method     SHELXL
_refine_ls_goodness_of_fit_ref   1.296
_refine_ls_hydrogen_treatment    undef
_refine_ls_matrix_type           full
_refine_ls_number_parameters     29
_refine_ls_number_reflns         602
_refine_ls_number_restraints     3
_refine_ls_restrained_S_all      1.292
_refine_ls_R_factor_all          0.0844
_refine_ls_R_factor_gt           0.0802
_refine_ls_shift/su_max          3.671
_refine_ls_shift/su_mean         0.380
_refine_ls_structure_factor_coef Fsqd
_refine_ls_weighting_details
'calc w=1/[\s^2^(Fo^2^)+(0.1150P)^2^+38.8687P] where P=(Fo^2^+2Fc^2^)/3'
_refine_ls_weighting_scheme      calc
_refine_ls_wR_factor_gt          0.2229
_refine_ls_wR_factor_ref         0.2287
_reflns_number_gt                546
_reflns_number_total             602
_reflns_threshold_expression     >2sigma(I)
_cod_data_source_file            nz8b01046_si_002.cif
_cod_data_source_block           I
_cod_original_cell_volume        753.4(5)
_cod_original_sg_symbol_H-M      'R 3'
_cod_original_formula_sum        'C1.40 H6.20 I3 N1.60 O0.40 Sn'
_cod_database_code               4516200
_shelx_res_file
;
TITL 146.ins in R3
CELL 0.71073   8.9204   8.9204  10.9340  90.000  90.000 120.000
ZERR    3.00   0.0037   0.0037   0.0038   0.000   0.000   0.000
LATT -3
SYMM -Y, X-Y, Z
SYMM -X+Y, -X, Z
SFAC C H N O SN I
UNIT 4.2 18.6 4.8 1.2 3 9
TEMP 23.000
ACTA
L.S. 4
BOND
FMAP 2
PLAN 20
DFIX 1.3 0.02 C1 N1
DFIX 1.3 0.02 C1 N2
WGHT    0.115000   38.868721
EXTI    0.000000
FVAR       0.68144
MOLE   1
I1    6    0.833601    0.165932    0.520556    11.00000    0.09216    0.09157 =
         0.08108   -0.01018    0.00971    0.06208
SN1   5    0.666667    0.333333    0.682105    10.33333    0.04320    0.04320 =
         0.03893    0.00000    0.00000    0.02160
C1    1    0.581051    0.331351    0.070672    10.66667    2.00000    1.62001 =
         0.58670    0.61587    0.90788    1.79614
N1    3    0.666667    0.333333   -0.026278    10.22222    0.16987    0.16987 =
         2.00000    0.00000    0.00000    0.08493
N2    3    0.666667    0.333333    0.167161    10.22222    2.00000    2.00000 =
        -0.09233    0.00000    0.00000    1.00000
 
MOLE   2
HKLF 4
 
REM  146.ins in R3
REM R1 =  0.0802 for    546 Fo > 4sig(Fo)  and  0.0844 for all    602 data
REM     29 parameters refined using      3 restraints
 
END  
     
WGHT      0.1360     53.3853 
REM Highest difference peak  3.502,  deepest hole -1.547,  1-sigma level  0.360
Q1    1   1.1406  0.2878  0.5321  11.00000  0.05    3.50
Q2    1   0.5232  0.0430  0.4995  11.00000  0.05    3.30
Q3    1   0.6667  0.3333  0.5405  10.33333  0.05    1.07
Q4    1   0.6667  0.3333 -0.1550  10.33333  0.05    1.02
Q5    1   0.6667  0.3333  0.3251  10.33333  0.05    0.80
Q6    1   0.5550  0.3481  0.1161  11.00000  0.05    0.74
Q7    1   0.7941  0.1945  0.6791  11.00000  0.05    0.71
Q8    1   0.6219  0.2488  0.8215  11.00000  0.05    0.69
Q9    1   0.6667  0.3333  0.0539  10.33333  0.05    0.63
Q10   1   0.7179  0.2916 -0.1024  11.00000  0.05    0.60
Q11   1   0.6297  0.2196  0.7468  11.00000  0.05    0.59
Q12   1   0.8944  0.2450  0.6621  11.00000  0.05    0.58
Q13   1   0.7830  0.3112  0.2444  11.00000  0.05    0.56
Q14   1   0.8288 -0.0413  0.4905  11.00000  0.05    0.55
Q15   1   0.9749  0.1346  0.5356  11.00000  0.05    0.53
Q16   1   0.7610  0.2294  0.7024  11.00000  0.05    0.52
Q17   1   0.8675  0.1370  0.3703  11.00000  0.05    0.50
Q18   1   0.9002  0.2164  0.3615  11.00000  0.05    0.47
Q19   1   0.7857  0.4696  0.2379  11.00000  0.05    0.45
Q20   1   0.6072  0.2128  0.4716  11.00000  0.05    0.45
;
_shelx_hkl_file
;
  -1  -2  -2     231      51                                                         295   12.43   -4.18  1.0000
   1   2   2     227      27                                                         290   12.43    4.18  1.0000
   1   2   2     201      29                                                         255   12.43    4.18  1.0000
  -2  -4  -4   11852     108                                                        8904   16.89   12.29  1.0000
  -2  -4  -4   12135     172                                                        9150   16.89   12.29  1.0000
  -2  -4  -4   12102     113                                                        9121   16.89   12.29  1.0000
   2   4   4   12896     129                                                        9812   16.89  -12.29  1.0000
   2   4   4   12868     117                                                        9788   16.89  -12.29  1.0000
   2   4   4   12762     123                                                        9695   16.89  -12.29  1.0000
  -3  -6  -6     168      48                                                         144   -1.98    0.04  1.0000
  -3  -6  -6      86      93                                                          69   -1.98    0.04  1.0000
  -3  -6  -6     323      56                                                         290   -1.98    0.04  1.0000
   3   6   6     282      45                                                         251   -1.98   -0.04  1.0000
   3   6   6     285      56                                                         254   -1.98   -0.04  1.0000
   3   6   6     252      55                                                         223   -1.98   -0.04  1.0000
   3   5   4       7      39                                                         -10   -3.11    2.24  1.0000
   3   5   4       7      42                                                          25   -3.11    2.24  1.0000
   3   5   4      27      44                                                          57   -3.11    2.24  1.0000
   3   5   4       7      45                                                          -2   -3.11    2.24  1.0000
  -3  -5  -4       7      38                                                         -58   -3.11   -2.24  1.0000
  -3  -5  -4       7      40                                                         -14   -3.11   -2.24  1.0000
  -3  -5  -4       7      75                                                         -73   -3.11   -2.24  1.0000
   2   3   2      16      27                                                          46   -1.15   -3.84  1.0000
   2   3   2      14      19                                                          43   -1.15   -3.84  1.0000
   2   3   2      13      28                                                          40   -1.15   -3.84  1.0000
   2   3   2      32      25                                                          71   -1.15   -3.84  1.0000
   2   3   2      15      26                                                          44   -1.15   -3.84  1.0000
   2   3   2      29      27                                                          67   -1.15   -3.84  1.0000
  -2  -3  -2      56      49                                                         106   -1.15    3.84  1.0000
  -2  -3  -2       3      26                                                          20   -1.15    3.84  1.0000
  -2  -3  -2      23      24                                                          58   -1.15    3.84  1.0000
   1   1   0      29      31                                                         473   38.75   -0.47  1.0000
   1   1   0      23      26                                                         499   38.75   -0.47  1.0000
  -1  -1   0      12      46                                                         564   38.75    0.47  1.0000
  -1  -1   0      19      26                                                         521   38.75    0.47  1.0000
   0  -1  -2      69      21                                                         167   -1.02   28.21  1.0000
   0  -1  -2      49      22                                                         226   -1.02   28.21  1.0000
   0   1   2      52      21                                                         213   -1.02  -28.21  1.0000
  -1  -3  -4      97      24                                                          72    1.98   -2.40  1.0000
  -1  -3  -4      66      42                                                          45    1.98   -2.40  1.0000
  -1  -3  -4      77      21                                                          55    1.98   -2.40  1.0000
   1   3   4      91      24                                                          67    1.98    2.40  1.0000
   1   3   4      54      24                                                          35    1.98    2.40  1.0000
   1   3   4      48      23                                                          30    1.98    2.40  1.0000
   1   3   4      98      27                                                          73    1.98    2.40  1.0000
  -2  -5  -6     323     123                                                        1019    4.85  -19.63  1.0000
  -2  -5  -6     370      64                                                        1102    4.85  -19.63  1.0000
  -2  -5  -6     303      64                                                         983    4.85  -19.63  1.0000
   2   5   6     328      72                                                        1028    4.85   19.63  1.0000
   2   5   6     353      73                                                        1071    4.85   19.63  1.0000
   2   5   6     361      54                                                        1085    4.85   19.63  1.0000
   2   5   6     345      57                                                        1058    4.85   19.63  1.0000
   4   6   4    1138      93                                                         671   10.45   -4.67  1.0000
   4   6   4    1245      75                                                         754   10.45   -4.67  1.0000
  -4  -6  -4     889     103                                                         483   10.45    4.67  1.0000
   3   4   2     707      41                                                         473    8.32    7.43  1.0000
   3   4   2     677      64                                                         448    8.32    7.43  1.0000
   3   4   2     681      60                                                         451    8.32    7.43  1.0000
   3   4   2     779      55                                                         534    8.32    7.43  1.0000
   3   4   2     609      55                                                         391    8.32    7.43  1.0000
  -3  -4  -2     721      73                                                         485    8.32   -7.43  1.0000
  -3  -4  -2     680      54                                                         450    8.32   -7.43  1.0000
  -3  -4  -2     726      58                                                         489    8.32   -7.43  1.0000
  -3  -4  -2     682      56                                                         452    8.32   -7.43  1.0000
   2   2   0   65570     747                                                       99369   85.24   -0.33  1.0000
   2   2   0   64967     807                                                       98627   85.24   -0.33  1.0000
   2   2   0   64401     778                                                       97929   85.24   -0.33  1.0000
  -2  -2   0   61495     761                                                       94338   85.24    0.33  1.0000
  -2  -2   0   62442     900                                                       95510   85.24    0.33  1.0000
   1   0  -2      60      22                                                         195    0.28   28.39  1.0000
  -1   0   2      45      31                                                         254    0.28  -28.39  1.0000
  -1   0   2      45      24                                                         253    0.28  -28.39  1.0000
  -1   0   2      51      22                                                         223    0.28  -28.39  1.0000
   0  -2  -4   51105     332                                                       42008   21.01   22.90  1.0000
   0  -2  -4   52540     333                                                       43310   21.01   22.90  1.0000
   0   2   4   57681     367                                                       47990   21.01  -22.90  1.0000
  -1  -4  -6     238      48                                                         376   -1.18   -7.72  1.0000
  -1  -4  -6     199      63                                                         325   -1.18   -7.72  1.0000
  -1  -4  -6     289      46                                                         440   -1.18   -7.72  1.0000
   1   4   6     321      54                                                         481   -1.18    7.72  1.0000
   1   4   6     273      54                                                         420   -1.18    7.72  1.0000
   1   4   6     309      38                                                         466   -1.18    7.72  1.0000
  -2  -6  -8     679      85                                                         652    2.97   -2.05  1.0000
  -2  -6  -8     431      95                                                         408    2.97   -2.05  1.0000
  -2  -6  -8     628      68                                                         601    2.97   -2.05  1.0000
   2   6   8     699      63                                                         671    2.97    2.05  1.0000
   2   6   8     814      91                                                         784    2.97    2.05  1.0000
   2   6   8     797      92                                                         768    2.97    2.05  1.0000
   4   5   2     145      51                                                         136    0.48    0.43  1.0000
   4   5   2     138      47                                                         129    0.48    0.43  1.0000
   4   5   2     116      46                                                         108    0.48    0.43  1.0000
   4   5   2      99      49                                                          92    0.48    0.43  1.0000
  -4  -5  -2     143      45                                                         134    0.48   -0.43  1.0000
  -4  -5  -2     102      77                                                          94    0.48   -0.43  1.0000
  -4  -5  -2     151      49                                                         142    0.48   -0.43  1.0000
   3   3   0      19      28                                                          -6    6.14   -1.27  1.0000
   3   3   0       6      28                                                          12    6.14   -1.27  1.0000
   3   3   0       6      34                                                          18    6.14   -1.27  1.0000
   3   3   0      16      26                                                          48    6.14   -1.27  1.0000
   3   3   0      13      35                                                           1    6.14   -1.27  1.0000
  -3  -3   0      35      49                                                          83    6.14    1.27  1.0000
  -3  -3   0      19      28                                                         -11    6.14    1.27  1.0000
  -3  -3   0      14      30                                                          44    6.14    1.27  1.0000
  -3  -3   0      19      32                                                         -38    6.14    1.27  1.0000
   2   1  -2     183      33                                                         199   11.67   -4.55  1.0000
   2   1  -2     250      27                                                         284   11.67   -4.55  1.0000
  -2  -1   2     257      28                                                         292   11.67    4.55  1.0000
  -2  -1   2     282      39                                                         323   11.67    4.55  1.0000
  -2  -1   2     247      32                                                         280   11.67    4.55  1.0000
   1  -1  -4     295      25                                                         264    3.63   -9.00  1.0000
  -1   1   4     254      38                                                         222    3.63    9.00  1.0000
  -1   1   4     316      25                                                         286    3.63    9.00  1.0000
   0  -3  -6     319      43                                                        1266   -0.77  -25.94  1.0000
   0  -3  -6     283      45                                                        1193   -0.77  -25.94  1.0000
   0   3   6     284      48                                                        1196   -0.77   25.94  1.0000
   0   3   6     269      48                                                        1164   -0.77   25.94  1.0000
   0   3   6     268      34                                                        1161   -0.77   25.94  1.0000
   0   3   6     273      41                                                        1173   -0.77   25.94  1.0000
  -1  -5  -8     165      40                                                         102   -0.44   -5.38  1.0000
  -1  -5  -8      96      37                                                          48   -0.44   -5.38  1.0000
  -1  -5  -8     233      74                                                         158   -0.44   -5.38  1.0000
   1   5   8     288      46                                                         205   -0.44    5.38  1.0000
   1   5   8     198      34                                                         129   -0.44    5.38  1.0000
   1   5   8     198      45                                                         129   -0.44    5.38  1.0000
   4   4   0    6659     157                                                       11073   34.07   -0.50  1.0000
   4   4   0    6353     145                                                       10677   34.07   -0.50  1.0000
   4   4   0    6238     143                                                       10527   34.07   -0.50  1.0000
   4   4   0    6449     150                                                       10801   34.07   -0.50  1.0000
   4   4   0    6414     121                                                       10756   34.07   -0.50  1.0000
  -4  -4   0    6443     138                                                       10793   34.07    0.50  1.0000
  -4  -4   0    6563     196                                                       10948   34.07    0.50  1.0000
  -4  -4   0    6295     138                                                       10602   34.07    0.50  1.0000
   3   2  -2       9      27                                                          -5   -0.34    4.38  1.0000
   3   2  -2      36      27                                                          81   -0.34    4.38  1.0000
   3   2  -2      29      35                                                          70   -0.34    4.38  1.0000
   3   2  -2      10      26                                                          38   -0.34    4.38  1.0000
   3   2  -2      34      31                                                          78   -0.34    4.38  1.0000
  -3  -2   2      20      30                                                          56   -0.34   -4.38  1.0000
  -3  -2   2       7      27                                                          31   -0.34   -4.38  1.0000
  -3  -2   2      10      29                                                          38   -0.34   -4.38  1.0000
  -3  -2   2       8      27                                                          33   -0.34   -4.38  1.0000
  -3  -2   2      39      37                                                          85   -0.34   -4.38  1.0000
   2   0  -4   54474     352                                                       44971   21.22   23.17  1.0000
  -2   0   4   60147     407                                                       50139   21.22  -23.17  1.0000
  -2   0   4   58883     484                                                       48985   21.22  -23.17  1.0000
  -2   0   4   60204     385                                                       50191   21.22  -23.17  1.0000
  -2   0   4   59037     383                                                       49126   21.22  -23.17  1.0000
   1  -2  -6      31      23                                                         139    4.91   -8.64  1.0000
   1  -2  -6      10      34                                                          80    4.91   -8.64  1.0000
   1  -2  -6      21      24                                                         113    4.91   -8.64  1.0000
   1  -2  -6      12      22                                                          89    4.91   -8.64  1.0000
  -1   2   6      16      21                                                         101    4.91    8.64  1.0000
  -1   2   6       6      33                                                          65    4.91    8.64  1.0000
  -1   2   6      11      23                                                          83    4.91    8.64  1.0000
   0  -4  -8    5716     132                                                        4224   -2.72  -15.20  1.0000
   0  -4  -8    5592      80                                                        4118   -2.72  -15.20  1.0000
   0  -4  -8    5867      81                                                        4354   -2.72  -15.20  1.0000
   0   4   8    6871      78                                                        5225   -2.72   15.20  1.0000
   0   4   8    6842      95                                                        5200   -2.72   15.20  1.0000
   0   4   8    6833      92                                                        5192   -2.72   15.20  1.0000
   5   5   0       0      38                                                          14   -5.60    0.73  1.0000
   5   5   0      15      48                                                         -18   -5.60    0.73  1.0000
  -5  -5   0      15      50                                                          -3   -5.60   -0.73  1.0000
  -5  -5   0      15      74                                                        -105   -5.60   -0.73  1.0000
   4   3  -2     601      54                                                         378    8.01   -7.36  1.0000
   4   3  -2     670      60                                                         435    8.01   -7.36  1.0000
   4   3  -2     658      58                                                         425    8.01   -7.36  1.0000
  -4  -3   2     562      43                                                         346    8.01    7.36  1.0000
  -4  -3   2     645      47                                                         414    8.01    7.36  1.0000
  -4  -3   2     687      56                                                         449    8.01    7.36  1.0000
  -4  -3   2     706      83                                                         465    8.01    7.36  1.0000
   3   1  -4      46      23                                                          30    1.54   -2.81  1.0000
   3   1  -4      67      25                                                          48    1.54   -2.81  1.0000
   3   1  -4      70      29                                                          50    1.54   -2.81  1.0000
  -3  -1   4       8      26                                                           1    1.54    2.81  1.0000
  -3  -1   4      57      23                                                          39    1.54    2.81  1.0000
  -3  -1   4      78      31                                                          57    1.54    2.81  1.0000
  -3  -1   4      46      25                                                          30    1.54    2.81  1.0000
  -3  -1   4      70      27                                                          50    1.54    2.81  1.0000
   2  -1  -6      14      24                                                          97    5.39   -8.58  1.0000
   2  -1  -6      16      33                                                         102    5.39   -8.58  1.0000
   2  -1  -6      11      23                                                          87    5.39   -8.58  1.0000
   2  -1  -6       7      23                                                          70    5.39   -8.58  1.0000
  -2   1   6      13      25                                                          95    5.39    8.58  1.0000
  -2   1   6      14      33                                                          97    5.39    8.58  1.0000
   1  -3  -8     589      82                                                         477    1.03   -5.43  1.0000
   1  -3  -8     517      47                                                         412    1.03   -5.43  1.0000
   1  -3  -8     515      49                                                         410    1.03   -5.43  1.0000
   1  -3  -8     569      48                                                         459    1.03   -5.43  1.0000
  -1   3   8     579      51                                                         468    1.03    5.43  1.0000
  -1   3   8     541      41                                                         433    1.03    5.43  1.0000
   0  -5 -10      79      38                                                          -6   12.57   -2.52  1.0000
   0  -5 -10      42      72                                                          11   12.57   -2.52  1.0000
   0  -5 -10      35      44                                                         102   12.57   -2.52  1.0000
   0   5  10      28      47                                                          43   12.57    2.52  1.0000
   0   5  10      79      44                                                         -70   12.57    2.52  1.0000
   5   4  -2     102      46                                                          85    0.71   -1.11  1.0000
   5   4  -2     167      43                                                         145    0.71   -1.11  1.0000
  -5  -4   2     102      62                                                          85    0.71    1.11  1.0000
  -5  -4   2     126      46                                                         107    0.71    1.11  1.0000
  -5  -4   2      87      47                                                          71    0.71    1.11  1.0000
   4   2  -4   11804     123                                                        8851   17.25   11.92  1.0000
   4   2  -4   11852     113                                                        8892   17.25   11.92  1.0000
   4   2  -4   11904     120                                                        8937   17.25   11.92  1.0000
   4   2  -4   11898     115                                                        8932   17.25   11.92  1.0000
   4   2  -4   11865     108                                                        8903   17.25   11.92  1.0000
  -4  -2   4   13537     158                                                       10359   17.25  -11.92  1.0000
  -4  -2   4   13544     135                                                       10365   17.25  -11.92  1.0000
  -4  -2   4   13562     129                                                       10381   17.25  -11.92  1.0000
   3   0  -6     321      47                                                        1273   -1.36  -25.94  1.0000
   3   0  -6     263      50                                                        1155   -1.36  -25.94  1.0000
  -3   0   6     181      61                                                         972   -1.36   25.94  1.0000
  -3   0   6     175      49                                                         959   -1.36   25.94  1.0000
  -3   0   6     175      45                                                         957   -1.36   25.94  1.0000
   2  -2  -8   11997     101                                                        8582  -15.35  -20.93  1.0000
   2  -2  -8   11847     146                                                        8455  -15.35  -20.93  1.0000
   2  -2  -8   12000     106                                                        8585  -15.35  -20.93  1.0000
  -2   2   8   14633     129                                                       10836  -15.35   20.93  1.0000
  -2   2   8   14035     167                                                       10321  -15.35   20.93  1.0000
   1  -4 -10      51      60                                                          13    3.82   -3.76  1.0000
   1  -4 -10     101      38                                                          43    3.82   -3.76  1.0000
   1  -4 -10     213      38                                                         124    3.82   -3.76  1.0000
  -1   4  10     210      40                                                         122    3.82    3.76  1.0000
  -1   4  10     196      41                                                         111    3.82    3.76  1.0000
   5   3  -4      36      43                                                          63   -2.70   -1.70  1.0000
  -5  -3   4       5      40                                                         -10   -2.70    1.70  1.0000
  -5  -3   4       5      49                                                         -63   -2.70    1.70  1.0000
  -5  -3   4       8      45                                                          22   -2.70    1.70  1.0000
   4   1  -6     348      53                                                         514   -0.33   -7.36  1.0000
   4   1  -6     266      58                                                         412   -0.33   -7.36  1.0000
   4   1  -6     281      52                                                         431   -0.33   -7.36  1.0000
  -4  -1   6     297      43                                                         451   -0.33    7.36  1.0000
  -4  -1   6     421      58                                                         603   -0.33    7.36  1.0000
  -4  -1   6     352      55                                                         519   -0.33    7.36  1.0000
  -4  -1   6     377      68                                                         549   -0.33    7.36  1.0000
   3  -1  -8     542      50                                                         430    0.72   -5.46  1.0000
   3  -1  -8     447      47                                                         345    0.72   -5.46  1.0000
   3  -1  -8     474      69                                                         369    0.72   -5.46  1.0000
  -3   1   8     635      53                                                         514    0.72    5.46  1.0000
  -3   1   8     654      75                                                         531    0.72    5.46  1.0000
   2  -3 -10      55      34                                                          17   11.14   -4.39  1.0000
   2  -3 -10      69      35                                                         -40   11.14   -4.39  1.0000
   2  -3 -10      70      57                                                          60   11.14   -4.39  1.0000
  -2   3  10      55      28                                                          17   11.14    4.39  1.0000
  -2   3  10      58      61                                                          30   11.14    4.39  1.0000
  -2   3  10      55      37                                                          19   11.14    4.39  1.0000
   6   4  -4    1167      75                                                         678   10.51    5.33  1.0000
  -6  -4   4    1292      80                                                         774   10.51   -5.33  1.0000
   5   2  -6     533      76                                                        1384    4.24  -20.04  1.0000
  -5  -2   6     187      79                                                         771    4.24   20.04  1.0000
  -5  -2   6     226      58                                                         850    4.24   20.04  1.0000
  -5  -2   6     254      69                                                         902    4.24   20.04  1.0000
   4   0  -8    5827      87                                                        4312   -3.08  -15.16  1.0000
   4   0  -8    5867      85                                                        4347   -3.08  -15.16  1.0000
   4   0  -8    5812     108                                                        4299   -3.08  -15.16  1.0000
  -4   0   8    7076     102                                                        5395   -3.08   15.16  1.0000
  -4   0   8    7168     124                                                        5476   -3.08   15.16  1.0000
  -4   0   8    7054      92                                                        5376   -3.08   15.16  1.0000
   3  -2 -10      79      35                                                         -36   11.67   -5.22  1.0000
   3  -2 -10      58      37                                                          42   11.67   -5.22  1.0000
   3  -2 -10      56      52                                                          33   11.67   -5.22  1.0000
   3  -2 -10      71      38                                                          77   11.67   -5.22  1.0000
  -3   2  10      79      53                                                         -14   11.67    5.22  1.0000
  -3   2  10      59      31                                                          47   11.67    5.22  1.0000
  -3   2  10      79      39                                                         -16   11.67    5.22  1.0000
   2  -4 -12    1177      79                                                        1510    2.22   -6.18  1.0000
   2  -4 -12    1118      72                                                        1444    2.22   -6.18  1.0000
   2  -4 -12    1245     126                                                        1587    2.22   -6.18  1.0000
   2  -4 -12    1099      78                                                        1422    2.22   -6.18  1.0000
  -2   4  12    1454      87                                                        1822    2.22    6.18  1.0000
  -2   4  12    1189      91                                                        1524    2.22    6.18  1.0000
   6   3  -6     250      52                                                         208   -2.66    0.29  1.0000
  -6  -3   6     244      55                                                         202   -2.66   -0.29  1.0000
  -6  -3   6     334      48                                                         285   -2.66   -0.29  1.0000
   5   1  -8     126      43                                                          72   -0.75   -5.17  1.0000
   5   1  -8     113      45                                                          62   -0.75   -5.17  1.0000
   5   1  -8     137      40                                                          81   -0.75   -5.17  1.0000
  -5  -1   8     211      43                                                         141   -0.75    5.17  1.0000
  -5  -1   8     159      45                                                          98   -0.75    5.17  1.0000
  -5  -1   8      19      50                                                           1   -0.75    5.17  1.0000
   4  -1 -10     171      40                                                          99    3.75   -2.74  1.0000
   4  -1 -10     224      54                                                         140    3.75   -2.74  1.0000
   4  -1 -10     183      41                                                         108    3.75   -2.74  1.0000
  -4   1  10     181      35                                                         106    3.75    2.74  1.0000
  -4   1  10     349      62                                                         242    3.75    2.74  1.0000
  -4   1  10     218      46                                                         135    3.75    2.74  1.0000
   3  -3 -12     213      47                                                         223   -2.45   -0.63  1.0000
   3  -3 -12     219      44                                                         229   -2.45   -0.63  1.0000
   3  -3 -12     257      67                                                         269   -2.45   -0.63  1.0000
  -3   3  12     302      53                                                         315   -2.45    0.63  1.0000
  -3   3  12     260      74                                                         272   -2.45    0.63  1.0000
   6   2  -8     665      87                                                         661    2.92   -1.29  1.0000
  -6  -2   8     908      88                                                         904    2.92    1.29  1.0000
  -6  -2   8     870      80                                                         866    2.92    1.29  1.0000
   5   0 -10      82      50                                                         -27   12.69   -2.83  1.0000
   5   0 -10      82      44                                                         -80   12.69   -2.83  1.0000
   5   0 -10      59      45                                                           3   12.69   -2.83  1.0000
  -5   0  10      26      58                                                          58   12.69    2.83  1.0000
  -5   0  10      29      39                                                          34   12.69    2.83  1.0000
  -5   0  10      29      48                                                          33   12.69    2.83  1.0000
   4  -2 -12    1147      84                                                        1470    1.78   -6.19  1.0000
   4  -2 -12    1233      76                                                        1567    1.78   -6.19  1.0000
   4  -2 -12    1159      78                                                        1484    1.78   -6.19  1.0000
   4  -2 -12    1328     111                                                        1674    1.78   -6.19  1.0000
  -4   2  12    1516     122                                                        1884    1.78    6.19  1.0000
  -4   2  12    1255      64                                                        1592    1.78    6.19  1.0000
  -4   2  12    1282      94                                                        1622    1.78    6.19  1.0000
  -5   2  11     893      55                                                         774    0.10    4.09  1.0000
  -5   2  11     819      79                                                         705    0.10    4.09  1.0000
  -5   2  11    1010     113                                                         883    0.10    4.09  1.0000
   5  -2 -11     688      55                                                         584    0.10   -4.09  1.0000
   5  -2 -11     676      66                                                         573    0.10   -4.09  1.0000
   5  -2 -11     705     100                                                         599    0.10   -4.09  1.0000
  -6   0   9      40      48                                                          54   -1.41    3.54  1.0000
  -6   0   9     139      62                                                         169   -1.41    3.54  1.0000
  -6   0   9     127      45                                                         156   -1.41    3.54  1.0000
   6   0  -9     144      50                                                         175   -1.41   -3.54  1.0000
   6   0  -9      86      46                                                         109   -1.41   -3.54  1.0000
   6   0  -9      89      54                                                         112   -1.41   -3.54  1.0000
  -4   3  11     745      73                                                         662   -0.38    2.65  1.0000
  -4   3  11     949     110                                                         855   -0.38    2.65  1.0000
   4  -3 -11     742      61                                                         659   -0.38   -2.65  1.0000
   4  -3 -11     724      97                                                         642   -0.38   -2.65  1.0000
   4  -3 -11     619      64                                                         544   -0.38   -2.65  1.0000
  -5   1   9    1072      80                                                        2043    6.18   17.03  1.0000
  -5   1   9    1042      65                                                        2002    6.18   17.03  1.0000
  -5   1   9    1053     109                                                        2016    6.18   17.03  1.0000
   5  -1  -9    1282      79                                                        2329    6.18  -17.03  1.0000
   5  -1  -9    1270     101                                                        2313    6.18  -17.03  1.0000
   5  -1  -9    1222      78                                                        2248    6.18  -17.03  1.0000
  -6  -1   7     929      67                                                         462   14.76    2.04  1.0000
  -6  -1   7     819      53                                                         384   14.76    2.04  1.0000
  -6  -1   7     706      60                                                         306   14.76    2.04  1.0000
  -6  -1   7     826      49                                                         389   14.76    2.04  1.0000
   6   1  -7     542      45                                                         199   14.76   -2.04  1.0000
   6   1  -7     682      51                                                         290   14.76   -2.04  1.0000
  -3   4  11     851      71                                                         737   -0.90    3.07  1.0000
  -3   4  11     811     115                                                         700   -0.90    3.07  1.0000
   3  -4 -11     662     100                                                         562   -0.90   -3.07  1.0000
   3  -4 -11     616      62                                                         520   -0.90   -3.07  1.0000
   3  -4 -11     597      59                                                         502   -0.90   -3.07  1.0000
  -4   2   9     524      95                                                         677   -7.75    7.55  1.0000
  -4   2   9     562      59                                                         722   -7.75    7.55  1.0000
  -4   2   9     471      46                                                         615   -7.75    7.55  1.0000
   4  -2  -9     388      83                                                         514   -7.75   -7.55  1.0000
   4  -2  -9     446      56                                                         584   -7.75   -7.55  1.0000
   4  -2  -9     523      54                                                         676   -7.75   -7.55  1.0000
  -5   0   7    2331      79                                                        2470   -0.90    4.34  1.0000
  -5   0   7    2368     103                                                        2508   -0.90    4.34  1.0000
  -5   0   7    2365      71                                                        2505   -0.90    4.34  1.0000
   5   0  -7    1800      70                                                        1921   -0.90   -4.34  1.0000
   5   0  -7    1851      68                                                        1974   -0.90   -4.34  1.0000
  -6  -2   5     113      46                                                          89   -3.54   -1.08  1.0000
  -6  -2   5     121      37                                                          97   -3.54   -1.08  1.0000
  -6  -2   5       9      54                                                           1   -3.54   -1.08  1.0000
   6   2  -5      78      46                                                          58   -3.54    1.08  1.0000
  -2   5  11     855      76                                                         752    0.54    4.05  1.0000
  -2   5  11     874      73                                                         769    0.54    4.05  1.0000
   2  -5 -11     530      47                                                         448    0.54   -4.05  1.0000
   2  -5 -11     591      60                                                         505    0.54   -4.05  1.0000
   2  -5 -11     814     115                                                         713    0.54   -4.05  1.0000
  -3   3   9    1301     111                                                        2780    7.66   22.99  1.0000
  -3   3   9    1395      75                                                        2916    7.66   22.99  1.0000
   3  -3  -9    1552     111                                                        3142    7.66  -22.99  1.0000
   3  -3  -9    1614      70                                                        3230    7.66  -22.99  1.0000
   3  -3  -9    1526      71                                                        3105    7.66  -22.99  1.0000
  -4   1   7    3862      94                                                        2865   15.25    6.24  1.0000
  -4   1   7    3847      71                                                        2852   15.25    6.24  1.0000
   4  -1  -7    3318      63                                                        2395   15.25   -6.24  1.0000
   4  -1  -7    3291      85                                                        2372   15.25   -6.24  1.0000
   4  -1  -7    3264      60                                                        2349   15.25   -6.24  1.0000
  -5  -1   5    2757      94                                                        2177   -4.15    8.36  1.0000
  -5  -1   5    2738      75                                                        2160   -4.15    8.36  1.0000
  -5  -1   5    2793      53                                                        2209   -4.15    8.36  1.0000
  -5  -1   5    2787      70                                                        2204   -4.15    8.36  1.0000
   5   1  -5    2345      65                                                        1812   -4.15   -8.36  1.0000
   5   1  -5    2363      70                                                        1828   -4.15   -8.36  1.0000
   5   1  -5    2404      64                                                        1864   -4.15   -8.36  1.0000
  -6  -3   3     459      74                                                        1207   17.48    7.91  1.0000
  -6  -3   3     510     108                                                        1288   17.48    7.91  1.0000
  -6  -3   3     510      84                                                        1288   17.48    7.91  1.0000
   6   3  -3     570      77                                                        1383   17.48   -7.91  1.0000
   6   3  -3     652      91                                                        1509   17.48   -7.91  1.0000
  -2   4   9     450      55                                                         581   -7.43    7.26  1.0000
  -2   4   9     463     101                                                         596   -7.43    7.26  1.0000
   2  -4  -9     465      52                                                         598   -7.43   -7.26  1.0000
   2  -4  -9     527      53                                                         671   -7.43   -7.26  1.0000
   2  -4  -9     464      92                                                         597   -7.43   -7.26  1.0000
  -3   2   7    6343     120                                                        5874    4.20   -1.02  1.0000
  -3   2   7    6381      72                                                        5911    4.20   -1.02  1.0000
   3  -2  -7    5005      68                                                        4590    4.20    1.02  1.0000
   3  -2  -7    4957      72                                                        4544    4.20    1.02  1.0000
   3  -2  -7    4940     103                                                        4527    4.20    1.02  1.0000
  -4   0   5    2916      63                                                        2301   -2.79   -8.38  1.0000
  -4   0   5    3030      77                                                        2402   -2.79   -8.38  1.0000
  -4   0   5    2977      57                                                        2355   -2.79   -8.38  1.0000
   4   0  -5    2660      54                                                        2074   -2.79    8.38  1.0000
   4   0  -5    2505      53                                                        1937   -2.79    8.38  1.0000
  -5  -2   3    1974      71                                                        2816   13.26    0.30  1.0000
  -5  -2   3    1959      82                                                        2798   13.26    0.30  1.0000
  -5  -2   3    2008     106                                                        2857   13.26    0.30  1.0000
  -5  -2   3    2076      84                                                        2938   13.26    0.30  1.0000
   5   2  -3    1892      75                                                        2717   13.26   -0.30  1.0000
   5   2  -3    1842      85                                                        2657   13.26   -0.30  1.0000
   5   2  -3    1983      78                                                        2826   13.26   -0.30  1.0000
  -6  -4   1       2      51                                                          26   -4.67    7.82  1.0000
  -6  -4   1      40      72                                                         -95   -4.67    7.82  1.0000
  -6  -4   1       2      49                                                          52   -4.67    7.82  1.0000
   6   4  -1       3      62                                                          58   -4.67   -7.82  1.0000
   6   4  -1       2      46                                                          53   -4.67   -7.82  1.0000
   6   4  -1      40      52                                                          -7   -4.67   -7.82  1.0000
  -1   5   9    1023      70                                                        1998    5.75   17.61  1.0000
  -1   5   9    1040      70                                                        2021    5.75   17.61  1.0000
   1  -5  -9    1211      71                                                        2258    5.75  -17.61  1.0000
   1  -5  -9    1228      67                                                        2281    5.75  -17.61  1.0000
   1  -5  -9    1295     118                                                        2372    5.75  -17.61  1.0000
   2  -3  -7    4981      70                                                        4556    4.71   -0.36  1.0000
  -3   1   5    7612     102                                                        5923   -9.23   14.86  1.0000
  -3   1   5    7622      78                                                        5932   -9.23   14.86  1.0000
   3  -1  -5    6533      63                                                        4973   -9.23  -14.86  1.0000
   3  -1  -5    6566      66                                                        5002   -9.23  -14.86  1.0000
   3  -1  -5    6627      68                                                        5056   -9.23  -14.86  1.0000
  -4  -1   3    6784     131                                                       12012   34.43   19.65  1.0000
  -4  -1   3    6815     116                                                       12054   34.43   19.65  1.0000
  -4  -1   3    6914     168                                                       12185   34.43   19.65  1.0000
  -4  -1   3    6776     137                                                       12002   34.43   19.65  1.0000
   4   1  -3    6762     130                                                       11983   34.43  -19.65  1.0000
   4   1  -3    6928     122                                                       12204   34.43  -19.65  1.0000
   4   1  -3    7121     125                                                       12459   34.43  -19.65  1.0000
  -5  -3   1    3144      83                                                        2166   11.21   -8.72  1.0000
  -5  -3   1    3198      75                                                        2211   11.21   -8.72  1.0000
  -5  -3   1    3396     115                                                        2376   11.21   -8.72  1.0000
   5   3  -1    2996      70                                                        2043   11.21    8.72  1.0000
   5   3  -1    2870      78                                                        1939   11.21    8.72  1.0000
   5   3  -1    3002      81                                                        2048   11.21    8.72  1.0000
   0   6   9     125      49                                                         156   -1.48    3.78  1.0000
   0   6   9      92      47                                                         118   -1.48    3.78  1.0000
   0  -6  -9      98      39                                                         125   -1.48   -3.78  1.0000
   0  -6  -9      81      78                                                         105   -1.48   -3.78  1.0000
   0  -6  -9     135      42                                                         167   -1.48   -3.78  1.0000
  -1   4   7    3799      63                                                        2787   15.19    5.14  1.0000
   1  -4  -7    3369      57                                                        2418   15.19   -5.14  1.0000
   1  -4  -7    3325      56                                                        2380   15.19   -5.14  1.0000
   1  -4  -7    3301     101                                                        2360   15.19   -5.14  1.0000
  -2   2   5    8813      72                                                        7560    9.48  -11.76  1.0000
  -2   2   5    8803      82                                                        7551    9.48  -11.76  1.0000
  -2   2   5    8574     116                                                        7338    9.48  -11.76  1.0000
   2  -2  -5    7491      71                                                        6335    9.48   11.76  1.0000
   2  -2  -5    7462     104                                                        6308    9.48   11.76  1.0000
   2  -2  -5    7421      72                                                        6270    9.48   11.76  1.0000
   2  -2  -5    7414      66                                                        6264    9.48   11.76  1.0000
  -3   0   3   14250     175                                                       20543   34.68    5.59  1.0000
  -3   0   3   14075     227                                                       20333   34.68    5.59  1.0000
  -3   0   3   14043     185                                                       20295   34.68    5.59  1.0000
  -3   0   3   13984     175                                                       20223   34.68    5.59  1.0000
   3   0  -3   12807     163                                                       18802   34.68   -5.59  1.0000
  -4  -2   1    2911      60                                                        2203   -0.06   13.17  1.0000
  -4  -2   1    3055      67                                                        2329   -0.06   13.17  1.0000
  -4  -2   1    2985      61                                                        2268   -0.06   13.17  1.0000
  -4  -2   1    3016      64                                                        2295   -0.06   13.17  1.0000
  -4  -2   1    2952      92                                                        2239   -0.06   13.17  1.0000
   4   2  -1    2796      64                                                        2102   -0.06  -13.17  1.0000
   4   2  -1    2830      70                                                        2132   -0.06  -13.17  1.0000
   4   2  -1    2798      58                                                        2104   -0.06  -13.17  1.0000
   4   2  -1    2787      63                                                        2094   -0.06  -13.17  1.0000
   4   2  -1    2827      58                                                        2129   -0.06  -13.17  1.0000
  -5  -4  -1     724      79                                                         390    7.50    7.35  1.0000
  -5  -4  -1     629      52                                                         321    7.50    7.35  1.0000
   5   4   1     940      59                                                         552    7.50   -7.35  1.0000
   5   4   1     704      53                                                         375    7.50   -7.35  1.0000
   5   4   1     728      59                                                         393    7.50   -7.35  1.0000
   0   5   7    2211      50                                                        2350   -0.85    4.73  1.0000
   0   5   7    2206      70                                                        2345   -0.85    4.73  1.0000
   0   5   7    2196      70                                                        2335   -0.85    4.73  1.0000
   0  -5  -7    1940      62                                                        2070   -0.85   -4.73  1.0000
   0  -5  -7    1892     116                                                        2020   -0.85   -4.73  1.0000
   0  -5  -7    1880      63                                                        2008   -0.85   -4.73  1.0000
  -1   3   5    7781      73                                                        6014   -8.51   15.35  1.0000
   1  -3  -5    6673      63                                                        5042   -8.51  -15.35  1.0000
   1  -3  -5    6593      63                                                        4973   -8.51  -15.35  1.0000
   1  -3  -5    6555      64                                                        4940   -8.51  -15.35  1.0000
  -2   1   3   22150     319                                                       31897   40.00   15.40  1.0000
   2  -1  -3   22819     253                                                       32698   40.00  -15.40  1.0000
  -3  -1   1   16969     128                                                       12320   19.43  -20.08  1.0000
  -3  -1   1   17525     122                                                       12794   19.43  -20.08  1.0000
  -3  -1   1   17233     163                                                       12545   19.43  -20.08  1.0000
   3   1  -1   16529     129                                                       11945   19.43   20.08  1.0000
  -4  -3  -1    2920     118                                                        2667    1.17    3.56  1.0000
  -4  -3  -1    2780      72                                                        2533    1.17    3.56  1.0000
  -4  -3  -1    2881      68                                                        2629    1.17    3.56  1.0000
  -4  -3  -1    2911      71                                                        2658    1.17    3.56  1.0000
   4   3   1    2668      73                                                        2426    1.17   -3.56  1.0000
   4   3   1    2855      81                                                        2604    1.17   -3.56  1.0000
   4   3   1    2777      65                                                        2530    1.17   -3.56  1.0000
   4   3   1    2692      72                                                        2449    1.17   -3.56  1.0000
   4   3   1    2790      71                                                        2542    1.17   -3.56  1.0000
  -5  -5  -3     883      90                                                        1492   12.26   -3.87  1.0000
  -5  -5  -3     621     148                                                        1144   12.26   -3.87  1.0000
   5   5   3     855      86                                                        1455   12.26    3.87  1.0000
   5   5   3     871      89                                                        1477   12.26    3.87  1.0000
   1   6   7     830      48                                                         393   14.35    1.39  1.0000
   1   6   7     765      50                                                         348   14.35    1.39  1.0000
   1   6   7     752      48                                                         339   14.35    1.39  1.0000
  -1  -6  -7     681      43                                                         291   14.35   -1.39  1.0000
  -1  -6  -7     723      79                                                         319   14.35   -1.39  1.0000
  -1  -6  -7     695      46                                                         300   14.35   -1.39  1.0000
   0   4   5    2838      45                                                        2240   -2.18   -8.33  1.0000
   0   4   5    2795      55                                                        2202   -2.18   -8.33  1.0000
   0  -4  -5    2594      50                                                        2024   -2.18    8.33  1.0000
   0  -4  -5    2525      91                                                        1963   -2.18    8.33  1.0000
   0  -4  -5    2633      49                                                        2058   -2.18    8.33  1.0000
   1  -2  -3   24560     346                                                       34797   40.04  -15.52  1.0000
   1  -2  -3   24502     266                                                       34728   40.04  -15.52  1.0000
  -2   0   1   26683     210                                                       26890   14.48   10.37  1.0000
  -2   0   1   26320     270                                                       26525   14.48   10.37  1.0000
  -2   0   1   26716     222                                                       26924   14.48   10.37  1.0000
   2   0  -1   25917     206                                                       26119   14.48  -10.37  1.0000
  -3  -2  -1    9516      78                                                        5640   20.29   25.19  1.0000
  -3  -2  -1    9522      82                                                        5645   20.29   25.19  1.0000
  -3  -2  -1    9608      82                                                        5711   20.29   25.19  1.0000
  -3  -2  -1    9625     120                                                        5724   20.29   25.19  1.0000
   3   2   1    9449      80                                                        5589   20.29  -25.19  1.0000
   3   2   1    9314      78                                                        5485   20.29  -25.19  1.0000
   3   2   1    9348      82                                                        5511   20.29  -25.19  1.0000
   3   2   1    9204      86                                                        5401   20.29  -25.19  1.0000
   3   2   1    9303      81                                                        5477   20.29  -25.19  1.0000
  -4  -4  -3     330      87                                                         572   -8.41    0.13  1.0000
  -4  -4  -3     403      64                                                         667   -8.41    0.13  1.0000
  -4  -4  -3     376      66                                                         632   -8.41    0.13  1.0000
  -4  -4  -3     346      66                                                         593   -8.41    0.13  1.0000
   4   4   3     420      65                                                         688   -8.41   -0.13  1.0000
   4   4   3     417      48                                                         684   -8.41   -0.13  1.0000
   4   4   3     402      63                                                         665   -8.41   -0.13  1.0000
   4   4   3     325      74                                                         565   -8.41   -0.13  1.0000
   4   4   3     324      75                                                         564   -8.41   -0.13  1.0000
   1   5   5    2621      57                                                        2039   -3.30    8.61  1.0000
   1   5   5    2595      65                                                        2016   -3.30    8.61  1.0000
   1   5   5    2653      70                                                        2067   -3.30    8.61  1.0000
  -1  -5  -5    2321      62                                                        1775   -3.30   -8.61  1.0000
  -1  -5  -5    2245      61                                                        1708   -3.30   -8.61  1.0000
  -1  -5  -5    2581     109                                                        2003   -3.30   -8.61  1.0000
   0   3   3   15145     177                                                       21575   34.33    5.98  1.0000
   0   3   3   14853     174                                                       21226   34.33    5.98  1.0000
   0  -3  -3   13833     168                                                       20002   34.33   -5.98  1.0000
   0  -3  -3   13976     169                                                       20174   34.33   -5.98  1.0000
   0  -3  -3   13614     226                                                       19739   34.33   -5.98  1.0000
   0  -3  -3   13698     158                                                       19840   34.33   -5.98  1.0000
  -1   1   1   37012     180                                                       18287   50.04  -65.32  1.0000
   1  -1  -1   37013     141                                                       18288   50.04   65.32  1.0000
  -2  -1  -1   20046     139                                                       15829   13.20   18.52  1.0000
  -2  -1  -1   20381     188                                                       16127   13.20   18.52  1.0000
   2   1   1   19978     149                                                       15769   13.20  -18.52  1.0000
   2   1   1   20048     138                                                       15831   13.20  -18.52  1.0000
  -3  -3  -3    7236     130                                                       11327   28.17  -12.45  1.0000
  -3  -3  -3    7120     191                                                       11182   28.17  -12.45  1.0000
  -3  -3  -3    7401     124                                                       11533   28.17  -12.45  1.0000
  -3  -3  -3    7382     127                                                       11510   28.17  -12.45  1.0000
   3   3   3    6995     130                                                       11025   28.17   12.45  1.0000
   3   3   3    7377     140                                                       11504   28.17   12.45  1.0000
   3   3   3    7153     133                                                       11224   28.17   12.45  1.0000
   3   3   3    7116     130                                                       11177   28.17   12.45  1.0000
   3   3   3    7189     109                                                       11269   28.17   12.45  1.0000
  -4  -5  -5     795     100                                                         567    1.27   -6.53  1.0000
  -4  -5  -5     787      80                                                         560    1.27   -6.53  1.0000
  -4  -5  -5     863      70                                                         624    1.27   -6.53  1.0000
   4   5   5     902      70                                                         658    1.27    6.53  1.0000
   4   5   5    1041      87                                                         777    1.27    6.53  1.0000
   4   5   5     956      88                                                         704    1.27    6.53  1.0000
   4   5   5     780      73                                                         554    1.27    6.53  1.0000
   2   6   5      68      43                                                          63   -1.86    0.07  1.0000
   2   6   5      81      36                                                          76   -1.86    0.07  1.0000
   2   6   5      86      44                                                          81   -1.86    0.07  1.0000
  -2  -6  -5      41      78                                                          37   -1.86   -0.07  1.0000
  -2  -6  -5      62      45                                                          58   -1.86   -0.07  1.0000
  -2  -6  -5      79      38                                                          74   -1.86   -0.07  1.0000
   1   4   3    7087     136                                                       12444   34.63   19.75  1.0000
   1   4   3    7195     131                                                       12588   34.63   19.75  1.0000
   1   4   3    7171     120                                                       12555   34.63   19.75  1.0000
  -1  -4  -3    7129     121                                                       12500   34.63  -19.75  1.0000
  -1  -4  -3    7036     179                                                       12376   34.63  -19.75  1.0000
  -1  -4  -3    7179     128                                                       12566   34.63  -19.75  1.0000
   0  -2  -1   26648     269                                                       26901   14.25   -9.91  1.0000
   0  -2  -1   26998     213                                                       27254   14.25   -9.91  1.0000
   0  -2  -1   26672     209                                                       26925   14.25   -9.91  1.0000
  -1   0  -1   36150     179                                                       17845   49.02   64.99  1.0000
   1   0   1   37855     149                                                       19049   49.02  -64.99  1.0000
  -2  -2  -3   11554     194                                                       14811  -20.19    3.64  1.0000
  -2  -2  -3   11473     140                                                       14719  -20.19    3.64  1.0000
   2   2   3   11968     144                                                       15279  -20.19   -3.64  1.0000
   2   2   3   11767     152                                                       15052  -20.19   -3.64  1.0000
   2   2   3   11639     144                                                       14907  -20.19   -3.64  1.0000
   2   2   3   11848     143                                                       15143  -20.19   -3.64  1.0000
  -3  -4  -5     799      48                                                         538   -5.85   -7.37  1.0000
  -3  -4  -5     783      58                                                         525   -5.85   -7.37  1.0000
  -3  -4  -5     710      59                                                         465   -5.85   -7.37  1.0000
  -3  -4  -5     638      81                                                         406   -5.85   -7.37  1.0000
   3   4   5     876      56                                                         603   -5.85    7.37  1.0000
   3   4   5     916      68                                                         636   -5.85    7.37  1.0000
   3   4   5     898      69                                                         621   -5.85    7.37  1.0000
   3   4   5     748      59                                                         496   -5.85    7.37  1.0000
   2   5   3    2020      69                                                        2851   13.09   -0.04  1.0000
   2   5   3    1900      82                                                        2708   13.09   -0.04  1.0000
   2   5   3    1970      77                                                        2791   13.09   -0.04  1.0000
  -2  -5  -3    1905      72                                                        2714   13.09    0.04  1.0000
  -2  -5  -3    1902      71                                                        2710   13.09    0.04  1.0000
  -2  -5  -3    1920     127                                                        2732   13.09    0.04  1.0000
   1   3   1   17053     117                                                       12393   19.11  -20.29  1.0000
   1   3   1   16652     125                                                       12052   19.11  -20.29  1.0000
   1   3   1   17104     117                                                       12437   19.11  -20.29  1.0000
   1   3   1   16974     119                                                       12326   19.11  -20.29  1.0000
  -1  -3  -1   16916     159                                                       12276   19.11   20.29  1.0000
  -1  -3  -1   16870     117                                                       12237   19.11   20.29  1.0000
   0   1  -1   35462     136                                                       17414   50.44   63.57  1.0000
   0  -1   1   36995     144                                                       18493   50.44  -63.57  1.0000
  -1  -1  -3   23100     263                                                       33269   41.05  -15.21  1.0000
   1   1   3   25652     284                                                       36319   41.05   15.21  1.0000
   1   1   3   25499     301                                                       36136   41.05   15.21  1.0000
  -2  -3  -5    6807      79                                                        4800    0.74  -19.13  1.0000
  -2  -3  -5    6655      76                                                        4673    0.74  -19.13  1.0000
  -2  -3  -5    6759     125                                                        4760    0.74  -19.13  1.0000
   2   3   5    7444      92                                                        5338    0.74   19.13  1.0000
   2   3   5    7454      87                                                        5346    0.74   19.13  1.0000
   2   3   5    7500      83                                                        5385    0.74   19.13  1.0000
  -3  -5  -7     902      67                                                         525   12.39   -4.08  1.0000
  -3  -5  -7    1121      78                                                         699   12.39   -4.08  1.0000
  -3  -5  -7     767      95                                                         421   12.39   -4.08  1.0000
   3   5   7    1016      86                                                         615   12.39    4.08  1.0000
   3   5   7    1405      86                                                         931   12.39    4.08  1.0000
   3   5   7    1153      65                                                         725   12.39    4.08  1.0000
   3   5   7    1164      64                                                         734   12.39    4.08  1.0000
   3   6   3     570      70                                                        1325   15.75    9.13  1.0000
   3   6   3     628      89                                                        1413   15.75    9.13  1.0000
   3   6   3     607      87                                                        1381   15.75    9.13  1.0000
  -3  -6  -3     586      76                                                        1350   15.75   -9.13  1.0000
  -3  -6  -3     596      71                                                        1364   15.75   -9.13  1.0000
  -3  -6  -3     501     133                                                        1218   15.75   -9.13  1.0000
   2   4   1    2816      63                                                        2142   -0.57   12.23  1.0000
   2   4   1    2907      59                                                        2222   -0.57   12.23  1.0000
   2   4   1    2819      40                                                        2145   -0.57   12.23  1.0000
   2   4   1    2849      67                                                        2171   -0.57   12.23  1.0000
  -2  -4  -1    2856      58                                                        2177   -0.57  -12.23  1.0000
  -2  -4  -1    2890      98                                                        2207   -0.57  -12.23  1.0000
  -2  -4  -1    2922      56                                                        2235   -0.57  -12.23  1.0000
   1   2  -1   20292     138                                                       16034   12.66   19.07  1.0000
   1   2  -1   20125     149                                                       15885   12.66   19.07  1.0000
  -1  -2   1   20382     139                                                       16114   12.66  -19.07  1.0000
  -1  -2   1   20436     174                                                       16162   12.66  -19.07  1.0000
   0   0  -3   42043     447                                                       56186  -43.83   14.37  1.0000
   0   0  -3   41709     459                                                       55800  -43.83   14.37  1.0000
   0   0  -3   41855     589                                                       55969  -43.83   14.37  1.0000
   0   0   3   41127     466                                                       55126  -43.83  -14.37  1.0000
   0   0   3   41508     449                                                       55567  -43.83  -14.37  1.0000
   0   0   3   40343     559                                                       54218  -43.83  -14.37  1.0000
  -1  -2  -5    6826      73                                                        5140   -8.88  -15.75  1.0000
  -1  -2  -5    6939      69                                                        5239   -8.88  -15.75  1.0000
   1   2   5    7788      81                                                        5982   -8.88   15.75  1.0000
   1   2   5    7855      78                                                        6041   -8.88   15.75  1.0000
   1   2   5    8038      78                                                        6202   -8.88   15.75  1.0000
   1   2   5    7740      85                                                        5940   -8.88   15.75  1.0000
  -2  -4  -7     277      73                                                         238    2.20   -7.33  1.0000
  -2  -4  -7     328      41                                                         288    2.20   -7.33  1.0000
  -2  -4  -7     253      39                                                         214    2.20   -7.33  1.0000
   2   4   7     353      40                                                         312    2.20    7.33  1.0000
   2   4   7     392      39                                                         351    2.20    7.33  1.0000
   2   4   7     339      43                                                         299    2.20    7.33  1.0000
   2   4   7     391      46                                                         350    2.20    7.33  1.0000
   3   5   1    3267      85                                                        2295   10.98   -8.36  1.0000
   3   5   1    3187      80                                                        2228   10.98   -8.36  1.0000
   3   5   1    3230      74                                                        2264   10.98   -8.36  1.0000
  -3  -5  -1    3145      72                                                        2193   10.98    8.36  1.0000
  -3  -5  -1    3255      72                                                        2285   10.98    8.36  1.0000
  -3  -5  -1    3101     121                                                        2156   10.98    8.36  1.0000
  -3  -5  -1    3191      79                                                        2231   10.98    8.36  1.0000
   2   3  -1    9244      77                                                        5391   21.99   24.46  1.0000
   2   3  -1    9207      75                                                        5363   21.99   24.46  1.0000
   2   3  -1    9221      77                                                        5374   21.99   24.46  1.0000
   2   3  -1    9183      67                                                        5345   21.99   24.46  1.0000
   2   3  -1    9069      85                                                        5258   21.99   24.46  1.0000
   2   3  -1    9141      79                                                        5313   21.99   24.46  1.0000
  -2  -3   1    9493      79                                                        5582   21.99  -24.46  1.0000
  -2  -3   1    9630     105                                                        5687   21.99  -24.46  1.0000
  -2  -3   1    9605      76                                                        5668   21.99  -24.46  1.0000
   1   1  -3   22980     264                                                       33224   41.46  -15.25  1.0000
   1   1  -3   23301     281                                                       33609   41.46  -15.25  1.0000
  -1  -1   3   22988     278                                                       33233   41.46   15.25  1.0000
  -1  -1   3   22769     322                                                       32970   41.46   15.25  1.0000
  -1  -1   3   23093     262                                                       33359   41.46   15.25  1.0000
   0  -1  -5   15011     110                                                       11103    3.33  -24.87  1.0000
   0  -1  -5   14964     145                                                       11062    3.33  -24.87  1.0000
   0   1   5   17925     171                                                       13628    3.33   24.87  1.0000
   0   1   5   17712     127                                                       13442    3.33   24.87  1.0000
   0   1   5   17882     125                                                       13590    3.33   24.87  1.0000
   0   1   5   17491     133                                                       13250    3.33   24.87  1.0000
  -1  -3  -7    3311      63                                                        2342   15.88   -5.93  1.0000
  -1  -3  -7    3317      63                                                        2347   15.88   -5.93  1.0000
   1   3   7    4023      74                                                        2952   15.88    5.93  1.0000
   1   3   7    4073      76                                                        2995   15.88    5.93  1.0000
  -2  -5  -9     432      67                                                         548    4.19   -1.81  1.0000
  -2  -5  -9     473      83                                                         595    4.19   -1.81  1.0000
  -2  -5  -9     382      92                                                         491    4.19   -1.81  1.0000
   2   5   9     720      86                                                         869    4.19    1.81  1.0000
   2   5   9     604      64                                                         741    4.19    1.81  1.0000
   2   5   9     654      93                                                         796    4.19    1.81  1.0000
   4   6   1      12      46                                                          29   -3.37    6.72  1.0000
  -4  -6  -1      27      52                                                          -3   -3.37   -6.72  1.0000
   3   4  -1    2797      76                                                        2554    2.29    2.50  1.0000
   3   4  -1    2833      59                                                        2588    2.29    2.50  1.0000
   3   4  -1    2821      71                                                        2577    2.29    2.50  1.0000
   3   4  -1    2792      84                                                        2549    2.29    2.50  1.0000
  -3  -4   1    3056     105                                                        2801    2.29   -2.50  1.0000
  -3  -4   1    3051      70                                                        2797    2.29   -2.50  1.0000
  -3  -4   1    2924      75                                                        2675    2.29   -2.50  1.0000
   2   2  -3   10897     148                                                       14168  -20.83    3.63  1.0000
  -2  -2   3   11395     170                                                       14735  -20.83   -3.63  1.0000
  -2  -2   3   11210     149                                                       14524  -20.83   -3.63  1.0000
   1   0  -5   15650     141                                                       11614    2.72  -25.10  1.0000
   1   0  -5   15578     114                                                       11552    2.72  -25.10  1.0000
  -1   0   5   17884     135                                                       13549    2.72   25.10  1.0000
  -1   0   5   17919     127                                                       13580    2.72   25.10  1.0000
  -1   0   5   17793     162                                                       13470    2.72   25.10  1.0000
  -1   0   5   17633     127                                                       13331    2.72   25.10  1.0000
   0  -2  -7    2216      53                                                        2029    3.94  -14.06  1.0000
   0  -2  -7    2206      56                                                        2019    3.94  -14.06  1.0000
   0  -2  -7    2213      88                                                        2026    3.94  -14.06  1.0000
   0  -2  -7    2257      54                                                        2069    3.94  -14.06  1.0000
   0   2   7    2626      59                                                        2431    3.94   14.06  1.0000
   0   2   7    2626      63                                                        2431    3.94   14.06  1.0000
  -1  -4  -9    1239      79                                                        2265    6.11  -16.95  1.0000
  -1  -4  -9    1386     126                                                        2463    6.11  -16.95  1.0000
  -1  -4  -9    1292      76                                                        2337    6.11  -16.95  1.0000
   1   4   9    1124      67                                                        2109    6.11   16.95  1.0000
   1   4   9    1220      85                                                        2240    6.11   16.95  1.0000
   1   4   9    1164      81                                                        2163    6.11   16.95  1.0000
   4   5  -1     866      68                                                         509    7.66    6.77  1.0000
   4   5  -1     702      55                                                         385    7.66    6.77  1.0000
  -4  -5   1     704      51                                                         386    7.66   -6.77  1.0000
  -4  -5   1     650      68                                                         346    7.66   -6.77  1.0000
   3   3  -3    7117     135                                                       11159   27.86  -12.90  1.0000
   3   3  -3    7297     134                                                       11384   27.86  -12.90  1.0000
   3   3  -3    7086     143                                                       11120   27.86  -12.90  1.0000
   3   3  -3    7012     123                                                       11027   27.86  -12.90  1.0000
   3   3  -3    7152     133                                                       11203   27.86  -12.90  1.0000
  -3  -3   3    7006     133                                                       11019   27.86   12.90  1.0000
  -3  -3   3    6990     127                                                       10999   27.86   12.90  1.0000
  -3  -3   3    7053     157                                                       11078   27.86   12.90  1.0000
  -3  -3   3    6920     122                                                       10912   27.86   12.90  1.0000
   2   1  -5    6780      79                                                        5098   -8.26  -15.72  1.0000
   2   1  -5    7116      74                                                        5391   -8.26  -15.72  1.0000
  -2  -1   5    7894      80                                                        6072   -8.26   15.72  1.0000
  -2  -1   5    7847      80                                                        6031   -8.26   15.72  1.0000
  -2  -1   5    7940      81                                                        6113   -8.26   15.72  1.0000
  -2  -1   5    7917      71                                                        6093   -8.26   15.72  1.0000
  -2  -1   5    7975      95                                                        6144   -8.26   15.72  1.0000
  -2  -1   5    7912      86                                                        6088   -8.26   15.72  1.0000
   1  -1  -7    4986      92                                                        3879   10.38    7.80  1.0000
   1  -1  -7    5072      68                                                        3955   10.38    7.80  1.0000
   1  -1  -7    5118      64                                                        3996   10.38    7.80  1.0000
   1  -1  -7    5045      69                                                        3931   10.38    7.80  1.0000
  -1   1   7    5926      69                                                        4714   10.38   -7.80  1.0000
  -1   1   7    5927      77                                                        4715   10.38   -7.80  1.0000
  -1   1   7    5706     100                                                        4518   10.38   -7.80  1.0000
   0  -3  -9    1939     114                                                        2606    6.69   -7.69  1.0000
   0  -3  -9    1948      74                                                        2617    6.69   -7.69  1.0000
   0  -3  -9    1862      68                                                        2517    6.69   -7.69  1.0000
   0   3   9    2275      78                                                        2994    6.69    7.69  1.0000
   0   3   9    2265      82                                                        2983    6.69    7.69  1.0000
   0   3   9    2333      70                                                        3060    6.69    7.69  1.0000
   4   4  -3     429      59                                                         677   -7.69    0.62  1.0000
   4   4  -3     389      69                                                         627   -7.69    0.62  1.0000
  -4  -4   3     349      67                                                         576   -7.69   -0.62  1.0000
  -4  -4   3     353      84                                                         581   -7.69   -0.62  1.0000
   3   2  -5    6765      81                                                        4679    0.68  -20.03  1.0000
   3   2  -5    6891      80                                                        4784    0.68  -20.03  1.0000
   3   2  -5    6733      84                                                        4653    0.68  -20.03  1.0000
   3   2  -5    6839      77                                                        4741    0.68  -20.03  1.0000
  -3  -2   5    7744      88                                                        5499    0.68   20.03  1.0000
  -3  -2   5    7746     101                                                        5501    0.68   20.03  1.0000
  -3  -2   5    7741      93                                                        5497    0.68   20.03  1.0000
   2   0  -7    2159      57                                                        1982    4.02  -13.87  1.0000
   2   0  -7    2212      52                                                        2034    4.02  -13.87  1.0000
   2   0  -7    2099      70                                                        1923    4.02  -13.87  1.0000
  -2   0   7    2552      77                                                        2368    4.02   13.87  1.0000
  -2   0   7    2623      64                                                        2438    4.02   13.87  1.0000
  -2   0   7    2582      58                                                        2398    4.02   13.87  1.0000
  -2   0   7    2660      41                                                        2474    4.02   13.87  1.0000
   1  -2  -9    2789      82                                                        4325    5.69  -18.37  1.0000
   1  -2  -9    2701     118                                                        4215    5.69  -18.37  1.0000
   1  -2  -9    2822      79                                                        4367    5.69  -18.37  1.0000
  -1   2   9    2873      88                                                        4430    5.69   18.37  1.0000
  -1   2   9    2853      76                                                        4405    5.69   18.37  1.0000
  -1   2   9    2799     127                                                        4338    5.69   18.37  1.0000
   0  -4 -11       7      41                                                         -38   -1.40    3.68  1.0000
   0  -4 -11     269      77                                                         188   -1.40    3.68  1.0000
   0  -4 -11      73      45                                                          34   -1.40    3.68  1.0000
   0   4  11       7      46                                                        -150   -1.40   -3.68  1.0000
   0   4  11       7      42                                                         -47   -1.40   -3.68  1.0000
   0   4  11       7      35                                                         -16   -1.40   -3.68  1.0000
   5   5  -3     742      91                                                        1311   12.22   -4.22  1.0000
   5   5  -3     826      75                                                        1422   12.22   -4.22  1.0000
  -5  -5   3     770      85                                                        1349   12.22    4.22  1.0000
   4   3  -5     699      61                                                         462   -5.43   -7.11  1.0000
   4   3  -5     819      65                                                         561   -5.43   -7.11  1.0000
  -4  -3   5     895      65                                                         625   -5.43    7.11  1.0000
  -4  -3   5     877      59                                                         610   -5.43    7.11  1.0000
  -4  -3   5     808      75                                                         552   -5.43    7.11  1.0000
   3   1  -7    3380      76                                                        2389   15.70   -4.90  1.0000
   3   1  -7    3372      68                                                        2382   15.70   -4.90  1.0000
   3   1  -7    3433      66                                                        2434   15.70   -4.90  1.0000
   3   1  -7    3251      66                                                        2280   15.70   -4.90  1.0000
  -3  -1   7    4056      87                                                        2966   15.70    4.90  1.0000
  -3  -1   7    4074      78                                                        2982   15.70    4.90  1.0000
  -3  -1   7    4125      57                                                        3026   15.70    4.90  1.0000
  -3  -1   7    4030      71                                                        2944   15.70    4.90  1.0000
   2  -1  -9    2725     113                                                        4247    5.02  -18.75  1.0000
   2  -1  -9    2790      84                                                        4328    5.02  -18.75  1.0000
   2  -1  -9    2912      86                                                        4480    5.02  -18.75  1.0000
   2  -1  -9    2790      81                                                        4328    5.02  -18.75  1.0000
  -2   1   9    2872      91                                                        4431    5.02   18.75  1.0000
  -2   1   9    2856      79                                                        4410    5.02   18.75  1.0000
  -2   1   9    2885     117                                                        4447    5.02   18.75  1.0000
   1  -3 -11     431      45                                                         300   -6.43   -1.06  1.0000
   1  -3 -11     458      69                                                         323   -6.43   -1.06  1.0000
   1  -3 -11     363      43                                                         243   -6.43   -1.06  1.0000
   1  -3 -11     419      48                                                         290   -6.43   -1.06  1.0000
  -1   3  11     495      50                                                         354   -6.43    1.06  1.0000
  -1   3  11     487      46                                                         347   -6.43    1.06  1.0000
  -1   3  11     533      52                                                         387   -6.43    1.06  1.0000
   5   4  -5     768      73                                                         557    1.63   -6.18  1.0000
  -5  -4   5     938      72                                                         703    1.63    6.18  1.0000
   4   2  -7     318      44                                                         281    2.11   -6.79  1.0000
  -4  -2   7     351      36                                                         313    2.11    6.79  1.0000
  -4  -2   7     360      49                                                         322    2.11    6.79  1.0000
  -4  -2   7     282      45                                                         246    2.11    6.79  1.0000
  -4  -2   7     368      48                                                         330    2.11    6.79  1.0000
   3   0  -9    1897      73                                                        2572    7.15   -7.61  1.0000
   3   0  -9    1988      78                                                        2677    7.15   -7.61  1.0000
   3   0  -9    1984      94                                                        2673    7.15   -7.61  1.0000
  -3   0   9    2413      77                                                        3167    7.15    7.61  1.0000
  -3   0   9    2430     106                                                        3187    7.15    7.61  1.0000
  -3   0   9    2454      86                                                        3214    7.15    7.61  1.0000
   2  -2 -11     177      39                                                          69    1.86    7.45  1.0000
   2  -2 -11     131      41                                                          41    1.86    7.45  1.0000
   2  -2 -11     235      55                                                         107    1.86    7.45  1.0000
  -2   2  11      28      57                                                         -14    1.86   -7.45  1.0000
  -2   2  11      76      34                                                          13    1.86   -7.45  1.0000
  -2   2  11     285      45                                                         142    1.86   -7.45  1.0000
   5   3  -7    1124      79                                                         680   12.89   -3.72  1.0000
  -5  -3   7    1089      81                                                         653   12.89    3.72  1.0000
  -5  -3   7    1130      67                                                         685   12.89    3.72  1.0000
   4   1  -9    1197      92                                                        2247    5.39  -17.92  1.0000
   4   1  -9    1187      80                                                        2232    5.39  -17.92  1.0000
   4   1  -9    1184      85                                                        2228    5.39  -17.92  1.0000
   4   1  -9    1161      81                                                        2197    5.39  -17.92  1.0000
  -4  -1   9    1032      78                                                        2017    5.39   17.92  1.0000
  -4  -1   9     999      81                                                        1972    5.39   17.92  1.0000
  -4  -1   9     968      94                                                        1927    5.39   17.92  1.0000
   3  -1 -11     462      48                                                         336   -6.61   -0.48  1.0000
   3  -1 -11     468      47                                                         341   -6.61   -0.48  1.0000
   3  -1 -11     417      57                                                         297   -6.61   -0.48  1.0000
   3  -1 -11     360      41                                                         249   -6.61   -0.48  1.0000
  -3   1  11     709      75                                                         553   -6.61    0.48  1.0000
  -3   1  11     506      62                                                         374   -6.61    0.48  1.0000
  -3   1  11     529      54                                                         394   -6.61    0.48  1.0000
   5   2  -9     534      85                                                         648    4.09   -1.36  1.0000
  -5  -2   9     557      82                                                         673    4.09    1.36  1.0000
   4   0 -11      71      45                                                          31   -1.32    3.92  1.0000
   4   0 -11       8      43                                                         -35   -1.32    3.92  1.0000
   4   0 -11     143      54                                                          83   -1.32    3.92  1.0000
  -4   0  11      42      38                                                          13   -1.32   -3.92  1.0000
  -4   0  11      49      55                                                          17   -1.32   -3.92  1.0000
  -4   0  11     155      50                                                          92   -1.32   -3.92  1.0000
  -6   2  10    1645     115                                                        1232    7.85    1.75  1.0000
  -6   2  10    1616      81                                                        1207    7.85    1.75  1.0000
  -6   2  10    1563      52                                                        1161    7.85    1.75  1.0000
   6  -2 -10    1380      98                                                        1004    7.85   -1.75  1.0000
   6  -2 -10    1365      76                                                         991    7.85   -1.75  1.0000
   6  -2 -10    1252      70                                                         895    7.85   -1.75  1.0000
  -7   0   8      26      66                                                          38   -0.54   -2.32  1.0000
  -7   0   8       3      45                                                        -112   -0.54   -2.32  1.0000
  -7   0   8       3      42                                                         -73   -0.54   -2.32  1.0000
   7   0  -8       3      46                                                         -31   -0.54    2.32  1.0000
   7   0  -8      46      45                                                          62   -0.54    2.32  1.0000
  -5   3  10     435      63                                                         437   -0.50    7.20  1.0000
  -5   3  10     700     106                                                         709   -0.50    7.20  1.0000
   5  -3 -10     320      62                                                         318   -0.50   -7.20  1.0000
   5  -3 -10     392      57                                                         392   -0.50   -7.20  1.0000
   5  -3 -10     493      61                                                         496   -0.50   -7.20  1.0000
  -6   1   8      88      57                                                          47   -0.01    5.08  1.0000
  -6   1   8     118      44                                                          71   -0.01    5.08  1.0000
  -6   1   8     198      35                                                         137   -0.01    5.08  1.0000
   6  -1  -8     240      43                                                         173   -0.01   -5.08  1.0000
   6  -1  -8     146      42                                                          94   -0.01   -5.08  1.0000
  -7  -1   6      56      59                                                          45   -2.51    0.20  1.0000
  -7  -1   6      80      46                                                          68   -2.51    0.20  1.0000
   7   1  -6     127      51                                                         112   -2.51   -0.20  1.0000
  -4   4  10    2943     122                                                        2519    5.85    1.21  1.0000
  -4   4  10    2807      77                                                        2393    5.85    1.21  1.0000
   4  -4 -10    2011     107                                                        1663    5.85   -1.21  1.0000
   4  -4 -10    1980      62                                                        1635    5.85   -1.21  1.0000
   4  -4 -10    2036      63                                                        1686    5.85   -1.21  1.0000
  -5   2   8      28      26                                                           5   -4.46   -0.67  1.0000
  -5   2   8      10      35                                                         -14   -4.46   -0.67  1.0000
  -5   2   8      10      48                                                          -9   -4.46   -0.67  1.0000
   5  -2  -8      57      35                                                          21   -4.46    0.67  1.0000
   5  -2  -8      20      46                                                           2   -4.46    0.67  1.0000
   5  -2  -8     131      35                                                          72   -4.46    0.67  1.0000
  -6   0   6    4816     161                                                        7913   19.33   20.92  1.0000
  -6   0   6    4887     114                                                        8004   19.33   20.92  1.0000
  -6   0   6    5100     126                                                        8276   19.33   20.92  1.0000
   6   0  -6    4584     114                                                        7614   19.33  -20.92  1.0000
   6   0  -6    4695     110                                                        7757   19.33  -20.92  1.0000
  -7  -2   4       5      40                                                         106   15.39   -8.73  1.0000
  -7  -2   4     106      61                                                           4   15.39   -8.73  1.0000
  -7  -2   4      19      48                                                          65   15.39   -8.73  1.0000
   7   2  -4      13      50                                                          78   15.39    8.73  1.0000
  -3   5  10     427      58                                                         431   -0.58    7.09  1.0000
  -3   5  10     451      79                                                         456   -0.58    7.09  1.0000
   3  -5 -10     373      52                                                         376   -0.58   -7.09  1.0000
   3  -5 -10     343      39                                                         344   -0.58   -7.09  1.0000
   3  -5 -10     434      70                                                         439   -0.58   -7.09  1.0000
  -4   3   8      32      48                                                          10   -3.74    3.22  1.0000
  -4   3   8      38      31                                                          14   -3.74    3.22  1.0000
   4  -3  -8      12      47                                                         -19   -3.74   -3.22  1.0000
   4  -3  -8      26      30                                                           6   -3.74   -3.22  1.0000
   4  -3  -8      12      30                                                          -6   -3.74   -3.22  1.0000
  -5   1   6     317      75                                                         470   -1.34    7.62  1.0000
  -5   1   6     286      54                                                         432   -1.34    7.62  1.0000
   5  -1  -6     254      49                                                         391   -1.34   -7.62  1.0000
   5  -1  -6     281      46                                                         426   -1.34   -7.62  1.0000
  -6  -1   4     154      32                                                         278   -4.83    4.23  1.0000
  -6  -1   4     184      58                                                         318   -4.83    4.23  1.0000
  -6  -1   4     115      42                                                         225   -4.83    4.23  1.0000
  -6  -1   4     136      45                                                         254   -4.83    4.23  1.0000
   6   1  -4      56      40                                                         138   -4.83   -4.23  1.0000
   6   1  -4     113      42                                                         221   -4.83   -4.23  1.0000
   6   1  -4      73      40                                                         163   -4.83   -4.23  1.0000
  -7  -3   2      21      52                                                         -40    2.96    5.92  1.0000
  -7  -3   2      15      71                                                          16    2.96    5.92  1.0000
  -7  -3   2      62      48                                                          95    2.96    5.92  1.0000
   7   3  -2      33      67                                                          51    2.96   -5.92  1.0000
   7   3  -2      44      50                                                          69    2.96   -5.92  1.0000
  -2   6  10    1489      71                                                        1099    7.83    1.87  1.0000
  -2   6  10    1425      68                                                        1044    7.83    1.87  1.0000
   2  -6 -10    1203      61                                                         855    7.83   -1.87  1.0000
   2  -6 -10    1263      65                                                         906    7.83   -1.87  1.0000
   2  -6 -10    1432     118                                                        1050    7.83   -1.87  1.0000
  -3   4   8      55      31                                                          41   -2.14    3.29  1.0000
  -3   4   8      38      48                                                          25   -2.14    3.29  1.0000
   3  -4  -8      21      48                                                          10   -2.14   -3.29  1.0000
   3  -4  -8      31      29                                                          19   -2.14   -3.29  1.0000
   3  -4  -8      32      28                                                          20   -2.14   -3.29  1.0000
  -4   2   6   20413     343                                                       30101   31.66   31.25  1.0000
  -4   2   6   21460     245                                                       31370   31.66   31.25  1.0000
   4  -2  -6   19656     231                                                       29180   31.66  -31.25  1.0000
   4  -2  -6   19491     246                                                       28979   31.66  -31.25  1.0000
   4  -2  -6   19790     323                                                       29343   31.66  -31.25  1.0000
  -5   0   4     105      33                                                          45   23.51   -5.82  1.0000
  -5   0   4     110      43                                                          42   23.51   -5.82  1.0000
  -5   0   4     131      30                                                          30   23.51   -5.82  1.0000
   5   0  -4      55      33                                                          95   23.51    5.82  1.0000
   5   0  -4      67      30                                                          79   23.51    5.82  1.0000
   5   0  -4      92      30                                                          55   23.51    5.82  1.0000
  -6  -2   2    4697      94                                                        3587    5.97   11.30  1.0000
  -6  -2   2    4539      80                                                        3449    5.97   11.30  1.0000
  -6  -2   2    4529     127                                                        3441    5.97   11.30  1.0000
   6   2  -2    4162      84                                                        3122    5.97  -11.30  1.0000
   6   2  -2    4188      93                                                        3144    5.97  -11.30  1.0000
  -2   5   8      35      30                                                           6   -5.07   -0.23  1.0000
  -2   5   8      12      30                                                         -22   -5.07   -0.23  1.0000
   2  -5  -8      62      56                                                          19   -5.07    0.23  1.0000
   2  -5  -8      84      29                                                          32   -5.07    0.23  1.0000
   2  -5  -8      12      29                                                         -11   -5.07    0.23  1.0000
  -3   3   6     780      39                                                        1101    2.42    7.75  1.0000
  -4   1   4      35      24                                                          20    1.97    0.74  1.0000
  -4   1   4     214      35                                                         175    1.97    0.74  1.0000
   4  -1  -4      46      22                                                          29    1.97   -0.74  1.0000
   4  -1  -4      84      21                                                          60    1.97   -0.74  1.0000
   4  -1  -4      62      21                                                          42    1.97   -0.74  1.0000
  -5  -1   2      32      35                                                          56    6.04    9.96  1.0000
  -5  -1   2      34      35                                                          15    6.04    9.96  1.0000
  -5  -1   2      30      46                                                          31    6.04    9.96  1.0000
  -5  -1   2     109      32                                                         223    6.04    9.96  1.0000
   5   1  -2      30      30                                                          29    6.04   -9.96  1.0000
   5   1  -2      33      30                                                          17    6.04   -9.96  1.0000
   5   1  -2      38      33                                                          10    6.04   -9.96  1.0000
   5   1  -2      30      38                                                          34    6.04   -9.96  1.0000
  -6  -3   0     151      74                                                         187    2.00   -1.53  1.0000
  -6  -3   0     235      47                                                         280    2.00   -1.53  1.0000
   6   3   0     168      49                                                         206    2.00    1.53  1.0000
   6   3   0     273      59                                                         321    2.00    1.53  1.0000
   6   3   0     259      45                                                         306    2.00    1.53  1.0000
  -1   6   8     177      37                                                         123   -0.19    4.80  1.0000
  -1   6   8     220      39                                                         160   -0.19    4.80  1.0000
   1  -6  -8      68      33                                                          34   -0.19   -4.80  1.0000
   1  -6  -8     131      68                                                          84   -0.19   -4.80  1.0000
   1  -6  -8     126      37                                                          80   -0.19   -4.80  1.0000
  -2   4   6   20359     340                                                       30151   31.87   31.77  1.0000
  -2   4   6   20243     257                                                       30010   31.87   31.77  1.0000
   2  -4  -6   19242     325                                                       28788   31.87  -31.77  1.0000
  -3   2   4     145      17                                                          -2   17.27   -1.59  1.0000
   3  -2  -4     145      16                                                          -9   17.27    1.59  1.0000
  -4   0   2   39650     269                                                       30356    7.41   35.20  1.0000
  -4   0   2   39685     255                                                       30386    7.41   35.20  1.0000
  -4   0   2   40339     254                                                       30959    7.41   35.20  1.0000
  -4   0   2   40299     331                                                       30924    7.41   35.20  1.0000
   4   0  -2   36384     219                                                       27507    7.41  -35.20  1.0000
   4   0  -2   36520     233                                                       27625    7.41  -35.20  1.0000
  -5  -2   0     638      58                                                         972    8.81    4.78  1.0000
  -5  -2   0     549     101                                                         860    8.81    4.78  1.0000
  -5  -2   0     520      62                                                         824    8.81    4.78  1.0000
   5   2   0     612      58                                                         940    8.81   -4.78  1.0000
   5   2   0     596      61                                                         919    8.81   -4.78  1.0000
   5   2   0     618      61                                                         947    8.81   -4.78  1.0000
  -6  -4  -2    1138     140                                                         772    4.23   -7.82  1.0000
  -6  -4  -2    1457      89                                                        1038    4.23   -7.82  1.0000
   6   4   2    1378      89                                                         972    4.23    7.82  1.0000
   6   4   2    1499      71                                                        1074    4.23    7.82  1.0000
   6   4   2    1479      87                                                        1057    4.23    7.82  1.0000
   0   7   8       3      47                                                         -43   -0.98   -2.16  1.0000
   0   7   8       2      43                                                           3   -0.98   -2.16  1.0000
   0  -7  -8       3      77                                                         -91   -0.98    2.16  1.0000
   0  -7  -8       3      37                                                         -24   -0.98    2.16  1.0000
   0  -7  -8      20      43                                                          27   -0.98    2.16  1.0000
   1  -5  -6     178      56                                                         293   -0.78   -7.40  1.0000
   1  -5  -6     233      38                                                         364   -0.78   -7.40  1.0000
   1  -5  -6     269      40                                                         409   -0.78   -7.40  1.0000
  -2   3   4      98      28                                                           5   16.96   -1.95  1.0000
   2  -3  -4     141      15                                                          -6   16.96    1.95  1.0000
   2  -3  -4      86      17                                                           9   16.96    1.95  1.0000
   2  -3  -4     141      28                                                         -26   16.96    1.95  1.0000
   2  -3  -4      62      15                                                          23   16.96    1.95  1.0000
   3  -1  -2     221      23                                                         266   12.37   -5.24  1.0000
  -4  -1   0      49      46                                                         131    6.74   -1.95  1.0000
  -4  -1   0      12      26                                                          59    6.74   -1.95  1.0000
  -4  -1   0      13      29                                                          62    6.74   -1.95  1.0000
  -4  -1   0      58      27                                                         146    6.74   -1.95  1.0000
  -4  -1   0      44      28                                                         122    6.74   -1.95  1.0000
   4   1   0      76      32                                                         175    6.74    1.95  1.0000
   4   1   0      38      26                                                         112    6.74    1.95  1.0000
   4   1   0      32      29                                                         101    6.74    1.95  1.0000
  -5  -3  -2       4      70                                                         -44   -2.60    0.80  1.0000
  -5  -3  -2       4      44                                                         -72   -2.60    0.80  1.0000
   5   3   2       4      43                                                          16   -2.60   -0.80  1.0000
   5   3   2       4      36                                                         -10   -2.60   -0.80  1.0000
   5   3   2       4      45                                                         -18   -2.60   -0.80  1.0000
   0   6   6    5130     119                                                        8292   19.61   20.31  1.0000
   0   6   6    5137     113                                                        8302   19.61   20.31  1.0000
   0  -6  -6    4914     170                                                        8017   19.61  -20.31  1.0000
   0  -6  -6    4946     105                                                        8058   19.61  -20.31  1.0000
   0  -6  -6    4899     109                                                        7998   19.61  -20.31  1.0000
  -1   4   4      57      18                                                          31    2.50    2.70  1.0000
  -1   4   4     106      19                                                          71    2.50    2.70  1.0000
   1  -4  -4      47      18                                                          24    2.50   -2.70  1.0000
   1  -4  -4      24      36                                                           8    2.50   -2.70  1.0000
   2  -2  -2   88173     562                                                       73228    3.26  -38.71  1.0000
   2  -2  -2   88244     561                                                       73293    3.26  -38.71  1.0000
  -3   0   0     208      33                                                         589   14.58    5.98  1.0000
  -3   0   0     232      33                                                         629   14.58    5.98  1.0000
  -3   0   0     252      30                                                         663   14.58    5.98  1.0000
  -4  -2  -2   18471     141                                                       13875    4.73  -25.79  1.0000
  -4  -2  -2   18646     157                                                       14027    4.73  -25.79  1.0000
  -4  -2  -2   18470     148                                                       13874    4.73  -25.79  1.0000
  -4  -2  -2   18685     213                                                       14061    4.73  -25.79  1.0000
   4   2   2   19182     158                                                       14492    4.73   25.79  1.0000
   4   2   2   19236     167                                                       14539    4.73   25.79  1.0000
   4   2   2   18921     158                                                       14266    4.73   25.79  1.0000
  -5  -4  -4     260      90                                                         341   -2.12   -3.16  1.0000
  -5  -4  -4     297      54                                                         383   -2.12   -3.16  1.0000
   5   4   4     408      60                                                         509   -2.12    3.16  1.0000
   5   4   4     327      54                                                         418   -2.12    3.16  1.0000
   5   4   4     292      39                                                         378   -2.12    3.16  1.0000
   1   7   6     165      47                                                         151   -1.65    0.11  1.0000
   1   7   6     178      50                                                         164   -1.65    0.11  1.0000
  -1  -7  -6       1      37                                                         -29   -1.65   -0.11  1.0000
  -1  -7  -6      29      41                                                          23   -1.65   -0.11  1.0000
  -1  -7  -6       1      79                                                         -30   -1.65   -0.11  1.0000
   0   5   4      69      27                                                          77   23.55   -5.90  1.0000
   0   5   4     105      20                                                          46   23.55   -5.90  1.0000
   0  -5  -4      98      27                                                          51   23.55    5.90  1.0000
   0  -5  -4     126      26                                                          33   23.55    5.90  1.0000
   0  -5  -4     285      50                                                          -8   23.55    5.90  1.0000
   1  -3  -2     193      29                                                         208   12.06   -5.21  1.0000
   1  -3  -2     214      19                                                         235   12.06   -5.21  1.0000
   1  -3  -2     243      19                                                         272   12.06   -5.21  1.0000
  -2   1   0      13      41                                                         581   39.57    0.31  1.0000
  -2   1   0      51      24                                                         417   39.57    0.31  1.0000
   2  -1   0      21      22                                                         531   39.57   -0.31  1.0000
   2  -1   0      28      22                                                         497   39.57   -0.31  1.0000
  -3  -1  -2       7      45                                                           6    1.54    1.87  1.0000
  -3  -1  -2       3      22                                                         -26    1.54    1.87  1.0000
   3   1   2      29      27                                                          30    1.54   -1.87  1.0000
   3   1   2       3      26                                                           1    1.54   -1.87  1.0000
   3   1   2       3      24                                                           0    1.54   -1.87  1.0000
  -4  -3  -4       0      78                                                         103   13.60    3.34  1.0000
  -4  -3  -4      95      36                                                         -39   13.60    3.34  1.0000
  -4  -3  -4      95      40                                                         -33   13.60    3.34  1.0000
  -4  -3  -4      15      40                                                          34   13.60    3.34  1.0000
   4   3   4      11      39                                                          42   13.60   -3.34  1.0000
   4   3   4      95      29                                                         -42   13.60   -3.34  1.0000
   4   3   4      76      42                                                           1   13.60   -3.34  1.0000
   4   3   4      95      43                                                         -31   13.60   -3.34  1.0000
   4   3   4       5      42                                                         143   13.60   -3.34  1.0000
   1   6   4     120      31                                                         235   -4.30    5.88  1.0000
   1   6   4      91      40                                                         193   -4.30    5.88  1.0000
   1   6   4     113      41                                                         226   -4.30    5.88  1.0000
  -1  -6  -4      95      68                                                         199   -4.30   -5.88  1.0000
  -1  -6  -4     128      38                                                         247   -4.30   -5.88  1.0000
  -1  -6  -4     132      38                                                         253   -4.30   -5.88  1.0000
   0   4   2   39046     235                                                       29746    7.49   35.53  1.0000
   0   4   2   39238     242                                                       29914    7.49   35.53  1.0000
   0  -4  -2   37135     229                                                       28081    7.49  -35.53  1.0000
   0  -4  -2   37085     216                                                       28038    7.49  -35.53  1.0000
   0  -4  -2   36656     298                                                       27665    7.49  -35.53  1.0000
   0  -4  -2   37144     230                                                       28089    7.49  -35.53  1.0000
  -1   2   0      40      25                                                         445   39.39   -0.42  1.0000
   1  -2   0      40      26                                                         443   39.39    0.42  1.0000
   1  -2   0      29      16                                                         486   39.39    0.42  1.0000
  -2   0  -2   91889     643                                                       76237    3.85  -39.57  1.0000
  -2   0  -2   90098     628                                                       74606    3.85  -39.57  1.0000
   2   0   2   93876     626                                                       78048    3.85   39.57  1.0000
   2   0   2   94663     631                                                       78766    3.85   39.57  1.0000
  -3  -2  -4     754      48                                                         972   -2.53   -6.90  1.0000
  -3  -2  -4     664      88                                                         869   -2.53   -6.90  1.0000
  -3  -2  -4     721      55                                                         934   -2.53   -6.90  1.0000
   3   2   4     754      44                                                         972   -2.53    6.90  1.0000
   3   2   4     804      49                                                        1029   -2.53    6.90  1.0000
   3   2   4     753      53                                                         971   -2.53    6.90  1.0000
   3   2   4     748      56                                                         965   -2.53    6.90  1.0000
  -4  -4  -6    2434     171                                                        3997   13.56  -15.00  1.0000
  -4  -4  -6    2587     105                                                        4193   13.56  -15.00  1.0000
  -4  -4  -6    2463      97                                                        4034   13.56  -15.00  1.0000
   4   4   6    2679      96                                                        4310   13.56   15.00  1.0000
   4   4   6    2717      99                                                        4358   13.56   15.00  1.0000
   4   4   6    2732     113                                                        4377   13.56   15.00  1.0000
   4   4   6    2771     110                                                        4426   13.56   15.00  1.0000
   2   7   4     101      36                                                          74   15.98   -5.38  1.0000
   2   7   4     109      49                                                          99   15.98   -5.38  1.0000
   2   7   4      96      49                                                          47   15.98   -5.38  1.0000
  -2  -7  -4      96      41                                                          47   15.98    5.38  1.0000
  -2  -7  -4     137      80                                                         -73   15.98    5.38  1.0000
  -2  -7  -4     111      46                                                         106   15.98    5.38  1.0000
   1   5   2      37      31                                                          11    6.22    9.34  1.0000
   1   5   2      37      32                                                          11    6.22    9.34  1.0000
  -1  -5  -2      61      28                                                         -21    6.22   -9.34  1.0000
  -1  -5  -2      37      29                                                          11    6.22   -9.34  1.0000
  -1  -5  -2      56      55                                                         101    6.22   -9.34  1.0000
   0   3   0     223      30                                                         623   14.76    6.26  1.0000
   0  -3   0     225      44                                                         626   14.76   -6.26  1.0000
   0  -3   0     181      27                                                         548   14.76   -6.26  1.0000
  -1   1  -2      62      28                                                         206   -0.40   29.31  1.0000
  -1   1  -2      70      33                                                         186   -0.40   29.31  1.0000
   1  -1   2      75      24                                                         175   -0.40  -29.31  1.0000
  -2  -1  -4      92      23                                                           6   16.65    2.00  1.0000
  -2  -1  -4      59      24                                                          24   16.65    2.00  1.0000
  -2  -1  -4      35      42                                                          67   16.65    2.00  1.0000
   2   1   4      51      24                                                          33   16.65   -2.00  1.0000
   2   1   4      71      24                                                          15   16.65   -2.00  1.0000
   2   1   4     136      24                                                         -16   16.65   -2.00  1.0000
   2   1   4      41      26                                                          49   16.65   -2.00  1.0000
  -3  -3  -6      12      38                                                          58    1.75   -6.18  1.0000
  -3  -3  -6      17      73                                                          70    1.75   -6.18  1.0000
  -3  -3  -6      20      41                                                         -13    1.75   -6.18  1.0000
  -3  -3  -6      10      36                                                           2    1.75   -6.18  1.0000
   3   3   6       9      37                                                          51    1.75    6.18  1.0000
   3   3   6       8      37                                                          49    1.75    6.18  1.0000
   3   3   6      12      41                                                          59    1.75    6.18  1.0000
   3   3   6       2      23                                                          30    1.75    6.18  1.0000
   2   6   2    4425      93                                                        3358    5.71   11.27  1.0000
   2   6   2    4237      90                                                        3194    5.71   11.27  1.0000
   2   6   2    4281      76                                                        3232    5.71   11.27  1.0000
  -2  -6  -2    4282      79                                                        3233    5.71  -11.27  1.0000
  -2  -6  -2    4280      79                                                        3231    5.71  -11.27  1.0000
  -2  -6  -2    4088     132                                                        3065    5.71  -11.27  1.0000
   1   4   0       8      24                                                          47    7.18   -2.67  1.0000
   1   4   0      54      30                                                         145    7.18   -2.67  1.0000
   1   4   0      31      24                                                         103    7.18   -2.67  1.0000
  -1  -4   0      19      23                                                          78    7.18    2.67  1.0000
  -1  -4   0      55      42                                                         146    7.18    2.67  1.0000
  -1  -4   0      41      26                                                         122    7.18    2.67  1.0000
   0   2  -2   88387     596                                                       72973    4.48  -39.58  1.0000
   0   2  -2   88429     578                                                       73011    4.48  -39.58  1.0000
   0  -2   2   94547     639                                                       78581    4.48   39.58  1.0000
  -1   0  -4     325      29                                                         267    4.63   -8.40  1.0000
   1   0   4     317      31                                                         260    4.63    8.40  1.0000
  -2  -2  -6   21277     276                                                       31159   32.13  -30.72  1.0000
  -2  -2  -6   21753     261                                                       31735   32.13  -30.72  1.0000
  -2  -2  -6   22284     263                                                       32376   32.13  -30.72  1.0000
   2   2   6   21636     293                                                       31594   32.13   30.72  1.0000
   2   2   6   21865     243                                                       31870   32.13   30.72  1.0000
   2   2   6   21707     277                                                       31679   32.13   30.72  1.0000
   2   2   6   21495     275                                                       31423   32.13   30.72  1.0000
  -3  -4  -8     535      53                                                         473    2.53   -3.91  1.0000
  -3  -4  -8     455      53                                                         398    2.53   -3.91  1.0000
  -3  -4  -8     291      86                                                         244    2.53   -3.91  1.0000
   3   4   8     474      52                                                         416    2.53    3.91  1.0000
   3   4   8     584      80                                                         520    2.53    3.91  1.0000
   3   4   8     487      63                                                         428    2.53    3.91  1.0000
   3   4   8     554      65                                                         491    2.53    3.91  1.0000
   3   7   2      10      51                                                         -23    0.54    4.57  1.0000
   3   7   2      29      42                                                           5    0.54    4.57  1.0000
   3   7   2      10      53                                                          -9    0.54    4.57  1.0000
  -3  -7  -2      64      49                                                          24    0.54   -4.57  1.0000
  -3  -7  -2      10      42                                                         -12    0.54   -4.57  1.0000
   2   5   0     607      56                                                         952    8.85    4.56  1.0000
   2   5   0     599      67                                                         942    8.85    4.56  1.0000
   2   5   0     590      60                                                         930    8.85    4.56  1.0000
  -2  -5   0     531      92                                                         855    8.85   -4.56  1.0000
  -2  -5   0     584      54                                                         923    8.85   -4.56  1.0000
  -2  -5   0     607      62                                                         952    8.85   -4.56  1.0000
  -2  -5   0     495      57                                                         809    8.85   -4.56  1.0000
   1   3  -2       3      28                                                          -6    1.48    2.11  1.0000
   1   3  -2       3      22                                                         -32    1.48    2.11  1.0000
   1   3  -2      19      19                                                          19    1.48    2.11  1.0000
   1   3  -2      43      24                                                          44    1.48    2.11  1.0000
  -1  -3   2      33      23                                                          34    1.48   -2.11  1.0000
  -1  -3   2      21      27                                                          21    1.48   -2.11  1.0000
   0   1  -4     293      33                                                         235    4.00   -7.09  1.0000
   0   1  -4     360      29                                                         299    4.00   -7.09  1.0000
   0   1  -4     329      34                                                         270    4.00   -7.09  1.0000
   0  -1   4     339      29                                                         279    4.00    7.09  1.0000
   0  -1   4     285      31                                                         228    4.00    7.09  1.0000
   0  -1   4     344      32                                                         284    4.00    7.09  1.0000
  -1  -1  -6      56      29                                                         180    4.48   -7.99  1.0000
  -1  -1  -6     107      30                                                         266    4.48   -7.99  1.0000
  -1  -1  -6      16      43                                                          95    4.48   -7.99  1.0000
   1   1   6      27      28                                                         122    4.48    7.99  1.0000
   1   1   6      12      25                                                          82    4.48    7.99  1.0000
   1   1   6      14      21                                                          90    4.48    7.99  1.0000
   1   1   6      37      30                                                         143    4.48    7.99  1.0000
   1   1   6      38      27                                                         145    4.48    7.99  1.0000
  -2  -3  -8      11      67                                                          -4   -4.67    0.28  1.0000
  -2  -3  -8      11      39                                                         -11   -4.67    0.28  1.0000
  -2  -3  -8      48      38                                                          14   -4.67    0.28  1.0000
   2   3   8      94      41                                                          42   -4.67   -0.28  1.0000
   2   3   8     103      38                                                          48   -4.67   -0.28  1.0000
   2   3   8      11      41                                                         -22   -4.67   -0.28  1.0000
   3   6   0     184      54                                                         233    2.62   -2.10  1.0000
   3   6   0     124      47                                                         164    2.62   -2.10  1.0000
   3   6   0     197      46                                                         248    2.62   -2.10  1.0000
  -3  -6   0     153      50                                                         198    2.62    2.10  1.0000
  -3  -6   0     147      43                                                         191    2.62    2.10  1.0000
  -3  -6   0     226      48                                                         281    2.62    2.10  1.0000
   2   4  -2   18129     151                                                       13597    4.88  -25.63  1.0000
   2   4  -2   18246     148                                                       13698    4.88  -25.63  1.0000
   2   4  -2   18256     128                                                       13707    4.88  -25.63  1.0000
   2   4  -2   18438     161                                                       13864    4.88  -25.63  1.0000
  -2  -4   2   19401     147                                                       14701    4.88   25.63  1.0000
  -2  -4   2   19612     153                                                       14885    4.88   25.63  1.0000
  -2  -4   2   19452     144                                                       14746    4.88   25.63  1.0000
  -2  -4   2   19566     189                                                       14845    4.88   25.63  1.0000
   1   2  -4      37      27                                                          58   16.88    1.34  1.0000
   1   2  -4      76      22                                                          13   16.88    1.34  1.0000
  -1  -2   4      53      25                                                          31   16.88   -1.34  1.0000
  -1  -2   4     138      23                                                           0   16.88   -1.34  1.0000
  -1  -2   4      38      23                                                          57   16.88   -1.34  1.0000
   0   0  -6   44208     488                                                       62300   49.11  -28.60  1.0000
   0   0  -6   44973     489                                                       63208   49.11  -28.60  1.0000
   0   0  -6   44104     608                                                       62177   49.11  -28.60  1.0000
   0   0   6   46239     498                                                       64707   49.11   28.60  1.0000
   0   0   6   45324     465                                                       63624   49.11   28.60  1.0000
   0   0   6   45376     495                                                       63686   49.11   28.60  1.0000
   0   0   6   44968     624                                                       63202   49.11   28.60  1.0000
   0   0   6   45965     526                                                       64383   49.11   28.60  1.0000
  -1  -2  -8     433      49                                                         351    1.49   -5.22  1.0000
  -1  -2  -8     423      67                                                         342    1.49   -5.22  1.0000
  -1  -2  -8     453      40                                                         369    1.49   -5.22  1.0000
   1   2   8     657      54                                                         557    1.49    5.22  1.0000
   1   2   8     528      50                                                         438    1.49    5.22  1.0000
   1   2   8     591      59                                                         496    1.49    5.22  1.0000
  -2  -4 -10     911      90                                                         620    7.59   -2.12  1.0000
  -2  -4 -10    1180      71                                                         845    7.59   -2.12  1.0000
  -2  -4 -10    1180      80                                                         845    7.59   -2.12  1.0000
   2   4  10    1502      68                                                        1121    7.59    2.12  1.0000
   2   4  10    1749      64                                                        1336    7.59    2.12  1.0000
   2   4  10    1520      91                                                        1137    7.59    2.12  1.0000
   2   4  10    1507      93                                                        1125    7.59    2.12  1.0000
   3   5  -2      27      32                                                          28    0.13    0.42  1.0000
   3   5  -2       0      48                                                         -60    0.13    0.42  1.0000
   3   5  -2       7      44                                                           7    0.13    0.42  1.0000
   3   5  -2       0      40                                                         -16    0.13    0.42  1.0000
  -3  -5   2       0      37                                                         -50    0.13   -0.42  1.0000
  -3  -5   2       6      38                                                           6    0.13   -0.42  1.0000
  -3  -5   2      21      43                                                          22    0.13   -0.42  1.0000
   2   3  -4     671      48                                                         904   -3.40   -6.61  1.0000
   2   3  -4     673      53                                                         907   -3.40   -6.61  1.0000
   2   3  -4     747      58                                                         993   -3.40   -6.61  1.0000
   2   3  -4     703      53                                                         941   -3.40   -6.61  1.0000
  -2  -3   4     877      50                                                        1143   -3.40    6.61  1.0000
  -2  -3   4     809      54                                                        1064   -3.40    6.61  1.0000
  -2  -3   4     733      52                                                         977   -3.40    6.61  1.0000
  -2  -3   4     769      54                                                        1018   -3.40    6.61  1.0000
   1   1  -6       8      26                                                          68    4.58   -8.13  1.0000
   1   1  -6      16      28                                                          94    4.58   -8.13  1.0000
   1   1  -6      12      28                                                          81    4.58   -8.13  1.0000
  -1  -1   6       8      24                                                          66    4.58    8.13  1.0000
  -1  -1   6      34      25                                                         137    4.58    8.13  1.0000
  -1  -1   6      55      30                                                         177    4.58    8.13  1.0000
  -1  -1   6      18      28                                                          99    4.58    8.13  1.0000
  -1  -1   6      27      27                                                         121    4.58    8.13  1.0000
   0  -1  -8      26      46                                                           0   -7.04   -1.83  1.0000
   0  -1  -8      26      29                                                          -9   -7.04   -1.83  1.0000
   0  -1  -8      90      32                                                          20   -7.04   -1.83  1.0000
   0   1   8     143      33                                                          48   -7.04    1.83  1.0000
   0   1   8     131      29                                                          41   -7.04    1.83  1.0000
  -1  -3 -10      62      69                                                          26    3.15   -2.80  1.0000
  -1  -3 -10     265      46                                                         183    3.15   -2.80  1.0000
  -1  -3 -10     128      43                                                          73    3.15   -2.80  1.0000
   1   3  10     171      42                                                         106    3.15    2.80  1.0000
   1   3  10     148      46                                                          88    3.15    2.80  1.0000
   1   3  10     204      38                                                         133    3.15    2.80  1.0000
   4   6  -2    1496      81                                                        1081    4.34   -7.59  1.0000
   4   6  -2    1314      60                                                         927    4.34   -7.59  1.0000
  -4  -6   2    1313      85                                                         926    4.34    7.59  1.0000
   3   4  -4      54      40                                                           7   13.98    3.56  1.0000
   3   4  -4       3      35                                                          70   13.98    3.56  1.0000
  -3  -4   4     100      39                                                         -39   13.98   -3.56  1.0000
   2   2  -6   21540     282                                                       31605   32.16  -31.52  1.0000
   2   2  -6   21336     277                                                       31358   32.16  -31.52  1.0000
   2   2  -6   21857     263                                                       31989   32.16  -31.52  1.0000
   2   2  -6   21458     261                                                       31505   32.16  -31.52  1.0000
  -2  -2   6   20314     279                                                       30116   32.16   31.52  1.0000
  -2  -2   6   20268     266                                                       30060   32.16   31.52  1.0000
  -2  -2   6   20226     266                                                       30008   32.16   31.52  1.0000
  -2  -2   6   20255     318                                                       30044   32.16   31.52  1.0000
   1   0  -8     173      33                                                          70   -6.91   -1.38  1.0000
   1   0  -8      84      34                                                          19   -6.91   -1.38  1.0000
   1   0  -8     448      36                                                         268   -6.91   -1.38  1.0000
   1   0  -8     459      36                                                         277   -6.91   -1.38  1.0000
   1   0  -8     151      38                                                          56   -6.91   -1.38  1.0000
  -1   0   8      47      28                                                           4   -6.91    1.38  1.0000
  -1   0   8     238      36                                                         113   -6.91    1.38  1.0000
  -1   0   8      24      22                                                          -2   -6.91    1.38  1.0000
  -1   0   8     126      38                                                          41   -6.91    1.38  1.0000
   0  -2 -10    3204      77                                                        2873    4.33    2.53  1.0000
   0  -2 -10    3258      80                                                        2924    4.33    2.53  1.0000
   0  -2 -10    3217     116                                                        2885    4.33    2.53  1.0000
   0   2  10    4198      80                                                        3818    4.33   -2.53  1.0000
   0   2  10    4192      89                                                        3812    4.33   -2.53  1.0000
   0   2  10    4262      93                                                        3879    4.33   -2.53  1.0000
   4   5  -4     276      55                                                         354   -2.19   -2.56  1.0000
   4   5  -4     302      47                                                         383   -2.19   -2.56  1.0000
  -4  -5   4     295      54                                                         375   -2.19    2.56  1.0000
   3   3  -6      29      44                                                          94    1.90   -6.54  1.0000
   3   3  -6       5      40                                                          40    1.90   -6.54  1.0000
  -3  -3   6      22      40                                                          -7    1.90    6.54  1.0000
  -3  -3   6       5      37                                                          39    1.90    6.54  1.0000
   2   1  -8     517      52                                                         426    1.39   -5.11  1.0000
   2   1  -8     505      42                                                         415    1.39   -5.11  1.0000
   2   1  -8     478      61                                                         390    1.39   -5.11  1.0000
   2   1  -8     487      53                                                         398    1.39   -5.11  1.0000
  -2  -1   8     524      51                                                         432    1.39    5.11  1.0000
  -2  -1   8     579      42                                                         483    1.39    5.11  1.0000
  -2  -1   8     615      61                                                         516    1.39    5.11  1.0000
  -2  -1   8     583      65                                                         486    1.39    5.11  1.0000
   1  -1 -10     360      53                                                         218    4.47   -7.32  1.0000
   1  -1 -10     241      40                                                         125    4.47   -7.32  1.0000
   1  -1 -10     329      38                                                         193    4.47   -7.32  1.0000
  -1   1  10     361      57                                                         219    4.47    7.32  1.0000
  -1   1  10     481      45                                                         317    4.47    7.32  1.0000
  -1   1  10     380      38                                                         234    4.47    7.32  1.0000
   0  -3 -12      93      49                                                         288   -4.17   -9.68  1.0000
   0  -3 -12     115      80                                                         325   -4.17   -9.68  1.0000
   0  -3 -12     119      51                                                         333   -4.17   -9.68  1.0000
   0   3  12      63      44                                                         233   -4.17    9.68  1.0000
   0   3  12      67      52                                                         240   -4.17    9.68  1.0000
   0   3  12      63      50                                                         232   -4.17    9.68  1.0000
   4   4  -6    2670      96                                                        4326   13.88  -15.10  1.0000
   4   4  -6    2682     111                                                        4342   13.88  -15.10  1.0000
  -4  -4   6    2469      93                                                        4069   13.88   15.10  1.0000
  -4  -4   6    2550     107                                                        4173   13.88   15.10  1.0000
   3   2  -8      14      40                                                         -59   -5.37    0.23  1.0000
  -3  -2   8      87      39                                                          32   -5.37   -0.23  1.0000
  -3  -2   8      65      34                                                          19   -5.37   -0.23  1.0000
  -3  -2   8      14      37                                                         -34   -5.37   -0.23  1.0000
  -3  -2   8      14      42                                                          -8   -5.37   -0.23  1.0000
   2   0 -10    3257     100                                                        2926    4.30    2.76  1.0000
   2   0 -10    3244      82                                                        2913    4.30    2.76  1.0000
   2   0 -10    3256      83                                                        2925    4.30    2.76  1.0000
   2   0 -10    3262      83                                                        2930    4.30    2.76  1.0000
  -2   0  10    4214      95                                                        3836    4.30   -2.76  1.0000
  -2   0  10    4374     113                                                        3989    4.30   -2.76  1.0000
  -2   0  10    4030      82                                                        3661    4.30   -2.76  1.0000
   1  -2 -12     120      48                                                         237   -4.93   -5.17  1.0000
   1  -2 -12     135      69                                                         258   -4.93   -5.17  1.0000
   1  -2 -12     128      49                                                         248   -4.93   -5.17  1.0000
   1  -2 -12      70      43                                                         162   -4.93   -5.17  1.0000
  -1   2  12      91      52                                                         195   -4.93    5.17  1.0000
  -1   2  12      83      40                                                         182   -4.93    5.17  1.0000
   4   3  -8     414      52                                                         367    2.70   -3.60  1.0000
  -4  -3   8     485      57                                                         434    2.70    3.60  1.0000
  -4  -3   8     564      64                                                         510    2.70    3.60  1.0000
  -4  -3   8     585      56                                                         530    2.70    3.60  1.0000
   3   1 -10     124      47                                                          65    3.45   -3.04  1.0000
   3   1 -10     157      46                                                          90    3.45   -3.04  1.0000
  -3  -1  10     178      47                                                         106    3.45    3.04  1.0000
  -3  -1  10     107      41                                                          53    3.45    3.04  1.0000
  -3  -1  10     202      48                                                         125    3.45    3.04  1.0000
   2  -1 -12      66      46                                                         156   -4.92   -5.19  1.0000
   2  -1 -12      84      58                                                         183   -4.92   -5.19  1.0000
   2  -1 -12      56      40                                                         139   -4.92   -5.19  1.0000
  -2   1  12      26      38                                                          87   -4.92    5.19  1.0000
  -2   1  12      15      64                                                          64   -4.92    5.19  1.0000
  -2   1  12      81      54                                                         179   -4.92    5.19  1.0000
   4   2 -10    1231      87                                                         874    7.95   -1.82  1.0000
  -4  -2  10    1585      87                                                        1176    7.95    1.82  1.0000
  -4  -2  10    1521      59                                                        1121    7.95    1.82  1.0000
   3   0 -12     133      55                                                         356   -4.73   -9.47  1.0000
   3   0 -12     139      55                                                         367   -4.73   -9.47  1.0000
   3   0 -12     132      51                                                         355   -4.73   -9.47  1.0000
  -3   0  12      59      44                                                         225   -4.73    9.47  1.0000
  -3   0  12      61      54                                                         229   -4.73    9.47  1.0000
  -3   0  12     172      68                                                         419   -4.73    9.47  1.0000
  -7   2   9     661      77                                                         797    4.33    1.50  1.0000
  -7   2   9     650     114                                                         785    4.33    1.50  1.0000
   7  -2  -9     513      67                                                         633    4.33   -1.50  1.0000
   7  -2  -9     544      71                                                         668    4.33   -1.50  1.0000
   7  -2  -9     539     100                                                         662    4.33   -1.50  1.0000
  -6   3   9    1248      74                                                        1860    1.74   11.94  1.0000
  -6   3   9    1150     113                                                        1740    1.74   11.94  1.0000
   6  -3  -9    1179     103                                                        1775    1.74  -11.94  1.0000
   6  -3  -9    1282      69                                                        1901    1.74  -11.94  1.0000
   6  -3  -9    1169      68                                                        1763    1.74  -11.94  1.0000
  -7   1   7     922      61                                                         446   15.02    1.72  1.0000
  -7   1   7    1032      68                                                         525   15.02    1.72  1.0000
  -7   1   7     879      70                                                         416   15.02    1.72  1.0000
   7  -1  -7     763      48                                                         336   15.02   -1.72  1.0000
   7  -1  -7     696      44                                                         291   15.02   -1.72  1.0000
  -5   4   9    1563      66                                                        2096    3.34    8.54  1.0000
  -5   4   9    1591     113                                                        2129    3.34    8.54  1.0000
   5  -4  -9    1214      59                                                        1688    3.34   -8.54  1.0000
   5  -4  -9    1322      61                                                        1815    3.34   -8.54  1.0000
   5  -4  -9    1325     105                                                        1819    3.34   -8.54  1.0000
   5  -4  -9    1284      60                                                        1771    3.34   -8.54  1.0000
  -6   2   7     417      61                                                         369    1.89    7.09  1.0000
  -6   2   7     370      43                                                         324    1.89    7.09  1.0000
  -6   2   7     455      57                                                         406    1.89    7.09  1.0000
   6  -2  -7     274      37                                                         231    1.89   -7.09  1.0000
   6  -2  -7     253      36                                                         211    1.89   -7.09  1.0000
  -7   0   5    1458      63                                                         953    1.07   10.76  1.0000
  -7   0   5    1480      75                                                         971    1.07   10.76  1.0000
  -7   0   5    1349     101                                                         865    1.07   10.76  1.0000
   7   0  -5    1185      64                                                         735    1.07  -10.76  1.0000
   7   0  -5    1541      68                                                        1020    1.07  -10.76  1.0000
  -4   5   9    1658     118                                                        2165    2.80    8.12  1.0000
  -4   5   9    1637      66                                                        2142    2.80    8.12  1.0000
   4  -5  -9    1269      56                                                        1717    2.80   -8.12  1.0000
   4  -5  -9    1310      57                                                        1765    2.80   -8.12  1.0000
   4  -5  -9    1246     107                                                        1690    2.80   -8.12  1.0000
  -5   3   7    1314      80                                                         641   15.72   -2.08  1.0000
  -5   3   7    1353      48                                                         668   15.72   -2.08  1.0000
   5  -3  -7    1164      77                                                         537   15.72    2.08  1.0000
   5  -3  -7    1264      45                                                         606   15.72    2.08  1.0000
   5  -3  -7    1212      47                                                         570   15.72    2.08  1.0000
  -6   1   5    2935      97                                                        2289   -3.36    9.03  1.0000
  -6   1   5    2735      69                                                        2112   -3.36    9.03  1.0000
  -6   1   5    2797      59                                                        2167   -3.36    9.03  1.0000
  -6   1   5    2840      60                                                        2205   -3.36    9.03  1.0000
   6  -1  -5    2245      60                                                        1684   -3.36   -9.03  1.0000
   6  -1  -5    2384      63                                                        1805   -3.36   -9.03  1.0000
  -7  -1   3    1409      87                                                        2690   19.07    7.87  1.0000
  -7  -1   3    1344      85                                                        2599   19.07    7.87  1.0000
  -7  -1   3    1309      63                                                        2551   19.07    7.87  1.0000
  -7  -1   3    1246     119                                                        2462   19.07    7.87  1.0000
   7   1  -3    1510      86                                                        2828   19.07   -7.87  1.0000
  -3   6   9    1303      67                                                        1961    2.34   12.27  1.0000
  -3   6   9    1272      65                                                        1922    2.34   12.27  1.0000
   3  -6  -9    1252     118                                                        1898    2.34  -12.27  1.0000
   3  -6  -9    1169      59                                                        1795    2.34  -12.27  1.0000
   3  -6  -9    1203      60                                                        1837    2.34  -12.27  1.0000
  -4   4   7    1139      45                                                        1127    6.03   14.07  1.0000
   4  -4  -7     877      43                                                         851    6.03  -14.07  1.0000
   4  -4  -7     910      43                                                         886    6.03  -14.07  1.0000
   4  -4  -7     881      81                                                         856    6.03  -14.07  1.0000
   4  -4  -7     866      41                                                         840    6.03  -14.07  1.0000
  -5   2   5    7780     119                                                        5602   -0.19   19.26  1.0000
  -5   2   5    7932      67                                                        5731   -0.19   19.26  1.0000
   5  -2  -5    6628      70                                                        4631   -0.19  -19.26  1.0000
   5  -2  -5    6464      65                                                        4494   -0.19  -19.26  1.0000
  -6   0   3    1321      65                                                        1811   -9.37    1.48  1.0000
  -6   0   3    1351      70                                                        1846   -9.37    1.48  1.0000
  -6   0   3    1341      94                                                        1834   -9.37    1.48  1.0000
   6   0  -3    1455      68                                                        1968   -9.37   -1.48  1.0000
   6   0  -3    1356      66                                                        1852   -9.37   -1.48  1.0000
   6   0  -3    1413      62                                                        1919   -9.37   -1.48  1.0000
  -7  -2   1     221      77                                                         308   -1.92    3.45  1.0000
  -7  -2   1     183      46                                                         262   -1.92    3.45  1.0000
  -7  -2   1     216      57                                                         302   -1.92    3.45  1.0000
   7   2  -1     204      49                                                         287   -1.92   -3.45  1.0000
  -2   7   9     634      72                                                         741    3.94    0.93  1.0000
  -2   7   9     608      66                                                         713    3.94    0.93  1.0000
   2  -7  -9     675     118                                                         786    3.94   -0.93  1.0000
   2  -7  -9     417      62                                                         504    3.94   -0.93  1.0000
   2  -7  -9     485      54                                                         579    3.94   -0.93  1.0000
  -3   5   7    1370      83                                                         680   16.06   -0.97  1.0000
  -3   5   7    1383      44                                                         689   16.06   -0.97  1.0000
   3  -5  -7    1303      40                                                         633   16.06    0.97  1.0000
   3  -5  -7    1199      39                                                         561   16.06    0.97  1.0000
   3  -5  -7    1189      80                                                         554   16.06    0.97  1.0000
  -4   3   5    9537      78                                                        7097   -4.56   19.19  1.0000
   4  -3  -5    8480      70                                                        6189   -4.56  -19.19  1.0000
   4  -3  -5    8654      71                                                        6338   -4.56  -19.19  1.0000
  -5   1   3    6458     168                                                       11592   34.66   19.44  1.0000
  -5   1   3    6831     128                                                       12091   34.66   19.44  1.0000
   5  -1  -3    6980     119                                                       12289   34.66  -19.44  1.0000
   5  -1  -3    6992     128                                                       12304   34.66  -19.44  1.0000
  -6  -1   1    3253      76                                                        2034   13.53  -11.42  1.0000
  -6  -1   1    3369     111                                                        2126   13.53  -11.42  1.0000
  -6  -1   1    3247      63                                                        2029   13.53  -11.42  1.0000
  -6  -1   1    3354      76                                                        2114   13.53  -11.42  1.0000
   6   1  -1    3158      69                                                        1959   13.53   11.42  1.0000
   6   1  -1    3175      71                                                        1972   13.53   11.42  1.0000
   6   1  -1    3125      68                                                        1933   13.53   11.42  1.0000
  -7  -3  -1     763      77                                                         646    3.14    1.52  1.0000
  -7  -3  -1     599      91                                                         496    3.14    1.52  1.0000
   7   3   1     862      94                                                         737    3.14   -1.52  1.0000
   7   3   1     731      72                                                         617    3.14   -1.52  1.0000
  -2   6   7     349      34                                                         306    2.03    7.15  1.0000
  -2   6   7     375      46                                                         331    2.03    7.15  1.0000
   2  -6  -7     325      41                                                         282    2.03   -7.15  1.0000
   2  -6  -7     293      32                                                         251    2.03   -7.15  1.0000
   2  -6  -7     259      63                                                         218    2.03   -7.15  1.0000
  -3   4   5    9450     122                                                        6981   -5.78   19.56  1.0000
   3  -4  -5    8620      68                                                        6270   -5.78  -19.56  1.0000
   3  -4  -5    8647     114                                                        6293   -5.78  -19.56  1.0000
   3  -4  -5    8640      67                                                        6287   -5.78  -19.56  1.0000
   3  -4  -5    8656      63                                                        6300   -5.78  -19.56  1.0000
  -4   2   3   11161     130                                                       14298  -19.67   -4.02  1.0000
   4  -2  -3   10738     123                                                       13819  -19.67    4.02  1.0000
   4  -2  -3   10889     124                                                       13990  -19.67    4.02  1.0000
  -5   0   1    4197      60                                                        4518   -2.15    2.78  1.0000
  -5   0   1    4066      77                                                        4382   -2.15    2.78  1.0000
  -5   0   1    4050     107                                                        4366   -2.15    2.78  1.0000
  -5   0   1    4196      75                                                        4517   -2.15    2.78  1.0000
   5   0  -1    3836      67                                                        4143   -2.15   -2.78  1.0000
   5   0  -1    3788      71                                                        4094   -2.15   -2.78  1.0000
  -6  -2  -1     243      48                                                         250    2.13   -1.43  1.0000
  -6  -2  -1     280      44                                                         287    2.13   -1.43  1.0000
  -6  -2  -1     156      74                                                         161    2.13   -1.43  1.0000
   6   2   1     327      51                                                         335    2.13    1.43  1.0000
   6   2   1     278      43                                                         285    2.13    1.43  1.0000
   6   2   1     279      54                                                         286    2.13    1.43  1.0000
  -1   7   7     840      56                                                         390   14.84    1.59  1.0000
  -1   7   7     813      44                                                         371   14.84    1.59  1.0000
   1  -7  -7     737      37                                                         319   14.84   -1.59  1.0000
   1  -7  -7     906      74                                                         436   14.84   -1.59  1.0000
   1  -7  -7     690      39                                                         288   14.84   -1.59  1.0000
  -2   5   5    7531     116                                                        5321    0.57   20.01  1.0000
  -2   5   5    7525      67                                                        5316    0.57   20.01  1.0000
  -2   5   5    7633      66                                                        5407    0.57   20.01  1.0000
   2  -5  -5    6502     105                                                        4462    0.57  -20.01  1.0000
   2  -5  -5    6472      56                                                        4437    0.57  -20.01  1.0000
   2  -5  -5    6214      63                                                        4224    0.57  -20.01  1.0000
  -3   3   3   11635     219                                                       19656   40.89   23.52  1.0000
   3  -3  -3   12278     159                                                       20490   40.89  -23.52  1.0000
   3  -3  -3   12120     159                                                       20286   40.89  -23.52  1.0000
   3  -3  -3   12204     223                                                       20395   40.89  -23.52  1.0000
  -4   1   1   17196     126                                                       12656   18.86  -19.34  1.0000
  -4   1   1   17185     118                                                       12647   18.86  -19.34  1.0000
  -4   1   1   17775     121                                                       13154   18.86  -19.34  1.0000
  -4   1   1   17334     118                                                       12775   18.86  -19.34  1.0000
   4  -1  -1   16036     111                                                       11664   18.86   19.34  1.0000
   4  -1  -1   16071     112                                                       11694   18.86   19.34  1.0000
  -5  -1  -1    6223     135                                                        5319    5.51    6.57  1.0000
  -5  -1  -1    6308      91                                                        5397    5.51    6.57  1.0000
  -5  -1  -1    6184      93                                                        5283    5.51    6.57  1.0000
   5   1   1    6038      89                                                        5148    5.51   -6.57  1.0000
   5   1   1    6193      87                                                        5291    5.51   -6.57  1.0000
   5   1   1    6151      83                                                        5252    5.51   -6.57  1.0000
   5   1   1    6169      82                                                        5269    5.51   -6.57  1.0000
  -6  -3  -3     897      83                                                        1228    7.10   -2.02  1.0000
  -6  -3  -3     847     137                                                        1169    7.10   -2.02  1.0000
   6   3   3     902      68                                                        1234    7.10    2.02  1.0000
   6   3   3     949      84                                                        1289    7.10    2.02  1.0000
   6   3   3     874      81                                                        1201    7.10    2.02  1.0000
  -1   6   5    2705      57                                                        2096   -3.98    8.89  1.0000
  -1   6   5    2635      57                                                        2035   -3.98    8.89  1.0000
   1  -6  -5    2310     103                                                        1750   -3.98   -8.89  1.0000
   1  -6  -5    2396      52                                                        1825   -3.98   -8.89  1.0000
   1  -6  -5    2372      52                                                        1804   -3.98   -8.89  1.0000
  -2   4   3   11045     174                                                       14261  -20.43   -3.35  1.0000
   2  -4  -3   11237     176                                                       14479  -20.43    3.35  1.0000
   2  -4  -3   11441     119                                                       14710  -20.43    3.35  1.0000
   2  -4  -3   11329     119                                                       14583  -20.43    3.35  1.0000
   3  -2  -1   19770     126                                                       15699   12.21   18.47  1.0000
  -4   0  -1    7656      83                                                        6831    2.96  -11.38  1.0000
  -4   0  -1    7802      89                                                        6970    2.96  -11.38  1.0000
  -4   0  -1    7711      88                                                        6883    2.96  -11.38  1.0000
  -4   0  -1    7613      77                                                        6791    2.96  -11.38  1.0000
  -4   0  -1    7568      85                                                        6748    2.96  -11.38  1.0000
   4   0   1    7496      83                                                        6680    2.96   11.38  1.0000
   4   0   1    7478      89                                                        6663    2.96   11.38  1.0000
  -5  -2  -3    1677     137                                                        3210   18.49  -14.19  1.0000
  -5  -2  -3    1531      80                                                        3006   18.49  -14.19  1.0000
   5   2   3    1395      80                                                        2814   18.49   14.19  1.0000
   5   2   3    1480      71                                                        2934   18.49   14.19  1.0000
   5   2   3    1479      81                                                        2932   18.49   14.19  1.0000
   0   7   5    1526      65                                                        1011    1.55   10.78  1.0000
   0   7   5    1537      65                                                        1020    1.55   10.78  1.0000
   0  -7  -5    1196      55                                                         746    1.55  -10.78  1.0000
   0  -7  -5    1281     105                                                         813    1.55  -10.78  1.0000
   0  -7  -5    1392      56                                                         902    1.55  -10.78  1.0000
  -1   5   3    7146     121                                                       12492   34.52   19.41  1.0000
  -1   5   3    7163     118                                                       12514   34.52   19.41  1.0000
   1  -5  -3    6805     164                                                       12039   34.52  -19.41  1.0000
   1  -5  -3    6644     114                                                       11825   34.52  -19.41  1.0000
  -2   3   1   19552     164                                                       15503   12.69  -18.10  1.0000
   2  -3  -1   19229     160                                                       15215   12.69   18.10  1.0000
  -3   1  -1   19885     141                                                       15855   12.12   18.16  1.0000
  -3   1  -1   19636     133                                                       15632   12.12   18.16  1.0000
  -3   1  -1   19442     134                                                       15459   12.12   18.16  1.0000
  -4  -1  -3    8217     129                                                       11797   25.07   -6.84  1.0000
  -4  -1  -3    8203     129                                                       11780   25.07   -6.84  1.0000
  -4  -1  -3    8186     135                                                       11759   25.07   -6.84  1.0000
  -4  -1  -3    8209     135                                                       11787   25.07   -6.84  1.0000
  -4  -1  -3    8103     122                                                       11660   25.07   -6.84  1.0000
   4   1   3    8398     132                                                       12013   25.07    6.84  1.0000
   4   1   3    8466     135                                                       12095   25.07    6.84  1.0000
   4   1   3    8526     142                                                       12166   25.07    6.84  1.0000
   4   1   3    8342     123                                                       11946   25.07    6.84  1.0000
   4   1   3    8430     135                                                       12052   25.07    6.84  1.0000
  -5  -3  -5    1575     142                                                        1165   -1.02   -7.95  1.0000
  -5  -3  -5    1704      78                                                        1276   -1.02   -7.95  1.0000
   5   3   5    1877      59                                                        1427   -1.02    7.95  1.0000
   5   3   5    1925      79                                                        1469   -1.02    7.95  1.0000
   5   3   5    2102      78                                                        1624   -1.02    7.95  1.0000
   0   6   3    1407      61                                                        1908   -9.33    1.52  1.0000
   0   6   3    1386      63                                                        1884   -9.33    1.52  1.0000
   0  -6  -3    1327      56                                                        1815   -9.33   -1.52  1.0000
   0  -6  -3    1423      96                                                        1927   -9.33   -1.52  1.0000
   0  -6  -3    1359      57                                                        1852   -9.33   -1.52  1.0000
  -1   4   1   17347     110                                                       12807   18.73  -19.30  1.0000
  -1   4   1   16888     112                                                       12413   18.73  -19.30  1.0000
  -1   4   1   17203     115                                                       12683   18.73  -19.30  1.0000
   1  -4  -1   16434     105                                                       12024   18.73   19.30  1.0000
   1  -4  -1   16192      98                                                       11817   18.73   19.30  1.0000
   1  -4  -1   16146     141                                                       11778   18.73   19.30  1.0000
  -2   2  -1   26902     265                                                       27411   15.04   -9.12  1.0000
  -2   2  -1   26992     220                                                       27502   15.04   -9.12  1.0000
   2  -2   1   25622     201                                                       26115   15.04    9.12  1.0000
  -3   0  -3   13123     199                                                       21428   40.27  -23.06  1.0000
  -3   0  -3   13243     252                                                       21581   40.27  -23.06  1.0000
  -3   0  -3   13347     188                                                       21714   40.27  -23.06  1.0000
   3   0   3   13445     201                                                       21839   40.27   23.06  1.0000
   3   0   3   13239     189                                                       21576   40.27   23.06  1.0000
  -4  -2  -5    1173      64                                                         917   -0.32    5.73  1.0000
  -4  -2  -5    1270      60                                                        1003   -0.32    5.73  1.0000
  -4  -2  -5    1174      59                                                         918   -0.32    5.73  1.0000
   4   2   5    1228      55                                                         966   -0.32   -5.73  1.0000
   4   2   5    1220      71                                                         959   -0.32   -5.73  1.0000
   4   2   5    1188      65                                                         930   -0.32   -5.73  1.0000
   4   2   5    1260      61                                                         994   -0.32   -5.73  1.0000
   1   7   3    1468      88                                                        2753   18.34    9.03  1.0000
   1   7   3    1482      63                                                        2772   18.34    9.03  1.0000
   1   7   3    1533      86                                                        2842   18.34    9.03  1.0000
  -1  -7  -3    1266      74                                                        2473   18.34   -9.03  1.0000
  -1  -7  -3    1257     128                                                        2461   18.34   -9.03  1.0000
  -1  -7  -3    1223      72                                                        2413   18.34   -9.03  1.0000
   0   5   1    4102      69                                                        4423   -1.49    3.38  1.0000
   0   5   1    4037      60                                                        4355   -1.49    3.38  1.0000
   0  -5  -1    3743      95                                                        4050   -1.49   -3.38  1.0000
   0  -5  -1    3795      61                                                        4104   -1.49   -3.38  1.0000
   0  -5  -1    3848      63                                                        4159   -1.49   -3.38  1.0000
   1  -3   1   19653     129                                                       15630   12.25  -18.18  1.0000
  -2   1  -3   24804     290                                                       35065   39.97  -15.48  1.0000
  -2   1  -3   24513     275                                                       34718   39.97  -15.48  1.0000
  -2   1  -3   24448     346                                                       34641   39.97  -15.48  1.0000
   2  -1   3   23744     268                                                       33802   39.97   15.48  1.0000
  -3  -1  -5    9182      88                                                        6745   -4.29  -19.60  1.0000
  -3  -1  -5    9317      91                                                        6861   -4.29  -19.60  1.0000
  -3  -1  -5    9501      93                                                        7019   -4.29  -19.60  1.0000
  -3  -1  -5    9268      99                                                        6819   -4.29  -19.60  1.0000
  -3  -1  -5    9417     141                                                        6947   -4.29  -19.60  1.0000
   3   1   5   10311      98                                                        7718   -4.29   19.60  1.0000
   3   1   5   10312     103                                                        7719   -4.29   19.60  1.0000
   3   1   5   10306     109                                                        7714   -4.29   19.60  1.0000
   3   1   5   10448     100                                                        7837   -4.29   19.60  1.0000
  -4  -3  -7    1374      73                                                        1440   -0.71   -2.27  1.0000
  -4  -3  -7    1261     141                                                        1324   -0.71   -2.27  1.0000
  -4  -3  -7    1362      83                                                        1428   -0.71   -2.27  1.0000
   4   3   7    1469      50                                                        1537   -0.71    2.27  1.0000
   4   3   7    1458      88                                                        1526   -0.71    2.27  1.0000
   4   3   7    1439      86                                                        1507   -0.71    2.27  1.0000
   4   3   7    1464      77                                                        1532   -0.71    2.27  1.0000
   4   3   7    1608      75                                                        1680   -0.71    2.27  1.0000
   1   6   1    3242      57                                                        1997   14.67  -11.25  1.0000
   1   6   1    3265      73                                                        2015   14.67  -11.25  1.0000
   1   6   1    3136      68                                                        1914   14.67  -11.25  1.0000
  -1  -6  -1    3135     107                                                        1913   14.67   11.25  1.0000
  -1  -6  -1    3266      61                                                        2016   14.67   11.25  1.0000
  -1  -6  -1    3253      63                                                        2006   14.67   11.25  1.0000
   0   4  -1    7338      84                                                        6510    2.94  -11.61  1.0000
   0   4  -1    7288      74                                                        6463    2.94  -11.61  1.0000
   0   4  -1    7478      80                                                        6642    2.94  -11.61  1.0000
   0  -4   1    7956      77                                                        7095    2.94   11.61  1.0000
   0  -4   1    7805      80                                                        6952    2.94   11.61  1.0000
   0  -4   1    7854      80                                                        6998    2.94   11.61  1.0000
   0  -4   1    7943     100                                                        7082    2.94   11.61  1.0000
  -1   2  -3   24922     278                                                       35321   40.85  -14.34  1.0000
  -1   2  -3   24873     294                                                       35262   40.85  -14.34  1.0000
   1  -2   3   22998     261                                                       33023   40.85   14.34  1.0000
  -2   0  -5    7820      87                                                        6520    9.36   12.81  1.0000
  -2   0  -5    7687     115                                                        6398    9.36   12.81  1.0000
   2   0   5    8756      90                                                        7381    9.36  -12.81  1.0000
   2   0   5    8635      81                                                        7269    9.36  -12.81  1.0000
   2   0   5    8614      96                                                        7250    9.36  -12.81  1.0000
   2   0   5    8544      88                                                        7186    9.36  -12.81  1.0000
   2   0   5    8717      90                                                        7345    9.36  -12.81  1.0000
  -3  -2  -7     961      74                                                         444   14.18    2.18  1.0000
  -3  -2  -7    1311      59                                                         691   14.18    2.18  1.0000
  -3  -2  -7    1204      63                                                         614   14.18    2.18  1.0000
  -3  -2  -7    1053      57                                                         507   14.18    2.18  1.0000
   3   2   7    1235      46                                                         636   14.18   -2.18  1.0000
   3   2   7    1308      67                                                         689   14.18   -2.18  1.0000
   3   2   7    1346      60                                                         716   14.18   -2.18  1.0000
   3   2   7    1267      64                                                         659   14.18   -2.18  1.0000
   2   7   1     239      53                                                         303   -1.80    2.14  1.0000
   2   7   1     283      42                                                         352   -1.80    2.14  1.0000
   2   7   1     229      53                                                         292   -1.80    2.14  1.0000
  -2  -7  -1     205      42                                                         264   -1.80   -2.14  1.0000
  -2  -7  -1     278      50                                                         346   -1.80   -2.14  1.0000
   1   5  -1    5744      83                                                        4832    5.37    7.29  1.0000
   1   5  -1    5909      78                                                        4983    5.37    7.29  1.0000
   1   5  -1    5768      89                                                        4854    5.37    7.29  1.0000
  -1  -5   1    6452     111                                                        5483    5.37   -7.29  1.0000
  -1  -5   1    6255      82                                                        5301    5.37   -7.29  1.0000
  -1  -5   1    6205      79                                                        5255    5.37   -7.29  1.0000
   0   3  -3   12989     196                                                       21213   40.01  -23.13  1.0000
   0   3  -3   13023     185                                                       21256   40.01  -23.13  1.0000
   0   3  -3   12914     182                                                       21117   40.01  -23.13  1.0000
   0   3  -3   13108     185                                                       21365   40.01  -23.13  1.0000
   0  -3   3   11712     170                                                       19570   40.01   23.13  1.0000
  -1   1  -5   16360     128                                                       12129    2.89  -25.74  1.0000
   1  -1   5   17600     135                                                       13200    2.89   25.74  1.0000
   1  -1   5   17343     128                                                       12978    2.89   25.74  1.0000
  -2  -1  -7    5251      80                                                        4828    4.33    0.45  1.0000
  -2  -1  -7    5263     123                                                        4840    4.33    0.45  1.0000
  -2  -1  -7    5191      81                                                        4771    4.33    0.45  1.0000
  -2  -1  -7    5098      84                                                        4681    4.33    0.45  1.0000
   2   1   7    6211      73                                                        5750    4.33   -0.45  1.0000
   2   1   7    6087      97                                                        5631    4.33   -0.45  1.0000
   2   1   7    5964      87                                                        5513    4.33   -0.45  1.0000
   2   1   7    6172      93                                                        5713    4.33   -0.45  1.0000
  -3  -3  -9    1373      83                                                        2008    1.72  -11.87  1.0000
  -3  -3  -9    1204     139                                                        1802    1.72  -11.87  1.0000
  -3  -3  -9    1328      87                                                        1954    1.72  -11.87  1.0000
  -3  -3  -9    1268      78                                                        1880    1.72  -11.87  1.0000
   3   3   9    1329      91                                                        1955    1.72   11.87  1.0000
   3   3   9    1269      79                                                        1882    1.72   11.87  1.0000
   3   3   9    1330      92                                                        1956    1.72   11.87  1.0000
   2   6  -1     307      43                                                         308    2.70   -2.35  1.0000
   2   6  -1     302      51                                                         303    2.70   -2.35  1.0000
   2   6  -1     319      47                                                         320    2.70   -2.35  1.0000
  -2  -6   1     419      58                                                         422    2.70    2.35  1.0000
  -2  -6   1     377      45                                                         379    2.70    2.35  1.0000
   1   4  -3    8269     132                                                       11868   25.14   -6.85  1.0000
   1   4  -3    8333     130                                                       11945   25.14   -6.85  1.0000
   1   4  -3    8334     141                                                       11946   25.14   -6.85  1.0000
   1   4  -3    8467     112                                                       12105   25.14   -6.85  1.0000
  -1  -4   3    8538     130                                                       12191   25.14    6.85  1.0000
  -1  -4   3    8507     145                                                       12153   25.14    6.85  1.0000
  -1  -4   3    8609     124                                                       12275   25.14    6.85  1.0000
   0   2  -5    7836      87                                                        6531    9.14   12.80  1.0000
   0   2  -5    7591      81                                                        6307    9.14   12.80  1.0000
   0   2  -5    7785      82                                                        6485    9.14   12.80  1.0000
   0   2  -5    7688      84                                                        6396    9.14   12.80  1.0000
   0   2  -5    7648      88                                                        6359    9.14   12.80  1.0000
   0  -2   5    8751      94                                                        7372    9.14  -12.80  1.0000
   0  -2   5    8789      96                                                        7407    9.14  -12.80  1.0000
  -1   0  -7    5074      70                                                        4014    9.69    7.91  1.0000
  -1   0  -7    5214      72                                                        4139    9.69    7.91  1.0000
  -1   0  -7    5101      72                                                        4038    9.69    7.91  1.0000
  -1   0  -7    4967      97                                                        3919    9.69    7.91  1.0000
  -1   0  -7    5107      70                                                        4044    9.69    7.91  1.0000
   1   0   7    5963      83                                                        4810    9.69   -7.91  1.0000
   1   0   7    6000      77                                                        4843    9.69   -7.91  1.0000
   1   0   7    5999      66                                                        4842    9.69   -7.91  1.0000
  -2  -2  -9     516      67                                                         662   -7.46   -7.07  1.0000
  -2  -2  -9     482     107                                                         621   -7.46   -7.07  1.0000
  -2  -2  -9     552      67                                                         704   -7.46   -7.07  1.0000
  -2  -2  -9     512      66                                                         657   -7.46   -7.07  1.0000
   2   2   9     532      69                                                         680   -7.46    7.07  1.0000
   2   2   9     493      69                                                         634   -7.46    7.07  1.0000
   2   2   9     528      60                                                         675   -7.46    7.07  1.0000
   3   7  -1     793      75                                                         641    4.26    1.83  1.0000
   3   7  -1     695      67                                                         553    4.26    1.83  1.0000
   3   7  -1     742      70                                                         595    4.26    1.83  1.0000
  -3  -7   1     739      64                                                         592    4.26   -1.83  1.0000
  -3  -7   1     703      70                                                         560    4.26   -1.83  1.0000
   2   5  -3    1614      62                                                        3190   19.58  -13.88  1.0000
   2   5  -3    1696      93                                                        3304   19.58  -13.88  1.0000
   2   5  -3    1561      84                                                        3115   19.58  -13.88  1.0000
   2   5  -3    1592      85                                                        3158   19.58  -13.88  1.0000
  -2  -5   3    1404      74                                                        2891   19.58   13.88  1.0000
  -2  -5   3    1440      78                                                        2942   19.58   13.88  1.0000
  -2  -5   3    1358      74                                                        2824   19.58   13.88  1.0000
   1   3  -5    8928      94                                                        6513   -5.58  -19.74  1.0000
   1   3  -5    9142      97                                                        6696   -5.58  -19.74  1.0000
   1   3  -5    8941     101                                                        6524   -5.58  -19.74  1.0000
   1   3  -5    9201      86                                                        6747   -5.58  -19.74  1.0000
  -1  -3   5   10110     101                                                        7529   -5.58   19.74  1.0000
  -1  -3   5   10170      99                                                        7581   -5.58   19.74  1.0000
  -1  -3   5   10122      92                                                        7539   -5.58   19.74  1.0000
  -1  -3   5   10118      97                                                        7536   -5.58   19.74  1.0000
  -1  -3   5    9994     103                                                        7429   -5.58   19.74  1.0000
   0   1  -7    4891      71                                                        3841    9.92    7.46  1.0000
   0   1  -7    4946      72                                                        3890    9.92    7.46  1.0000
   0   1  -7    5027      68                                                        3962    9.92    7.46  1.0000
   0   1  -7    4869      83                                                        3821    9.92    7.46  1.0000
   0   1  -7    4929      67                                                        3875    9.92    7.46  1.0000
   0  -1   7    6037      95                                                        4865    9.92   -7.46  1.0000
   0  -1   7    6015      84                                                        4845    9.92   -7.46  1.0000
   0  -1   7    6164      73                                                        4979    9.92   -7.46  1.0000
   0  -1   7    6204      79                                                        5015    9.92   -7.46  1.0000
   0  -1   7    6100      79                                                        4921    9.92   -7.46  1.0000
  -1  -1  -9    2851      88                                                        4455    5.99  -18.84  1.0000
  -1  -1  -9    2850     129                                                        4454    5.99  -18.84  1.0000
  -1  -1  -9    2828      84                                                        4427    5.99  -18.84  1.0000
  -1  -1  -9    2768      90                                                        4352    5.99  -18.84  1.0000
   1   1   9    2743      85                                                        4320    5.99   18.84  1.0000
   1   1   9    2839      59                                                        4441    5.99   18.84  1.0000
   1   1   9    2856      94                                                        4462    5.99   18.84  1.0000
   1   1   9    2881      91                                                        4493    5.99   18.84  1.0000
  -2  -3 -11     545      57                                                         459    0.45   -4.12  1.0000
  -2  -3 -11     617      71                                                         525    0.45   -4.12  1.0000
  -2  -3 -11     892     128                                                         782    0.45   -4.12  1.0000
   2   3  11     846      71                                                         739    0.45    4.12  1.0000
   2   3  11     945      90                                                         832    0.45    4.12  1.0000
   2   3  11    1001      83                                                         885    0.45    4.12  1.0000
   3   6  -3    1015      56                                                        1389    8.14   -0.65  1.0000
   3   6  -3    1022      84                                                        1397    8.14   -0.65  1.0000
  -3  -6   3     976      81                                                        1343    8.14    0.65  1.0000
  -3  -6   3    1003      87                                                        1375    8.14    0.65  1.0000
   2   4  -5    1292      65                                                        1032   -0.64    5.46  1.0000
   2   4  -5    1254      64                                                         998   -0.64    5.46  1.0000
   2   4  -5    1219      58                                                         967   -0.64    5.46  1.0000
   2   4  -5    1211      75                                                         960   -0.64    5.46  1.0000
  -2  -4   5    1436      64                                                        1161   -0.64   -5.46  1.0000
  -2  -4   5    1338      61                                                        1073   -0.64   -5.46  1.0000
   1   2  -7    5203      88                                                        4752    4.69    0.29  1.0000
   1   2  -7    5238      89                                                        4786    4.69    0.29  1.0000
   1   2  -7    5227      78                                                        4775    4.69    0.29  1.0000
   1   2  -7    5190      82                                                        4740    4.69    0.29  1.0000
   1   2  -7    5319      83                                                        4863    4.69    0.29  1.0000
  -1  -2   7    6328      93                                                        5830    4.69   -0.29  1.0000
  -1  -2   7    6437     101                                                        5935    4.69   -0.29  1.0000
  -1  -2   7    6270      98                                                        5774    4.69   -0.29  1.0000
   0   0  -9    1127      68                                                        1582  -13.81   -7.75  1.0000
   0   0  -9    1072      63                                                        1514  -13.81   -7.75  1.0000
   0   0  -9    1050      88                                                        1487  -13.81   -7.75  1.0000
   0   0  -9    1108      64                                                        1559  -13.81   -7.75  1.0000
   0   0   9    1077      69                                                        1520  -13.81    7.75  1.0000
   0   0   9    1087      48                                                        1533  -13.81    7.75  1.0000
   0   0   9    1068      62                                                        1510  -13.81    7.75  1.0000
  -1  -2 -11     434      74                                                         294   -7.24   -0.95  1.0000
  -1  -2 -11     320      47                                                         200   -7.24   -0.95  1.0000
  -1  -2 -11     550      49                                                         392   -7.24   -0.95  1.0000
   1   2  11     554      52                                                         395   -7.24    0.95  1.0000
   1   2  11     563      47                                                         403   -7.24    0.95  1.0000
   1   2  11     561      52                                                         401   -7.24    0.95  1.0000
   3   5  -5    1653      65                                                        1242   -1.69   -7.72  1.0000
   3   5  -5    1787      79                                                        1359   -1.69   -7.72  1.0000
  -3  -5   5    2038      79                                                        1579   -1.69    7.72  1.0000
   2   3  -7    1177      63                                                         592   14.67    0.76  1.0000
  -2  -3   7    1221      62                                                         623   14.67   -0.76  1.0000
  -2  -3   7    1407      61                                                         758   14.67   -0.76  1.0000
  -2  -3   7    1276      59                                                         663   14.67   -0.76  1.0000
   1   1  -9    2843      85                                                        4413    6.02  -18.43  1.0000
   1   1  -9    2885     104                                                        4465    6.02  -18.43  1.0000
   1   1  -9    2854      90                                                        4427    6.02  -18.43  1.0000
   1   1  -9    2909      88                                                        4496    6.02  -18.43  1.0000
  -1  -1   9    2884      96                                                        4464    6.02   18.43  1.0000
  -1  -1   9    2788      87                                                        4344    6.02   18.43  1.0000
  -1  -1   9    2918     109                                                        4506    6.02   18.43  1.0000
  -1  -1   9    2811      73                                                        4373    6.02   18.43  1.0000
   0  -1 -11     942      70                                                         733   -4.38   -3.15  1.0000
   0  -1 -11    1117      71                                                         888   -4.38   -3.15  1.0000
   0  -1 -11    1058      68                                                         836   -4.38   -3.15  1.0000
   0  -1 -11    1049      95                                                         828   -4.38   -3.15  1.0000
   0   1  11    1321      64                                                        1071   -4.38    3.15  1.0000
   0   1  11    1442      78                                                        1180   -4.38    3.15  1.0000
   3   4  -7    1275      77                                                        1313   -0.32   -1.79  1.0000
   3   4  -7    1160      74                                                        1196   -0.32   -1.79  1.0000
  -3  -4   7    1629      74                                                        1672   -0.32    1.79  1.0000
  -3  -4   7    1538      83                                                        1580   -0.32    1.79  1.0000
   2   2  -9     463      68                                                         597   -7.37   -6.92  1.0000
  -2  -2   9     523      54                                                         667   -7.37    6.92  1.0000
  -2  -2   9     523      66                                                         667   -7.37    6.92  1.0000
   1   0 -11    1124      67                                                         878   -4.74   -3.36  1.0000
   1   0 -11    1058      70                                                         820   -4.74   -3.36  1.0000
   1   0 -11    1103      86                                                         860   -4.74   -3.36  1.0000
   1   0 -11     950      72                                                         725   -4.74   -3.36  1.0000
  -1   0  11    1332      76                                                        1063   -4.74    3.36  1.0000
  -1   0  11    1225     106                                                         968   -4.74    3.36  1.0000
  -1   0  11    1240      65                                                         981   -4.74    3.36  1.0000
   3   3  -9    1288      86                                                        1934    1.96  -12.33  1.0000
  -3  -3   9    1234      74                                                        1868    1.96   12.33  1.0000
  -3  -3   9    1326      90                                                        1981    1.96   12.33  1.0000
   2   1 -11     445      51                                                         306   -7.12   -0.85  1.0000
  -2  -1  11     543      49                                                         389   -7.12    0.85  1.0000
   3   2 -11     682      60                                                         589    0.27   -3.80  1.0000
  -3  -2  11     902      62                                                         795    0.27    3.80  1.0000
  -3  -2  11     849      83                                                         745    0.27    3.80  1.0000
  -8   2   8     939      82                                                         926    3.08    1.62  1.0000
  -8   2   8     752     121                                                         740    3.08    1.62  1.0000
   8  -2  -8     669      75                                                         657    3.08   -1.62  1.0000
   8  -2  -8     702      70                                                         690    3.08   -1.62  1.0000
  -6   5  10      51      66                                                          76    5.72    1.90  1.0000
  -6   5  10      13      37                                                          14    5.72    1.90  1.0000
   6  -5 -10      16      36                                                          20    5.72   -1.90  1.0000
   6  -5 -10      16      34                                                          20    5.72   -1.90  1.0000
   6  -5 -10      80      65                                                         115    5.72   -1.90  1.0000
  -7   3   8     557      63                                                         469    1.98    4.52  1.0000
  -7   3   8     596      70                                                         505    1.98    4.52  1.0000
   7  -3  -8     485      62                                                         403    1.98   -4.52  1.0000
   7  -3  -8     403      41                                                         328    1.98   -4.52  1.0000
   7  -3  -8     511      57                                                         427    1.98   -4.52  1.0000
  -8   1   6     110      49                                                          86   -2.55   -0.49  1.0000
  -8   1   6      80      64                                                          59   -2.55   -0.49  1.0000
  -8   1   6      77      35                                                          57   -2.55   -0.49  1.0000
  -8   1   6     117      39                                                          92   -2.55   -0.49  1.0000
   8  -1  -6      18      40                                                           8   -2.55    0.49  1.0000
   8  -1  -6     163      45                                                         134   -2.55    0.49  1.0000
  -5   6  10      18      37                                                         -11    4.96    3.43  1.0000
  -5   6  10      18      66                                                         -20    4.96    3.43  1.0000
   5  -6 -10      18      31                                                         -20    4.96   -3.43  1.0000
   5  -6 -10      26      32                                                          32    4.96   -3.43  1.0000
   5  -6 -10      18      62                                                          -8    4.96   -3.43  1.0000
  -6   4   8    4203     118                                                        3253   -5.41   10.03  1.0000
  -6   4   8    4025      74                                                        3097   -5.41   10.03  1.0000
   6  -4  -8    3263      62                                                        2433   -5.41  -10.03  1.0000
   6  -4  -8    3335     104                                                        2495   -5.41  -10.03  1.0000
   6  -4  -8    3312      63                                                        2475   -5.41  -10.03  1.0000
  -7   2   6     342      64                                                        1048    5.00   19.48  1.0000
  -7   2   6     276      50                                                         929    5.00   19.48  1.0000
  -7   2   6     324      99                                                        1016    5.00   19.48  1.0000
   7  -2  -6     295      58                                                         964    5.00  -19.48  1.0000
   7  -2  -6     288      56                                                         952    5.00  -19.48  1.0000
  -8   0   4    2148      73                                                        1183   14.69   -8.98  1.0000
  -8   0   4    2083     112                                                        1135   14.69   -8.98  1.0000
  -8   0   4    2301      80                                                        1297   14.69   -8.98  1.0000
   8   0  -4    2055      75                                                        1114   14.69    8.98  1.0000
   8   0  -4    2025      73                                                        1092   14.69    8.98  1.0000
  -5   5   8    1208      99                                                        1060    3.17    5.47  1.0000
  -5   5   8    1138      50                                                         994    3.17    5.47  1.0000
   5  -5  -8     830      46                                                         706    3.17   -5.47  1.0000
   5  -5  -8     918      91                                                         788    3.17   -5.47  1.0000
   5  -5  -8     962      46                                                         829    3.17   -5.47  1.0000
  -6   3   6       9      29                                                           2    1.89    5.97  1.0000
  -6   3   6       1      47                                                          15    1.89    5.97  1.0000
   6  -3  -6       2      29                                                          10    1.89   -5.97  1.0000
   6  -3  -6      19      27                                                         -32    1.89   -5.97  1.0000
  -7   1   4     138      36                                                         278   -5.33    5.55  1.0000
  -7   1   4     124      42                                                         259   -5.33    5.55  1.0000
  -7   1   4      88      58                                                         205   -5.33    5.55  1.0000
   7  -1  -4      63      38                                                         164   -5.33   -5.55  1.0000
   7  -1  -4      82      39                                                         195   -5.33   -5.55  1.0000
  -8  -1   2      86      48                                                          33    3.55    5.49  1.0000
  -8  -1   2      86      70                                                          33    3.55    5.49  1.0000
  -8  -1   2      86      35                                                          33    3.55    5.49  1.0000
   8   1  -2     108      48                                                          48    3.55   -5.49  1.0000
  -4   6   8    4001      65                                                        3070   -5.61   10.05  1.0000
  -4   6   8    4202     124                                                        3246   -5.61   10.05  1.0000
   4  -6  -8    3257      56                                                        2423   -5.61  -10.05  1.0000
   4  -6  -8    3559     112                                                        2684   -5.61  -10.05  1.0000
   4  -6  -8    3407      57                                                        2552   -5.61  -10.05  1.0000
  -5   4   6      86      37                                                         452    0.87   19.40  1.0000
   5  -4  -6      84      71                                                         448    0.87  -19.40  1.0000
   5  -4  -6     101      37                                                         489    0.87  -19.40  1.0000
   5  -4  -6     103      37                                                         494    0.87  -19.40  1.0000
  -6   2   4   14119     106                                                       10785   17.55  -12.51  1.0000
  -6   2   4   13892     124                                                       10587   17.55  -12.51  1.0000
   6  -2  -4   11718     104                                                        8701   17.55   12.51  1.0000
   6  -2  -4   11709      98                                                        8693   17.55   12.51  1.0000
  -7   0   2     151      61                                                         183   -0.56   -1.70  1.0000
  -7   0   2     186      43                                                         221   -0.56   -1.70  1.0000
  -7   0   2     255      44                                                         296   -0.56   -1.70  1.0000
   7   0  -2     143      39                                                         174   -0.56    1.70  1.0000
   7   0  -2     184      41                                                         219   -0.56    1.70  1.0000
   7   0  -2     191      43                                                         227   -0.56    1.70  1.0000
  -8  -2   0     921     143                                                        1546   12.97    0.47  1.0000
  -8  -2   0     868      94                                                        1477   12.97    0.47  1.0000
  -8  -2   0     857      83                                                        1463   12.97    0.47  1.0000
   8   2   0     728      84                                                        1293   12.97   -0.47  1.0000
  -3   7   8     578      52                                                         501    2.52    4.35  1.0000
  -3   7   8     677      52                                                         594    2.52    4.35  1.0000
   3  -7  -8     443      35                                                         375    2.52   -4.35  1.0000
   3  -7  -8     477      52                                                         406    2.52   -4.35  1.0000
   3  -7  -8     442      71                                                         374    2.52   -4.35  1.0000
  -4   5   6     121      76                                                         567    0.69   20.29  1.0000
   4  -5  -6      86      75                                                         482    0.69  -20.29  1.0000
   4  -5  -6     108      33                                                         537    0.69  -20.29  1.0000
   4  -5  -6      97      34                                                         509    0.69  -20.29  1.0000
  -5   3   4     683      36                                                         955   -4.23    6.99  1.0000
  -5   3   4     666      66                                                         935   -4.23    6.99  1.0000
   5  -3  -4     668      37                                                         938   -4.23   -6.99  1.0000
  -6   1   2      39      29                                                          48    5.64    8.64  1.0000
  -6   1   2      34      31                                                          32    5.64    8.64  1.0000
   6  -1  -2      38      29                                                          44    5.64   -8.64  1.0000
   6  -1  -2      45      29                                                          61    5.64   -8.64  1.0000
  -7  -1   0       7      68                                                         -20    2.87   -2.32  1.0000
  -7  -1   0      28      45                                                          53    2.87   -2.32  1.0000
  -7  -1   0      13      37                                                          30    2.87   -2.32  1.0000
   7   1   0       7      41                                                         -59    2.87    2.32  1.0000
  -2   8   8     742      64                                                         744    3.18    1.25  1.0000
  -2   8   8     830      74                                                         832    3.18    1.25  1.0000
   2  -8  -8     671      54                                                         672    3.18   -1.25  1.0000
   2  -8  -8     590      87                                                         591    3.18   -1.25  1.0000
   2  -8  -8     665      58                                                         666    3.18   -1.25  1.0000
  -3   6   6       3      25                                                          32    1.59    6.58  1.0000
  -3   6   6      22      49                                                         -14    1.59    6.58  1.0000
  -3   6   6       5      23                                                          41    1.59    6.58  1.0000
   3  -6  -6       4      23                                                          10    1.59   -6.58  1.0000
   3  -6  -6      20      23                                                          77    1.59   -6.58  1.0000
   3  -6  -6      12      51                                                          60    1.59   -6.58  1.0000
  -4   4   4   27289     258                                                       22301   15.64  -17.55  1.0000
   4  -4  -4   24642     156                                                       19914   15.64   17.55  1.0000
   4  -4  -4   24261     230                                                       19572   15.64   17.55  1.0000
   4  -4  -4   24605     147                                                       19881   15.64   17.55  1.0000
   4  -4  -4   24076     157                                                       19405   15.64   17.55  1.0000
  -5   2   2      19      18                                                          54   -0.65   -4.25  1.0000
  -5   2   2       0      23                                                           9   -0.65   -4.25  1.0000
  -5   2   2       4      32                                                           1   -0.65   -4.25  1.0000
   5  -2  -2      32      20                                                          74   -0.65    4.25  1.0000
   5  -2  -2      15      22                                                          46   -0.65    4.25  1.0000
   5  -2  -2       0      20                                                           7   -0.65    4.25  1.0000
  -6   0   0   12826     199                                                       20072   41.08    2.67  1.0000
  -6   0   0   13177     208                                                       20510   41.08    2.67  1.0000
  -6   0   0   12737     274                                                       19960   41.08    2.67  1.0000
  -6   0   0   12750     171                                                       19976   41.08    2.67  1.0000
   6   0   0   13548     203                                                       20972   41.08   -2.67  1.0000
   6   0   0   13282     192                                                       20641   41.08   -2.67  1.0000
   6   0   0   13429     191                                                       20825   41.08   -2.67  1.0000
  -7  -2  -2     569      58                                                         447    4.62   -3.41  1.0000
  -7  -2  -2     446      91                                                         338    4.62   -3.41  1.0000
  -7  -2  -2     489      48                                                         376    4.62   -3.41  1.0000
   7   2   2     414      48                                                         310    4.62    3.41  1.0000
   7   2   2     673      69                                                         540    4.62    3.41  1.0000
  -2   7   6     336      55                                                        1046    4.76   19.73  1.0000
  -2   7   6     328      54                                                        1032    4.76   19.73  1.0000
   2  -7  -6     343      49                                                        1058    4.76  -19.73  1.0000
   2  -7  -6     379      98                                                        1120    4.76  -19.73  1.0000
   2  -7  -6     313      48                                                        1005    4.76  -19.73  1.0000
  -3   5   4     734      65                                                        1042   -4.56    7.50  1.0000
   3  -5  -4     624      65                                                         909   -4.56   -7.50  1.0000
  -4   3   2       2      13                                                          -3    1.39   -1.24  1.0000
  -4   3   2      15      28                                                          16    1.39   -1.24  1.0000
   4  -3  -2      91      15                                                          96    1.39    1.24  1.0000
   4  -3  -2       9      13                                                           9    1.39    1.24  1.0000
   4  -3  -2       9      15                                                           9    1.39    1.24  1.0000
  -5   1   0      32      26                                                         106    7.28   -2.42  1.0000
  -5   1   0      48      25                                                         136    7.28   -2.42  1.0000
  -5   1   0      52      28                                                         142    7.28   -2.42  1.0000
  -5   1   0      31      40                                                         105    7.28   -2.42  1.0000
  -5   1   0      33      25                                                         109    7.28   -2.42  1.0000
   5  -1   0      43      25                                                         126    7.28    2.42  1.0000
   5  -1   0      68      28                                                         170    7.28    2.42  1.0000
  -6  -1  -2       5      37                                                         -41   -1.11    3.06  1.0000
  -6  -1  -2      34      69                                                          65   -1.11    3.06  1.0000
  -6  -1  -2      41      42                                                          75   -1.11    3.06  1.0000
   6   1   2      36      39                                                          68   -1.11   -3.06  1.0000
  -1   8   6      63      39                                                          46   -3.03   -0.21  1.0000
  -1   8   6      71      40                                                          53   -3.03   -0.21  1.0000
   1  -8  -6      96      37                                                          76   -3.03    0.21  1.0000
   1  -8  -6      80      34                                                          61   -3.03    0.21  1.0000
   1  -8  -6      98      71                                                          77   -3.03    0.21  1.0000
  -2   6   4   13295     103                                                       10135   17.01  -12.43  1.0000
  -2   6   4   13094     102                                                        9960   17.01  -12.43  1.0000
   2  -6  -4   11708      86                                                        8756   17.01   12.43  1.0000
   2  -6  -4   11842      91                                                        8872   17.01   12.43  1.0000
   2  -6  -4   11615     148                                                        8675   17.01   12.43  1.0000
  -3   4   2      33      25                                                          35    1.43   -1.67  1.0000
   3  -4  -2      26      26                                                          27    1.43    1.67  1.0000
  -4   2   0   61509     719                                                       93982   84.37   -0.35  1.0000
  -4   2   0   59610     908                                                       91632   84.37   -0.35  1.0000
   4  -2   0   64029     787                                                       97092   84.37    0.35  1.0000
   4  -2   0   64690     764                                                       97905   84.37    0.35  1.0000
  -5   0  -2    1479      46                                                        1027   10.02   -8.86  1.0000
  -5   0  -2    1421      53                                                         978   10.02   -8.86  1.0000
  -5   0  -2    1425      55                                                         981   10.02   -8.86  1.0000
  -5   0  -2    1446      50                                                         999   10.02   -8.86  1.0000
   5   0   2    1440      47                                                         994   10.02    8.86  1.0000
   5   0   2    1370      51                                                         935   10.02    8.86  1.0000
   5   0   2    1431      49                                                         986   10.02    8.86  1.0000
  -6  -2  -4    3397      86                                                        2715    7.41    4.92  1.0000
  -6  -2  -4    3305     151                                                        2632    7.41    4.92  1.0000
   6   2   4    3642      79                                                        2934    7.41   -4.92  1.0000
   6   2   4    3911      95                                                        3176    7.41   -4.92  1.0000
   6   2   4    3747      91                                                        3028    7.41   -4.92  1.0000
  -1   7   4     145      34                                                         273   -4.99    4.65  1.0000
  -1   7   4      79      34                                                         179   -4.99    4.65  1.0000
   1  -7  -4      78      32                                                         177   -4.99   -4.65  1.0000
   1  -7  -4     140      60                                                         266   -4.99   -4.65  1.0000
   1  -7  -4      77      31                                                         176   -4.99   -4.65  1.0000
  -2   5   2       6      15                                                          31   -1.50   -4.38  1.0000
  -2   5   2       8      30                                                          36   -1.50   -4.38  1.0000
   2  -5  -2       0      31                                                          10   -1.50    4.38  1.0000
   2  -5  -2       3      15                                                          25   -1.50    4.38  1.0000
   2  -5  -2      19      15                                                          57   -1.50    4.38  1.0000
   2  -5  -2      18      16                                                          55   -1.50    4.38  1.0000
  -3   3   0     229      35                                                         607   14.11   -5.79  1.0000
   3  -3   0     214      18                                                         583   14.11    5.79  1.0000
   3  -3   0     218      20                                                         589   14.11    5.79  1.0000
  -4   1  -2       6      23                                                           6    1.03    1.12  1.0000
  -4   1  -2      47      41                                                          49    1.03    1.12  1.0000
  -4   1  -2       1      23                                                         -26    1.03    1.12  1.0000
  -4   1  -2      26      25                                                          27    1.03    1.12  1.0000
  -4   1  -2      12      24                                                          12    1.03    1.12  1.0000
   4  -1   2      21      24                                                          22    1.03   -1.12  1.0000
  -5  -1  -4      28      43                                                          77    5.72    2.12  1.0000
  -5  -1  -4      18      36                                                         -11    5.72    2.12  1.0000
   5   1   4      18      36                                                         -50    5.72   -2.12  1.0000
   5   1   4      18      35                                                         -22    5.72   -2.12  1.0000
  -6  -3  -6      41      98                                                         171    1.54   -9.52  1.0000
  -6  -3  -6      51      54                                                         191    1.54   -9.52  1.0000
   6   3   6     129      65                                                         326    1.54    9.52  1.0000
   6   3   6      90      43                                                         261    1.54    9.52  1.0000
   6   3   6      84      55                                                         252    1.54    9.52  1.0000
   0   8   4    2108      74                                                        1162   14.52   -8.92  1.0000
   0   8   4    2173      78                                                        1210   14.52   -8.92  1.0000
   0  -8  -4    2061      62                                                        1127   14.52    8.92  1.0000
   0  -8  -4    1958      66                                                        1051   14.52    8.92  1.0000
  -1   6   2      36      26                                                           6    6.47    8.60  1.0000
   1  -6  -2      43      43                                                          82    6.47   -8.60  1.0000
  -2   4   0   63929     957                                                       97065   84.58    0.13  1.0000
  -2   4   0   66315     749                                                      100000   84.58    0.13  1.0000
   2  -4   0   64548     930                                                       97827   84.58   -0.13  1.0000
   2  -4   0   61885     745                                                       94543   84.58   -0.13  1.0000
   2  -4   0   62217     741                                                       94953   84.58   -0.13  1.0000
  -3   2  -2     281      26                                                         328   12.03   -4.57  1.0000
  -3   2  -2     304      44                                                         357   12.03   -4.57  1.0000
  -3   2  -2     215      27                                                         245   12.03   -4.57  1.0000
  -3   2  -2     251      30                                                         291   12.03   -4.57  1.0000
   3  -2   2     246      24                                                         284   12.03    4.57  1.0000
  -4   0  -4   25887     193                                                       21307   14.57   16.75  1.0000
  -4   0  -4   25423     264                                                       20886   14.57   16.75  1.0000
  -4   0  -4   24936     202                                                       20445   14.57   16.75  1.0000
  -4   0  -4   24731     180                                                       20259   14.57   16.75  1.0000
  -4   0  -4   24821     197                                                       20340   14.57   16.75  1.0000
   4   0   4   27111     206                                                       22419   14.57  -16.75  1.0000
   4   0   4   26995     218                                                       22313   14.57  -16.75  1.0000
   4   0   4   26773     192                                                       22112   14.57  -16.75  1.0000
   4   0   4   27150     205                                                       22454   14.57  -16.75  1.0000
  -5  -2  -6     822     130                                                         913   -0.15   -3.29  1.0000
  -5  -2  -6     637      74                                                         717   -0.15   -3.29  1.0000
   5   2   6     850      72                                                         943   -0.15    3.29  1.0000
   5   2   6     778      61                                                         867   -0.15    3.29  1.0000
   0   7   2     195      39                                                         232   -0.18   -1.86  1.0000
   0   7   2     212      40                                                         251   -0.18   -1.86  1.0000
   0  -7  -2     221      37                                                         261   -0.18    1.86  1.0000
   0  -7  -2      81      60                                                         106   -0.18    1.86  1.0000
   0  -7  -2     165      35                                                         199   -0.18    1.86  1.0000
  -1   5   0      44      24                                                         122    6.66   -2.11  1.0000
   1  -5   0      39      21                                                         112    6.66    2.11  1.0000
   1  -5   0      42      21                                                         118    6.66    2.11  1.0000
   1  -5   0      36      31                                                         107    6.66    2.11  1.0000
   1  -5   0      35      21                                                         105    6.66    2.11  1.0000
   2  -3   2     231      23                                                         279   12.09    4.83  1.0000
  -3   1  -4      78      25                                                          15   17.33    1.77  1.0000
  -3   1  -4      83      24                                                          12   17.33    1.77  1.0000
  -3   1  -4      59      42                                                          29   17.33    1.77  1.0000
  -3   1  -4      47      28                                                          44   17.33    1.77  1.0000
  -3   1  -4     112      27                                                           3   17.33    1.77  1.0000
   3  -1   4     146      26                                                         -11   17.33   -1.77  1.0000
  -4  -1  -6     122      55                                                         525    0.94  -19.01  1.0000
  -4  -1  -6     174     110                                                         635    0.94  -19.01  1.0000
  -4  -1  -6     149      63                                                         584    0.94  -19.01  1.0000
   4   1   6     123      60                                                         529    0.94   19.01  1.0000
   4   1   6      70      56                                                         399    0.94   19.01  1.0000
   4   1   6     145      63                                                         576    0.94   19.01  1.0000
  -5  -3  -8       5      96                                                         -62   -1.35   -2.94  1.0000
  -5  -3  -8       5      53                                                         -13   -1.35   -2.94  1.0000
   5   3   8      34      52                                                          42   -1.35    2.94  1.0000
   5   3   8       5      53                                                         -98   -1.35    2.94  1.0000
   1   8   2      18      46                                                         -18    2.96    5.39  1.0000
   1   8   2      45      47                                                           9    2.96    5.39  1.0000
   1   8   2      54      31                                                          14    2.96    5.39  1.0000
  -1  -8  -2     141      39                                                          72    2.96   -5.39  1.0000
  -1  -8  -2      87      44                                                          34    2.96   -5.39  1.0000
   0   6   0   13296     209                                                       20788   41.42    3.67  1.0000
   0   6   0   13786     200                                                       21399   41.42    3.67  1.0000
   0   6   0   13675     186                                                       21261   41.42    3.67  1.0000
   0  -6   0   12757     189                                                       20112   41.42   -3.67  1.0000
   0  -6   0   13003     242                                                       20421   41.42   -3.67  1.0000
   0  -6   0   12913     180                                                       20308   41.42   -3.67  1.0000
  -1   4  -2      13      25                                                          14    1.71    1.39  1.0000
  -1   4  -2      36      22                                                          40    1.71    1.39  1.0000
   1  -4   2      23      17                                                          26    1.71   -1.39  1.0000
   1  -4   2      15      20                                                          17    1.71   -1.39  1.0000
   1  -4   2      16      20                                                          18    1.71   -1.39  1.0000
  -2   2  -4   52284     344                                                       43238   20.40   22.81  1.0000
  -2   2  -4   52297     362                                                       43250   20.40   22.81  1.0000
  -2   2  -4   53084     420                                                       43966   20.40   22.81  1.0000
  -2   2  -4   52428     341                                                       43369   20.40   22.81  1.0000
  -3   0  -6     668      51                                                         984    2.64   -8.09  1.0000
  -3   0  -6     663      51                                                         978    2.64   -8.09  1.0000
  -3   0  -6     555      56                                                         845    2.64   -8.09  1.0000
  -3   0  -6     562      88                                                         854    2.64   -8.09  1.0000
  -3   0  -6     652      53                                                         964    2.64   -8.09  1.0000
   3   0   6     757      51                                                        1092    2.64    8.09  1.0000
   3   0   6     775      56                                                        1113    2.64    8.09  1.0000
   3   0   6     748      50                                                        1081    2.64    8.09  1.0000
   3   0   6     737      57                                                        1067    2.64    8.09  1.0000
  -4  -2  -8    3299     146                                                        2431   -5.57  -10.49  1.0000
  -4  -2  -8    3472      89                                                        2580   -5.57  -10.49  1.0000
   4   2   8    4067      90                                                        3096   -5.57   10.49  1.0000
   4   2   8    4048      67                                                        3080   -5.57   10.49  1.0000
   1   7   0      36      42                                                          71    3.51   -1.13  1.0000
   1   7   0      33      43                                                          66    3.51   -1.13  1.0000
   1   7   0       7      34                                                         -29    3.51   -1.13  1.0000
  -1  -7   0       7      37                                                          24    3.51    1.13  1.0000
  -1  -7   0      10      40                                                          30    3.51    1.13  1.0000
   0   5  -2    1294      55                                                         859    9.62   -9.13  1.0000
   0   5  -2    1390      48                                                         939    9.62   -9.13  1.0000
   0   5  -2    1426      47                                                         969    9.62   -9.13  1.0000
   0  -5   2    1397      44                                                         945    9.62    9.13  1.0000
   0  -5   2    1407      43                                                         953    9.62    9.13  1.0000
  -1   3  -4      95      26                                                           7   17.17    2.15  1.0000
  -1   3  -4      77      26                                                          15   17.17    2.15  1.0000
  -1   3  -4      35      28                                                          75   17.17    2.15  1.0000
  -1   3  -4      47      24                                                          44   17.17    2.15  1.0000
   1  -3   4     144      23                                                          -5   17.17   -2.15  1.0000
  -2   1  -6      22      28                                                         113    5.56   -8.40  1.0000
  -2   1  -6      19      40                                                         106    5.56   -8.40  1.0000
  -2   1  -6      28      31                                                         129    5.56   -8.40  1.0000
  -2   1  -6      65      29                                                         204    5.56   -8.40  1.0000
  -2   1  -6      22      33                                                         113    5.56   -8.40  1.0000
   2  -1   6      25      29                                                         121    5.56    8.40  1.0000
   2  -1   6      21      30                                                         112    5.56    8.40  1.0000
   2  -1   6      15      29                                                          92    5.56    8.40  1.0000
   2  -1   6      51      31                                                         178    5.56    8.40  1.0000
   2  -1   6      15      27                                                          92    5.56    8.40  1.0000
  -3  -1  -8      76      41                                                          44   -3.59   -3.17  1.0000
  -3  -1  -8      32      40                                                          11   -3.59   -3.17  1.0000
  -3  -1  -8      76      67                                                          44   -3.59   -3.17  1.0000
  -3  -1  -8      62      40                                                          33   -3.59   -3.17  1.0000
   3   1   8      11      38                                                         -38   -3.59    3.17  1.0000
   3   1   8      15      41                                                           1   -3.59    3.17  1.0000
   3   1   8      11      31                                                          -2   -3.59    3.17  1.0000
   3   1   8     100      42                                                          64   -3.59    3.17  1.0000
   2   8   0     819      74                                                        1452   13.68   -0.29  1.0000
   2   8   0     959      98                                                        1636   13.68   -0.29  1.0000
   2   8   0     902     101                                                        1562   13.68   -0.29  1.0000
  -2  -8   0     929      88                                                        1597   13.68    0.29  1.0000
  -2  -8   0     883      78                                                        1537   13.68    0.29  1.0000
   1   6  -2       4      45                                                          -3   -1.06    2.73  1.0000
   1   6  -2      23      38                                                          46   -1.06    2.73  1.0000
   1   6  -2      39      37                                                          68   -1.06    2.73  1.0000
  -1  -6   2       7      36                                                          22   -1.06   -2.73  1.0000
  -1  -6   2       4      36                                                         -40   -1.06   -2.73  1.0000
   0   4  -4   24677     189                                                       20172   14.63   17.00  1.0000
   0   4  -4   24818     166                                                       20299   14.63   17.00  1.0000
   0   4  -4   24758     189                                                       20245   14.63   17.00  1.0000
   0   4  -4   24624     201                                                       20124   14.63   17.00  1.0000
   0  -4   4   27448     192                                                       22685   14.63  -17.00  1.0000
   0  -4   4   27755     205                                                       22964   14.63  -17.00  1.0000
  -1   2  -6      34      28                                                         145    5.02   -8.49  1.0000
  -1   2  -6      11      30                                                          87    5.02   -8.49  1.0000
  -1   2  -6      13      29                                                          91    5.02   -8.49  1.0000
  -1   2  -6      36      30                                                         151    5.02   -8.49  1.0000
   1  -2   6      21      30                                                         116    5.02    8.49  1.0000
   1  -2   6      14      28                                                          97    5.02    8.49  1.0000
   1  -2   6      12      28                                                          88    5.02    8.49  1.0000
   1  -2   6       4      23                                                          55    5.02    8.49  1.0000
  -2   0  -8   12171     157                                                        8678  -15.31  -21.35  1.0000
  -2   0  -8   12118     116                                                        8633  -15.31  -21.35  1.0000
  -2   0  -8   12112     113                                                        8628  -15.31  -21.35  1.0000
  -2   0  -8   12123     108                                                        8638  -15.31  -21.35  1.0000
   2   0   8   14528     131                                                       10688  -15.31   21.35  1.0000
   2   0   8   14500     135                                                       10664  -15.31   21.35  1.0000
   2   0   8   14646     115                                                       10790  -15.31   21.35  1.0000
   2   0   8   14843     141                                                       10959  -15.31   21.35  1.0000
  -3  -2 -10     437      54                                                         422    0.08   -7.46  1.0000
  -3  -2 -10     432      86                                                         417    0.08   -7.46  1.0000
   3   2  10     555      80                                                         542    0.08    7.46  1.0000
   3   2  10     501      54                                                         487    0.08    7.46  1.0000
   2   7  -2     504      49                                                         400    5.44   -2.95  1.0000
   2   7  -2     472      55                                                         371    5.44   -2.95  1.0000
   2   7  -2     483      59                                                         381    5.44   -2.95  1.0000
  -2  -7   2     477      47                                                         376    5.44    2.95  1.0000
  -2  -7   2     594      50                                                         482    5.44    2.95  1.0000
   1   5  -4       5      27                                                          19    5.91    1.75  1.0000
   1   5  -4      18      36                                                          54    5.91    1.75  1.0000
   1   5  -4      11      37                                                          39    5.91    1.75  1.0000
   1   5  -4      50      44                                                         109    5.91    1.75  1.0000
  -1  -5   4       5      32                                                          15    5.91   -1.75  1.0000
  -1  -5   4       5      35                                                          13    5.91   -1.75  1.0000
  -1  -5   4      18      38                                                          -9    5.91   -1.75  1.0000
  -1  -5   4      11      39                                                          40    5.91   -1.75  1.0000
   0   3  -6     689      54                                                        1012    2.97   -7.90  1.0000
   0   3  -6     682      54                                                        1003    2.97   -7.90  1.0000
   0   3  -6     676      59                                                         996    2.97   -7.90  1.0000
   0  -3   6     809      51                                                        1156    2.97    7.90  1.0000
   0  -3   6     788      52                                                        1131    2.97    7.90  1.0000
   0  -3   6     751      53                                                        1086    2.97    7.90  1.0000
   0  -3   6     781      46                                                        1122    2.97    7.90  1.0000
   0  -3   6     726      53                                                        1056    2.97    7.90  1.0000
  -1   1  -8      22      33                                                          -4   -6.76   -0.83  1.0000
  -1   1  -8      41      34                                                           3   -6.76   -0.83  1.0000
  -1   1  -8     118      32                                                          40   -6.76   -0.83  1.0000
  -1   1  -8      91      42                                                          25   -6.76   -0.83  1.0000
  -1   1  -8      80      31                                                          19   -6.76   -0.83  1.0000
   1  -1   8     135      31                                                          50   -6.76    0.83  1.0000
   1  -1   8      41      34                                                           3   -6.76    0.83  1.0000
  -2  -1 -10      63      66                                                          46   11.17   -4.09  1.0000
  -2  -1 -10      56      43                                                           6   11.17   -4.09  1.0000
  -2  -1 -10      68      43                                                         -32   11.17   -4.09  1.0000
  -2  -1 -10      68      41                                                         -14   11.17   -4.09  1.0000
   2   1  10      65      44                                                          50   11.17    4.09  1.0000
   2   1  10      68      41                                                         -10   11.17    4.09  1.0000
   2   1  10      85      28                                                          87   11.17    4.09  1.0000
   2   1  10      75      39                                                          69   11.17    4.09  1.0000
   2   6  -4    3498     100                                                        2738    7.74    6.10  1.0000
   2   6  -4    3449      87                                                        2695    7.74    6.10  1.0000
   2   6  -4    3487      92                                                        2728    7.74    6.10  1.0000
   2   6  -4    3433      59                                                        2681    7.74    6.10  1.0000
  -2  -6   4    3851      91                                                        3051    7.74   -6.10  1.0000
  -2  -6   4    3925      90                                                        3117    7.74   -6.10  1.0000
  -2  -6   4    3834      84                                                        3036    7.74   -6.10  1.0000
   1   4  -6     150      69                                                         631   -0.15  -20.17  1.0000
   1   4  -6     140      59                                                         610   -0.15  -20.17  1.0000
   1   4  -6      97      63                                                         510   -0.15  -20.17  1.0000
   1   4  -6     156      50                                                         644   -0.15  -20.17  1.0000
  -1  -4   6      69      54                                                         435   -0.15   20.17  1.0000
  -1  -4   6      81      58                                                         469   -0.15   20.17  1.0000
   0   2  -8   12208     117                                                        8702  -15.38  -21.39  1.0000
   0   2  -8   12143     111                                                        8647  -15.38  -21.39  1.0000
   0   2  -8   12299     123                                                        8779  -15.38  -21.39  1.0000
   0   2  -8   12274     131                                                        8758  -15.38  -21.39  1.0000
   0  -2   8   14585     140                                                       10729  -15.38   21.39  1.0000
   0  -2   8   14825     154                                                       10936  -15.38   21.39  1.0000
   0  -2   8   14688     132                                                       10818  -15.38   21.39  1.0000
  -1   0 -10     392      42                                                         231    5.08   -7.48  1.0000
  -1   0 -10     364      60                                                         209    5.08   -7.48  1.0000
  -1   0 -10     414      44                                                         248    5.08   -7.48  1.0000
  -1   0 -10     391      44                                                         230    5.08   -7.48  1.0000
  -1   0 -10     344      45                                                         193    5.08   -7.48  1.0000
   1   0  10     367      41                                                         211    5.08    7.48  1.0000
   1   0  10     543      46                                                         353    5.08    7.48  1.0000
   1   0  10     450      43                                                         277    5.08    7.48  1.0000
   1   0  10     542      50                                                         352    5.08    7.48  1.0000
  -2  -2 -12    1252      98                                                        1599    1.86   -6.37  1.0000
  -2  -2 -12    1228     138                                                        1572    1.86   -6.37  1.0000
   2   2  12    1214      79                                                        1556    1.86    6.37  1.0000
   2   5  -6     665      69                                                         761    0.70   -2.99  1.0000
   2   5  -6     690      60                                                         788    0.70   -2.99  1.0000
  -2  -5   6     759      72                                                         861    0.70    2.99  1.0000
   1   3  -8      45      43                                                          30   -2.42   -3.28  1.0000
   1   3  -8     105      40                                                          84   -2.42   -3.28  1.0000
  -1  -3   8      32      36                                                          18   -2.42    3.28  1.0000
  -1  -3   8       8      36                                                         -10   -2.42    3.28  1.0000
   0   1 -10     435      53                                                         269    4.93   -6.73  1.0000
   0   1 -10     282      39                                                         150    4.93   -6.73  1.0000
   0   1 -10     339      45                                                         193    4.93   -6.73  1.0000
   0  -1  10     392      34                                                         235    4.93    6.73  1.0000
   0  -1  10     436      41                                                         270    4.93    6.73  1.0000
   0  -1  10     392      45                                                         235    4.93    6.73  1.0000
  -1  -1 -12      82      54                                                         178   -4.97   -5.04  1.0000
  -1  -1 -12      83      72                                                         180   -4.97   -5.04  1.0000
  -1  -1 -12      81      55                                                         176   -4.97   -5.04  1.0000
   1   1  12      68      52                                                         156   -4.97    5.04  1.0000
   1   1  12      75      45                                                         168   -4.97    5.04  1.0000
   3   6  -6     163      45                                                         393    1.33  -10.11  1.0000
   3   6  -6      63      56                                                         226    1.33  -10.11  1.0000
  -3  -6   6     103      57                                                         296    1.33   10.11  1.0000
   2   4  -8    3372      77                                                        2494   -6.28  -10.27  1.0000
   2   4  -8    3450      89                                                        2561   -6.28  -10.27  1.0000
  -2  -4   8    4334      85                                                        3330   -6.28   10.27  1.0000
  -2  -4   8    4423     102                                                        3408   -6.28   10.27  1.0000
  -2  -4   8    4343     101                                                        3338   -6.28   10.27  1.0000
   1   2 -10     100      42                                                         108   10.98   -4.49  1.0000
  -1  -2  10      66      43                                                          49   10.98    4.49  1.0000
  -1  -2  10      62      36                                                           1   10.98    4.49  1.0000
   0   0 -12    2196      97                                                        2685    0.62   -7.26  1.0000
   0   0 -12    2203     116                                                        2692    0.62   -7.26  1.0000
   0   0  12    2098      84                                                        2576    0.62    7.26  1.0000
   3   5  -8       3      46                                                         -27   -0.92   -2.45  1.0000
   3   5  -8      43      56                                                          52   -0.92   -2.45  1.0000
  -3  -5   8       3      46                                                        -123   -0.92    2.45  1.0000
   2   3 -10     433      53                                                         421   -0.01   -7.31  1.0000
  -2  -3  10     532      63                                                         522   -0.01    7.31  1.0000
  -2  -3  10     537      58                                                         527   -0.01    7.31  1.0000
   1   1 -12      42      52                                                         113   -4.74   -5.03  1.0000
  -1  -1  12      48      47                                                         123   -4.74    5.03  1.0000
   2   2 -12    1282      93                                                        1643    1.84   -6.55  1.0000
  -2  -2  12    1158      93                                                        1502    1.84    6.55  1.0000
  -2  -2  12    1136      64                                                        1477    1.84    6.55  1.0000
  -7   5   9     373     117                                                         791    4.47   11.89  1.0000
  -7   5   9     312      62                                                         702    4.47   11.89  1.0000
   7  -5  -9     298      56                                                         680    4.47  -11.89  1.0000
   7  -5  -9     289     107                                                         667    4.47  -11.89  1.0000
   7  -5  -9     371      52                                                         789    4.47  -11.89  1.0000
  -8   3   7    1455     112                                                         947   12.91    3.80  1.0000
  -8   3   7    1124      70                                                         680   12.91    3.80  1.0000
   8  -3  -7     880      61                                                         490   12.91   -3.80  1.0000
   8  -3  -7     974      60                                                         562   12.91   -3.80  1.0000
  -6   6   9      83      33                                                         101   -3.29    6.01  1.0000
  -6   6   9     139      69                                                         169   -3.29    6.01  1.0000
   6  -6  -9      58      30                                                          69   -3.29   -6.01  1.0000
   6  -6  -9      55      31                                                          65   -3.29   -6.01  1.0000
   6  -6  -9     146      67                                                         177   -3.29   -6.01  1.0000
  -7   4   7    1645     105                                                        1762   -1.56    2.05  1.0000
  -7   4   7    1508      63                                                        1620   -1.56    2.05  1.0000
   7  -4  -7    1145      53                                                        1242   -1.56   -2.05  1.0000
   7  -4  -7    1123      53                                                        1219   -1.56   -2.05  1.0000
   7  -4  -7    1139      95                                                        1236   -1.56   -2.05  1.0000
  -8   2   5     159      60                                                         152   -2.44    0.07  1.0000
  -8   2   5      88      42                                                          82   -2.44    0.07  1.0000
  -8   2   5      93      33                                                          87   -2.44    0.07  1.0000
   8  -2  -5     113      39                                                         106   -2.44   -0.07  1.0000
   8  -2  -5       3      37                                                         -26   -2.44   -0.07  1.0000
  -5   7   9     405     115                                                         840    3.26   12.33  1.0000
  -5   7   9     282      52                                                         658    3.26   12.33  1.0000
   5  -7  -9     358      47                                                         771    3.26  -12.33  1.0000
   5  -7  -9     444     110                                                         895    3.26  -12.33  1.0000
   5  -7  -9     437      49                                                         886    3.26  -12.33  1.0000
  -6   5   7    2587     102                                                        2257    6.22    3.82  1.0000
  -6   5   7    2462      56                                                        2140    6.22    3.82  1.0000
   6  -5  -7    1965      48                                                        1677    6.22   -3.82  1.0000
   6  -5  -7    1941      94                                                        1655    6.22   -3.82  1.0000
   6  -5  -7    1944      49                                                        1658    6.22   -3.82  1.0000
  -7   3   5     665      83                                                         475   -5.20    5.75  1.0000
  -7   3   5     843      52                                                         628   -5.20    5.75  1.0000
   7  -3  -5     628      48                                                         443   -5.20   -5.75  1.0000
   7  -3  -5     705      47                                                         509   -5.20   -5.75  1.0000
  -8   1   3    1293      73                                                        2579   19.45    8.85  1.0000
  -8   1   3    1375      85                                                        2695   19.45    8.85  1.0000
  -8   1   3    1214     121                                                        2467   19.45    8.85  1.0000
   8  -1  -3    1371      79                                                        2689   19.45   -8.85  1.0000
   8  -1  -3    1438      83                                                        2782   19.45   -8.85  1.0000
  -5   6   7    2453     107                                                        2114    6.21    2.87  1.0000
   5  -6  -7    2063      46                                                        1752    6.21   -2.87  1.0000
   5  -6  -7    2031     100                                                        1723    6.21   -2.87  1.0000
  -6   4   5    1261      82                                                        1029   -0.43   -4.94  1.0000
  -6   4   5    1278      41                                                        1044   -0.43   -4.94  1.0000
   6  -4  -5    1079      41                                                         865   -0.43    4.94  1.0000
   6  -4  -5    1034      39                                                         825   -0.43    4.94  1.0000
  -7   2   3    1996      72                                                        2798   12.91   -0.53  1.0000
  -7   2   3    1945      57                                                        2737   12.91   -0.53  1.0000
  -7   2   3    2008     105                                                        2812   12.91   -0.53  1.0000
   7  -2  -3    1765      62                                                        2522   12.91    0.53  1.0000
   7  -2  -3    1768      68                                                        2525   12.91    0.53  1.0000
  -8   0   1      93      42                                                          26   -4.12    5.15  1.0000
  -8   0   1      21      66                                                         -63   -4.12    5.15  1.0000
  -8   0   1     213      45                                                         101   -4.12    5.15  1.0000
   8   0  -1     216      47                                                         103   -4.12   -5.15  1.0000
   8   0  -1     195      42                                                          89   -4.12   -5.15  1.0000
  -4   7   7    1400      52                                                        1501   -1.32    2.45  1.0000
  -4   7   7    1494      47                                                        1599   -1.32    2.45  1.0000
  -4   7   7    1559     110                                                        1666   -1.32    2.45  1.0000
   4  -7  -7    1178     100                                                        1271   -1.32   -2.45  1.0000
   4  -7  -7    1128      46                                                        1219   -1.32   -2.45  1.0000
   4  -7  -7    1187      47                                                        1280   -1.32   -2.45  1.0000
  -5   5   5     979      71                                                         710  -12.49    7.61  1.0000
   5  -5  -5     905      68                                                         644  -12.49   -7.61  1.0000
   5  -5  -5     840      28                                                         586  -12.49   -7.61  1.0000
   5  -5  -5     810      26                                                         560  -12.49   -7.61  1.0000
  -6   3   3    6810     165                                                       10801   28.25   12.39  1.0000
  -7   1   1    3542     104                                                        2188   14.94  -11.92  1.0000
  -7   1   1    3410      66                                                        2084   14.94  -11.92  1.0000
  -7   1   1    3302      72                                                        2000   14.94  -11.92  1.0000
   7  -1  -1    3165      65                                                        1893   14.94   11.92  1.0000
   7  -1  -1    3330      67                                                        2022   14.94   11.92  1.0000
  -8  -1  -1     677      91                                                         552    4.23    1.20  1.0000
  -8  -1  -1     825      68                                                         687    4.23    1.20  1.0000
  -8  -1  -1     691      80                                                         565    4.23    1.20  1.0000
   8   1   1     819      78                                                         682    4.23   -1.20  1.0000
  -3   8   7    1320      61                                                         820   13.22    3.41  1.0000
  -3   8   7    1123      55                                                         664   13.22    3.41  1.0000
   3  -8  -7    1232     106                                                         750   13.22   -3.41  1.0000
   3  -8  -7     986      48                                                         558   13.22   -3.41  1.0000
   3  -8  -7     925      46                                                         511   13.22   -3.41  1.0000
  -4   6   5    1298      79                                                        1064   -0.79   -4.85  1.0000
   4  -6  -5    1079      80                                                         867   -0.79    4.85  1.0000
  -5   4   3    8322     166                                                       11873   24.82    6.58  1.0000
  -5   4   3    8475     102                                                       12056   24.82    6.58  1.0000
   5  -4  -3    7664      98                                                       11085   24.82   -6.58  1.0000
   5  -4  -3    7737      98                                                       11173   24.82   -6.58  1.0000
   5  -4  -3    7772      92                                                       11215   24.82   -6.58  1.0000
  -6   2   1    2896      56                                                        2178   -1.23   12.33  1.0000
  -6   2   1    3005      88                                                        2273   -1.23   12.33  1.0000
  -6   2   1    3013      59                                                        2280   -1.23   12.33  1.0000
   6  -2  -1    2676      50                                                        1987   -1.23  -12.33  1.0000
   6  -2  -1    2721      53                                                        2026   -1.23  -12.33  1.0000
  -7   0  -1    1044      49                                                         453   11.43   11.55  1.0000
  -7   0  -1    1134      51                                                         513   11.43   11.55  1.0000
  -7   0  -1    1153      67                                                         526   11.43   11.55  1.0000
  -7   0  -1    1190      78                                                         551   11.43   11.55  1.0000
  -7   0  -1    1297      65                                                         625   11.43   11.55  1.0000
   7   0   1    1267      65                                                         604   11.43  -11.55  1.0000
   7   0   1    1122      60                                                         505   11.43  -11.55  1.0000
   7   0   1    1113      61                                                         499   11.43  -11.55  1.0000
  -3   7   5     783      42                                                         570   -5.15    5.91  1.0000
  -3   7   5     807      36                                                         590   -5.15    5.91  1.0000
   3  -7  -5     725      84                                                         520   -5.15   -5.91  1.0000
   3  -7  -5     706      36                                                         504   -5.15   -5.91  1.0000
   3  -7  -5     651      38                                                         457   -5.15   -5.91  1.0000
  -4   5   3    7822     153                                                       11222   24.31    6.93  1.0000
   4  -5  -3    7664     149                                                       11032   24.31   -6.93  1.0000
  -5   3   1    9656      65                                                        5595   21.15  -26.38  1.0000
  -5   3   1    9476      64                                                        5458   21.15  -26.38  1.0000
  -5   3   1    9676     100                                                        5610   21.15  -26.38  1.0000
   5  -3  -1    9366      63                                                        5375   21.15   26.38  1.0000
  -6   1  -1    6048      89                                                        5052    5.96    7.56  1.0000
  -6   1  -1    6290      60                                                        5274    5.96    7.56  1.0000
  -6   1  -1    6198      84                                                        5190    5.96    7.56  1.0000
  -6   1  -1    6161      85                                                        5156    5.96    7.56  1.0000
   6  -1   1    6113      83                                                        5112    5.96   -7.56  1.0000
   6  -1   1    6138      79                                                        5135    5.96   -7.56  1.0000
   6  -1   1    5923      78                                                        4938    5.96   -7.56  1.0000
  -7  -1  -3    1729      79                                                        2549   13.04   -1.83  1.0000
  -7  -1  -3    1487     143                                                        2253   13.04   -1.83  1.0000
  -7  -1  -3    1797      92                                                        2631   13.04   -1.83  1.0000
   7   1   3    1700      83                                                        2514   13.04    1.83  1.0000
  -2   8   5     178      35                                                         150   -3.13   -1.03  1.0000
  -2   8   5      74      35                                                          55   -3.13   -1.03  1.0000
   2  -8  -5      98      61                                                          77   -3.13    1.03  1.0000
   2  -8  -5      38      31                                                          24   -3.13    1.03  1.0000
   2  -8  -5      61      28                                                          44   -3.13    1.03  1.0000
  -3   6   3    7020     157                                                       11023   27.82   12.72  1.0000
   3  -6  -3    6486     149                                                       10351   27.82  -12.72  1.0000
  -4   4   1    7961     104                                                        7010    2.32   12.08  1.0000
  -5   2  -1    9433      71                                                        5519   21.43   25.05  1.0000
  -5   2  -1    9329     108                                                        5440   21.43   25.05  1.0000
  -5   2  -1    9214      75                                                        5352   21.43   25.05  1.0000
  -5   2  -1    9349      72                                                        5455   21.43   25.05  1.0000
   5  -2   1    9447      73                                                        5530   21.43  -25.05  1.0000
   5  -2   1    9437      71                                                        5522   21.43  -25.05  1.0000
   5  -2   1    9396      67                                                        5491   21.43  -25.05  1.0000
  -6   0  -3    1323      69                                                        1903  -10.27    1.97  1.0000
  -6   0  -3    1394     118                                                        1988  -10.27    1.97  1.0000
  -6   0  -3    1265      75                                                        1833  -10.27    1.97  1.0000
  -6   0  -3    1320      63                                                        1899  -10.27    1.97  1.0000
   6   0   3    1282      67                                                        1853  -10.27   -1.97  1.0000
   6   0   3    1288      68                                                        1861  -10.27   -1.97  1.0000
   6   0   3    1331      64                                                        1912  -10.27   -1.97  1.0000
  -7  -2  -5      18      51                                                         -13   -5.23   -3.11  1.0000
  -7  -2  -5      18      89                                                         -57   -5.23   -3.11  1.0000
   7   2   5      25      52                                                           7   -5.23    3.11  1.0000
   7   2   5      18      45                                                         -16   -5.23    3.11  1.0000
   7   2   5      64      62                                                          45   -5.23    3.11  1.0000
  -2   7   3    1936      59                                                        2736   13.02   -0.44  1.0000
  -2   7   3    2098      57                                                        2928   13.02   -0.44  1.0000
   2  -7  -3    1793      52                                                        2564   13.02    0.44  1.0000
   2  -7  -3    1841      53                                                        2622   13.02    0.44  1.0000
   2  -7  -3    1906      98                                                        2700   13.02    0.44  1.0000
   3  -5  -1    9454      86                                                        5391   21.05   27.06  1.0000
  -4   3  -1   16727     114                                                       12221   19.33   19.28  1.0000
  -4   3  -1   16709     101                                                       12205   19.33   19.28  1.0000
   4  -3   1   16278     106                                                       11837   19.33  -19.28  1.0000
  -5   1  -3    8408     114                                                       12007   24.88   -7.02  1.0000
  -5   1  -3    8311     185                                                       11892   24.88   -7.02  1.0000
  -5   1  -3    8461     137                                                       12071   24.88   -7.02  1.0000
  -5   1  -3    8347     133                                                       11935   24.88   -7.02  1.0000
  -5   1  -3    8287     129                                                       11863   24.88   -7.02  1.0000
   5  -1   3    8667     126                                                       12317   24.88    7.02  1.0000
   5  -1   3    8728     133                                                       12389   24.88    7.02  1.0000
   5  -1   3    8557     123                                                       12185   24.88    7.02  1.0000
  -6  -1  -5    2255     136                                                        1615   -1.01  -10.47  1.0000
  -6  -1  -5    2371      84                                                        1713   -1.01  -10.47  1.0000
  -6  -1  -5    2480      73                                                        1806   -1.01  -10.47  1.0000
   6   1   5    2615      72                                                        1921   -1.01   10.47  1.0000
  -1   8   3    1345      75                                                        2675   20.14    7.96  1.0000
  -1   8   3    1347      74                                                        2678   20.14    7.96  1.0000
   1  -8  -3    1171      64                                                        2426   20.14   -7.96  1.0000
   1  -8  -3    1204      65                                                        2474   20.14   -7.96  1.0000
  -2   6   1    2835      43                                                        2128   -1.20   12.30  1.0000
  -2   6   1    2807      46                                                        2103   -1.20   12.30  1.0000
   2  -6  -1    2773      41                                                        2074   -1.20  -12.30  1.0000
   2  -6  -1    2710      40                                                        2019   -1.20  -12.30  1.0000
   2  -6  -1    2740      68                                                        2045   -1.20  -12.30  1.0000
  -3   4  -1   16904     104                                                       12344   18.62   20.02  1.0000
  -3   4  -1   16958     134                                                       12390   18.62   20.02  1.0000
   3  -4   1   16986     108                                                       12414   18.62  -20.02  1.0000
   3  -4   1   17090      99                                                       12503   18.62  -20.02  1.0000
   3  -4   1   17120     108                                                       12528   18.62  -20.02  1.0000
  -4   2  -3   11857     140                                                       15199  -20.57    3.19  1.0000
  -4   2  -3   11200     187                                                       14453  -20.57    3.19  1.0000
  -4   2  -3   11754     142                                                       15082  -20.57    3.19  1.0000
  -4   2  -3   11604     149                                                       14912  -20.57    3.19  1.0000
  -4   2  -3   11702     142                                                       15023  -20.57    3.19  1.0000
   4  -2   3   11584     132                                                       14889  -20.57   -3.19  1.0000
   4  -2   3   11767     142                                                       15096  -20.57   -3.19  1.0000
  -5   0  -5     885      61                                                         590  -12.77   -8.75  1.0000
  -5   0  -5    1028     111                                                         715  -12.77   -8.75  1.0000
  -5   0  -5     889      59                                                         593  -12.77   -8.75  1.0000
  -5   0  -5     881      54                                                         586  -12.77   -8.75  1.0000
   5   0   5    1006      56                                                         695  -12.77    8.75  1.0000
   5   0   5    1056      56                                                         739  -12.77    8.75  1.0000
  -6  -2  -7       9      91                                                         -88    1.75   -3.98  1.0000
  -6  -2  -7     139      53                                                         137    1.75   -3.98  1.0000
   6   2   7      74      51                                                          70    1.75    3.98  1.0000
   6   2   7      55      42                                                          50    1.75    3.98  1.0000
  -1   7   1    3301      62                                                        2017   14.89  -11.58  1.0000
  -1   7   1    3413      61                                                        2105   14.89  -11.58  1.0000
   1  -7  -1    3258      55                                                        1983   14.89   11.58  1.0000
   1  -7  -1    3151      55                                                        1900   14.89   11.58  1.0000
  -2   5  -1    9336      66                                                        5487   21.94   24.21  1.0000
  -2   5  -1    9299      67                                                        5459   21.94   24.21  1.0000
   2  -5   1    9608      65                                                        5696   21.94  -24.21  1.0000
  -3   3  -3   13970     174                                                       20305   35.22   -5.53  1.0000
  -3   3  -3   13951     212                                                       20281   35.22   -5.53  1.0000
  -3   3  -3   13868     184                                                       20181   35.22   -5.53  1.0000
  -3   3  -3   14199     175                                                       20580   35.22   -5.53  1.0000
   3  -3   3   13916     172                                                       20239   35.22    5.53  1.0000
   3  -3   3   13636     167                                                       19901   35.22    5.53  1.0000
   3  -3   3   13812     172                                                       20114   35.22    5.53  1.0000
   3  -3   3   13619     172                                                       19881   35.22    5.53  1.0000
  -4   1  -5    8887      97                                                        6531   -5.50  -19.27  1.0000
  -4   1  -5    9085      92                                                        6701   -5.50  -19.27  1.0000
  -4   1  -5    9089     137                                                        6704   -5.50  -19.27  1.0000
  -4   1  -5    8786      95                                                        6444   -5.50  -19.27  1.0000
   4  -1   5   10082     102                                                        7561   -5.50   19.27  1.0000
   4  -1   5    9721     103                                                        7249   -5.50   19.27  1.0000
   4  -1   5    9721      98                                                        7249   -5.50   19.27  1.0000
   4  -1   5    9785      91                                                        7304   -5.50   19.27  1.0000
  -5  -1  -7    2204      79                                                        1921    5.90   -3.98  1.0000
  -5  -1  -7    2117     142                                                        1840    5.90   -3.98  1.0000
   5   1   7    2441      71                                                        2144    5.90    3.98  1.0000
   0   8   1     168      42                                                          73   -2.78    5.97  1.0000
   0   8   1     158      41                                                          66   -2.78    5.97  1.0000
   0  -8  -1      21      39                                                          -1   -2.78   -5.97  1.0000
   0  -8  -1     137      36                                                          53   -2.78   -5.97  1.0000
  -1   6  -1    5851      76                                                        4897    5.39    7.72  1.0000
  -1   6  -1    5917      65                                                        4957    5.39    7.72  1.0000
   1  -6   1    6237      72                                                        5250    5.39   -7.72  1.0000
   1  -6   1    6287      74                                                        5296    5.39   -7.72  1.0000
  -2   4  -3   12093     141                                                       15414  -20.13    3.74  1.0000
  -2   4  -3   11784     148                                                       15065  -20.13    3.74  1.0000
   2  -4   3   11075     123                                                       14262  -20.13   -3.74  1.0000
   2  -4   3   10956     132                                                       14127  -20.13   -3.74  1.0000
   2  -4   3   11300     133                                                       14517  -20.13   -3.74  1.0000
  -3   2  -5    6910      80                                                        5252   -8.55  -15.32  1.0000
  -3   2  -5    6911      68                                                        5253   -8.55  -15.32  1.0000
  -3   2  -5    6863      83                                                        5211   -8.55  -15.32  1.0000
  -3   2  -5    7013      76                                                        5342   -8.55  -15.32  1.0000
  -3   2  -5    6968      78                                                        5303   -8.55  -15.32  1.0000
  -3   2  -5    7121     102                                                        5437   -8.55  -15.32  1.0000
   3  -2   5    7505      81                                                        5774   -8.55   15.32  1.0000
   3  -2   5    7592      84                                                        5851   -8.55   15.32  1.0000
  -4   0  -7     996     115                                                        1008    6.67  -13.73  1.0000
  -4   0  -7     928      64                                                         935    6.67  -13.73  1.0000
  -4   0  -7     871      68                                                         874    6.67  -13.73  1.0000
   4   0   7    1142      61                                                        1163    6.67   13.73  1.0000
   4   0   7    1150      58                                                        1172    6.67   13.73  1.0000
  -5  -2  -9     263     111                                                         612    4.16  -11.56  1.0000
  -5  -2  -9     380      90                                                         785    4.16  -11.56  1.0000
   5   2   9     323      63                                                         703    4.16   11.56  1.0000
   5   2   9     327      81                                                         708    4.16   11.56  1.0000
   0   7  -1    1083      49                                                         475   10.88   11.98  1.0000
   0   7  -1    1245      64                                                         585   10.88   11.98  1.0000
   0   7  -1    1129      59                                                         506   10.88   11.98  1.0000
   0  -7   1    1270      53                                                         602   10.88  -11.98  1.0000
   0  -7   1    1148      54                                                         519   10.88  -11.98  1.0000
  -1   5  -3    8273     127                                                       11869   25.08   -6.90  1.0000
  -1   5  -3    8415     135                                                       12039   25.08   -6.90  1.0000
   1  -5   3    8063     121                                                       11617   25.08    6.90  1.0000
   1  -5   3    8127     114                                                       11694   25.08    6.90  1.0000
  -2   3  -5    6792      81                                                        5208   -8.77  -14.77  1.0000
  -2   3  -5    6682      63                                                        5111   -8.77  -14.77  1.0000
  -2   3  -5    6829      79                                                        5240   -8.77  -14.77  1.0000
  -2   3  -5    6777      77                                                        5195   -8.77  -14.77  1.0000
  -2   3  -5    6799      78                                                        5214   -8.77  -14.77  1.0000
  -2   3  -5    6608      73                                                        5046   -8.77  -14.77  1.0000
  -2   3  -5    6882      75                                                        5287   -8.77  -14.77  1.0000
   2  -3   5    7602      82                                                        5922   -8.77   14.77  1.0000
   2  -3   5    7696      74                                                        6005   -8.77   14.77  1.0000
  -3   1  -7    5149      79                                                        4699    4.74    0.18  1.0000
  -3   1  -7    5216      91                                                        4763    4.74    0.18  1.0000
  -3   1  -7    5186      83                                                        4735    4.74    0.18  1.0000
  -3   1  -7    5290      88                                                        4834    4.74    0.18  1.0000
  -3   1  -7    5265     119                                                        4810    4.74    0.18  1.0000
   3  -1   7    6097      90                                                        5607    4.74   -0.18  1.0000
   3  -1   7    6172      90                                                        5679    4.74   -0.18  1.0000
   3  -1   7    6077      97                                                        5588    4.74   -0.18  1.0000
   3  -1   7    6159      82                                                        5666    4.74   -0.18  1.0000
   3  -1   7    6120      96                                                        5629    4.74   -0.18  1.0000
  -4  -1  -9    1346     141                                                        1842    3.04   -8.69  1.0000
  -4  -1  -9    1382      85                                                        1884    3.04   -8.69  1.0000
   4   1   9    1535      80                                                        2063    3.04    8.69  1.0000
   4   1   9    1620      68                                                        2161    3.04    8.69  1.0000
   1   8  -1     769      63                                                         610    4.41    1.98  1.0000
   1   8  -1     738      57                                                         583    4.41    1.98  1.0000
   1   8  -1     756      60                                                         599    4.41    1.98  1.0000
  -1  -8   1     860      70                                                         692    4.41   -1.98  1.0000
  -1  -8   1     772      64                                                         613    4.41   -1.98  1.0000
   0   6  -3    1247      67                                                        1824  -10.49    1.99  1.0000
   0   6  -3    1253      62                                                        1832  -10.49    1.99  1.0000
   0   6  -3    1138      74                                                        1692  -10.49    1.99  1.0000
   0  -6   3    1392      64                                                        1999  -10.49   -1.99  1.0000
   0  -6   3    1285      62                                                        1871  -10.49   -1.99  1.0000
  -1   4  -5    8963      74                                                        6600   -4.56  -19.21  1.0000
  -1   4  -5    9002      99                                                        6634   -4.56  -19.21  1.0000
  -1   4  -5    8989      93                                                        6623   -4.56  -19.21  1.0000
  -1   4  -5    8831      93                                                        6487   -4.56  -19.21  1.0000
   1  -4   5   10050      96                                                        7538   -4.56   19.21  1.0000
   1  -4   5    9941      89                                                        7444   -4.56   19.21  1.0000
  -2   2  -7    2130      65                                                        1990    4.45  -13.39  1.0000
  -2   2  -7    2010      67                                                        1872    4.45  -13.39  1.0000
  -2   2  -7    2101      76                                                        1962    4.45  -13.39  1.0000
  -2   2  -7    2068      58                                                        1929    4.45  -13.39  1.0000
   2  -2   7    2503      62                                                        2359    4.45   13.39  1.0000
   2  -2   7    2534      58                                                        2390    4.45   13.39  1.0000
   2  -2   7    2468      62                                                        2325    4.45   13.39  1.0000
   2  -2   7    2410      65                                                        2267    4.45   13.39  1.0000
  -3   0  -9    1617     130                                                        3202    7.75  -22.51  1.0000
  -3   0  -9    1727      82                                                        3357    7.75  -22.51  1.0000
   3   0   9    1287      68                                                        2730    7.75   22.51  1.0000
   3   0   9    1210      79                                                        2616    7.75   22.51  1.0000
   1   7  -3    1541      93                                                        2353   13.46   -2.10  1.0000
   1   7  -3    1622      77                                                        2452   13.46   -2.10  1.0000
   1   7  -3    1671      86                                                        2513   13.46   -2.10  1.0000
  -1  -7   3    1732      81                                                        2588   13.46    2.10  1.0000
  -1  -7   3    1719      80                                                        2572   13.46    2.10  1.0000
   0   5  -5     891      59                                                         600  -12.78   -8.62  1.0000
   0   5  -5     811      57                                                         530  -12.78   -8.62  1.0000
   0   5  -5     918      67                                                         623  -12.78   -8.62  1.0000
   0   5  -5     878      41                                                         588  -12.78   -8.62  1.0000
   0  -5   5    1051      53                                                         740  -12.78    8.62  1.0000
   0  -5   5    1064      59                                                         751  -12.78    8.62  1.0000
   0  -5   5    1077      52                                                         763  -12.78    8.62  1.0000
  -1   3  -7    5121      90                                                        4707    4.14    0.98  1.0000
  -1   3  -7    5090      88                                                        4678    4.14    0.98  1.0000
  -1   3  -7    5159      86                                                        4744    4.14    0.98  1.0000
   1  -3   7    6151      91                                                        5697    4.14   -0.98  1.0000
   1  -3   7    6294      93                                                        5834    4.14   -0.98  1.0000
   1  -3   7    6310      85                                                        5850    4.14   -0.98  1.0000
   1  -3   7    6204      85                                                        5748    4.14   -0.98  1.0000
  -2   1  -9    2960      90                                                        4495    4.97  -18.24  1.0000
  -2   1  -9    2939     123                                                        4469    4.97  -18.24  1.0000
   2  -1   9    2808      89                                                        4307    4.97   18.24  1.0000
   2  -1   9    2833      95                                                        4338    4.97   18.24  1.0000
   2  -1   9    2747      77                                                        4231    4.97   18.24  1.0000
  -3  -1 -11     698      90                                                         610   -0.70   -2.66  1.0000
  -3  -1 -11     765      84                                                         673   -0.70   -2.66  1.0000
   3   1  11     803      75                                                         709   -0.70    2.66  1.0000
   3   1  11     853      53                                                         756   -0.70    2.66  1.0000
   1   6  -5    2677      83                                                        1970   -0.30  -10.60  1.0000
   1   6  -5    2488      77                                                        1808   -0.30  -10.60  1.0000
   1   6  -5    2510      90                                                        1827   -0.30  -10.60  1.0000
  -1  -6   5    2771      71                                                        2051   -0.30   10.60  1.0000
  -1  -6   5    2826      73                                                        2098   -0.30   10.60  1.0000
   0   4  -7     904      63                                                         904    6.68  -14.21  1.0000
   0   4  -7     899      54                                                         898    6.68  -14.21  1.0000
   0   4  -7     931      65                                                         933    6.68  -14.21  1.0000
   0   4  -7     911      73                                                         911    6.68  -14.21  1.0000
   0  -4   7    1122      62                                                        1136    6.68   14.21  1.0000
   0  -4   7    1115      62                                                        1129    6.68   14.21  1.0000
  -1   2  -9    2890      99                                                        4447    5.89  -18.18  1.0000
  -1   2  -9    2978     118                                                        4556    5.89  -18.18  1.0000
  -1   2  -9    2898      88                                                        4457    5.89  -18.18  1.0000
   1  -2   9    2847      88                                                        4393    5.89   18.18  1.0000
   1  -2   9    2767      80                                                        4294    5.89   18.18  1.0000
  -2   0 -11     174      66                                                          66    1.94    7.56  1.0000
  -2   0 -11      97      47                                                          22    1.94    7.56  1.0000
   2   0  11      65      43                                                           8    1.94   -7.56  1.0000
   2   0  11     122      34                                                          35    1.94   -7.56  1.0000
   2   7  -5      28      49                                                          12   -5.68   -2.84  1.0000
  -2  -7   5      19      50                                                         -24   -5.68    2.84  1.0000
   1   5  -7    2123      80                                                        1841    5.69   -3.05  1.0000
   1   5  -7    2120      65                                                        1838    5.69   -3.05  1.0000
  -1  -5   7    2447      78                                                        2144    5.69    3.05  1.0000
   0   3  -9    1799      82                                                        3455    7.11  -22.78  1.0000
   0   3  -9    1798      93                                                        3453    7.11  -22.78  1.0000
   0  -3   9    1288      75                                                        2729    7.11   22.78  1.0000
   0  -3   9    1318      80                                                        2773    7.11   22.78  1.0000
  -1   1 -11    1165     110                                                         920   -4.80   -3.15  1.0000
  -1   1 -11    1153      75                                                         910   -4.80   -3.15  1.0000
   1  -1  11    1371      57                                                        1104   -4.80    3.15  1.0000
   1  -1  11    1335      73                                                        1072   -4.80    3.15  1.0000
   2   6  -7     121      53                                                         127    2.38   -4.10  1.0000
   2   6  -7     127      41                                                         133    2.38   -4.10  1.0000
  -2  -6   7      89      50                                                          92    2.38    4.10  1.0000
   1   4  -9    1300      76                                                        1771    2.82   -8.47  1.0000
   1   4  -9    1351      86                                                        1830    2.82   -8.47  1.0000
  -1  -4   9    1552      77                                                        2063    2.82    8.47  1.0000
   0   2 -11      30      44                                                         -33    2.08    7.61  1.0000
   0  -2  11     233      44                                                         104    2.08   -7.61  1.0000
   0  -2  11     260      40                                                         123    2.08   -7.61  1.0000
   2   5  -9     439      93                                                         869    2.73  -11.97  1.0000
   2   5  -9     500      76                                                         954    2.73  -11.97  1.0000
  -2  -5   9     304      78                                                         674    2.73   11.97  1.0000
   1   3 -11     656      77                                                         562   -0.66   -3.06  1.0000
  -1  -3  11     937      63                                                         824   -0.66    3.06  1.0000
  -1  -3  11     949      84                                                         835   -0.66    3.06  1.0000
  -8   5   8       5      59                                                         -14   -1.15    3.12  1.0000
  -8   5   8      11      39                                                          15   -1.15    3.12  1.0000
   8  -5  -8       5      33                                                          -4   -1.15   -3.12  1.0000
   8  -5  -8       8      33                                                          10   -1.15   -3.12  1.0000
   8  -5  -8      40      59                                                          52   -1.15   -3.12  1.0000
  -9   3   6     264      71                                                         244   -1.84    0.43  1.0000
  -9   3   6     231      48                                                         212   -1.84    0.43  1.0000
   9  -3  -6     234      43                                                         215   -1.84   -0.43  1.0000
   9  -3  -6     201      44                                                         183   -1.84   -0.43  1.0000
  -7   6   8      16      61                                                          11   -3.53    0.22  1.0000
  -7   6   8      35      31                                                          31   -3.53    0.22  1.0000
   7  -6  -8       9      30                                                           4   -3.53   -0.22  1.0000
   7  -6  -8      35      61                                                          31   -3.53   -0.22  1.0000
   7  -6  -8      11      28                                                           6   -3.53   -0.22  1.0000
   7  -6  -8      17      27                                                          12   -3.53   -0.22  1.0000
  -8   4   6    2698     139                                                        4328   13.60   14.85  1.0000
  -8   4   6    2620      86                                                        4229   13.60   14.85  1.0000
   8  -4  -6    2348      79                                                        3881   13.60  -14.85  1.0000
   8  -4  -6    2381      77                                                        3923   13.60  -14.85  1.0000
  -9   2   4      62      36                                                          55   16.79   -6.76  1.0000
  -9   2   4      85      45                                                          22   16.79   -6.76  1.0000
  -9   2   4     158      66                                                         -14   16.79   -6.76  1.0000
   9  -2  -4      93      42                                                          16   16.79    6.76  1.0000
   9  -2  -4      55      42                                                          90   16.79    6.76  1.0000
  -6   7   8      10      26                                                         -11   -4.60   -0.44  1.0000
  -6   7   8      81      62                                                          86   -4.60   -0.44  1.0000
   6  -7  -8      68      28                                                          72   -4.60    0.44  1.0000
   6  -7  -8      42      62                                                          42   -4.60    0.44  1.0000
  -7   5   6     935      95                                                        1038    0.09    3.23  1.0000
  -7   5   6     851      47                                                         949    0.09    3.23  1.0000
   7  -5  -6     659      43                                                         745    0.09   -3.23  1.0000
   7  -5  -6     499      84                                                         574    0.09   -3.23  1.0000
   7  -5  -6     695      41                                                         784    0.09   -3.23  1.0000
  -8   3   4      10      34                                                          33   -3.65    1.96  1.0000
  -8   3   4      18      54                                                          48   -3.65    1.96  1.0000
   8  -3  -4       8      33                                                         -50   -3.65   -1.96  1.0000
   8  -3  -4       8      34                                                          30   -3.65   -1.96  1.0000
  -9   1   2      99      45                                                          32    2.78    6.64  1.0000
  -9   1   2     264      43                                                         148    2.78    6.64  1.0000
  -9   1   2      65      68                                                          13    2.78    6.64  1.0000
   9  -1  -2     160      46                                                          72    2.78   -6.64  1.0000
   9  -1  -2      25      43                                                         -23    2.78   -6.64  1.0000
  -5   8   8       4      30                                                           0   -0.94    2.77  1.0000
  -5   8   8       4      28                                                          -8   -0.94    2.77  1.0000
  -5   8   8       4      64                                                         -21   -0.94    2.77  1.0000
   5  -8  -8      69      64                                                          84   -0.94   -2.77  1.0000
   5  -8  -8      40      29                                                          51   -0.94   -2.77  1.0000
  -6   6   6    5029     158                                                        7813   17.46   18.48  1.0000
   6  -6  -6    4977     154                                                        7749   17.46  -18.48  1.0000
   6  -6  -6    4838      79                                                        7575   17.46  -18.48  1.0000
  -7   4   4      68      27                                                           5   14.55   -3.84  1.0000
  -7   4   4     109      49                                                          -4   14.55   -3.84  1.0000
   7  -4  -4      23      25                                                          32   14.55    3.84  1.0000
   7  -4  -4      53      25                                                          10   14.55    3.84  1.0000
  -8   2   2    4245      84                                                        3242    6.04   10.65  1.0000
  -8   2   2    4370     120                                                        3352    6.04   10.65  1.0000
  -8   2   2    4463      69                                                        3433    6.04   10.65  1.0000
   8  -2  -2    3973      76                                                        3005    6.04  -10.65  1.0000
   8  -2  -2    3842      72                                                        2891    6.04  -10.65  1.0000
  -9   0   0     278      88                                                         471    7.23   -0.59  1.0000
  -9   0   0     291      59                                                         488    7.23   -0.59  1.0000
   9   0   0     223      58                                                         399    7.23    0.59  1.0000
  -5   7   6     929      91                                                        1037    0.38    3.13  1.0000
   5  -7  -6     721      90                                                         816    0.38   -3.13  1.0000
  -6   5   4      18      41                                                         -36    5.73   -2.27  1.0000
   6  -5  -4       4      18                                                          19    5.73    2.27  1.0000
   6  -5  -4      18      18                                                         -16    5.73    2.27  1.0000
   6  -5  -4       4      19                                                          21    5.73    2.27  1.0000
  -7   3   2     752      50                                                         467    8.57    9.01  1.0000
  -7   3   2     775      78                                                         486    8.57    9.01  1.0000
   7  -3  -2     698      43                                                         423    8.57   -9.01  1.0000
   7  -3  -2     651      46                                                         385    8.57   -9.01  1.0000
  -8   1   0      21      41                                                          44    2.80   -2.16  1.0000
  -8   1   0      76      66                                                         117    2.80   -2.16  1.0000
  -8   1   0       6      43                                                         -17    2.80   -2.16  1.0000
   8  -1   0      72      41                                                         111    2.80    2.16  1.0000
   8  -1   0      22      39                                                          45    2.80    2.16  1.0000
  -4   8   6    2887      72                                                        4587   14.15   14.54  1.0000
   4  -8  -6    2549     130                                                        4158   14.15  -14.54  1.0000
   4  -8  -6    2638      65                                                        4271   14.15  -14.54  1.0000
  -5   6   4       7      41                                                           6    6.11   -1.82  1.0000
   5  -6  -4      20      42                                                           0    6.11    1.82  1.0000
  -6   4   2   18438     128                                                       14058    4.43   24.53  1.0000
  -6   4   2   18593     130                                                       14193    4.43   24.53  1.0000
  -6   4   2   18650     190                                                       14243    4.43   24.53  1.0000
   6  -4  -2   16762     108                                                       12599    4.43  -24.53  1.0000
  -7   2   0     553      55                                                         900    9.28    4.32  1.0000
  -7   2   0     586      60                                                         943    9.28    4.32  1.0000
  -7   2   0     548      90                                                         894    9.28    4.32  1.0000
   7  -2   0     523      54                                                         862    9.28   -4.32  1.0000
   7  -2   0     575      52                                                         929    9.28   -4.32  1.0000
  -8   0  -2    2700      86                                                        1952    7.18   -9.91  1.0000
  -8   0  -2    2871      67                                                        2098    7.18   -9.91  1.0000
  -8   0  -2    2691     134                                                        1944    7.18   -9.91  1.0000
   8   0   2    2793      85                                                        2031    7.18    9.91  1.0000
  -3   9   6     228      41                                                         199   -2.38    0.23  1.0000
  -3   9   6     216      39                                                         188   -2.38    0.23  1.0000
   3  -9  -6     202      30                                                         175   -2.38   -0.23  1.0000
   3  -9  -6     177      36                                                         151   -2.38   -0.23  1.0000
   3  -9  -6     357      76                                                         321   -2.38   -0.23  1.0000
  -4   7   4      65      42                                                           7   14.67   -4.61  1.0000
   4  -7  -4      26      43                                                          31   14.67    4.61  1.0000
  -5   5   2    1548      59                                                        1049   10.01    9.68  1.0000
  -6   3   0      11      40                                                          35    6.07   -1.87  1.0000
  -6   3   0       6      18                                                          15    6.07   -1.87  1.0000
  -6   3   0      11      25                                                          33    6.07   -1.87  1.0000
   6  -3   0      32      25                                                          75    6.07    1.87  1.0000
   6  -3   0      17      22                                                          48    6.07    1.87  1.0000
  -7   1  -2       6      40                                                           0   -1.65    3.27  1.0000
  -7   1  -2       6      26                                                         -21   -1.65    3.27  1.0000
  -7   1  -2      46      40                                                          87   -1.65    3.27  1.0000
  -7   1  -2       6      39                                                          -3   -1.65    3.27  1.0000
  -7   1  -2       0      67                                                           9   -1.65    3.27  1.0000
   7  -1   2       6      35                                                         -28   -1.65   -3.27  1.0000
   7  -1   2       6      37                                                         -26   -1.65   -3.27  1.0000
   7  -1   2      17      40                                                          45   -1.65   -3.27  1.0000
  -8  -1  -4       4      87                                                        -150    1.39    2.69  1.0000
  -8  -1  -4       4      53                                                         -72    1.39    2.69  1.0000
  -8  -1  -4       4      47                                                           0    1.39    2.69  1.0000
   8   1   4       4      49                                                         -12    1.39   -2.69  1.0000
   8   1   4      38      65                                                          65    1.39   -2.69  1.0000
  -3   8   4      25      27                                                          50   -2.85    2.04  1.0000
  -3   8   4       1      28                                                           7   -2.85    2.04  1.0000
   3  -8  -4       6      22                                                         -29   -2.85   -2.04  1.0000
   3  -8  -4      20      50                                                          42   -2.85   -2.04  1.0000
   3  -8  -4       6      25                                                         -12   -2.85   -2.04  1.0000
  -4   6   2   18898     181                                                       14442    3.93   24.80  1.0000
   4  -6  -2   17862     172                                                       13538    3.93  -24.80  1.0000
  -5   4   0      28      18                                                         102    7.23    1.59  1.0000
  -5   4   0      66      18                                                         167    7.23    1.59  1.0000
  -5   4   0      17      17                                                          78    7.23    1.59  1.0000
  -5   4   0      41      32                                                         126    7.23    1.59  1.0000
   5  -4   0      40      19                                                         124    7.23   -1.59  1.0000
   5  -4   0      20      17                                                          84    7.23   -1.59  1.0000
   5  -4   0      31      17                                                         107    7.23   -1.59  1.0000
  -6   2  -2   19016     156                                                       14295    5.47  -25.90  1.0000
  -6   2  -2   18590     147                                                       13926    5.47  -25.90  1.0000
  -6   2  -2   18737     146                                                       14053    5.47  -25.90  1.0000
  -6   2  -2   19199     206                                                       14454    5.47  -25.90  1.0000
   6  -2   2   18896     147                                                       14191    5.47   25.90  1.0000
   6  -2   2   18886     136                                                       14182    5.47   25.90  1.0000
  -7   0  -4     692      64                                                         814   -2.88   -1.42  1.0000
  -7   0  -4     683      76                                                         805   -2.88   -1.42  1.0000
  -7   0  -4     580     123                                                         692   -2.88   -1.42  1.0000
   7   0   4     640      67                                                         758   -2.88    1.42  1.0000
  -2   9   4      76      36                                                          18   16.30   -8.73  1.0000
  -2   9   4      28      36                                                          62   16.30   -8.73  1.0000
   2  -9  -4       8      35                                                         117   16.30    8.73  1.0000
   2  -9  -4      30      30                                                          59   16.30    8.73  1.0000
  -3   7   2     688      35                                                         408    8.09    8.88  1.0000
   3  -7  -2     675      31                                                         397    8.09   -8.88  1.0000
   3  -7  -2     642      65                                                         371    8.09   -8.88  1.0000
   3  -7  -2     677      35                                                         399    8.09   -8.88  1.0000
   4  -5   0      50      19                                                         148    7.87   -1.65  1.0000
  -5   3  -2       6      22                                                          42   -1.19    5.59  1.0000
  -5   3  -2       4      23                                                          35   -1.19    5.59  1.0000
  -5   3  -2       1      26                                                          23   -1.19    5.59  1.0000
  -5   3  -2      12      38                                                          54   -1.19    5.59  1.0000
   5  -3   2      27      23                                                          83   -1.19   -5.59  1.0000
   5  -3   2      24      21                                                          79   -1.19   -5.59  1.0000
   5  -3   2      12      22                                                          54   -1.19   -5.59  1.0000
  -6   1  -4      16      36                                                          -1    5.37    1.85  1.0000
  -6   1  -4      16      37                                                          -5    5.37    1.85  1.0000
  -6   1  -4      17      64                                                          49    5.37    1.85  1.0000
  -6   1  -4      25      38                                                          65    5.37    1.85  1.0000
  -6   1  -4       5      32                                                          18    5.37    1.85  1.0000
   6  -1   4       4      34                                                          12    5.37   -1.85  1.0000
   6  -1   4      16      36                                                          -6    5.37   -1.85  1.0000
   6  -1   4       6      35                                                          24    5.37   -1.85  1.0000
  -7  -1  -6      30      48                                                          80   -0.38   -6.46  1.0000
  -7  -1  -6       7      90                                                          30   -0.38   -6.46  1.0000
   7   1   6      20      44                                                          -1   -0.38    6.46  1.0000
  -2   8   2    4307      71                                                        3269    6.63   10.87  1.0000
  -2   8   2    4343      68                                                        3300    6.63   10.87  1.0000
   2  -8  -2    4048      62                                                        3043    6.63  -10.87  1.0000
   2  -8  -2    3999      61                                                        3001    6.63  -10.87  1.0000
  -3   6   0      21      20                                                          60    5.72   -2.79  1.0000
   3  -6   0      12      17                                                          40    5.72    2.79  1.0000
   3  -6   0      26      27                                                          69    5.72    2.79  1.0000
   3  -6   0      11      18                                                          39    5.72    2.79  1.0000
   3  -6   0      11      18                                                          39    5.72    2.79  1.0000
  -4   4  -2   38933     247                                                       29370    8.11  -36.56  1.0000
  -4   4  -2   38861     295                                                       29307    8.11  -36.56  1.0000
   4  -4   2   40144     244                                                       30423    8.11   36.56  1.0000
   4  -4   2   40196     244                                                       30468    8.11   36.56  1.0000
   4  -4   2   39548     244                                                       29904    8.11   36.56  1.0000
  -5   2  -4     677      84                                                         921   -3.43   -7.04  1.0000
  -5   2  -4     763      51                                                        1021   -3.43   -7.04  1.0000
  -5   2  -4     693      56                                                         940   -3.43   -7.04  1.0000
  -5   2  -4     621      40                                                         855   -3.43   -7.04  1.0000
  -5   2  -4     672      49                                                         915   -3.43   -7.04  1.0000
   5  -2   4     775      46                                                        1035   -3.43    7.04  1.0000
   5  -2   4     744      50                                                         999   -3.43    7.04  1.0000
  -6   0  -6    5185     112                                                        7887   16.63  -17.95  1.0000
  -6   0  -6    5187     195                                                        7889   16.63  -17.95  1.0000
  -6   0  -6    5338     132                                                        8075   16.63  -17.95  1.0000
   6   0   6    5191     114                                                        7894   16.63   17.95  1.0000
  -1   9   2      75      42                                                          24    4.43    6.10  1.0000
  -1   9   2     133      40                                                          67    4.43    6.10  1.0000
   1  -9  -2      73      34                                                          23    4.43   -6.10  1.0000
   1  -9  -2     152      39                                                          82    4.43   -6.10  1.0000
  -2   7   0     528      49                                                         874    9.43    4.48  1.0000
   2  -7   0     418      40                                                         729    9.43   -4.48  1.0000
  -3   5  -2      19      22                                                          65   -0.45    5.41  1.0000
   3  -5   2      11      19                                                          50   -0.45   -5.41  1.0000
   3  -5   2      23      18                                                          73   -0.45   -5.41  1.0000
  -4   3  -4     120      26                                                          91    1.79   -1.92  1.0000
  -4   3  -4      11      36                                                           3    1.79   -1.92  1.0000
  -4   3  -4      78      29                                                          55    1.79   -1.92  1.0000
  -4   3  -4      85      25                                                          61    1.79   -1.92  1.0000
   4  -3   4      90      27                                                          65    1.79    1.92  1.0000
   4  -3   4      71      25                                                          49    1.79    1.92  1.0000
  -5   1  -6      99      77                                                         517    0.14  -20.26  1.0000
  -5   1  -6     161      63                                                         658    0.14  -20.26  1.0000
  -5   1  -6     151      63                                                         635    0.14  -20.26  1.0000
  -5   1  -6     149      59                                                         632    0.14  -20.26  1.0000
   5  -1   6      66      57                                                         429    0.14   20.26  1.0000
   5  -1   6      65      58                                                         426    0.14   20.26  1.0000
   5  -1   6     108      61                                                         538    0.14   20.26  1.0000
  -6  -1  -8       7      51                                                          -8   -3.68   -1.11  1.0000
  -6  -1  -8       7      96                                                         -29   -3.68   -1.11  1.0000
   6   1   8       7      49                                                         -49   -3.68    1.11  1.0000
   6   1   8      35      43                                                          38   -3.68    1.11  1.0000
  -1   8   0      15      36                                                          25    1.87   -1.19  1.0000
  -1   8   0      79      37                                                         103    1.87   -1.19  1.0000
   1  -8   0       6      34                                                          12    1.87    1.19  1.0000
   1  -8   0      24      32                                                          37    1.87    1.19  1.0000
  -2   6  -2   17796     132                                                       13224    5.59  -25.96  1.0000
   2  -6   2   18965     137                                                       14235    5.59   25.96  1.0000
  -3   4  -4      69      28                                                          46    2.09   -1.57  1.0000
  -3   4  -4      61      26                                                          40    2.09   -1.57  1.0000
   3  -4   4      54      24                                                          34    2.09    1.57  1.0000
   3  -4   4      64      23                                                          42    2.09    1.57  1.0000
  -4   2  -6   22292     298                                                       32496   31.98  -31.64  1.0000
  -4   2  -6   21923     285                                                       32050   31.98  -31.64  1.0000
  -4   2  -6   21518     259                                                       31560   31.98  -31.64  1.0000
  -4   2  -6   22318     362                                                       32528   31.98  -31.64  1.0000
  -4   2  -6   21888     282                                                       32008   31.98  -31.64  1.0000
   4  -2   6   21896     264                                                       32018   31.98   31.64  1.0000
   4  -2   6   21862     281                                                       31976   31.98   31.64  1.0000
   4  -2   6   22076     267                                                       32235   31.98   31.64  1.0000
   4  -2   6   21738     285                                                       31827   31.98   31.64  1.0000
  -5   0  -8     768      69                                                         675    3.39   -4.71  1.0000
  -5   0  -8     842     132                                                         745    3.39   -4.71  1.0000
   5   0   8    1054      71                                                         947    3.39    4.71  1.0000
   5   0   8     977      66                                                         874    3.39    4.71  1.0000
   0   9   0     303      56                                                         501    7.17   -0.08  1.0000
   0   9   0     268      57                                                         456    7.17   -0.08  1.0000
   0  -9   0     264      51                                                         450    7.17    0.08  1.0000
   0  -9   0     203      46                                                         369    7.17    0.08  1.0000
  -1   7  -2      26      35                                                          56   -1.48    3.20  1.0000
  -1   7  -2       2      38                                                          14   -1.48    3.20  1.0000
  -1   7  -2       6      29                                                         -36   -1.48    3.20  1.0000
   1  -7   2       6      32                                                         -19   -1.48   -3.20  1.0000
   1  -7   2       8      33                                                          27   -1.48   -3.20  1.0000
  -2   5  -4     758      53                                                         998   -3.17   -6.73  1.0000
  -2   5  -4     662      50                                                         886   -3.17   -6.73  1.0000
   2  -5   4     723      46                                                         957   -3.17    6.73  1.0000
   2  -5   4     772      42                                                        1014   -3.17    6.73  1.0000
  -3   3  -6     371      44                                                        1334   -2.09  -25.11  1.0000
  -3   3  -6     370      57                                                        1333   -2.09  -25.11  1.0000
  -3   3  -6     341      76                                                        1277   -2.09  -25.11  1.0000
  -3   3  -6     335      60                                                        1264   -2.09  -25.11  1.0000
   3  -3   6     274      54                                                        1142   -2.09   25.11  1.0000
   3  -3   6     283      51                                                        1162   -2.09   25.11  1.0000
  -4   1  -8     100      68                                                          79   -2.65   -3.44  1.0000
  -4   1  -8       9      41                                                         -13   -2.65   -3.44  1.0000
  -4   1  -8     106      41                                                          84   -2.65   -3.44  1.0000
   4  -1   8       9      36                                                         -25   -2.65    3.44  1.0000
   4  -1   8      61      36                                                          43   -2.65    3.44  1.0000
  -5  -1 -10      12      54                                                           3    5.69   -2.03  1.0000
  -5  -1 -10      18      95                                                         -33    5.69   -2.03  1.0000
   5   1  10      18      47                                                         -13    5.69    2.03  1.0000
   5   1  10      35      41                                                          53    5.69    2.03  1.0000
   0   8  -2    2561      66                                                        1845    6.26   -9.89  1.0000
   0   8  -2    2559      80                                                        1843    6.26   -9.89  1.0000
   0   8  -2    2458      86                                                        1758    6.26   -9.89  1.0000
   0  -8   2    2771      75                                                        2024    6.26    9.89  1.0000
   0  -8   2    2661      73                                                        1930    6.26    9.89  1.0000
  -1   6  -4      11      34                                                          36    5.26    1.52  1.0000
  -1   6  -4      15      40                                                          44    5.26    1.52  1.0000
  -1   6  -4       7      31                                                          26    5.26    1.52  1.0000
   1  -6   4       5      33                                                          19    5.26   -1.52  1.0000
   1  -6   4       4      30                                                           8    5.26   -1.52  1.0000
  -2   4  -6   21054     288                                                       30883   32.11  -30.69  1.0000
  -2   4  -6   21385     275                                                       31283   32.11  -30.69  1.0000
  -2   4  -6   21277     272                                                       31153   32.11  -30.69  1.0000
  -2   4  -6   20918     241                                                       30718   32.11  -30.69  1.0000
   2  -4   6   21057     253                                                       30886   32.11   30.69  1.0000
   2  -4   6   21114     256                                                       30955   32.11   30.69  1.0000
   2  -4   6   20924     271                                                       30725   32.11   30.69  1.0000
  -3   2  -8     480      48                                                         385    0.76   -4.85  1.0000
  -3   2  -8     504      58                                                         407    0.76   -4.85  1.0000
  -3   2  -8     545      52                                                         444    0.76   -4.85  1.0000
   3  -2   8     529      59                                                         429    0.76    4.85  1.0000
   3  -2   8     642      57                                                         532    0.76    4.85  1.0000
  -4   0 -10    1973     138                                                        1637    5.69   -1.29  1.0000
  -4   0 -10    2174      85                                                        1821    5.69   -1.29  1.0000
   4   0  10    2800      88                                                        2397    5.69    1.29  1.0000
   4   0  10    2618      75                                                        2229    5.69    1.29  1.0000
   0   7  -4     754      70                                                         886   -2.91   -1.58  1.0000
   0   7  -4     540      76                                                         652   -2.91   -1.58  1.0000
   0   7  -4     658      64                                                         781   -2.91   -1.58  1.0000
   0  -7   4     700      61                                                         827   -2.91    1.58  1.0000
   0  -7   4     764      61                                                         897   -2.91    1.58  1.0000
  -1   5  -6     172      59                                                         647    0.51  -19.43  1.0000
  -1   5  -6      72      60                                                         419    0.51  -19.43  1.0000
  -1   5  -6     147      40                                                         596    0.51  -19.43  1.0000
  -1   5  -6     121      68                                                         539    0.51  -19.43  1.0000
   1  -5   6     115      55                                                         524    0.51   19.43  1.0000
   1  -5   6     120      58                                                         536    0.51   19.43  1.0000
   1  -5   6      84      51                                                         449    0.51   19.43  1.0000
  -2   3  -8     526      49                                                         421    0.96   -5.43  1.0000
  -2   3  -8     444      45                                                         347    0.96   -5.43  1.0000
  -2   3  -8     543      59                                                         436    0.96   -5.43  1.0000
   2  -3   8     591      56                                                         480    0.96    5.43  1.0000
   2  -3   8     572      58                                                         462    0.96    5.43  1.0000
   2  -3   8     578      55                                                         468    0.96    5.43  1.0000
  -3   1 -10      77      63                                                          71   11.00   -4.69  1.0000
  -3   1 -10      69      41                                                         -19   11.00   -4.69  1.0000
   3  -1  10      69      42                                                          -4   11.00    4.69  1.0000
   3  -1  10      69      37                                                         -53   11.00    4.69  1.0000
   1   8  -4       5      53                                                         -36    1.58    2.97  1.0000
   1   8  -4      24      53                                                          51    1.58    2.97  1.0000
   1   8  -4       0      46                                                           6    1.58    2.97  1.0000
  -1  -8   4      14      46                                                          35    1.58   -2.97  1.0000
  -1  -8   4       2      46                                                          12    1.58   -2.97  1.0000
   0   6  -6    5609     141                                                        8405   16.79  -17.71  1.0000
   0   6  -6    5511     126                                                        8284   16.79  -17.71  1.0000
   0   6  -6    5608     132                                                        8403   16.79  -17.71  1.0000
   0  -6   6    5389     113                                                        8134   16.79   17.71  1.0000
   0  -6   6    5355     120                                                        8093   16.79   17.71  1.0000
   0  -6   6    5385     121                                                        8130   16.79   17.71  1.0000
  -1   4  -8      11      43                                                         -38   -3.66   -3.05  1.0000
  -1   4  -8      22      46                                                           4   -3.66   -3.05  1.0000
  -1   4  -8      11      34                                                          -3   -3.66   -3.05  1.0000
   1  -4   8      40      38                                                          16   -3.66    3.05  1.0000
   1  -4   8      28      37                                                           8   -3.66    3.05  1.0000
  -2   2 -10    3119      82                                                        2812    4.08    2.91  1.0000
   2  -2  10    4412      93                                                        4046    4.08   -2.91  1.0000
   2  -2  10    4294      84                                                        3933    4.08   -2.91  1.0000
  -3   0 -12     127      53                                                         135   -2.57   -0.67  1.0000
  -3   0 -12     293      84                                                         307   -2.57   -0.67  1.0000
   3   0  12     203      40                                                         214   -2.57    0.67  1.0000
   3   0  12     300      54                                                         314   -2.57    0.67  1.0000
   1   7  -6       5      51                                                          16   -0.59   -6.69  1.0000
  -1  -7   6      39      50                                                          98   -0.59    6.69  1.0000
   0   5  -8     884      59                                                         782    3.63   -4.98  1.0000
   0   5  -8     923      73                                                         819    3.63   -4.98  1.0000
   0  -5   8    1062      72                                                         951    3.63    4.98  1.0000
  -1   3 -10      57      45                                                           8   11.33   -4.76  1.0000
  -1   3 -10      58      42                                                          36   11.33   -4.76  1.0000
   1  -3  10      55      37                                                          15   11.33    4.76  1.0000
   1  -3  10      74      43                                                          73   11.33    4.76  1.0000
  -2   1 -12      41      51                                                         114   -4.60   -5.22  1.0000
   2  -1  12      92      42                                                         195   -4.60    5.22  1.0000
   2  -1  12      21      49                                                          76   -4.60    5.22  1.0000
   1   6  -8      20      51                                                          20   -4.38   -0.62  1.0000
   1   6  -8       9      37                                                         -32   -4.38   -0.62  1.0000
  -1  -6   8       9      47                                                         -47   -4.38    0.62  1.0000
   0   4 -10    2113      88                                                        1765    5.70   -1.43  1.0000
   0   4 -10    1812      71                                                        1491    5.70   -1.43  1.0000
   0  -4  10    2719      83                                                        2322    5.70    1.43  1.0000
  -1   2 -12      88      51                                                         191   -5.35   -5.12  1.0000
   1  -2  12      53      42                                                         136   -5.35    5.12  1.0000
   1  -2  12      83      51                                                         184   -5.35    5.12  1.0000
   1   5 -10      42      55                                                          53    4.77   -3.37  1.0000
   1   5 -10      16      43                                                         -20    4.77   -3.37  1.0000
  -1  -5  10      16      48                                                         -43    4.77    3.37  1.0000
   0   3 -12     119      52                                                         125   -1.96   -0.52  1.0000
   0  -3  12     309      49                                                         319   -1.96    0.52  1.0000
   0  -3  12     236      55                                                         245   -1.96    0.52  1.0000
  -8   6   7      16      56                                                          10    2.03    3.78  1.0000
  -8   6   7      66      32                                                          65    2.03    3.78  1.0000
   8  -6  -7      39      56                                                          36    2.03   -3.78  1.0000
   8  -6  -7      90      31                                                          90    2.03   -3.78  1.0000
   8  -6  -7      90      28                                                          90    2.03   -3.78  1.0000
  -9   4   5     863     106                                                         595    0.96    7.36  1.0000
  -9   4   5     929      64                                                         650    0.96    7.36  1.0000
   9  -4  -5     746      54                                                         498    0.96   -7.36  1.0000
   9  -4  -5     826      56                                                         564    0.96   -7.36  1.0000
  -7   7   7      85      58                                                          77    9.65   -3.44  1.0000
   7  -7  -7      56      26                                                          33    9.65    3.44  1.0000
   7  -7  -7     151      61                                                         162    9.65    3.44  1.0000
  -8   5   5    2046      56                                                        1566   -0.96    8.11  1.0000
  -8   5   5    2080     103                                                        1596   -0.96    8.11  1.0000
   8  -5  -5    1678      50                                                        1246   -0.96   -8.11  1.0000
   8  -5  -5    1652      48                                                        1224   -0.96   -8.11  1.0000
  -9   3   3     535     113                                                        1265   15.58    9.22  1.0000
  -9   3   3     557      72                                                        1299   15.58    9.22  1.0000
   9  -3  -3     488      67                                                        1192   15.58   -9.22  1.0000
   9  -3  -3     574      62                                                        1325   15.58   -9.22  1.0000
  -6   8   7     107      60                                                         118    2.65    3.51  1.0000
   6  -8  -7     120      63                                                         132    2.65   -3.51  1.0000
  -7   6   5    2796      99                                                        2016   -1.12   11.43  1.0000
   7  -6  -5    2594      94                                                        1845   -1.12  -11.43  1.0000
   7  -6  -5    2557      42                                                        1814   -1.12  -11.43  1.0000
  -8   4   3     425      90                                                         689   -8.19   -0.52  1.0000
  -8   4   3     434      52                                                         701   -8.19   -0.52  1.0000
   8  -4  -3     317      49                                                         549   -8.19    0.52  1.0000
   8  -4  -3     354      50                                                         598   -8.19    0.52  1.0000
  -9   2   1     247      70                                                         339   -3.24    2.26  1.0000
  -9   2   1     211      47                                                         296   -3.24    2.26  1.0000
  -9   2   1     319      56                                                         422   -3.24    2.26  1.0000
   9  -2  -1     198      45                                                         281   -3.24   -2.26  1.0000
   9  -2  -1     199      48                                                         282   -3.24   -2.26  1.0000
  -6   7   5    2887     101                                                        2105   -0.47   11.30  1.0000
   6  -7  -5    2517      96                                                        1791   -0.47  -11.30  1.0000
  -7   5   3    1466     103                                                        2922   18.79   13.84  1.0000
  -7   5   3    1489      55                                                        2954   18.79   13.84  1.0000
  -7   5   3    1497      54                                                        2966   18.79   13.84  1.0000
   7  -5  -3    1395      50                                                        2821   18.79  -13.84  1.0000
   7  -5  -3    1383      52                                                        2804   18.79  -13.84  1.0000
  -8   3   1    3186      71                                                        2198   11.46   -8.57  1.0000
  -8   3   1    3179      69                                                        2192   11.46   -8.57  1.0000
  -8   3   1    3256     107                                                        2256   11.46   -8.57  1.0000
  -8   3   1    3237      52                                                        2240   11.46   -8.57  1.0000
   8  -3  -1    2911      62                                                        1970   11.46    8.57  1.0000
   8  -3  -1    2902      66                                                        1963   11.46    8.57  1.0000
  -9   1  -1    1011      81                                                         869    4.55    0.61  1.0000
  -9   1  -1     678      85                                                         562    4.55    0.61  1.0000
  -9   1  -1     678      73                                                         562    4.55    0.61  1.0000
   9  -1   1     845      81                                                         715    4.55   -0.61  1.0000
   9  -1   1     689      71                                                         572    4.55   -0.61  1.0000
  -5   8   5    2172      95                                                        1689   -1.42    7.86  1.0000
   5  -8  -5    1728      88                                                        1301   -1.42   -7.86  1.0000
  -6   6   3    1163      79                                                        1681   -9.80   -1.76  1.0000
   6  -6  -3    1201      78                                                        1726   -9.80    1.76  1.0000
  -7   4   1    2816      58                                                        2654    0.22   -2.78  1.0000
  -7   4   1    2847      95                                                        2684    0.22   -2.78  1.0000
  -8   2  -1     272      44                                                         300    2.99   -1.01  1.0000
  -8   2  -1     308      45                                                         338    2.99   -1.01  1.0000
  -8   2  -1     223      42                                                         248    2.99   -1.01  1.0000
  -8   2  -1     262      71                                                         289    2.99   -1.01  1.0000
   8  -2   1     261      41                                                         288    2.99    1.01  1.0000
   8  -2   1     232      41                                                         258    2.99    1.01  1.0000
  -4   9   5    1021      48                                                         746    1.78    6.98  1.0000
   4  -9  -5     876      45                                                         623    1.78   -6.98  1.0000
  -5   7   3    1282      88                                                        2724   20.03   13.29  1.0000
   5  -7  -3    1410      91                                                        2910   20.03  -13.29  1.0000
  -6   5   1    6085      61                                                        5154    5.91   -6.72  1.0000
  -6   5   1    6182     103                                                        5243    5.91   -6.72  1.0000
   6  -5  -1    5859      57                                                        4946    5.91    6.72  1.0000
   6  -5  -1    5765      53                                                        4860    5.91    6.72  1.0000
   6  -5  -1    5614      59                                                        4721    5.91    6.72  1.0000
  -7   3  -1    2793      66                                                        2649    2.06    0.86  1.0000
  -7   3  -1    2674      69                                                        2533    2.06    0.86  1.0000
  -7   3  -1    2837     104                                                        2691    2.06    0.86  1.0000
  -7   3  -1    2671      56                                                        2530    2.06    0.86  1.0000
   7  -3   1    2672      59                                                        2531    2.06   -0.86  1.0000
   7  -3   1    2796      64                                                        2652    2.06   -0.86  1.0000
  -8   1  -3    1614      58                                                        2508   14.40   -2.28  1.0000
  -8   1  -3    1638     140                                                        2538   14.40   -2.28  1.0000
  -8   1  -3    1650      87                                                        2553   14.40   -2.28  1.0000
  -8   1  -3    1583      89                                                        2470   14.40   -2.28  1.0000
  -8   1  -3    1673      90                                                        2582   14.40   -2.28  1.0000
   8  -1   3    1657      86                                                        2562   14.40    2.28  1.0000
   8  -1   3    1655      82                                                        2559   14.40    2.28  1.0000
   4  -8  -3     449      80                                                         693   -7.42    0.59  1.0000
   4  -8  -3     374      35                                                         598   -7.42    0.59  1.0000
  -5   6   1    5891      94                                                        4931    5.68   -7.51  1.0000
   5  -6  -1    5704      90                                                        4760    5.68    7.51  1.0000
  -6   4  -1    2740      52                                                        2141    0.77  -12.07  1.0000
  -6   4  -1    2834      78                                                        2224    0.77  -12.07  1.0000
  -7   2  -3    1541      79                                                        3048   19.13  -13.68  1.0000
  -7   2  -3    1461      79                                                        2935   19.13  -13.68  1.0000
  -7   2  -3    1576     129                                                        3097   19.13  -13.68  1.0000
  -7   2  -3    1601      84                                                        3132   19.13  -13.68  1.0000
   7  -2   3    1424      75                                                        2882   19.13   13.68  1.0000
   7  -2   3    1383      75                                                        2824   19.13   13.68  1.0000
   7  -2   3    1422      71                                                        2879   19.13   13.68  1.0000
  -8   0  -5     119      92                                                          73   -4.38    3.55  1.0000
  -8   0  -5     219      46                                                         158   -4.38    3.55  1.0000
  -8   0  -5      15      54                                                         -25   -4.38    3.55  1.0000
   8   0   5     112      48                                                          67   -4.38   -3.55  1.0000
  -3   9   3     594      56                                                        1383   16.91    7.41  1.0000
  -3   9   3     600      57                                                        1392   16.91    7.41  1.0000
   3  -9  -3     468      45                                                        1187   16.91   -7.41  1.0000
   3  -9  -3     423      51                                                        1114   16.91   -7.41  1.0000
   4  -7  -1    2465      71                                                        2364   -0.08    2.04  1.0000
  -5   5  -1    3841      55                                                        4262   -2.82   -3.85  1.0000
  -5   5  -1    3701      57                                                        4114   -2.82   -3.85  1.0000
  -5   5  -1    3795      79                                                        4213   -2.82   -3.85  1.0000
   5  -5   1    3899      55                                                        4323   -2.82    3.85  1.0000
   5  -5   1    3790      55                                                        4208   -2.82    3.85  1.0000
   5  -5   1    3912      52                                                        4336   -2.82    3.85  1.0000
   5  -5   1    3788      56                                                        4206   -2.82    3.85  1.0000
  -6   3  -3    7017     171                                                       11067   28.18  -12.69  1.0000
  -6   3  -3    6914     131                                                       10937   28.18  -12.69  1.0000
  -6   3  -3    6875     124                                                       10888   28.18  -12.69  1.0000
   6  -3   3    6978     122                                                       11018   28.18   12.69  1.0000
   6  -3   3    6765     114                                                       10749   28.18   12.69  1.0000
  -7   1  -5    2667     134                                                        1937   -0.39  -10.99  1.0000
  -7   1  -5    2588      83                                                        1869   -0.39  -10.99  1.0000
  -7   1  -5    2564      65                                                        1849   -0.39  -10.99  1.0000
   7  -1   5    2909      75                                                        2144   -0.39   10.99  1.0000
  -3   8   1    3073      55                                                        2071   11.75   -9.03  1.0000
  -3   8   1    3178      55                                                        2158   11.75   -9.03  1.0000
   3  -8  -1    3176      50                                                        2156   11.75    9.03  1.0000
   3  -8  -1    3183      52                                                        2162   11.75    9.03  1.0000
  -4   6  -1    2822      41                                                        2205    1.48  -12.94  1.0000
  -4   6  -1    2808      43                                                        2193    1.48  -12.94  1.0000
   4  -6   1    2777      39                                                        2165    1.48   12.94  1.0000
   4  -6   1    2823      53                                                        2206    1.48   12.94  1.0000
   4  -6   1    2804      42                                                        2189    1.48   12.94  1.0000
   4  -6   1    2772      38                                                        2161    1.48   12.94  1.0000
  -5   4  -3    7207     126                                                       12565   34.44  -19.49  1.0000
  -5   4  -3    7114     117                                                       12442   34.44  -19.49  1.0000
  -5   4  -3    7023     162                                                       12322   34.44  -19.49  1.0000
   5  -4   3    6798     121                                                       12023   34.44   19.49  1.0000
   5  -4   3    6646     114                                                       11821   34.44   19.49  1.0000
  -6   2  -5    1564     109                                                        1252   -1.31    5.87  1.0000
  -6   2  -5    1229      67                                                         954   -1.31    5.87  1.0000
  -6   2  -5    1181      64                                                         912   -1.31    5.87  1.0000
  -6   2  -5    1245      63                                                         968   -1.31    5.87  1.0000
  -6   2  -5    1284      48                                                        1003   -1.31    5.87  1.0000
   6  -2   5    1343      61                                                        1055   -1.31   -5.87  1.0000
   6  -2   5    1221      58                                                         947   -1.31   -5.87  1.0000
   6  -2   5    1381      59                                                        1089   -1.31   -5.87  1.0000
  -7   0  -7      30      54                                                           1    6.58    2.25  1.0000
  -7   0  -7      83      45                                                          28    6.58    2.25  1.0000
  -7   0  -7      23      88                                                        -105    6.58    2.25  1.0000
   7   0   7     219      47                                                         128    6.58   -2.25  1.0000
  -2   9   1     201      41                                                         301   -1.81    4.51  1.0000
  -2   9   1     215      40                                                         318   -1.81    4.51  1.0000
   2  -9  -1     212      46                                                         314   -1.81   -4.51  1.0000
   2  -9  -1     194      38                                                         292   -1.81   -4.51  1.0000
  -3   7  -1    2630      56                                                        2476    2.16    1.04  1.0000
   3  -7   1    1330      40                                                        1221    2.16   -1.04  1.0000
  -4   5  -3    7186     126                                                       12525   34.39  -19.47  1.0000
  -4   5  -3    7361     111                                                       12756   34.39  -19.47  1.0000
   4  -5   3    7091     123                                                       12400   34.39   19.47  1.0000
   4  -5   3    7014     114                                                       12297   34.39   19.47  1.0000
  -5   3  -5    7064      85                                                        4802    0.77  -21.35  1.0000
  -5   3  -5    7087      83                                                        4821    0.77  -21.35  1.0000
  -5   3  -5    7202      89                                                        4916    0.77  -21.35  1.0000
  -5   3  -5    7202     114                                                        4916    0.77  -21.35  1.0000
   5  -3   5    7867      82                                                        5468    0.77   21.35  1.0000
   5  -3   5    8003      87                                                        5581    0.77   21.35  1.0000
  -6   1  -7    2142      71                                                        1832    6.22   -3.25  1.0000
  -6   1  -7    2070      86                                                        1766    6.22   -3.25  1.0000
  -6   1  -7    2032     139                                                        1730    6.22   -3.25  1.0000
   6  -1   7    2287      75                                                        1967    6.22    3.25  1.0000
  -2   8  -1     216      35                                                         219    1.74   -1.27  1.0000
  -2   8  -1     314      38                                                         318    1.74   -1.27  1.0000
   2  -8   1     282      34                                                         286    1.74    1.27  1.0000
   2  -8   1     240      33                                                         243    1.74    1.27  1.0000
  -3   6  -3    7132     121                                                       11284   28.93  -12.10  1.0000
  -3   6  -3    7367     105                                                       11579   28.93  -12.10  1.0000
   3  -6   3    6676     114                                                       10709   28.93   12.10  1.0000
   3  -6   3    6648     105                                                       10673   28.93   12.10  1.0000
  -4   4  -5    2670      62                                                        1999   -3.28    9.66  1.0000
  -4   4  -5    2659      59                                                        1990   -3.28    9.66  1.0000
  -4   4  -5    2739      56                                                        2059   -3.28    9.66  1.0000
   4  -4   5    3020      57                                                        2304   -3.28   -9.66  1.0000
   4  -4   5    3090      60                                                        2365   -3.28   -9.66  1.0000
  -5   2  -7    1223     106                                                         604   15.22    0.96  1.0000
  -5   2  -7    1158      70                                                         559   15.22    0.96  1.0000
  -5   2  -7    1267      64                                                         635   15.22    0.96  1.0000
  -5   2  -7    1281      54                                                         645   15.22    0.96  1.0000
  -5   2  -7    1362      66                                                         703   15.22    0.96  1.0000
   5  -2   7    1240      62                                                         616   15.22   -0.96  1.0000
   5  -2   7    1314      60                                                         669   15.22   -0.96  1.0000
  -6   0  -9      19      92                                                           7   -3.22   -5.94  1.0000
  -6   0  -9      67      51                                                          80   -3.22   -5.94  1.0000
   6   0   9     117      51                                                         142   -3.22    5.94  1.0000
   6   0   9      93      44                                                         113   -3.22    5.94  1.0000
  -1   9  -1     823      74                                                         709    3.64    0.82  1.0000
  -1   9  -1     758      74                                                         649    3.64    0.82  1.0000
   1  -9   1     716      60                                                         610    3.64   -0.82  1.0000
   1  -9   1     692      59                                                         588    3.64   -0.82  1.0000
  -2   7  -3    1635      73                                                        3141   18.41  -14.06  1.0000
  -2   7  -3    1672      59                                                        3192   18.41  -14.06  1.0000
  -2   7  -3    1641      77                                                        3149   18.41  -14.06  1.0000
   2  -7   3    1297      61                                                        2663   18.41   14.06  1.0000
   2  -7   3    1266      65                                                        2619   18.41   14.06  1.0000
  -3   5  -5    7191      87                                                        4975    0.69  -20.64  1.0000
  -3   5  -5    7001      82                                                        4817    0.69  -20.64  1.0000
   3  -5   5    7893      86                                                        5561    0.69   20.64  1.0000
   3  -5   5    7858      78                                                        5532    0.69   20.64  1.0000
  -4   3  -7    3342      79                                                        2398   15.24   -5.39  1.0000
  -4   3  -7    3289      73                                                        2353   15.24   -5.39  1.0000
  -4   3  -7    3360      59                                                        2414   15.24   -5.39  1.0000
  -4   3  -7    3406     101                                                        2453   15.24   -5.39  1.0000
  -4   3  -7    3291      74                                                        2355   15.24   -5.39  1.0000
   4  -3   7    3974      70                                                        2942   15.24    5.39  1.0000
   4  -3   7    4023      71                                                        2985   15.24    5.39  1.0000
   4  -3   7    4011      74                                                        2974   15.24    5.39  1.0000
  -5   1  -9    1421      79                                                        1917    2.76   -8.61  1.0000
  -5   1  -9    1209     139                                                        1669    2.76   -8.61  1.0000
  -5   1  -9    1422      90                                                        1918    2.76   -8.61  1.0000
   5  -1   9    1608      88                                                        2134    2.76    8.61  1.0000
   5  -1   9    1531      77                                                        2044    2.76    8.61  1.0000
  -1   8  -3    1685      82                                                        2570   14.03   -2.25  1.0000
  -1   8  -3    1703      66                                                        2592   14.03   -2.25  1.0000
  -1   8  -3    1738      86                                                        2636   14.03   -2.25  1.0000
   1  -8   3    1615      72                                                        2483   14.03    2.25  1.0000
   1  -8   3    1629      73                                                        2501   14.03    2.25  1.0000
  -2   6  -5    1270      56                                                         993   -0.40    5.95  1.0000
  -2   6  -5    1199      63                                                         930   -0.40    5.95  1.0000
  -2   6  -5    1359      67                                                        1072   -0.40    5.95  1.0000
   2  -6   5    1360      52                                                        1073   -0.40   -5.95  1.0000
   2  -6   5    1331      58                                                        1047   -0.40   -5.95  1.0000
  -3   4  -7    3244      74                                                        2326   15.14   -5.72  1.0000
  -3   4  -7    3328      73                                                        2398   15.14   -5.72  1.0000
  -3   4  -7    3202      53                                                        2290   15.14   -5.72  1.0000
  -3   4  -7    3316      76                                                        2387   15.14   -5.72  1.0000
   3  -4   7    4080      72                                                        3047   15.14    5.72  1.0000
   3  -4   7    4074      75                                                        3042   15.14    5.72  1.0000
   3  -4   7    3940      70                                                        2926   15.14    5.72  1.0000
  -4   2  -9     519     107                                                         668   -7.61   -7.26  1.0000
  -4   2  -9     518      72                                                         667   -7.61   -7.26  1.0000
  -4   2  -9     522      62                                                         672   -7.61   -7.26  1.0000
   4  -2   9     507      63                                                         654   -7.61    7.26  1.0000
  -1   7  -5    2440      85                                                        1751   -0.83  -10.84  1.0000
  -1   7  -5    2573      76                                                        1864   -0.83  -10.84  1.0000
  -1   7  -5    2409      68                                                        1725   -0.83  -10.84  1.0000
   1  -7   5    2927      73                                                        2167   -0.83   10.84  1.0000
   1  -7   5    2935      69                                                        2174   -0.83   10.84  1.0000
  -2   5  -7    1232      69                                                         610   14.97    1.90  1.0000
  -2   5  -7    1142      61                                                         547   14.97    1.90  1.0000
  -2   5  -7    1204      65                                                         590   14.97    1.90  1.0000
  -2   5  -7    1052      42                                                         485   14.97    1.90  1.0000
   2  -5   7    1396      62                                                         727   14.97   -1.90  1.0000
   2  -5   7    1279      58                                                         643   14.97   -1.90  1.0000
   2  -5   7    1192      59                                                         582   14.97   -1.90  1.0000
  -3   3  -9    2001      89                                                        2731    7.20   -8.22  1.0000
  -3   3  -9    1993      70                                                        2721    7.20   -8.22  1.0000
   3  -3   9    2168      79                                                        2925    7.20    8.22  1.0000
  -4   1 -11     553      54                                                         481   -0.38   -2.68  1.0000
  -4   1 -11     669      91                                                         589   -0.38   -2.68  1.0000
   4  -1  11     888      68                                                         796   -0.38    2.68  1.0000
   4  -1  11     808      81                                                         720   -0.38    2.68  1.0000
   0   8  -5      14      52                                                          -6   -4.02    3.71  1.0000
   0   8  -5     159      51                                                         103   -4.02    3.71  1.0000
   0   8  -5     138      44                                                          85   -4.02    3.71  1.0000
   0  -8   5     133      41                                                          81   -4.02   -3.71  1.0000
   0  -8   5     167      44                                                         109   -4.02   -3.71  1.0000
  -1   6  -7    2117      82                                                        1825    6.06   -3.69  1.0000
  -1   6  -7    2103      90                                                        1812    6.06   -3.69  1.0000
  -1   6  -7    2059      76                                                        1771    6.06   -3.69  1.0000
   1  -6   7    2434      80                                                        2121    6.06    3.69  1.0000
   1  -6   7    2347      76                                                        2039    6.06    3.69  1.0000
   1  -6   7    2419      72                                                        2107    6.06    3.69  1.0000
  -2   4  -9     506      55                                                         661   -7.77   -7.09  1.0000
  -2   4  -9     449      70                                                         593   -7.77   -7.09  1.0000
   2  -4   9     561      66                                                         725   -7.77    7.09  1.0000
  -3   2 -11     427      47                                                         292   -6.84   -1.02  1.0000
   3  -2  11     769      77                                                         587   -6.84    1.02  1.0000
   3  -2  11     546      46                                                         393   -6.84    1.02  1.0000
   0   7  -7      21      54                                                         -21    6.34    1.75  1.0000
   0   7  -7     116      48                                                          47    6.34    1.75  1.0000
   0  -7   7     127      48                                                          54    6.34   -1.75  1.0000
  -1   5  -9    1434      87                                                        1960    3.39   -8.77  1.0000
  -1   5  -9    1405      67                                                        1927    3.39   -8.77  1.0000
   1  -5   9    1442      80                                                        1970    3.39    8.77  1.0000
  -2   3 -11     464      47                                                         338   -7.05   -0.17  1.0000
  -2   3 -11     576      62                                                         436   -7.05   -0.17  1.0000
   2  -3  11     610      50                                                         466   -7.05    0.17  1.0000
   0   6  -9     164      55                                                         197   -3.21   -5.49  1.0000
   0   6  -9      63      39                                                          76   -3.21   -5.49  1.0000
   0  -6   9      42      51                                                          49   -3.21    5.49  1.0000
  -1   4 -11     683      69                                                         603   -0.17   -2.87  1.0000
  -1   4 -11     721      67                                                         639   -0.17   -2.87  1.0000
   1  -4  11     789      70                                                         703   -0.17    2.87  1.0000
  -9   6   6      82      69                                                         255    2.41    9.69  1.0000
  -9   6   6     103      39                                                         292    2.41    9.69  1.0000
   9  -6  -6      78      65                                                         248    2.41   -9.69  1.0000
   9  -6  -6      61      33                                                         217    2.41   -9.69  1.0000
   9  -6  -6      74      36                                                         241    2.41   -9.69  1.0000
 -10   4   4    1310      75                                                         785   11.10   -4.67  1.0000
 -10   4   4    1288     119                                                         768   11.10   -4.67  1.0000
  10  -4  -4     965      61                                                         523   11.10    4.67  1.0000
  10  -4  -4    1061      66                                                         595   11.10    4.67  1.0000
  -8   7   6      47      54                                                         116    1.11    7.13  1.0000
   8  -7  -6      23      55                                                          73    1.11   -7.13  1.0000
   8  -7  -6      54      27                                                         128    1.11   -7.13  1.0000
  -9   5   4     293      68                                                         416   -3.34    3.73  1.0000
  -9   5   4     236      54                                                         348   -3.34    3.73  1.0000
   9  -5  -4     264      47                                                         382   -3.34   -3.73  1.0000
   9  -5  -4     275      45                                                         395   -3.34   -3.73  1.0000
 -10   3   2      17      44                                                         -85   -1.03    5.84  1.0000
 -10   3   2      17      68                                                         -86   -1.03    5.84  1.0000
 -10   3   2      17      31                                                         -48   -1.03    5.84  1.0000
  10  -3  -2      17      42                                                         -54   -1.03   -5.84  1.0000
  10  -3  -2      64      42                                                          70   -1.03   -5.84  1.0000
  -7   8   6      76      57                                                         160    1.17    7.20  1.0000
   7  -8  -6      22      60                                                          68    1.17   -7.20  1.0000
  -8   6   4    3682      59                                                        2943    7.64   -5.23  1.0000
  -8   6   4    3720     114                                                        2977    7.64   -5.23  1.0000
   8  -6  -4    3076      47                                                        2404    7.64    5.23  1.0000
   8  -6  -4    3150      51                                                        2469    7.64    5.23  1.0000
  -9   4   2      62      38                                                          63    0.08   -0.11  1.0000
  -9   4   2      22      61                                                          23    0.08   -0.11  1.0000
   9  -4  -2     105      36                                                         106    0.08    0.11  1.0000
   9  -4  -2     174      37                                                         175    0.08    0.11  1.0000
 -10   2   0     809     138                                                        1435   13.64   -0.61  1.0000
 -10   2   0     962      74                                                        1637   13.64   -0.61  1.0000
 -10   2   0     993      91                                                        1677   13.64   -0.61  1.0000
  10  -2   0     951      83                                                        1623   13.64    0.61  1.0000
  10  -2   0     959      90                                                        1633   13.64    0.61  1.0000
  -6   9   6      50      61                                                         207    2.67   10.28  1.0000
   6  -9  -6     239      94                                                         520    2.67  -10.28  1.0000
  -7   7   4     843      84                                                        1032   -3.75    2.40  1.0000
   7  -7  -4     634      79                                                         799   -3.75   -2.40  1.0000
  -8   5   2       3      26                                                         -42   -2.11   -1.05  1.0000
  -8   5   2      21      30                                                          38   -2.11   -1.05  1.0000
  -8   5   2       3      48                                                         -10   -2.11   -1.05  1.0000
   8  -5  -2       0      27                                                           5   -2.11    1.05  1.0000
   8  -5  -2       3      28                                                         -12   -2.11    1.05  1.0000
  -9   3   0     221      45                                                         295    3.45   -2.41  1.0000
  -9   3   0      95      35                                                         144    3.45   -2.41  1.0000
  -9   3   0      88      64                                                         135    3.45   -2.41  1.0000
  -9   3   0     150      44                                                         211    3.45   -2.41  1.0000
   9  -3   0     162      42                                                         225    3.45    2.41  1.0000
   9  -3   0     135      42                                                         193    3.45    2.41  1.0000
  -6   8   4    3657     102                                                        2867    7.73   -6.41  1.0000
   6  -8  -4    3327      99                                                        2575    7.73    6.41  1.0000
  -7   6   2       1      20                                                           9   -0.64   -3.19  1.0000
  -7   6   2       5      42                                                         -35   -0.64   -3.19  1.0000
   7  -6  -2      15      21                                                          37   -0.64    3.19  1.0000
  -8   4   0    6026     128                                                       10209   33.73    0.21  1.0000
  -8   4   0    5994     178                                                       10167   33.73    0.21  1.0000
  -8   4   0    6126     123                                                       10338   33.73    0.21  1.0000
   8  -4   0    5632     117                                                        9693   33.73   -0.21  1.0000
   8  -4   0    5639     109                                                        9703   33.73   -0.21  1.0000
  -9   2  -2     422      78                                                         309    5.72   -3.63  1.0000
  -9   2  -2     605      74                                                         471    5.72   -3.63  1.0000
  -9   2  -2     616      50                                                         481    5.72   -3.63  1.0000
  -9   2  -2     496      51                                                         374    5.72   -3.63  1.0000
   9  -2   2     675      65                                                         534    5.72    3.63  1.0000
   9  -2   2     553      50                                                         425    5.72    3.63  1.0000
  -6   7   2       0      38                                                           7   -0.66   -3.20  1.0000
   6  -7  -2       5      38                                                         -20   -0.66    3.20  1.0000
  -7   5   0     634      46                                                         960    8.66   -4.38  1.0000
  -7   5   0     580      43                                                         893    8.66   -4.38  1.0000
  -7   5   0     605      74                                                         925    8.66   -4.38  1.0000
   7  -5   0     618      41                                                         940    8.66    4.38  1.0000
   7  -5   0     592      40                                                         908    8.66    4.38  1.0000
  -8   3  -2       2      34                                                         -16   -1.33    1.40  1.0000
  -8   3  -2      27      39                                                          34   -1.33    1.40  1.0000
  -8   3  -2      14      39                                                          19   -1.33    1.40  1.0000
  -8   3  -2       2      61                                                           3   -1.33    1.40  1.0000
   8  -3   2       2      37                                                         -26   -1.33   -1.40  1.0000
   8  -3   2      11      35                                                          15   -1.33   -1.40  1.0000
  -9   1  -4      10      85                                                        -100    2.25    3.91  1.0000
  -9   1  -4      10      52                                                         -69    2.25    3.91  1.0000
   9  -1   4       4      51                                                          25    2.25   -3.91  1.0000
  -4  10   4    1110      60                                                         624   10.52   -5.87  1.0000
  -4  10   4    1194      59                                                         687   10.52   -5.87  1.0000
   4 -10  -4    1154      50                                                         657   10.52    5.87  1.0000
  -6   6   0   13745     247                                                       21132   40.63   -1.83  1.0000
  -6   6   0   13808     175                                                       21211   40.63   -1.83  1.0000
   6  -6   0   12844     166                                                       20011   40.63    1.83  1.0000
   6  -6   0   12973     157                                                       20173   40.63    1.83  1.0000
   6  -6   0   12838     166                                                       20004   40.63    1.83  1.0000
  -7   4  -2     725      38                                                         456    8.80   -8.39  1.0000
  -7   4  -2     703      52                                                         438    8.80   -8.39  1.0000
  -7   4  -2     674      50                                                         414    8.80   -8.39  1.0000
  -7   4  -2     681      57                                                         420    8.80   -8.39  1.0000
   7  -4   2     741      44                                                         469    8.80    8.39  1.0000
   7  -4   2     688      48                                                         426    8.80    8.39  1.0000
  -8   2  -4    3518      88                                                        2811    7.54    5.02  1.0000
  -8   2  -4    3546      88                                                        2836    7.54    5.02  1.0000
  -8   2  -4    3604      91                                                        2888    7.54    5.02  1.0000
  -8   2  -4    3352     140                                                        2663    7.54    5.02  1.0000
   8  -2   4    3700      85                                                        2974    7.54   -5.02  1.0000
   8  -2   4    3644      84                                                        2924    7.54   -5.02  1.0000
   8  -2   4    3599      84                                                        2884    7.54   -5.02  1.0000
  -4   9   2     125      28                                                         124    1.08   -0.22  1.0000
  -4   9   2      92      27                                                          91    1.08   -0.22  1.0000
   4  -9  -2      93      27                                                          92    1.08    0.22  1.0000
  -6   5  -2      62      34                                                           0    5.33   -9.96  1.0000
  -7   3  -4      80      62                                                           4   14.99    4.90  1.0000
  -7   3  -4      50      38                                                          15   14.99    4.90  1.0000
  -7   3  -4      18      37                                                          46   14.99    4.90  1.0000
  -7   3  -4     120      38                                                         -23   14.99    4.90  1.0000
   7  -3   4     120      35                                                         -20   14.99   -4.90  1.0000
   7  -3   4      17      38                                                          47   14.99   -4.90  1.0000
  -8   1  -6      43      43                                                          98   -0.66   -6.13  1.0000
  -8   1  -6      43      55                                                          98   -0.66   -6.13  1.0000
  -8   1  -6      17      88                                                          53   -0.66   -6.13  1.0000
   8  -1   6      38      49                                                          90   -0.66    6.13  1.0000
  -3  10   2      49      36                                                          66    3.14    5.38  1.0000
  -3  10   2      38      37                                                          50    3.14    5.38  1.0000
   3 -10  -2      14      29                                                           4    3.14   -5.38  1.0000
   3 -10  -2      38      35                                                          50    3.14   -5.38  1.0000
  -4   8   0    6009     107                                                       10205   33.88   -0.07  1.0000
  -4   8   0    6039     107                                                       10245   33.88   -0.07  1.0000
   4  -8   0    5604      96                                                        9676   33.88    0.07  1.0000
   4  -8   0    5615     100                                                        9690   33.88    0.07  1.0000
  -5   6  -2      33      25                                                          29    5.73   -9.25  1.0000
  -6   4  -4   11982     150                                                        9130   16.83   10.87  1.0000
  -6   4  -4   11848     120                                                        9013   16.83   10.87  1.0000
  -6   4  -4   12116     117                                                        9247   16.83   10.87  1.0000
   6  -4   4   12775     118                                                        9824   16.83  -10.87  1.0000
   6  -4   4   12905     111                                                        9938   16.83  -10.87  1.0000
  -7   2  -6     731     124                                                         844    0.60   -3.51  1.0000
  -7   2  -6     666      77                                                         773    0.60   -3.51  1.0000
  -7   2  -6     731      76                                                         844    0.60   -3.51  1.0000
  -7   2  -6     677      55                                                         785    0.60   -3.51  1.0000
  -7   2  -6     663      68                                                         770    0.60   -3.51  1.0000
   7  -2   6     733      69                                                         846    0.60    3.51  1.0000
   7  -2   6     780      71                                                         896    0.60    3.51  1.0000
  -3   9   0     161      36                                                         209    2.63   -0.30  1.0000
  -3   9   0     171      34                                                         221    2.63   -0.30  1.0000
   3  -9   0     110      30                                                         151    2.63    0.30  1.0000
   3  -9   0     118      31                                                         160    2.63    0.30  1.0000
  -4   7  -2     687      42                                                         438    9.90   -8.57  1.0000
   4  -7   2     640      37                                                         399    9.90    8.57  1.0000
   4  -7   2     596      36                                                         362    9.90    8.57  1.0000
  -5   5  -4     309      30                                                         -31   24.42    6.69  1.0000
  -5   5  -4     309      29                                                         -10   24.42    6.69  1.0000
  -5   5  -4     148      25                                                          30   24.42    6.69  1.0000
   5  -5   4     309      28                                                         -19   24.42   -6.69  1.0000
   5  -5   4     176      28                                                          19   24.42   -6.69  1.0000
  -6   3  -6       7      42                                                          45    2.32   -6.52  1.0000
  -6   3  -6      23      40                                                          -1    2.32   -6.52  1.0000
  -6   3  -6      42      43                                                         116    2.32   -6.52  1.0000
  -6   3  -6      23      60                                                         -32    2.32   -6.52  1.0000
  -6   3  -6      11      25                                                          56    2.32   -6.52  1.0000
   6  -3   6      23      39                                                          82    2.32    6.52  1.0000
   6  -3   6      23      35                                                         -34    2.32    6.52  1.0000
   6  -3   6       8      39                                                           5    2.32    6.52  1.0000
  -7   1  -8      61      55                                                          72   -4.78   -0.35  1.0000
  -7   1  -8      11      87                                                         -83   -4.78   -0.35  1.0000
  -7   1  -8      11      42                                                         -87   -4.78   -0.35  1.0000
   7  -1   8      11      46                                                         -23   -4.78    0.35  1.0000
  -2  10   0     901      84                                                        1538   13.25    0.19  1.0000
  -2  10   0     976      81                                                        1635   13.25    0.19  1.0000
   2 -10   0     669      62                                                        1230   13.25   -0.19  1.0000
   2 -10   0     692      64                                                        1261   13.25   -0.19  1.0000
  -3   8  -2       4      31                                                          16   -2.55    1.45  1.0000
  -3   8  -2      10      32                                                          27   -2.55    1.45  1.0000
   3  -8   2       4      28                                                          -6   -2.55   -1.45  1.0000
   3  -8   2       4      28                                                         -42   -2.55   -1.45  1.0000
  -4   6  -4   12129      95                                                        9232   16.74   11.35  1.0000
  -4   6  -4   11931     110                                                        9059   16.74   11.35  1.0000
   4  -6   4   13080     107                                                       10064   16.74  -11.35  1.0000
   4  -6   4   13036     116                                                       10025   16.74  -11.35  1.0000
  -5   4  -6     239      57                                                         388   -0.40   -7.88  1.0000
  -5   4  -6     345      65                                                         523   -0.40   -7.88  1.0000
  -5   4  -6     349      57                                                         528   -0.40   -7.88  1.0000
   5  -4   6     296      54                                                         461   -0.40    7.88  1.0000
   5  -4   6     306      53                                                         474   -0.40    7.88  1.0000
  -6   2  -8    3536     142                                                        2623   -5.74  -10.61  1.0000
  -6   2  -8    3508      93                                                        2599   -5.74  -10.61  1.0000
  -6   2  -8    3597      77                                                        2676   -5.74  -10.61  1.0000
   6  -2   8    3935      85                                                        2969   -5.74   10.61  1.0000
  -2   9  -2     465      44                                                         331    4.96   -4.31  1.0000
  -2   9  -2     507      47                                                         367    4.96   -4.31  1.0000
   2  -9   2     552      56                                                         406    4.96    4.31  1.0000
   2  -9   2     567      42                                                         419    4.96    4.31  1.0000
  -3   7  -4      19      36                                                          40   14.81    4.25  1.0000
  -3   7  -4      47      28                                                          15   14.81    4.25  1.0000
  -3   7  -4      94      38                                                           1   14.81    4.25  1.0000
   3  -7   4      68      30                                                           6   14.81   -4.25  1.0000
   3  -7   4      43      33                                                          17   14.81   -4.25  1.0000
  -4   5  -6     255      54                                                         409   -0.60   -7.84  1.0000
  -4   5  -6     279      61                                                         439   -0.60   -7.84  1.0000
  -4   5  -6     344      59                                                         521   -0.60   -7.84  1.0000
   4  -5   6     300      50                                                         466   -0.60    7.84  1.0000
   4  -5   6     317      53                                                         488   -0.60    7.84  1.0000
  -5   3  -8      18      40                                                           1   -4.76    1.03  1.0000
  -5   3  -8     195      46                                                         121   -4.76    1.03  1.0000
  -5   3  -8      11      41                                                         -25   -4.76    1.03  1.0000
  -5   3  -8      11      33                                                          -3   -4.76    1.03  1.0000
   5  -3   8      11      40                                                         -39   -4.76   -1.03  1.0000
   5  -3   8      11      39                                                         -34   -4.76   -1.03  1.0000
  -6   1 -10      16      91                                                        -151    4.76   -3.18  1.0000
  -6   1 -10      47      49                                                          58    4.76   -3.18  1.0000
   6  -1  10      16      43                                                         -56    4.76    3.18  1.0000
  -2   8  -4    3407      81                                                        2731    7.27    4.97  1.0000
  -2   8  -4    3376      85                                                        2703    7.27    4.97  1.0000
  -2   8  -4    3366      65                                                        2694    7.27    4.97  1.0000
   2  -8   4    3660      73                                                        2958    7.27   -4.97  1.0000
   2  -8   4    3679      77                                                        2975    7.27   -4.97  1.0000
  -3   6  -6       4      37                                                          34    2.15   -6.06  1.0000
  -3   6  -6       2      36                                                          21    2.15   -6.06  1.0000
  -3   6  -6      10      42                                                          53    2.15   -6.06  1.0000
   3  -6   6       6      37                                                          40    2.15    6.06  1.0000
   3  -6   6      20      35                                                         -10    2.15    6.06  1.0000
  -4   4  -8    5995      96                                                        4392   -3.11  -15.90  1.0000
  -4   4  -8    5946      97                                                        4350   -3.11  -15.90  1.0000
  -4   4  -8    5956      72                                                        4359   -3.11  -15.90  1.0000
  -4   4  -8    6178     104                                                        4549   -3.11  -15.90  1.0000
   4  -4   8    7241      93                                                        5467   -3.11   15.90  1.0000
   4  -4   8    7146      95                                                        5385   -3.11   15.90  1.0000
  -5   2 -10     395      51                                                         378    0.15   -7.38  1.0000
  -5   2 -10     339      59                                                         322    0.15   -7.38  1.0000
   5  -2  10     590      71                                                         576    0.15    7.38  1.0000
  -1   9  -4      11      50                                                          31    2.05    2.95  1.0000
  -1   9  -4       6      36                                                         -70    2.05    2.95  1.0000
  -1   9  -4       6      47                                                          -1    2.05    2.95  1.0000
   1  -9   4       3      40                                                           1    2.05   -2.95  1.0000
   1  -9   4       6      41                                                          -7    2.05   -2.95  1.0000
  -2   7  -6     751      76                                                         845    0.24   -3.16  1.0000
  -2   7  -6     743      62                                                         836    0.24   -3.16  1.0000
  -2   7  -6     782      71                                                         878    0.24   -3.16  1.0000
   2  -7   6     816      64                                                         914    0.24    3.16  1.0000
   2  -7   6     823      62                                                         921    0.24    3.16  1.0000
  -3   5  -8      10      42                                                         -70   -4.32    1.60  1.0000
  -3   5  -8      81      27                                                          42   -4.32    1.60  1.0000
  -3   5  -8      10      44                                                         -28   -4.32    1.60  1.0000
  -3   5  -8      10      42                                                         -59   -4.32    1.60  1.0000
   3  -5   8      61      38                                                          28   -4.32   -1.60  1.0000
   3  -5   8      92      38                                                          51   -4.32   -1.60  1.0000
   3  -5   8      10      39                                                          -2   -4.32   -1.60  1.0000
  -4   3 -10     258      50                                                         164    3.82   -2.99  1.0000
  -4   3 -10     148      41                                                          79    3.82   -2.99  1.0000
   4  -3  10     162      46                                                          89    3.82    2.99  1.0000
  -1   8  -6       8      53                                                          35   -1.52   -5.77  1.0000
  -1   8  -6      27      44                                                          73   -1.52   -5.77  1.0000
  -1   8  -6      44      53                                                         101   -1.52   -5.77  1.0000
   1  -8   6      30      41                                                          78   -1.52    5.77  1.0000
   1  -8   6      33      44                                                          84   -1.52    5.77  1.0000
  -2   6  -8    3659      94                                                        2718   -5.74  -10.78  1.0000
  -2   6  -8    3598      85                                                        2665   -5.74  -10.78  1.0000
  -2   6  -8    3601      92                                                        2668   -5.74  -10.78  1.0000
   2  -6   8    4215      91                                                        3200   -5.74   10.78  1.0000
   2  -6   8    4207      85                                                        3193   -5.74   10.78  1.0000
   2  -6   8    4337      87                                                        3306   -5.74   10.78  1.0000
  -3   4 -10     235      50                                                         148    3.80   -2.76  1.0000
  -3   4 -10     111      38                                                          54    3.80   -2.76  1.0000
   3  -4  10     135      41                                                          71    3.80    2.76  1.0000
  -4   2 -12    1213      87                                                        1556    1.90   -6.37  1.0000
   4  -2  12    1064      80                                                        1387    1.90    6.37  1.0000
  -1   7  -8       6      59                                                         -20   -3.52   -0.88  1.0000
  -1   7  -8       6      48                                                          -5   -3.52   -0.88  1.0000
   1  -7   8       6      48                                                         -36   -3.52    0.88  1.0000
  -2   5 -10     368      40                                                         355   -0.03   -7.13  1.0000
  -2   5 -10     359      54                                                         346   -0.03   -7.13  1.0000
   2  -5  10     472      54                                                         460   -0.03    7.13  1.0000
  -3   3 -12      83      49                                                         264   -4.78   -9.10  1.0000
   3  -3  12      36      46                                                         172   -4.78    9.10  1.0000
  -1   6 -10      16      36                                                         -22    5.48   -1.94  1.0000
  -1   6 -10      43      55                                                          61    5.48   -1.94  1.0000
   1  -6  10      37      50                                                          53    5.48    1.94  1.0000
  -2   4 -12    1026      96                                                        1343    1.66   -6.44  1.0000
  -2   4 -12    1126      78                                                        1457    1.66   -6.44  1.0000
   2  -4  12    1066      84                                                        1389    1.66    6.44  1.0000
  -9   7   5      68      29                                                          50   -4.77    2.63  1.0000
  -9   7   5      97      58                                                          78   -4.77    2.63  1.0000
   9  -7  -5      14      29                                                          -8   -4.77   -2.63  1.0000
   9  -7  -5      39      54                                                          22   -4.77   -2.63  1.0000
 -10   5   3     672     116                                                        1257   13.02    4.43  1.0000
 -10   5   3     747      71                                                        1359   13.02    4.43  1.0000
  10  -5  -3     548      63                                                        1086   13.02   -4.43  1.0000
  10  -5  -3     590      62                                                        1144   13.02   -4.43  1.0000
  -8   8   5     102      53                                                          73   -3.66   -2.11  1.0000
   8  -8  -5     103      54                                                          74   -3.66    2.11  1.0000
  -9   6   3     975      58                                                        1287    6.55    1.69  1.0000
  -9   6   3    1137     105                                                        1472    6.55    1.69  1.0000
  -9   6   3    1053      59                                                        1376    6.55    1.69  1.0000
   9  -6  -3     755      51                                                        1032    6.55   -1.69  1.0000
   9  -6  -3     767      48                                                        1046    6.55   -1.69  1.0000
 -10   4   1      33      66                                                         -16   -5.43    6.26  1.0000
 -10   4   1      33      43                                                         -69   -5.43    6.26  1.0000
  10  -4  -1       5      41                                                          41   -5.43   -6.26  1.0000
  10  -4  -1      33      40                                                         -13   -5.43   -6.26  1.0000
   7  -9  -5      91      59                                                          77   -5.14   -2.55  1.0000
  -8   7   3    1790     104                                                        2652   13.39    2.07  1.0000
   8  -7  -3    1496      46                                                        2292   13.39   -2.07  1.0000
  -9   5   1     719      55                                                         352    9.30   -7.79  1.0000
  -9   5   1     827      49                                                         429    9.30   -7.79  1.0000
  -9   5   1     749      64                                                         373    9.30   -7.79  1.0000
   9  -5  -1     934      50                                                         507    9.30    7.79  1.0000
   9  -5  -1     755      52                                                         377    9.30    7.79  1.0000
 -10   3  -1     717      88                                                         589    4.37    1.14  1.0000
 -10   3  -1     845      81                                                         706    4.37    1.14  1.0000
 -10   3  -1     869      81                                                         728    4.37    1.14  1.0000
 -10   3  -1     744      64                                                         613    4.37    1.14  1.0000
  10  -3   1     700      74                                                         573    4.37   -1.14  1.0000
  10  -3   1     789      69                                                         654    4.37   -1.14  1.0000
  -7   8   3    1744      98                                                        2623   13.77    2.09  1.0000
   7  -8  -3    1556      94                                                        2391   13.77   -2.09  1.0000
  -8   6   1     345      41                                                         343    2.28    2.12  1.0000
  -8   6   1     260      51                                                         258    2.28    2.12  1.0000
  -8   6   1     289      41                                                         287    2.28    2.12  1.0000
   8  -6  -1     268      30                                                         266    2.28   -2.12  1.0000
   8  -6  -1     299      39                                                         297    2.28   -2.12  1.0000
  -9   4  -1     668      46                                                         319    7.17    9.00  1.0000
  -9   4  -1     704      66                                                         344    7.17    9.00  1.0000
  -9   4  -1     899      44                                                         484    7.17    9.00  1.0000
  -9   4  -1     771      44                                                         391    7.17    9.00  1.0000
   9  -4   1     943      54                                                         516    7.17   -9.00  1.0000
   9  -4   1     765      44                                                         387    7.17   -9.00  1.0000
  -7   7   1    1254      67                                                         565   12.50  -12.03  1.0000
  -8   5  -1    3036      66                                                        2070   10.56    9.31  1.0000
  -8   5  -1    3225      98                                                        2227   10.56    9.31  1.0000
  -8   5  -1    3159      61                                                        2172   10.56    9.31  1.0000
   8  -5   1    3086      58                                                        2111   10.56   -9.31  1.0000
   8  -5   1    3076      61                                                        2103   10.56   -9.31  1.0000
  -9   3  -3    1011      81                                                        1330    6.77   -1.24  1.0000
  -9   3  -3    1017      69                                                        1337    6.77   -1.24  1.0000
  -9   3  -3     949      78                                                        1258    6.77   -1.24  1.0000
  -9   3  -3     847     120                                                        1141    6.77   -1.24  1.0000
   9  -3   3     963      70                                                        1275    6.77    1.24  1.0000
   9  -3   3     919      71                                                        1224    6.77    1.24  1.0000
  -7   6  -1    3157      54                                                        1954   13.08   11.80  1.0000
  -7   6  -1    3162      80                                                        1958   13.08   11.80  1.0000
  -7   6  -1    3195      56                                                        1984   13.08   11.80  1.0000
   7  -6   1    3221      49                                                        2005   13.08  -11.80  1.0000
   7  -6   1    3149      50                                                        1948   13.08  -11.80  1.0000
  -8   4  -3     363      53                                                         590   -7.69   -0.01  1.0000
  -8   4  -3     362      63                                                         589   -7.69   -0.01  1.0000
  -8   4  -3     340      95                                                         560   -7.69   -0.01  1.0000
  -8   4  -3     391      60                                                         625   -7.69   -0.01  1.0000
   8  -4   3     351      55                                                         575   -7.69    0.01  1.0000
   8  -4   3     406      59                                                         645   -7.69    0.01  1.0000
  -9   2  -5      27      51                                                          13   -5.02   -2.30  1.0000
  -9   2  -5      15      83                                                         -97   -5.02   -2.30  1.0000
   9  -2   5      15      50                                                          -9   -5.02    2.30  1.0000
  -5   9   1     775      40                                                         408    9.21   -7.14  1.0000
   5  -9  -1     736      36                                                         380    9.21    7.14  1.0000
  -6   7  -1    3261      47                                                        1994   14.16   11.92  1.0000
  -6   7  -1    3276      50                                                        2006   14.16   11.92  1.0000
   6  -7   1    3283      45                                                        2011   14.16  -11.92  1.0000
   6  -7   1    3277      45                                                        2007   14.16  -11.92  1.0000
  -7   5  -3    1896      72                                                        2730   13.32   -0.43  1.0000
  -7   5  -3    1857      93                                                        2683   13.32   -0.43  1.0000
  -7   5  -3    1844      70                                                        2667   13.32   -0.43  1.0000
   7  -5   3    1785      62                                                        2596   13.32    0.43  1.0000
   7  -5   3    1752      65                                                        2556   13.32    0.43  1.0000
  -8   3  -5    1868      76                                                        1393   -1.08   -8.44  1.0000
  -8   3  -5    1800     125                                                        1335   -1.08   -8.44  1.0000
  -8   3  -5    1874      77                                                        1398   -1.08   -8.44  1.0000
  -8   3  -5    1842      83                                                        1371   -1.08   -8.44  1.0000
   8  -3   5    1951      72                                                        1465   -1.08    8.44  1.0000
   8  -3   5    2022      73                                                        1527   -1.08    8.44  1.0000
  -4  10   1      10      33                                                          16   -3.53    8.60  1.0000
  -4  10   1      42      32                                                         -16   -3.53    8.60  1.0000
   4 -10  -1       7      30                                                          43   -3.53   -8.60  1.0000
   4 -10  -1      42      26                                                          -7   -3.53   -8.60  1.0000
  -5   8  -1    2895      50                                                        1987   10.89    8.39  1.0000
  -5   8  -1    2941      50                                                        2025   10.89    8.39  1.0000
   5  -8   1    3035      47                                                        2103   10.89   -8.39  1.0000
   5  -8   1    2971      49                                                        2050   10.89   -8.39  1.0000
  -6   6  -3    1298      55                                                        1768   -9.23   -2.42  1.0000
   6  -6   3    1393      53                                                        1879   -9.23    2.42  1.0000
   6  -6   3    1323      53                                                        1797   -9.23    2.42  1.0000
  -7   4  -5     743      62                                                         531   -4.60   -6.02  1.0000
  -7   4  -5     866      67                                                         636   -4.60   -6.02  1.0000
  -7   4  -5     713      58                                                         505   -4.60   -6.02  1.0000
  -7   4  -5     750      67                                                         537   -4.60   -6.02  1.0000
   7  -4   5     744      54                                                         532   -4.60    6.02  1.0000
   7  -4   5     724      57                                                         515   -4.60    6.02  1.0000
  -8   2  -7     113      39                                                         125    2.57   -3.21  1.0000
  -8   2  -7     113      55                                                         125    2.57   -3.21  1.0000
  -8   2  -7       8      82                                                         -85    2.57   -3.21  1.0000
   8  -2   7     169      50                                                         185    2.57    3.21  1.0000
  -4   9  -1     816      50                                                         421    7.15    9.11  1.0000
  -4   9  -1     726      48                                                         357    7.15    9.11  1.0000
   4  -9   1     704      42                                                         342    7.15   -9.11  1.0000
   4  -9   1     782      43                                                         397    7.15   -9.11  1.0000
  -5   7  -3    1814      62                                                        2616   13.29    0.11  1.0000
  -5   7  -3    1821      65                                                        2624   13.29    0.11  1.0000
   5  -7   3    1926      58                                                        2751   13.29   -0.11  1.0000
   5  -7   3    1856      61                                                        2667   13.29   -0.11  1.0000
  -6   5  -5    2361      68                                                        1816   -3.41   -8.52  1.0000
  -6   5  -5    2232      57                                                        1703   -3.41   -8.52  1.0000
  -6   5  -5    2336      72                                                        1794   -3.41   -8.52  1.0000
   6  -5   5    2763      67                                                        2171   -3.41    8.52  1.0000
   6  -5   5    2760      64                                                        2168   -3.41    8.52  1.0000
  -7   3  -7    1356      78                                                        1439   -1.06   -2.26  1.0000
  -7   3  -7    1319      81                                                        1401   -1.06   -2.26  1.0000
  -7   3  -7    1072     121                                                        1146   -1.06   -2.26  1.0000
  -7   3  -7    1178      78                                                        1256   -1.06   -2.26  1.0000
   7  -3   7    1564      76                                                        1654   -1.06    2.26  1.0000
   7  -3   7    1411      75                                                        1496   -1.06    2.26  1.0000
  -3  10  -1     676      63                                                         570    2.94    1.54  1.0000
  -3  10  -1     664      68                                                         559    2.94    1.54  1.0000
   3 -10   1     692      53                                                         585    2.94   -1.54  1.0000
   3 -10   1     781      57                                                         667    2.94   -1.54  1.0000
  -4   8  -3     299      52                                                         524   -8.17    0.42  1.0000
  -4   8  -3     353      53                                                         595   -8.17    0.42  1.0000
   4  -8   3     267      46                                                         482   -8.17   -0.42  1.0000
   4  -8   3     359      48                                                         603   -8.17   -0.42  1.0000
  -5   6  -5    2361      70                                                        1798   -2.99   -8.81  1.0000
  -5   6  -5    2472      56                                                        1895   -2.99   -8.81  1.0000
  -5   6  -5    2415      68                                                        1845   -2.99   -8.81  1.0000
   5  -6   5    2792      60                                                        2177   -2.99    8.81  1.0000
   5  -6   5    2643      65                                                        2045   -2.99    8.81  1.0000
  -6   4  -7     242      50                                                         230    2.97   -5.90  1.0000
  -6   4  -7     312      48                                                         302    2.97   -5.90  1.0000
  -6   4  -7     348      47                                                         338    2.97   -5.90  1.0000
   6  -4   7     378      46                                                         369    2.97    5.90  1.0000
   6  -4   7     303      44                                                         293    2.97    5.90  1.0000
   6  -4   7     364      45                                                         355    2.97    5.90  1.0000
  -7   2  -9     410      68                                                         834    3.31  -11.97  1.0000
  -7   2  -9     339      96                                                         731    3.31  -11.97  1.0000
  -7   2  -9     212      99                                                         538    3.31  -11.97  1.0000
   7  -2   9     301      81                                                         675    3.31   11.97  1.0000
  -3   9  -3     837      66                                                        1121    6.26   -2.02  1.0000
  -3   9  -3     918      69                                                        1214    6.26   -2.02  1.0000
   3  -9   3     907      57                                                        1202    6.26    2.02  1.0000
   3  -9   3     875      59                                                        1165    6.26    2.02  1.0000
  -4   7  -5     699      58                                                         489   -5.01   -6.22  1.0000
  -4   7  -5     729      64                                                         514   -5.01   -6.22  1.0000
  -4   7  -5     652      45                                                         449   -5.01   -6.22  1.0000
   4  -7   5     846      52                                                         614   -5.01    6.22  1.0000
   4  -7   5     809      56                                                         583   -5.01    6.22  1.0000
  -5   5  -7    1885      74                                                        2036   -1.24   -4.71  1.0000
  -5   5  -7    1968      78                                                        2123   -1.24   -4.71  1.0000
  -5   5  -7    1815      84                                                        1963   -1.24   -4.71  1.0000
   5  -5   7    2189      76                                                        2352   -1.24    4.71  1.0000
   5  -5   7    2262      71                                                        2428   -1.24    4.71  1.0000
  -6   3  -9    1341      71                                                        1994    2.18  -12.12  1.0000
  -6   3  -9    1426      94                                                        2098    2.18  -12.12  1.0000
   6  -3   9    1193      83                                                        1813    2.18   12.12  1.0000
  -3   8  -5    1788      57                                                        1318   -1.15   -8.56  1.0000
  -3   8  -5    1725      76                                                        1264   -1.15   -8.56  1.0000
  -3   8  -5    1856      74                                                        1376   -1.15   -8.56  1.0000
   3  -8   5    1981      62                                                        1484   -1.15    8.56  1.0000
   3  -8   5    1983      67                                                        1486   -1.15    8.56  1.0000
  -4   6  -7     257      47                                                         244    3.02   -6.21  1.0000
  -4   6  -7     280      42                                                         267    3.02   -6.21  1.0000
  -4   6  -7     256      48                                                         243    3.02   -6.21  1.0000
   4  -6   7     319      42                                                         307    3.02    6.21  1.0000
   4  -6   7     259      43                                                         246    3.02    6.21  1.0000
  -5   4  -9    1283      63                                                        2340    5.99  -17.24  1.0000
  -5   4  -9    1338      88                                                        2414    5.99  -17.24  1.0000
   5  -4   9     908      81                                                        1822    5.99   17.24  1.0000
  -2   9  -5      49      49                                                          37   -5.18   -2.17  1.0000
  -2   9  -5      15      50                                                         -17   -5.18   -2.17  1.0000
  -2   9  -5      15      35                                                         -21   -5.18   -2.17  1.0000
   2  -9   5      15      38                                                         -61   -5.18    2.17  1.0000
   2  -9   5      15      41                                                         -58   -5.18    2.17  1.0000
  -3   7  -7    1412      85                                                        1519   -1.55   -2.02  1.0000
  -3   7  -7    1394      77                                                        1500   -1.55   -2.02  1.0000
  -3   7  -7    1172      72                                                        1270   -1.55   -2.02  1.0000
   3  -7   7    1553      74                                                        1665   -1.55    2.02  1.0000
   3  -7   7    1408      70                                                        1515   -1.55    2.02  1.0000
  -4   5  -9    1403      92                                                        2465    5.56  -16.89  1.0000
  -4   5  -9    1464      99                                                        2545    5.56  -16.89  1.0000
  -4   5  -9    1443      89                                                        2518    5.56  -16.89  1.0000
   4  -5   9    1133      84                                                        2101    5.56   16.89  1.0000
   4  -5   9    1176      80                                                        2160    5.56   16.89  1.0000
  -5   3 -11     631      53                                                         529   -0.14   -3.95  1.0000
  -5   3 -11     662      64                                                         558   -0.14   -3.95  1.0000
   5  -3  11     856      78                                                         737   -0.14    3.95  1.0000
  -2   8  -7      72      41                                                          66    1.73   -4.26  1.0000
  -2   8  -7     126      53                                                         122    1.73   -4.26  1.0000
  -2   8  -7      10      53                                                         -49    1.73   -4.26  1.0000
   2  -8   7     100      46                                                          95    1.73    4.26  1.0000
   2  -8   7      59      45                                                          53    1.73    4.26  1.0000
  -3   6  -9    1501      89                                                        2160    2.06  -11.65  1.0000
  -3   6  -9    1414      92                                                        2056    2.06  -11.65  1.0000
  -3   6  -9    1431      96                                                        2076    2.06  -11.65  1.0000
   3  -6   9    1225      84                                                        1826    2.06   11.65  1.0000
   3  -6   9    1292      79                                                        1907    2.06   11.65  1.0000
  -4   4 -11      10      42                                                         -16   -1.03    4.39  1.0000
  -4   4 -11      10      51                                                         -32   -1.03    4.39  1.0000
   4  -4  11      24      49                                                           3   -1.03   -4.39  1.0000
  -2   7  -9     378      78                                                         781    3.85  -11.64  1.0000
   2  -7   9     302      86                                                         670    3.85   11.64  1.0000
  -3   5 -11     675      65                                                         563   -0.34   -4.05  1.0000
  -3   5 -11     526      45                                                         427   -0.34   -4.05  1.0000
   3  -5  11     771      78                                                         651   -0.34    4.05  1.0000
  -9   8   4       9      54                                                          28    2.15   -2.99  1.0000
   9  -8  -4       7      51                                                         -64    2.15    2.99  1.0000
 -10   6   2    1478      68                                                        1067    4.64    7.51  1.0000
 -10   6   2    1401      60                                                        1001    4.64    7.51  1.0000
 -10   6   2    1536     108                                                        1116    4.64    7.51  1.0000
  10  -6  -2    1286      56                                                         904    4.64   -7.51  1.0000
  10  -6  -2    1284      54                                                         903    4.64   -7.51  1.0000
  -9   7   2     463      46                                                         325    5.02    4.48  1.0000
  -9   7   2     554      45                                                         403    5.02    4.48  1.0000
  -9   7   2     564      62                                                         411    5.02    4.48  1.0000
   9  -7  -2     521      38                                                         374    5.02   -4.48  1.0000
   9  -7  -2     545      42                                                         395    5.02   -4.48  1.0000
 -10   5   0       2      39                                                           9   -5.72    1.77  1.0000
 -10   5   0       5      62                                                           4   -5.72    1.77  1.0000
 -10   5   0       6      43                                                          39   -5.72    1.77  1.0000
  10  -5   0      24      39                                                          76   -5.72   -1.77  1.0000
  10  -5   0       5      38                                                          36   -5.72   -1.77  1.0000
  -9   6   0     106      58                                                         168    3.74    3.29  1.0000
  -9   6   0     162      37                                                         239    3.74    3.29  1.0000
  -9   6   0     129      35                                                         198    3.74    3.29  1.0000
   9  -6   0     141      33                                                         213    3.74   -3.29  1.0000
   9  -6   0     189      34                                                         272    3.74   -3.29  1.0000
 -10   4  -2    1455      61                                                        1019    4.32   -8.21  1.0000
 -10   4  -2    1614      78                                                        1153    4.32   -8.21  1.0000
 -10   4  -2    1358      84                                                         938    4.32   -8.21  1.0000
 -10   4  -2    1462     121                                                        1025    4.32   -8.21  1.0000
  10  -4   2    1401      71                                                         974    4.32    8.21  1.0000
  10  -4   2    1368      71                                                         946    4.32    8.21  1.0000
  -8   7   0       6      29                                                         -27    2.62    2.22  1.0000
  -8   7   0      19      28                                                          38    2.62    2.22  1.0000
   8  -7   0      30      25                                                          54    2.62   -2.22  1.0000
   8  -7   0      12      25                                                          27    2.62   -2.22  1.0000
  -9   5  -2      93      40                                                         105   -1.98    0.23  1.0000
  -9   5  -2      31      58                                                          38   -1.98    0.23  1.0000
  -9   5  -2     158      43                                                         174   -1.98    0.23  1.0000
   9  -5   2     141      38                                                         156   -1.98   -0.23  1.0000
   9  -5   2      37      37                                                          44   -1.98   -0.23  1.0000
  -7   8   0      32      26                                                          65    3.43    2.08  1.0000
   7  -8   0      42      24                                                          79    3.43   -2.08  1.0000
  -8   6  -2    4233      73                                                        3175    6.90  -11.19  1.0000
  -8   6  -2    4377     102                                                        3300    6.90  -11.19  1.0000
  -8   6  -2    4130      75                                                        3086    6.90  -11.19  1.0000
   8  -6   2    4192      68                                                        3140    6.90   11.19  1.0000
   8  -6   2    4159      63                                                        3111    6.90   11.19  1.0000
  -9   4  -4     134      72                                                         208   -2.57   -3.81  1.0000
  -9   4  -4     372      63                                                         491   -2.57   -3.81  1.0000
  -9   4  -4     245      53                                                         342   -2.57   -3.81  1.0000
  -9   4  -4     296      50                                                         402   -2.57   -3.81  1.0000
   9  -4   4     336      47                                                         449   -2.57    3.81  1.0000
   9  -4   4     298      49                                                         405   -2.57    3.81  1.0000
  -6   9   0     158      28                                                         230    3.58    3.48  1.0000
   6  -9   0     125      25                                                         189    3.58   -3.48  1.0000
  -7   7  -2     217      34                                                         276   -0.82    2.60  1.0000
  -7   7  -2     161      34                                                         212   -0.82    2.60  1.0000
   7  -7   2     146      30                                                         195   -0.82   -2.60  1.0000
   7  -7   2     193      29                                                         249   -0.82   -2.60  1.0000
  -8   5  -4      41      39                                                          68   -2.67   -1.39  1.0000
  -8   5  -4       4      54                                                         -68   -2.67   -1.39  1.0000
  -8   5  -4      12      31                                                          28   -2.67   -1.39  1.0000
  -8   5  -4       4      40                                                          14   -2.67   -1.39  1.0000
   8  -5   4       4      34                                                         -12   -2.67    1.39  1.0000
   8  -5   4       4      36                                                          -4   -2.67    1.39  1.0000
  -9   3  -6       2      85                                                          71    2.87   -9.95  1.0000
  -9   3  -6      82      56                                                         262    2.87   -9.95  1.0000
   9  -3   6      61      54                                                         223    2.87    9.95  1.0000
  -5  10   0      20      31                                                         -23   -6.37    1.01  1.0000
  -5  10   0       2      31                                                          33   -6.37    1.01  1.0000
   5 -10   0       5      28                                                          43   -6.37   -1.01  1.0000
  -6   8  -2    4104      65                                                        3060    6.92  -11.24  1.0000
  -6   8  -2    4116      65                                                        3070    6.92  -11.24  1.0000
   6  -8   2    4584      61                                                        3476    6.92   11.24  1.0000
   6  -8   2    4450      63                                                        3360    6.92   11.24  1.0000
  -7   6  -4     114      41                                                         229   -4.98   -4.57  1.0000
  -7   6  -4     108      40                                                         221   -4.98   -4.57  1.0000
   7  -6   4     159      37                                                         292   -4.98    4.57  1.0000
   7  -6   4     119      36                                                         236   -4.98    4.57  1.0000
  -8   4  -6    2664     107                                                        4297   14.12  -14.46  1.0000
  -8   4  -6    2771      99                                                        4433   14.12  -14.46  1.0000
  -8   4  -6    2803     106                                                        4474   14.12  -14.46  1.0000
  -8   4  -6    2706     145                                                        4351   14.12  -14.46  1.0000
   8  -4   6    2562      94                                                        4168   14.12   14.46  1.0000
   8  -4   6    2586      92                                                        4198   14.12   14.46  1.0000
  -5   9  -2      73      33                                                          79   -0.58    0.31  1.0000
  -5   9  -2      89      32                                                          95   -0.58    0.31  1.0000
   5  -9   2     106      31                                                         113   -0.58   -0.31  1.0000
   5  -9   2      86      28                                                          92   -0.58   -0.31  1.0000
  -6   7  -4     110      38                                                         228   -4.94   -5.40  1.0000
  -6   7  -4      64      35                                                         159   -4.94   -5.40  1.0000
   6  -7   4     105      34                                                         222   -4.94    5.40  1.0000
   6  -7   4     219      49                                                         379   -4.94    5.40  1.0000
  -7   5  -6     373      64                                                        1080    5.01  -18.95  1.0000
  -7   5  -6     388      73                                                        1104    5.01  -18.95  1.0000
  -7   5  -6     491      77                                                        1275    5.01  -18.95  1.0000
   7  -5   6     322      64                                                         991    5.01   18.95  1.0000
   7  -5   6     281      63                                                         918    5.01   18.95  1.0000
  -8   3  -8      21      54                                                          26   -0.94   -2.45  1.0000
  -8   3  -8       3      79                                                        -245   -0.94   -2.45  1.0000
   8  -3   8       3      49                                                         -85   -0.94    2.45  1.0000
  -4  10  -2    1247      60                                                         851    3.54   -8.24  1.0000
  -4  10  -2    1329      66                                                         919    3.54   -8.24  1.0000
   4 -10   2    1185      54                                                         800    3.54    8.24  1.0000
   4 -10   2    1357      54                                                         943    3.54    8.24  1.0000
  -5   8  -4      45      37                                                          82   -3.27   -1.46  1.0000
  -5   8  -4      20      35                                                          46   -3.27   -1.46  1.0000
   5  -8   4      28      33                                                          59   -3.27    1.46  1.0000
   5  -8   4       6      30                                                         -19   -3.27    1.46  1.0000
  -6   6  -6    5291     130                                                        8474   19.33  -20.36  1.0000
  -6   6  -6    5283     109                                                        8464   19.33  -20.36  1.0000
  -6   6  -6    5259     124                                                        8433   19.33  -20.36  1.0000
   6  -6   6    4925     115                                                        8008   19.33   20.36  1.0000
   6  -6   6    4744     107                                                        7777   19.33   20.36  1.0000
  -7   4  -8     382      52                                                         321    1.98   -3.83  1.0000
  -7   4  -8     516      54                                                         446    1.98   -3.83  1.0000
  -7   4  -8     376      54                                                         316    1.98   -3.83  1.0000
   7  -4   8     591      71                                                         517    1.98    3.83  1.0000
   7  -4   8     605      53                                                         530    1.98    3.83  1.0000
  -4   9  -4     298      66                                                         420   -3.15   -3.87  1.0000
  -4   9  -4     401      67                                                         541   -3.15   -3.87  1.0000
   4  -9   4     270      55                                                         386   -3.15    3.87  1.0000
   4  -9   4     312      52                                                         436   -3.15    3.87  1.0000
  -5   7  -6     403      58                                                        1133    5.16  -18.98  1.0000
  -5   7  -6     374      73                                                        1084    5.16  -18.98  1.0000
  -5   7  -6     405      71                                                        1136    5.16  -18.98  1.0000
   5  -7   6     353      64                                                        1047    5.16   18.98  1.0000
   5  -7   6     316      59                                                         984    5.16   18.98  1.0000
  -6   5  -8     128      47                                                          76   -0.57   -5.09  1.0000
  -6   5  -8     198      51                                                         133   -0.57   -5.09  1.0000
  -6   5  -8     196      46                                                         132   -0.57   -5.09  1.0000
   6  -5   8     145      44                                                          90   -0.57    5.09  1.0000
   6  -5   8     223      44                                                         154   -0.57    5.09  1.0000
  -4   8  -6    2698      99                                                        4352   13.92  -14.89  1.0000
  -4   8  -6    2643     104                                                        4282   13.92  -14.89  1.0000
  -4   8  -6    2774      78                                                        4449   13.92  -14.89  1.0000
   4  -8   6    2474      85                                                        4066   13.92   14.89  1.0000
   4  -8   6    2501      92                                                        4101   13.92   14.89  1.0000
  -5   6  -8     184      50                                                         118   -0.78   -4.79  1.0000
  -5   6  -8     286      43                                                         203   -0.78   -4.79  1.0000
  -5   6  -8     202      47                                                         133   -0.78   -4.79  1.0000
   5  -6   8     271      42                                                         190   -0.78    4.79  1.0000
   5  -6   8     102      42                                                          54   -0.78    4.79  1.0000
  -6   4 -10    1349      61                                                         993    7.50   -1.53  1.0000
  -6   4 -10    1279      90                                                         933    7.50   -1.53  1.0000
   6  -4  10    1456      87                                                        1085    7.50    1.53  1.0000
  -3   9  -6      86      55                                                         263    1.59   -9.91  1.0000
  -3   9  -6      81      39                                                         254    1.59   -9.91  1.0000
  -3   9  -6     131      55                                                         339    1.59   -9.91  1.0000
   3  -9   6      97      48                                                         282    1.59    9.91  1.0000
   3  -9   6      74      46                                                         242    1.59    9.91  1.0000
  -4   7  -8     519      57                                                         440    2.11   -4.35  1.0000
  -4   7  -8     467      56                                                         392    2.11   -4.35  1.0000
  -4   7  -8     381      47                                                         313    2.11   -4.35  1.0000
   4  -7   8     627      63                                                         541    2.11    4.35  1.0000
   4  -7   8     601      67                                                         517    2.11    4.35  1.0000
  -5   5 -10      28      52                                                          79   12.99   -2.75  1.0000
   5  -5  10      85      45                                                         -25   12.99    2.75  1.0000
  -3   8  -8       4      52                                                         -62   -1.23   -2.50  1.0000
  -3   8  -8      55      44                                                          62   -1.23   -2.50  1.0000
  -3   8  -8       6      54                                                           5   -1.23   -2.50  1.0000
   3  -8   8       4      44                                                          -6   -1.23    2.50  1.0000
   3  -8   8       4      46                                                         -34   -1.23    2.50  1.0000
  -4   6 -10    1210      82                                                         880    7.37   -1.60  1.0000
   4  -6  10    1556      88                                                        1178    7.37    1.60  1.0000
 -10   7   1     808      99                                                         667    4.18   -1.43  1.0000
 -10   7   1     720      56                                                         587    4.18   -1.43  1.0000
 -10   7   1     680      59                                                         551    4.18   -1.43  1.0000
  10  -7  -1     650      50                                                         524    4.18    1.43  1.0000
  10  -7  -1     736      50                                                         602    4.18    1.43  1.0000
  -9   8   1     648      48                                                         556    3.67   -0.46  1.0000
  -9   8   1     756      47                                                         657    3.67   -0.46  1.0000
   9  -8  -1     619      44                                                         529    3.67    0.46  1.0000
 -10   6  -1      24      41                                                          14   -5.70   -3.93  1.0000
 -10   6  -1      66      62                                                          71   -5.70   -3.93  1.0000
 -10   6  -1      37      40                                                          34   -5.70   -3.93  1.0000
  10  -6   1      31      37                                                          25   -5.70    3.93  1.0000
  10  -6   1      26      35                                                          16   -5.70    3.93  1.0000
  -9   7  -1     294      52                                                         393   -1.73   -3.64  1.0000
  -9   7  -1     219      41                                                         305   -1.73   -3.64  1.0000
   9  -7   1     211      35                                                         296   -1.73    3.64  1.0000
   9  -7   1     265      46                                                         360   -1.73    3.64  1.0000
 -10   5  -3     823      85                                                        1448   12.54   -4.94  1.0000
 -10   5  -3     623     122                                                        1178   12.54   -4.94  1.0000
 -10   5  -3     786      88                                                        1398   12.54   -4.94  1.0000
  10  -5   3     774      74                                                        1383   12.54    4.94  1.0000
  10  -5   3     662      72                                                        1231   12.54    4.94  1.0000
  -8   8  -1     177      31                                                          83   -3.25   -5.08  1.0000
  -8   8  -1     104      30                                                          36   -3.25   -5.08  1.0000
   8  -8   1     251      30                                                         136   -3.25    5.08  1.0000
   8  -8   1     180      26                                                          85   -3.25    5.08  1.0000
  -9   6  -3     690      73                                                        1471   16.06   -6.73  1.0000
  -9   6  -3     673      74                                                        1446   16.06   -6.73  1.0000
   9  -6   3     495      63                                                        1179   16.06    6.73  1.0000
   9  -6   3     546      61                                                        1257   16.06    6.73  1.0000
  -7   9  -1     226      44                                                         309   -2.07   -3.09  1.0000
  -7   9  -1     272      47                                                         363   -2.07   -3.09  1.0000
   7  -9   1     235      41                                                         320   -2.07    3.09  1.0000
  -8   7  -3    1428      78                                                        2716   19.70   -6.19  1.0000
  -8   7  -3    1487      75                                                        2797   19.70   -6.19  1.0000
   8  -7   3    1251      64                                                        2470   19.70    6.19  1.0000
   8  -7   3    1316      64                                                        2561   19.70    6.19  1.0000
  -9   5  -5     821      61                                                         575    1.66   -7.00  1.0000
  -9   5  -5     900      82                                                         642    1.66   -7.00  1.0000
  -9   5  -5     815      77                                                         570    1.66   -7.00  1.0000
   9  -5   5     980      69                                                         710    1.66    7.00  1.0000
   9  -5   5     854      65                                                         603    1.66    7.00  1.0000
  -6  10  -1      12      34                                                           6   -4.98   -5.63  1.0000
  -6  10  -1      10      31                                                          29   -4.98   -5.63  1.0000
   6 -10   1      20      27                                                           1   -4.98    5.63  1.0000
   6 -10   1      11      26                                                           8   -4.98    5.63  1.0000
  -7   8  -3    1330      70                                                        2598   19.63   -7.11  1.0000
  -7   8  -3    1361      70                                                        2642   19.63   -7.11  1.0000
   7  -8   3    1252      62                                                        2489   19.63    7.11  1.0000
   7  -8   3    1271      60                                                        2516   19.63    7.11  1.0000
  -8   6  -5     105      31                                                          79   -4.32    1.36  1.0000
  -8   6  -5      71      45                                                          48   -4.32    1.36  1.0000
  -8   6  -5     136      44                                                         107   -4.32    1.36  1.0000
   8  -6   5      10      37                                                          -1   -4.32   -1.36  1.0000
   8  -6   5      30      38                                                          13   -4.32   -1.36  1.0000
  -6   9  -3     657      62                                                        1452   16.39   -7.38  1.0000
  -6   9  -3     637      64                                                        1422   16.39   -7.38  1.0000
   6  -9   3     483      53                                                        1187   16.39    7.38  1.0000
   6  -9   3     512      54                                                        1232   16.39    7.38  1.0000
  -7   7  -5    1394      69                                                         864    0.99  -11.66  1.0000
  -7   7  -5    1414      68                                                         880    0.99  -11.66  1.0000
   7  -7   5    1530      58                                                         972    0.99   11.66  1.0000
   7  -7   5    1474      59                                                         928    0.99   11.66  1.0000
  -8   5  -7    1108      81                                                         660   12.78   -3.06  1.0000
  -8   5  -7     968      80                                                         552   12.78   -3.06  1.0000
  -8   5  -7     855      68                                                         466   12.78   -3.06  1.0000
   8  -5   7    1271      72                                                         789   12.78    3.06  1.0000
   8  -5   7    1171      70                                                         710   12.78    3.06  1.0000
  -5  10  -3     720      70                                                        1309   12.73   -4.44  1.0000
  -5  10  -3     804      73                                                        1422   12.73   -4.44  1.0000
   5 -10   3     631      56                                                        1188   12.73    4.44  1.0000
   5 -10   3     594      59                                                        1137   12.73    4.44  1.0000
  -6   8  -5      22      40                                                          11   -3.37    0.86  1.0000
  -6   8  -5      80      42                                                          62   -3.37    0.86  1.0000
   6  -8   5     125      37                                                         104   -3.37   -0.86  1.0000
   6  -8   5      93      36                                                          74   -3.37   -0.86  1.0000
  -7   6  -7     697      51                                                         300   14.59   -1.79  1.0000
  -7   6  -7     803      55                                                         373   14.59   -1.79  1.0000
  -7   6  -7     703      42                                                         304   14.59   -1.79  1.0000
   7  -6   7     843      49                                                         401   14.59    1.79  1.0000
   7  -6   7     726      45                                                         320   14.59    1.79  1.0000
  -5   9  -5    1033      71                                                         734    1.00   -7.46  1.0000
  -5   9  -5     826      74                                                         561    1.00   -7.46  1.0000
   5  -9   5     844      62                                                         576    1.00    7.46  1.0000
   5  -9   5     991      59                                                         698    1.00    7.46  1.0000
  -6   7  -7     746      52                                                         327   14.67   -1.36  1.0000
  -6   7  -7     678      40                                                         282   14.67   -1.36  1.0000
  -6   7  -7     612      50                                                         239   14.67   -1.36  1.0000
   6  -7   7     787      49                                                         355   14.67    1.36  1.0000
   6  -7   7     961      63                                                         477   14.67    1.36  1.0000
  -7   5  -9     518      83                                                         632    3.77   -1.64  1.0000
  -7   5  -9     535      89                                                         651    3.77   -1.64  1.0000
   7  -5   9     704      89                                                         836    3.77    1.64  1.0000
  -5   8  -7    1057      59                                                         640   12.43   -3.70  1.0000
  -5   8  -7     970      82                                                         572   12.43   -3.70  1.0000
  -5   8  -7    1153      77                                                         717   12.43   -3.70  1.0000
   5  -8   7    1055      68                                                         639   12.43    3.70  1.0000
   5  -8   7    1201      64                                                         755   12.43    3.70  1.0000
  -6   6  -9     115      50                                                         143   -1.36   -3.86  1.0000
  -6   6  -9      76      55                                                          98   -1.36   -3.86  1.0000
  -6   6  -9     111      50                                                         139   -1.36   -3.86  1.0000
   6  -6   9      63      45                                                          83   -1.36    3.86  1.0000
   6  -6   9      79      45                                                         101   -1.36    3.86  1.0000
  -5   7  -9     524      85                                                         661    4.29   -2.06  1.0000
  -5   7  -9     536      88                                                         675    4.29   -2.06  1.0000
  -5   7  -9     456      74                                                         584    4.29   -2.06  1.0000
   5  -7   9     654      76                                                         807    4.29    2.06  1.0000
   5  -7   9     698      77                                                         856    4.29    2.06  1.0000
 -10   8   0     894      62                                                        1496   12.69   -0.34  1.0000
 -10   8   0     934      70                                                        1547   12.69   -0.34  1.0000
  10  -8   0     816      58                                                        1395   12.69    0.34  1.0000
  10  -8   0     728      54                                                        1279   12.69    0.34  1.0000
  -9   9   0     282      52                                                         462    6.71    0.73  1.0000
  -9   9   0     271      53                                                         447    6.71    0.73  1.0000
   9  -9   0     263      46                                                         437    6.71   -0.73  1.0000
 -10   7  -2       8      43                                                         -26    1.17   -3.82  1.0000
 -10   7  -2       8      39                                                         -15    1.17   -3.82  1.0000
  10  -7   2      77      36                                                          46    1.17    3.82  1.0000
  10  -7   2       8      33                                                         -64    1.17    3.82  1.0000
  -8  10   0     935      60                                                        1581   13.25    0.12  1.0000
   8 -10   0     887      50                                                        1519   13.25   -0.12  1.0000
  -9   8  -2     162      40                                                          95    4.75   -5.91  1.0000
  -9   8  -2     203      38                                                         130    4.75   -5.91  1.0000
   9  -8   2     114      32                                                          56    4.75    5.91  1.0000
   9  -8   2     105      33                                                          49    4.75    5.91  1.0000
 -10   6  -4    1291      84                                                         801    9.85    5.02  1.0000
 -10   6  -4    1277      80                                                         790    9.85    5.02  1.0000
  10  -6   4    1205      70                                                         734    9.85   -5.02  1.0000
  10  -6   4    1088      70                                                         643    9.85   -5.02  1.0000
  -8   9  -2     139      35                                                          70    4.15   -6.53  1.0000
  -8   9  -2     180      36                                                         103    4.15   -6.53  1.0000
   8  -9   2     111      28                                                          49    4.15    6.53  1.0000
   8  -9   2      62      31                                                          15    4.15    6.53  1.0000
  -9   7  -4      36      46                                                          84   14.36   10.80  1.0000
  -9   7  -4      35      46                                                          87   14.36   10.80  1.0000
   9  -7   4      43      38                                                          62   14.36  -10.80  1.0000
   9  -7   4      40      38                                                          70   14.36  -10.80  1.0000
  -7  10  -2      11      34                                                         -10    0.81   -4.67  1.0000
  -7  10  -2      71      35                                                          31    0.81   -4.67  1.0000
   7 -10   2      54      32                                                          20    0.81    4.67  1.0000
   7 -10   2      45      28                                                          14    0.81    4.67  1.0000
  -8   8  -4    2077      71                                                        1156   13.65    9.58  1.0000
  -8   8  -4    2034      69                                                        1124   13.65    9.58  1.0000
   8  -8   4    2135      60                                                        1199   13.65   -9.58  1.0000
   8  -8   4    2084      58                                                        1161   13.65   -9.58  1.0000
  -9   6  -6     169      52                                                         145   -2.60   -0.55  1.0000
  -9   6  -6     369      56                                                         335   -2.60   -0.55  1.0000
  -9   6  -6     179      40                                                         155   -2.60   -0.55  1.0000
   9  -6   6     284      48                                                         254   -2.60    0.55  1.0000
   9  -6   6     205      46                                                         179   -2.60    0.55  1.0000
  -7   9  -4       5      42                                                         114   15.60    9.52  1.0000
  -7   9  -4      37      38                                                          44   15.60    9.52  1.0000
   7  -9   4      52      34                                                          30   15.60   -9.52  1.0000
   7  -9   4       8      35                                                          98   15.60   -9.52  1.0000
  -8   7  -6      63      47                                                          52   -2.90   -0.42  1.0000
  -8   7  -6      67      48                                                          56   -2.90   -0.42  1.0000
   8  -7   6     104      41                                                          91   -2.90    0.42  1.0000
   8  -7   6      65      40                                                          54   -2.90    0.42  1.0000
  -6  10  -4     871      72                                                         467   10.27    5.10  1.0000
  -6  10  -4    1198      70                                                         714   10.27    5.10  1.0000
   6 -10   4    1051      57                                                         601   10.27   -5.10  1.0000
   6 -10   4    1142      59                                                         671   10.27   -5.10  1.0000
  -7   8  -6     231      49                                                         212   -2.41   -0.29  1.0000
  -7   8  -6     198      49                                                         180   -2.41   -0.29  1.0000
   7  -8   6     104      42                                                          90   -2.41    0.29  1.0000
   7  -8   6      28      40                                                          20   -2.41    0.29  1.0000
  -8   6  -8     707      89                                                         698    2.91   -1.44  1.0000
  -8   6  -8     775      91                                                         766    2.91   -1.44  1.0000
  -8   6  -8     727      70                                                         718    2.91   -1.44  1.0000
   8  -6   8     831      75                                                         822    2.91    1.44  1.0000
   8  -6   8     878      77                                                         869    2.91    1.44  1.0000
  -6   9  -6     140      48                                                         120   -2.27   -0.39  1.0000
  -6   9  -6     301      53                                                         273   -2.27   -0.39  1.0000
   6  -9   6     352      46                                                         322   -2.27    0.39  1.0000
   6  -9   6     267      43                                                         240   -2.27    0.39  1.0000
  -7   7  -8      65      56                                                          90   -0.17    2.64  1.0000
  -7   7  -8     109      53                                                         141   -0.17    2.64  1.0000
  -7   7  -8       3      40                                                          -9   -0.17    2.64  1.0000
   7  -7   8       3      42                                                         -81   -0.17   -2.64  1.0000
   7  -7   8       3      43                                                         -46   -0.17   -2.64  1.0000
  -6   8  -8     691      86                                                         659    2.79   -2.11  1.0000
  -6   8  -8     722      92                                                         689    2.79   -2.11  1.0000
  -6   8  -8     568      66                                                         538    2.79   -2.11  1.0000
   6  -8   8     701      73                                                         669    2.79    2.11  1.0000
   6  -8   8     797      73                                                         763    2.79    2.11  1.0000
;
loop_
_space_group_symop_operation_xyz
'x, y, z'
'-y, x-y, z'
'-x+y, -x, z'
'x+2/3, y+1/3, z+1/3'
'-y+2/3, x-y+1/3, z+1/3'
'-x+y+2/3, -x+1/3, z+1/3'
'x+1/3, y+2/3, z+2/3'
'-y+1/3, x-y+2/3, z+2/3'
'-x+y+1/3, -x+2/3, z+2/3'
loop_
_atom_site_type_symbol
_atom_site_label
_atom_site_fract_x
_atom_site_fract_y
_atom_site_fract_z
_atom_site_U_iso_or_equiv
_atom_site_adp_type
_atom_site_calc_flag
_atom_site_refinement_flags
_atom_site_occupancy
I I1 0.8336(5) 0.1659(6) 0.5206(4) 0.0811(9) Uani d . 1
Sn Sn1 0.6667 0.3333 0.6821(3) 0.0418(8) Uani d S 1
C C1 0.581(14) 0.331(15) 0.071(5) 1.01(8) Uani d PD 0.67
N N1 0.6667 0.3333 -0.026(5) 0.8(8) Uani d SPD 0.67
N N2 0.6667 0.3333 0.167(8) 1.3(6) Uani d SPD 0.67
loop_
_atom_site_aniso_label
_atom_site_aniso_U_11
_atom_site_aniso_U_22
_atom_site_aniso_U_33
_atom_site_aniso_U_12
_atom_site_aniso_U_13
_atom_site_aniso_U_23
I1 0.0922(14) 0.0916(14) 0.0811(14) 0.0621(11) 0.0097(10) -0.0102(11)
Sn1 0.0432(10) 0.0432(10) 0.0389(12) 0.0216(5) 0 0
C1 2.00(17) 1.62(15) 0.59(9) 1.80(15) 0.91(12) 0.62(9)
N1 0.17(9) 0.17(9) 2.(3) 0.08(5) 0 0
N2 2.0(9) 2.0(9) -0.09(4) 1.0(5) 0 0
loop_
_atom_type_symbol
_atom_type_description
_atom_type_scat_dispersion_real
_atom_type_scat_dispersion_imag
_atom_type_scat_source
C C 0.0033 0.0016 'International Tables Vol C Tables 4.2.6.8 and 6.1.1.4'
H H 0.0000 0.0000 'International Tables Vol C Tables 4.2.6.8 and 6.1.1.4'
N N 0.0061 0.0033 'International Tables Vol C Tables 4.2.6.8 and 6.1.1.4'
O O 0.0106 0.0060 'International Tables Vol C Tables 4.2.6.8 and 6.1.1.4'
Sn Sn -0.6537 1.4246 'International Tables Vol C Tables 4.2.6.8 and 6.1.1.4'
I I -0.4742 1.8119 'International Tables Vol C Tables 4.2.6.8 and 6.1.1.4'
loop_
_geom_angle_atom_site_label_1
_geom_angle_atom_site_label_2
_geom_angle_atom_site_label_3
_geom_angle_site_symmetry_1
_geom_angle_site_symmetry_3
_geom_angle
Sn1 I1 Sn1 . 7_544 178.2(2)
I1 Sn1 I1 . 3_665 91.26(15)
I1 Sn1 I1 . 2_655 91.26(15)
I1 Sn1 I1 3_665 2_655 91.26(15)
I1 Sn1 I1 . 6_665 90.07(10)
I1 Sn1 I1 3_665 6_665 178.2(2)
I1 Sn1 I1 2_655 6_665 89.96(11)
I1 Sn1 I1 . 5_545 89.96(11)
I1 Sn1 I1 3_665 5_545 90.07(10)
I1 Sn1 I1 2_655 5_545 178.2(2)
I1 Sn1 I1 6_665 5_545 88.68(16)
I1 Sn1 I1 . 4_455 178.2(2)
I1 Sn1 I1 3_665 4_455 89.96(11)
I1 Sn1 I1 2_655 4_455 90.07(10)
I1 Sn1 I1 6_665 4_455 88.68(16)
I1 Sn1 I1 5_545 4_455 88.68(16)
C1 C1 C1 2_655 3_665 60.000(9)
C1 C1 N2 2_655 . 60.(3)
C1 C1 N2 3_665 . 60.(3)
C1 C1 N1 2_655 . 60.(3)
C1 C1 N1 3_665 . 60.(3)
N2 C1 N1 . . 109.(7)
C1 N1 C1 . 3_665 60.(6)
C1 N1 C1 . 2_655 60.(6)
C1 N1 C1 3_665 2_655 60.(6)
C1 N2 C1 2_655 3_665 61.(6)
C1 N2 C1 2_655 . 61.(6)
C1 N2 C1 3_665 . 61.(6)
loop_
_geom_bond_atom_site_label_1
_geom_bond_atom_site_label_2
_geom_bond_site_symmetry_2
_geom_bond_distance
I1 Sn1 . 3.129(4)
I1 Sn1 7_544 3.181(4)
Sn1 I1 3_665 3.129(4)
Sn1 I1 2_655 3.129(4)
Sn1 I1 6_665 3.181(4)
Sn1 I1 5_545 3.181(4)
Sn1 I1 4_455 3.181(4)
C1 C1 2_655 1.31(11)
C1 C1 3_665 1.31(12)
C1 N2 . 1.30(2)
C1 N1 . 1.30(2)
N1 C1 3_665 1.30(2)
N1 C1 2_655 1.30(2)
N2 C1 2_655 1.30(2)
N2 C1 3_665 1.30(2)
loop_
_platon_squeeze_void_nr
_platon_squeeze_void_average_x
_platon_squeeze_void_average_y
_platon_squeeze_void_average_z
_platon_squeeze_void_volume
_platon_squeeze_void_count_electrons
1 0.000 0.000 -0.155 97.0 52.2
2 0.333 0.667 0.506 94.7 53.2
3 0.667 0.333 0.179 91.5 53.8
