#------------------------------------------------------------------------------
#$Date: 2019-11-24 20:57:03 +0200 (Sun, 24 Nov 2019) $
#$Revision: 239397 $
#$URL: file:///home/coder/svn-repositories/cod/cif/4/51/66/4516600.cif $
#------------------------------------------------------------------------------
#
# This file is available in the Crystallography Open Database (COD),
# http://www.crystallography.net/
#
# All data on this site have been placed in the public domain by the
# contributors.
#
data_4516600
loop_
_publ_author_name
'Kitamori, Toshiki'
'Yoo, Dongho'
'Iijima, Kodai'
'Kawamoto, Tadashi'
'Mori, Takehiko'
_publ_section_title
;
 Ambipolar Transistor Properties of Metal Complexes Derived from
 1,2-Phenylenediamines
;
_journal_issue                   8
_journal_name_full               'ACS Applied Electronic Materials'
_journal_page_first              1633
_journal_paper_doi               10.1021/acsaelm.9b00344
_journal_volume                  1
_journal_year                    2019
_chemical_formula_moiety         'C12 H8 F4 N4 Ni'
_chemical_formula_sum            'C12 H8 F4 N4 Ni'
_chemical_formula_weight         342.92
_space_group_crystal_system      triclinic
_space_group_IT_number           2
_space_group_name_Hall           '-P 1'
_space_group_name_H-M_alt        'P -1'
_atom_sites_solution_hydrogens   geom
_atom_sites_solution_primary     direct
_atom_sites_solution_secondary   difmap
_cell_angle_alpha                105.9655(12)
_cell_angle_beta                 93.5740(13)
_cell_angle_gamma                98.3156(12)
_cell_formula_units_Z            2
_cell_length_a                   6.41864(14)
_cell_length_b                   7.70588(17)
_cell_length_c                   12.5919(3)
_cell_measurement_reflns_used    2820
_cell_measurement_temperature    274
_cell_measurement_theta_max      70.33
_cell_measurement_theta_min      3.67
_cell_volume                     589.07(2)
_computing_cell_refinement       'RAPID AUTO'
_computing_data_collection       'RAPID AUTO (Rigaku, ????)'
_computing_data_reduction        'RAPID AUTO'
_computing_molecular_graphics    'CrystalStructure 4.2.2'
_computing_publication_material  'CrystalStructure 4.2.2 (Rigaku, 2016)'
_computing_structure_refinement  'SHELXL Version 2016/6 (Sheldrick, 2008)'
_computing_structure_solution    'SHELXT Version 2014/5 (Sheldrick, 2014)'
_diffrn_ambient_temperature      274
_diffrn_detector_area_resol_mean 10.000
_diffrn_measured_fraction_theta_full 0.980
_diffrn_measured_fraction_theta_max 0.979
_diffrn_measurement_device_type  'Rigaku R-AXIS RAPID'
_diffrn_measurement_method       \w
_diffrn_radiation_type           'Cu K\a'
_diffrn_radiation_wavelength     1.54187
_diffrn_reflns_av_R_equivalents  0.0618
_diffrn_reflns_Laue_measured_fraction_full 0.980
_diffrn_reflns_Laue_measured_fraction_max 0.979
_diffrn_reflns_limit_h_max       7
_diffrn_reflns_limit_h_min       -7
_diffrn_reflns_limit_k_max       9
_diffrn_reflns_limit_k_min       -9
_diffrn_reflns_limit_l_max       15
_diffrn_reflns_limit_l_min       -14
_diffrn_reflns_number            6361
_diffrn_reflns_point_group_measured_fraction_full 0.980
_diffrn_reflns_point_group_measured_fraction_max 0.979
_diffrn_reflns_theta_full        67.687
_diffrn_reflns_theta_max         68.098
_diffrn_reflns_theta_min         3.672
_diffrn_standards_number         0
_exptl_absorpt_coefficient_mu    2.895
_exptl_absorpt_correction_T_max  0.917
_exptl_absorpt_correction_T_min  0.714
_exptl_absorpt_correction_type   multi-scan
_exptl_absorpt_process_details   'ABSCOR (Rigaku, 1995)'
_exptl_crystal_colour            black
_exptl_crystal_density_diffrn    1.933
_exptl_crystal_density_method    'not measured'
_exptl_crystal_description       platelet
_exptl_crystal_F_000             344.00
_exptl_crystal_size_max          0.210
_exptl_crystal_size_mid          0.180
_exptl_crystal_size_min          0.030
_refine_diff_density_max         0.67
_refine_diff_density_min         -0.63
_refine_ls_extinction_method     none
_refine_ls_goodness_of_fit_ref   1.164
_refine_ls_hydrogen_treatment    constr
_refine_ls_number_parameters     193
_refine_ls_number_reflns         2108
_refine_ls_number_restraints     0
_refine_ls_R_factor_all          0.0790
_refine_ls_R_factor_gt           0.0506
_refine_ls_shift/su_max          0.000
_refine_ls_structure_factor_coef Fsqd
_refine_ls_weighting_details
'w = 1/[\s^2^(Fo^2^)+(0.0633P)^2^] where P=(Fo^2^+2Fc^2^)/3'
_refine_ls_weighting_scheme      calc
_refine_ls_wR_factor_gt          0.1158
_refine_ls_wR_factor_ref         0.1553
_reflns_Friedel_coverage         0.000
_reflns_number_gt                1368
_reflns_number_total             2108
_reflns_threshold_expression     F^2^>2.0\s(F^2^)
_cod_data_source_file            el9b00344_si_002.cif
_cod_data_source_block           4FNi
_cod_database_code               4516600
_shelx_res_file
;
TITL 1007
    shelxl.res
    created by SHELXL-2016/6 at 18:32:43 on 09-Oct-2018
CELL  1.54187 6.41864 7.70588 12.59186 105.96550 93.57400 98.31560
ZERR  2 0.00014 0.00017 0.00030 0.00120 0.00130 0.00120
LATT 1
SFAC C N H F NI
UNIT 24 8 16 8 2
L.S. 30
FMAP 2
PLAN 26
WPDB -2
HTAB
BOND $H
CONF
LIST 4
TEMP 1.7
ACTA
SIZE 0.210 0.180 0.030
WGHT    0.063300
FVAR       0.72145
NI1   5    1.000000    0.500000    0.000000    10.50000    0.03133    0.03467 =
         0.03310    0.00902   -0.00180    0.00405
NI2   5    0.500000    1.000000    1.000000    10.50000    0.03355    0.03661 =
         0.03635    0.01101   -0.00354    0.00618
F1    4    0.409652    0.758195    0.375146    11.00000    0.04592    0.07467 =
         0.05525    0.00755    0.01597    0.01810
F2    4    0.770170    0.988423    0.454522    11.00000    0.06099    0.06490 =
         0.04040   -0.00941    0.00368    0.01882
F3    4    0.719586    0.618970    0.517213    11.00000    0.06531    0.07393 =
         0.03674    0.00866    0.01016    0.01819
F4    4    1.047510    0.586124    0.644832    11.00000    0.05369    0.08731 =
         0.06521    0.02453    0.02380    0.03237
N1    2    0.743648    0.477049    0.055644    11.00000    0.03443    0.03275 =
         0.03902    0.00736   -0.00367   -0.00026
AFIX  43
H1    3    0.638973    0.393367    0.021244    11.00000   -1.20000
AFIX   0
N2    2    1.072274    0.697281    0.124018    11.00000    0.02841    0.04033 =
         0.04328    0.01284    0.00116   -0.00048
AFIX  43
H2    3    1.193601    0.767396    0.136304    11.00000   -1.20000
AFIX   0
N3    2    0.442329    0.942632    0.848841    11.00000    0.03121    0.04901 =
         0.03937    0.01357   -0.00166    0.01395
AFIX  43
H3    3    0.333629    0.971466    0.818583    11.00000   -1.20000
AFIX   0
N4    2    0.733534    0.893397    0.965320    11.00000    0.03458    0.04381 =
         0.03898    0.01458   -0.00575    0.00768
AFIX  43
H4    3    0.824824    0.885478    1.016010    11.00000   -1.20000
AFIX   0
C1    1    0.728763    0.597879    0.152778    11.00000    0.03008    0.03676 =
         0.03703    0.00698    0.00275    0.01033
C2    1    0.551841    0.608304    0.214374    11.00000    0.03218    0.03505 =
         0.04073    0.00872   -0.00119    0.00718
AFIX  43
H2A   3    0.425235    0.527430    0.188061    11.00000   -1.20000
AFIX   0
C3    1    0.572768    0.739832    0.312881    11.00000    0.03498    0.05338 =
         0.04373    0.01413    0.01095    0.02181
C4    1    0.765861    0.863453    0.354827    11.00000    0.04068    0.04753 =
         0.03717    0.00443    0.00265    0.01811
C5    1    0.938097    0.859115    0.297614    11.00000    0.03333    0.03806 =
         0.04038    0.00688   -0.00603    0.00336
AFIX  43
H5    3    1.062547    0.942173    0.325616    11.00000   -1.20000
AFIX   0
C6    1    0.922517    0.725337    0.194852    11.00000    0.03462    0.03300 =
         0.03410    0.01036   -0.00285    0.00543
C7    1    0.579708    0.852687    0.787607    11.00000    0.02957    0.03246 =
         0.03889    0.01360   -0.00168   -0.00218
C8    1    0.566189    0.781544    0.670854    11.00000    0.03456    0.05010 =
         0.03554    0.01202    0.00053    0.00628
AFIX  43
H8    3    0.454254    0.795661    0.625138    11.00000   -1.20000
AFIX   0
C9    1    0.722278    0.692060    0.628029    11.00000    0.04622    0.04850 =
         0.03076    0.00726    0.00760    0.00507
C10   1    0.897287    0.673375    0.694830    11.00000    0.04245    0.05183 =
         0.04125    0.00762    0.00729    0.01107
C11   1    0.917385    0.739565    0.807659    11.00000    0.02475    0.04444 =
         0.05656    0.02776    0.00618    0.00250
AFIX  43
H11   3    1.034071    0.726701    0.850698    11.00000   -1.20000
AFIX   0
C12   1    0.755270    0.828281    0.857037    11.00000    0.02424    0.03750 =
         0.04058    0.01235    0.00192    0.00471
HKLF 4




REM  1007
REM R1 =  0.0506 for    1368 Fo > 4sig(Fo)  and  0.0790 for all    2108 data
REM    193 parameters refined using      0 restraints

END

WGHT      0.0633      0.0000

REM No hydrogen bonds found for HTAB generation

REM Highest difference peak  0.669,  deepest hole -0.629,  1-sigma level  0.108
Q1    1   0.3787  0.9395  0.9390  11.00000  0.05    0.52
Q2    1   1.0778  0.6788 -0.0049  11.00000  0.05    0.51
Q3    1   0.6371  0.8089  0.8163  11.00000  0.05    0.49
Q4    1   0.4569  0.8319  1.0088  11.00000  0.05    0.49
Q5    1   0.8508  0.4204  0.0631  11.00000  0.05    0.48
Q6    1   0.8449  0.6707  0.1771  11.00000  0.05    0.46
Q7    1   0.6766  0.9356  0.9860  11.00000  0.05    0.44
Q8    1   0.6701  0.8121  0.3422  11.00000  0.05    0.43
Q9    1   1.1020  0.5640  0.0449  11.00000  0.05    0.42
Q10   1   0.5573  0.9962  0.9005  11.00000  0.05    0.42
Q11   1   0.7602  0.5569  0.1247  11.00000  0.05    0.42
Q12   1   0.6086  0.8436  0.3196  11.00000  0.05    0.39
Q13   1   0.7923  0.5979  0.0383  11.00000  0.05    0.39
Q14   1   0.6870  0.7115  0.3023  11.00000  0.05    0.38
Q15   1   0.7964  0.6250  0.6481  11.00000  0.05    0.38
Q16   1   0.8058  0.5601  0.0238  11.00000  0.05    0.37
Q17   1   0.7219  0.9133  0.8423  11.00000  0.05    0.36
Q18   1   0.7817  0.7048  0.5756  11.00000  0.05    0.35
Q19   1   0.5050  0.8942  0.8150  11.00000  0.05    0.35
Q20   1   0.6318  0.7039  0.2202  11.00000  0.05    0.34
Q21   1   0.7466  0.5147  0.5491  11.00000  0.05    0.34
Q22   1   0.7074  0.2935  0.0211  11.00000  0.05    0.33
Q23   1   0.6085  0.7575  0.6657  11.00000  0.05    0.33
Q24   1   1.0984  0.7449  0.6322  11.00000  0.05    0.32
Q25   1   0.6490  0.8019  0.6740  11.00000  0.05    0.32
Q26   1   0.9896  0.6886  0.1766  11.00000  0.05    0.32
;
_shelx_res_checksum              5145
_shelx_hkl_file
;
   0   0   1  629.76   31.45
   0   0   1  755.32   29.26
   0   0   1  685.28   28.86
   0   0   1  657.62   28.95
   0   0  -1  678.89   30.00
   0   0  -1  750.86   29.07
   0   0  -1  688.36   29.84
   0   0  -1  669.01   30.69
   0   0  -1  693.41   32.21
   0   0  -1  683.73   28.87
   0   0   2  112.44    6.04
   0   0   2  114.41    8.09
   0   0   2  120.42    4.55
   0   0   2  114.46    7.41
   0   0  -2  115.27    7.13
   0   0  -2  114.06    7.48
   0   0  -2  120.60    6.44
   0   0  -2  114.22    7.09
   0   0  -2  114.96    8.53
   0   0   3  846.83   39.38
   0   0   3  848.83   46.77
   0   0   3  834.46   48.22
   0   0   3  835.47   42.81
   0   0  -3  805.30   44.37
   0   0  -3  828.69   55.77
   0   0  -3  821.28   46.02
   0   0  -3  796.40   49.30
   0   0  -3  862.09   44.17
   0   0   4   16.63    2.82
   0   0   4   18.41    4.24
   0   0   4   17.51    4.94
   0   0   4   17.52    1.99
   0   0  -4   16.42    5.74
   0   0  -4   17.30    4.42
   0   0  -4   16.09    4.22
   0   0  -4   16.85    4.64
   0   0  -4   18.95    3.03
   0   0   5  758.36   47.95
   0   0   5  829.28   39.29
   0   0   5  788.27   46.75
   0   0   5  710.00   38.96
   0   0   5  831.67   52.99
   0   0  -5  740.61   45.86
   0   0  -5  706.69   49.12
   0   0  -5  685.83   42.67
   0   0  -5  701.35   38.95
   0   0   6 3290.67  240.52
   0   0   6 3409.97  249.20
   0   0   6 3155.28  221.89
   0   0   6 3630.35  221.20
   0   0   6 3447.89  254.87
   0   0  -6 3067.54  223.46
   0   0  -6 3046.13  217.00
   0   0  -6 3068.54  223.73
   0   0  -6 3117.05  226.86
   0   0   7   48.16    4.74
   0   0   7   50.55    8.53
   0   0   7   53.18    7.22
   0   0   7   50.77    9.33
   0   0  -7   48.52    7.88
   0   0  -7   48.55    7.89
   0   0  -7   47.95    5.19
   0   0   8  218.79   20.19
   0   0  -8  186.94   17.91
   0   0   9  163.87   18.72
   0   0  -9  144.42   16.49
   0   0  10   44.51   11.19
   0   0 -10   37.08    9.87
   0   0  11   62.53   15.02
   0   0 -11   53.18   11.82
   0   0  12    7.85    5.97
   0   0 -12    1.62    5.47
   0   0  13   89.35   15.42
   0   0 -13   64.80   12.33
   0   0  14   69.49   11.16
   0   0 -14   47.10   14.19
   0   1 -14    1.47    2.82
   0  -1  14   -0.01    3.67
   0   1 -13   14.56    7.05
   0  -1  13   23.70    9.53
   0   1 -12    7.88    6.23
   0  -1  12   12.64    8.60
   0   1 -11   -1.47    2.06
   0  -1  11    2.21    2.60
   0   1 -10   14.52    6.54
   0  -1  10   17.79    9.12
   0   1  -9   83.03   11.22
   0   1  -9   72.77    8.17
   0  -1   9   96.09   19.95
   0  -1   9   83.12   11.90
   0   1  -8   35.97    6.79
   0   1  -8   31.87    4.83
   0  -1   8   41.56    6.84
   0  -1   8   34.96    4.66
   0  -1   8   40.51    8.82
   0  -1   8   45.85   10.02
   0   1  -7  668.28   44.25
   0   1  -7  702.04   52.23
   0   1  -7  667.63   45.34
   0  -1   7  771.54   50.91
   0  -1   7  767.52   49.08
   0  -1   7  745.22   51.51
   0   1  -6    5.73    2.23
   0   1  -6    5.25    2.89
   0   1  -6    6.82    3.76
   0  -1   6    4.08    0.24
   0  -1   6    7.62    3.78
   0  -1   6    0.04    2.59
   0  -1   6    5.86    4.50
   0  -1   6    4.63    0.34
   0   1  -5   80.09    6.91
   0   1  -5   89.38    7.86
   0   1  -5   72.22    8.71
   0  -1   5   85.24    7.14
   0  -1   5   89.39    8.07
   0  -1   5   89.23    9.72
   0  -1   5   84.19    3.83
   0  -1   5   82.75    3.17
   0   1  -4   -0.80    3.37
   0   1  -4    5.47    2.57
   0   1  -4   -0.12    2.44
   0  -1   4    0.33    2.48
   0  -1   4    5.30    0.86
   0  -1   4    4.97    0.74
   0  -1   4    4.92    4.29
   0  -1   4   -0.05    3.46
   0   1  -3    0.17    1.62
   0   1  -3   -0.20    1.16
   0  -1   3   -0.12    1.57
   0  -1   3    0.26    0.49
   0  -1   3   -0.03    1.28
   0  -1   3    0.58    1.21
   0  -1   3    0.21    0.90
   0   1  -2    4.65    4.51
   0   1  -2    6.52    3.93
   0  -1   2    6.42    2.73
   0  -1   2    7.14    2.48
   0  -1   2    6.65    1.37
   0  -1   2    6.06    1.43
   0   1  -1    0.32    1.40
   0   1  -1    0.08    1.74
   0   1  -1    0.03    1.26
   0  -1   1    0.72    0.91
   0  -1   1    0.93    0.27
   0  -1   1    0.72    2.19
   0  -1   1    2.85    1.22
   0  -1   1   -0.09    1.39
   0   1   0    4.84    1.47
   0   1   0    5.17    1.68
   0   1   0    0.11    1.82
   0   1   0    5.40    1.55
   0  -1   0    5.02    0.55
   0  -1   0   -0.17    1.86
   0  -1   0    0.72    0.54
   0  -1   0    5.23    1.44
   0  -1   0   -0.59    1.60
   0   1   1   -0.10    1.30
   0   1   1    0.13    0.92
   0   1   1   -0.00    1.10
   0   1   1   -0.00    0.97
   0  -1  -1    0.63    1.20
   0  -1  -1    0.20    1.13
   0  -1  -1    0.29    0.81
   0  -1  -1   -0.40    1.58
   0  -1  -1   -0.03    0.69
   0  -1  -1    0.06    0.80
   0   1   2    1.53    1.13
   0   1   2    0.55    1.20
   0   1   2    0.26    1.96
   0   1   2   -0.22    1.74
   0  -1  -2    0.16    2.42
   0  -1  -2    0.70    1.18
   0  -1  -2    0.48    1.73
   0  -1  -2   -0.23    2.24
   0  -1  -2    0.74    1.39
   0   1   3   17.28    4.47
   0   1   3   19.03    4.91
   0   1   3   15.57    3.92
   0   1   3   19.72    4.98
   0   1   3   17.54    3.98
   0  -1  -3   16.86    2.82
   0  -1  -3   16.21    4.62
   0  -1  -3   16.64    3.90
   0  -1  -3   11.68    3.73
   0   1   4    4.39    1.44
   0   1   4   -0.10    2.78
   0   1   4   -0.15    3.09
   0   1   4    6.25    1.47
   0   1   4   -0.18    5.22
   0  -1  -4    0.25    1.71
   0  -1  -4    2.73    3.05
   0  -1  -4    1.95    2.57
   0  -1  -4    2.56    2.67
   0   1   5    7.56    1.65
   0   1   5    6.86    1.36
   0   1   5   -0.14    3.88
   0   1   5    7.47    3.34
   0   1   5   -0.34    3.97
   0  -1  -5    0.00    2.77
   0  -1  -5    7.21    3.14
   0  -1  -5    0.18    3.56
   0  -1  -5    5.31    3.45
   0   1   6   14.14    2.18
   0   1   6   14.26    4.54
   0   1   6   -0.59    5.38
   0   1   6   13.83    1.68
   0   1   6   10.78    8.39
   0  -1  -6   14.93    4.38
   0  -1  -6   13.00    7.34
   0  -1  -6   14.13    2.75
   0  -1  -6   -0.22    4.93
   0   1   7   12.24    4.26
   0   1   7   13.09    5.19
   0   1   7   -0.19    8.36
   0  -1  -7   10.47    6.78
   0  -1  -7   10.27    4.78
   0  -1  -7   -0.28    4.63
   0   1   8   10.66    5.01
   0  -1  -8    5.07    4.52
   0  -1  -8   -0.14    4.83
   0   1   9    0.63    3.86
   0  -1  -9    1.89    3.69
   0   1  10   10.59    6.76
   0  -1 -10    6.24    6.27
   0   1  11   14.64    7.81
   0  -1 -11   12.39    7.26
   0   1  12    0.79    7.50
   0  -1 -12    3.49    4.69
   0   1  13    0.92    2.73
   0  -1 -13   -1.12    2.36
   0  -2  15   28.62    5.02
   0  -2  15   -0.10   10.53
   0   2 -14   25.51    7.25
   0  -2  14   61.08   10.98
   0   2 -13   33.46   12.98
   0  -2  13   67.59   13.62
   0   2 -12   56.88   16.14
   0  -2  12   92.70   17.04
   0   2 -11   59.48   15.34
   0  -2  11   95.51   24.16
   0   2 -10  127.38   14.30
   0  -2  10  134.97   16.03
   0  -2  10  182.79   21.82
   0   2  -9  108.44   11.95
   0  -2   9  111.96   10.71
   0  -2   9  133.01   22.57
   0   2  -8  518.20   41.14
   0   2  -8  500.65   34.14
   0   2  -8  507.38   34.76
   0  -2   8  585.17   39.06
   0  -2   8  550.64   41.56
   0  -2   8  558.02   36.92
   0   2  -7  411.30   37.12
   0   2  -7  409.00   26.96
   0   2  -7  437.27   27.65
   0  -2   7  465.44   34.36
   0  -2   7  480.61   31.03
   0  -2   7  446.56   32.56
   0   2  -6  212.00   17.39
   0   2  -6  241.85   16.71
   0   2  -6  235.93   14.64
   0  -2   6  228.30   10.66
   0  -2   6  237.44   11.08
   0  -2   6  244.63   16.66
   0  -2   6  228.16   18.23
   0  -2   6  247.93   16.63
   0   2  -5  397.31   24.78
   0   2  -5  386.44   21.10
   0   2  -5  379.48   26.03
   0  -2   5  428.60   25.34
   0  -2   5  418.46   25.88
   0  -2   5  395.80   18.45
   0  -2   5  392.85   19.63
   0  -2   5  400.22   27.80
   0   2  -4  459.61   27.60
   0   2  -4  485.61   30.85
   0  -2   4  472.52   22.96
   0  -2   4  472.71   23.06
   0  -2   4  544.49   34.90
   0  -2   4  511.20   30.40
   0  -2   4  482.77   37.49
   0   2  -3   76.33    7.21
   0   2  -3   79.85    8.06
   0  -2   3   75.94    8.22
   0  -2   3   79.98   11.67
   0  -2   3   79.12    5.34
   0  -2   3   56.06    4.70
   0   2  -215069.21 1433.50
   0   2  -214604.63 1375.41
   0  -2   215440.85 1460.40
   0  -2   215658.24 1468.68
   0  -2   215497.37 1442.93
   0  -2   213498.56 1270.72
   0   2  -1 1771.31  103.59
   0   2  -1 1549.10   99.81
   0   2  -1 1769.97  106.31
   0  -2   1 1752.41  115.30
   0  -2   1 1743.35  103.78
   0  -2   1 1568.32   94.34
   0  -2   1 1778.98  104.07
   0   2   0   54.64    5.75
   0   2   0   56.26   10.40
   0   2   0   58.41    6.64
   0   2   0   55.20    6.69
   0  -2   0   67.07    2.89
   0  -2   0   55.78   10.97
   0  -2   0   57.89    2.49
   0  -2   0   56.70    9.64
   0  -2   0   53.16    6.33
   0   2   1  780.49   43.47
   0   2   1  803.10   46.95
   0   2   1  800.43   45.25
   0   2   1  848.78   46.09
   0  -2  -1  787.51   45.27
   0  -2  -1  839.62   40.96
   0  -2  -1  828.52   50.39
   0  -2  -1  771.98   43.54
   0  -2  -1  839.27   44.18
   0   2   2   88.68   12.16
   0   2   2   79.48    6.21
   0   2   2   83.22    8.71
   0   2   2   83.00    6.48
   0  -2  -2   84.09    5.69
   0  -2  -2   74.15    9.36
   0  -2  -2   74.72    7.70
   0  -2  -2   72.90    6.30
   0  -2  -2   67.18    5.65
   0  -2  -2   84.06    8.92
   0   2   3  346.53   18.35
   0   2   3  373.77   19.83
   0   2   3  364.94   27.88
   0   2   3  375.98   24.48
   0  -2  -3  359.86   20.15
   0  -2  -3  352.36   19.06
   0  -2  -3  328.49   18.54
   0  -2  -3  284.06   17.76
   0  -2  -3  344.82   22.30
   0  -2  -3  332.77   23.93
   0   2   4 2982.06  197.99
   0   2   4 3050.18  211.55
   0   2   4 3200.22  225.13
   0   2   4 2826.77  189.36
   0   2   4 2992.63  213.05
   0  -2  -4 2503.28  178.09
   0  -2  -4 2871.00  204.48
   0  -2  -4 2705.69  182.01
   0  -2  -4 2759.62  186.38
   0  -2  -4 2979.30  203.67
   0   2   5  281.17   15.34
   0   2   5  317.63   22.93
   0   2   5  301.77   16.86
   0   2   5  306.85   21.49
   0   2   5  321.10   23.23
   0  -2  -5  298.93   22.67
   0  -2  -5  261.47   19.19
   0  -2  -5  271.37   16.26
   0  -2  -5  293.52   19.16
   0  -2  -5  262.03   15.40
   0   2   6   61.39    8.41
   0   2   6   61.24    9.57
   0   2   6   62.59    9.22
   0   2   6   57.34    5.05
   0  -2  -6   51.76    8.00
   0  -2  -6   56.34    7.40
   0  -2  -6   41.94    6.39
   0  -2  -6   55.36    9.38
   0   2   7  415.03   33.40
   0  -2  -7  359.37   30.29
   0  -2  -7  329.85   26.98
   0   2   8   -0.62    4.81
   0  -2  -8    3.70    4.46
   0  -2  -8    5.35    4.02
   0   2   9  125.91   16.76
   0  -2  -9  104.21   14.99
   0  -2  -9  108.05   23.59
   0   2  10   70.64   12.68
   0  -2 -10   51.57   11.34
   0   2  11   96.56   14.21
   0  -2 -11   81.28   13.44
   0   2  12   74.48   15.75
   0  -2 -12   55.87   10.38
   0   2  13   54.52   11.60
   0  -2 -13   31.98    6.95
   0  -3  15    0.19    2.23
   0  -3  14   14.05    7.89
   0  -3  14   -0.53    4.15
   0  -3  13    6.29   11.35
   0   3 -12    1.94    3.11
   0  -3  12    8.20    6.17
   0   3 -11   25.17    6.89
   0  -3  11   51.29   11.14
   0  -3  11   60.86   12.17
   0   3 -10    1.18    2.34
   0  -3  10   -0.09    4.21
   0  -3  10    1.70    2.77
   0   3  -9   82.50   12.68
   0  -3   9  109.89   11.36
   0  -3   9  116.83   15.35
   0   3  -8    8.28    3.12
   0   3  -8   10.30    4.72
   0  -3   8   17.93    4.46
   0  -3   8   15.28    4.55
   0  -3   8   14.50    6.34
   0   3  -7   36.21    7.76
   0   3  -7   40.03    9.89
   0   3  -7   33.77    4.30
   0  -3   7   39.16    6.41
   0  -3   7   41.95    5.93
   0  -3   7   40.87    8.28
   0   3  -6   77.13    8.95
   0   3  -6   76.81    9.76
   0  -3   6   78.50   12.39
   0  -3   6   71.11    5.97
   0  -3   6   87.11   11.08
   0  -3   6   83.05   10.49
   0   3  -5   26.54    5.21
   0   3  -5   32.69    6.29
   0  -3   5   33.81    6.87
   0  -3   5   27.91    3.05
   0  -3   5   31.15    5.53
   0  -3   5   26.34    2.92
   0   3  -4   62.49    7.74
   0   3  -4   62.33    8.02
   0  -3   4   59.95    7.37
   0  -3   4   66.95   13.00
   0  -3   4   78.74    8.48
   0  -3   4   67.06    7.89
   0  -3   4   58.39    5.06
   0   3  -3   13.46    4.10
   0   3  -3   16.58    4.34
   0  -3   3   12.17    4.89
   0  -3   3   15.82    3.89
   0  -3   3   14.43    4.34
   0  -3   3   10.62    3.10
   0   3  -2   -0.38    3.01
   0   3  -2    8.81    3.95
   0  -3   2    7.71    2.81
   0  -3   2    8.33    5.99
   0  -3   2    5.93    2.74
   0   3  -1   69.88    8.38
   0   3  -1   62.03    6.54
   0   3  -1   67.14    7.46
   0  -3   1   63.03    7.04
   0  -3   1   68.97    8.24
   0  -3   1   63.71    6.53
   0   3   0   59.98    7.34
   0   3   0   50.69    5.99
   0   3   0   51.21    6.49
   0   3   0   52.78    6.89
   0  -3   0   46.79    6.09
   0  -3   0   43.03    2.05
   0  -3   0   46.60    5.91
   0  -3   0   50.25    6.99
   0  -3   0   48.50    2.00
   0   3   1  471.40   30.06
   0   3   1  429.71   25.32
   0   3   1  412.37   25.03
   0   3   1  473.49   29.20
   0  -3  -1  476.09   23.86
   0  -3  -1  410.06   25.85
   0  -3  -1  407.76   25.79
   0  -3  -1  412.69   19.40
   0  -3  -1  448.39   36.86
   0   3   2   53.80    7.25
   0   3   2   44.59    5.33
   0   3   2   44.78    7.11
   0   3   2   49.64    6.92
   0  -3  -2   41.86    3.38
   0  -3  -2   43.49    4.01
   0  -3  -2   41.93    6.13
   0  -3  -2   44.84    7.51
   0  -3  -2   41.58    5.38
   0   3   3  838.80   52.41
   0   3   3  857.34   53.69
   0   3   3  778.33   48.11
   0   3   3  796.42   51.52
   0  -3  -3  772.17   53.31
   0  -3  -3  766.35   45.86
   0  -3  -3  772.58   50.29
   0  -3  -3  739.68   49.28
   0  -3  -3  620.11   38.87
   0   3   4   15.52    3.19
   0   3   4   13.10    3.76
   0   3   4    0.15    4.85
   0   3   4   16.59    4.69
   0   3   4   -0.04    4.97
   0  -3  -4   13.21    7.78
   0  -3  -4   12.45    3.33
   0  -3  -4   11.19    4.12
   0  -3  -4    9.56    3.16
   0   3   5    9.03    2.66
   0   3   5   -0.06    5.03
   0   3   5   -0.21    8.13
   0  -3  -5   10.64    2.95
   0  -3  -5    8.72    5.16
   0  -3  -5    6.31    3.45
   0  -3  -5    9.04    3.02
   0   3   6    4.05    2.37
   0   3   6    0.17    4.74
   0  -3  -6   11.59    5.17
   0  -3  -6    5.18    3.38
   0   3   7    0.04    7.11
   0  -3  -7    5.53    4.86
   0  -3  -7    1.87    3.32
   0   3   8    0.20    4.17
   0  -3  -8    5.50    4.84
   0  -3  -8   -0.29    4.22
   0   3   9    0.07    2.23
   0  -3  -9   -0.10    2.76
   0  -3  -9   -0.15    2.44
   0   3  10    1.35    2.82
   0  -3 -10   -1.35    3.70
   0   3  11    0.04    3.52
   0  -3 -11    0.34    1.91
   0   3  12    0.00    2.68
   0  -3 -12    0.70    2.45
   0  -4  14   27.07    8.18
   0  -4  14   44.38   10.13
   0  -4  13   56.65   13.00
   0  -4  13   47.38    8.23
   0   4 -12   28.45    8.44
   0  -4  12   70.82   16.44
   0  -4  12   53.78   12.83
   0   4 -11  151.71   19.80
   0  -4  11  216.00   26.72
   0  -4  11  246.73   24.88
   0  -4  10   55.59   14.28
   0  -4  10   51.85   10.35
   0  -4  10   67.04   12.26
   0  -4   9  180.80   19.69
   0  -4   9  158.90   21.00
   0  -4   9  152.78   17.31
   0  -4   8  215.58   20.90
   0  -4   8  264.09   23.58
   0  -4   8  215.55   23.90
   0  -4   7  264.56   24.87
   0  -4   7  281.57   25.74
   0  -4   7  297.88   21.55
   0  -4   7  291.19   24.42
   0   4  -6  175.67   16.05
   0   4  -6  165.89   15.09
   0  -4   6  188.48   22.07
   0  -4   6  155.98   12.69
   0  -4   6  143.64   11.98
   0  -4   6  185.22   17.34
   0  -4   6  185.78   13.92
   0  -4   6  148.46   10.60
   0   4  -5  436.01   31.27
   0   4  -5  380.53   28.27
   0  -4   5  444.38   31.40
   0  -4   5  372.16   29.11
   0  -4   5  419.77   31.59
   0  -4   5  413.38   24.98
   0  -4   5  406.88   25.48
   0   4  -4   74.70   10.89
   0   4  -4   60.41   12.66
   0   4  -4   73.62    8.97
   0  -4   4   74.02    7.37
   0  -4   4   70.17    6.87
   0  -4   4   76.41   14.77
   0  -4   4   64.61    6.30
   0   4  -3  229.56   16.57
   0   4  -3  246.86   19.80
   0  -4   3  238.28   18.67
   0  -4   3  166.12   13.25
   0  -4   3  224.38   18.27
   0   4  -2  343.13   23.44
   0   4  -2  359.98   26.24
   0  -4   2  287.91   25.06
   0  -4   2  336.41   25.39
   0  -4   2  356.81   25.60
   0   4  -1  301.29   28.11
   0   4  -1  266.12   22.76
   0   4  -1  286.06   20.39
   0  -4   1  284.98   21.60
   0  -4   1  238.67   17.90
   0  -4   1  271.53   18.34
   0   4   0  334.69   23.27
   0   4   0  446.35   30.56
   0   4   0  322.30   27.05
   0   4   0  362.54   24.34
   0  -4   0  314.65   22.56
   0  -4   0  276.63   22.44
   0  -4   0  321.86   21.72
   0   4   1  321.83   23.24
   0   4   1  275.83   19.26
   0   4   1  299.57   20.75
   0   4   1  288.06   25.54
   0  -4  -1  259.30   19.43
   0  -4  -1  245.11   18.60
   0  -4  -1  279.17   28.17
   0   4   2  486.08   33.81
   0   4   2  461.41   30.24
   0   4   2  445.11   31.57
   0   4   2  397.15   26.08
   0  -4  -2  373.95   26.75
   0  -4  -2  405.19   37.33
   0  -4  -2  393.15   28.37
   0   4   3  447.73   38.21
   0   4   3  312.89   21.19
   0   4   3  416.49   27.76
   0  -4  -3  370.62   30.41
   0  -4  -3  353.04   27.26
   0  -4  -3  339.22   24.65
   0   4   4   84.35   11.34
   0  -4  -4   78.81   11.55
   0  -4  -4   71.37    8.91
   0   4   5  275.27   24.29
   0  -4  -5  267.15   24.96
   0  -4  -5  224.95   19.92
   0   4   6   39.15    9.68
   0  -4  -6   35.27   10.59
   0   4   7  127.10   17.00
   0  -4  -7  120.58   17.99
   0   4   8    0.59    3.22
   0  -4  -8    0.41    3.34
   0   4   9   61.45    8.88
   0  -4  -9   13.63    5.57
   0   4  10   42.40    5.85
   0  -4 -10    5.79    3.81
   0  -5  14    0.87    3.38
   0   5 -13    0.22    1.97
   0  -5  13    0.04    2.79
   0   5 -12   34.83    9.67
   0  -5  12   54.16   12.62
   0  -5  12   42.50    7.68
   0   5 -11   16.04    8.96
   0  -5  11   31.21   10.35
   0  -5  11   24.62    6.45
   0   5 -10    0.12   13.01
   0  -5  10   21.04    9.30
   0  -5  10   19.24    5.85
   0   5  -9   -0.38    4.77
   0  -5   9    0.01    3.04
   0  -5   9   14.14    7.45
   0   5  -8   -0.49    8.71
   0  -5   8   18.77    5.41
   0  -5   8   22.03    8.11
   0   5  -7    0.31    4.01
   0  -5   7   -1.88    2.26
   0  -5   7    0.74    3.50
   0   5  -6   26.22   13.05
   0  -5   6   24.76    7.70
   0  -5   6   28.55    7.67
   0  -5   6   10.76    5.79
   0  -5   6   16.43    3.98
   0   5  -5   16.41    6.99
   0  -5   5   12.98    6.03
   0  -5   5   12.13    6.04
   0  -5   5   11.59    3.76
   0  -5   5    9.09    3.63
   0   5  -4   28.87    6.94
   0   5  -4   30.58    8.52
   0  -5   4   26.57    8.04
   0  -5   4   23.90    7.15
   0  -5   4   26.38    5.14
   0  -5   4   25.76    5.67
   0   5  -3   69.66    9.57
   0   5  -3   70.80   11.50
   0  -5   3   48.57    8.16
   0  -5   3   62.37    7.89
   0  -5   3   71.63   10.57
   0   5  -2   18.97    6.85
   0   5  -2   19.90    5.30
   0  -5   2   15.72    9.67
   0  -5   2   15.65    4.52
   0  -5   2   14.02    5.45
   0   5  -1  172.35   15.28
   0   5  -1  174.41   21.50
   0  -5   1  174.42   16.69
   0  -5   1  152.18   20.02
   0  -5   1  168.93   14.31
   0   5   0    0.34    1.87
   0   5   0    0.08    1.82
   0  -5   0    0.09    2.25
   0  -5   0   -1.06    1.84
   0  -5   0    1.70    1.94
   0   5   1   86.25    9.79
   0  -5  -1   90.97   11.19
   0  -5  -1   96.97   12.55
   0  -5  -1   90.39   10.66
   0  -5  -2    0.14    6.40
   0  -5  -2    2.42    3.52
   0  -5  -2    3.67    3.53
   0   5   3   47.75    9.89
   0  -5  -3   44.87    9.24
   0  -5  -3   41.71    8.42
   0   5   4    9.97    6.00
   0  -5  -4    9.04    6.15
   0  -5  -4    9.22    7.79
   0   5   5    0.15    2.41
   0  -5  -5    0.57    2.77
   0  -5  -5    0.05    1.74
   0   5   6    0.59    2.85
   0  -5  -6    0.11    3.27
   0   5   7   -0.37    2.46
   0  -5  -7   -0.02    2.69
   0   5   8   -0.14    1.90
   0  -5  -8   -0.10    2.41
   0   5   9    0.08    1.88
   0   6 -13   66.86   14.32
   0  -6  13   94.01   17.26
   0   6 -12    9.09    7.81
   0  -6  12    0.62    5.23
   0   6 -11   22.97   10.51
   0  -6  11   34.75   10.18
   0   6 -10   63.94   15.06
   0  -6  10   76.63   14.44
   0   6  -9  112.37   19.28
   0  -6   9  114.21   18.38
   0   6  -8   79.29   15.62
   0  -6   8   48.57   13.12
   0  -6   8   67.57    8.86
   0   6  -7  249.90   29.22
   0  -6   7  243.91   25.16
   0  -6   7  212.91   18.68
   0   6  -6   -0.14    9.82
   0  -6   6   -0.00    5.07
   0  -6   6    0.32    5.33
   0  -6   6    7.78    4.41
   0   6  -5    0.02    4.79
   0  -6   5    0.37    4.08
   0  -6   5   -0.01    3.86
   0  -6   5    2.19    2.42
   0   6  -4  294.99   30.47
   0  -6   4  266.75   26.53
   0  -6   4  234.44   21.48
   0   6  -3  125.80   16.41
   0  -6   3  101.94   12.77
   0  -6   3  119.43   15.04
   0  -6   3  110.86   11.94
   0   6  -2  196.14   20.35
   0  -6   2  180.82   16.64
   0  -6   2  191.82   20.23
   0  -6   2  167.75   17.87
   0   6  -1  173.49   24.17
   0  -6   1  165.01   18.10
   0  -6   1  174.79   16.64
   0  -6   1  179.94   19.53
   0   6   0   70.01   10.52
   0  -6   0   74.73   14.94
   0  -6   0   83.01   12.53
   0  -6   0   78.24   11.58
   0  -6  -1   53.86    9.58
   0  -6  -1   53.41   15.70
   0  -6  -1   56.53   11.00
   0   6   2  198.83   21.74
   0  -6  -2  170.92   18.48
   0  -6  -2  171.12   25.93
   0   6   3   97.54   19.34
   0  -6  -3   82.46   18.94
   0  -6  -3   89.90   19.18
   0   6   4   67.78   10.73
   0  -6  -4   74.14   12.25
   0  -6  -4   50.32   10.01
   0   6   5   74.15   11.15
   0  -6  -5   81.04   12.49
   0  -6  -5   41.99   12.96
   0   6   6   73.73   10.64
   0  -6  -6   73.37   11.78
   0   6   7   26.23    5.71
   0  -6  -7   51.77    8.42
   0   7 -12   79.78   11.68
   0  -7  12   74.87   10.77
   0   7 -11    1.32    5.82
   0  -7  11    0.36    4.83
   0   7 -10    1.52    5.98
   0  -7  10    5.07    7.24
   0   7  -9    2.55    4.77
   0  -7   9   -0.31    3.42
   0   7  -8    5.49    8.05
   0  -7   8    6.85    6.16
   0   7  -7    2.79    7.51
   0  -7   7    5.56    5.54
   0   7  -6    2.74    5.36
   0  -7   6    0.30    6.77
   0  -7   6    1.72    2.60
   0   7  -5    3.73    5.90
   0  -7   5    0.01    7.22
   0  -7   5    3.37    3.43
   0   7  -4   -0.38    4.16
   0  -7   4    1.60    2.47
   0  -7   4   -0.45    5.67
   0  -7   4    1.05    2.95
   0   7  -3    6.44    5.18
   0  -7   3   -0.04    5.16
   0  -7   3    5.01    3.72
   0  -7   3    4.39    4.48
   0   7  -2   10.80    5.99
   0  -7   2    8.67    4.42
   0  -7   2    0.50    6.34
   0  -7   2   11.71    5.70
   0   7  -1   23.58    6.63
   0  -7   1   -0.19   12.00
   0  -7   1   27.44    7.75
   0  -7   1   18.86    9.25
   0  -7   0   33.79   11.28
   0  -7   0   36.36    9.43
   0  -7   0   36.72    9.67
   0   7   1   51.35   14.91
   0  -7  -1   46.38    8.99
   0  -7  -1   48.67   10.86
   0   7   2    9.77    5.30
   0  -7  -2   12.51    5.43
   0  -7  -2    9.65    6.21
   0  -7  -3   -0.11    3.03
   0  -7  -3    2.18    2.97
   0  -7  -4    0.80    2.64
   0  -7  -4    2.02    3.06
   0  -7  -5   19.02    5.18
   0   8 -10   41.12   13.41
   0  -8  10   24.28    5.33
   0   8  -9   61.19   11.69
   0  -8   9   44.38    8.33
   0   8  -8   -0.56    2.96
   0  -8   8    0.23    3.19
   0   8  -7   -0.25    8.75
   0  -8   7    4.16    3.93
   0   8  -6   61.75   11.42
   0  -8   6   50.09    9.15
   0  -8   6   11.14    9.10
   0   8  -5   63.55   11.23
   0  -8   5   27.31    7.79
   0  -8   5   49.39   13.29
   0   8  -4   64.57   15.97
   0  -8   4   59.48   14.98
   0  -8   4   47.52    9.44
   0   8  -3   43.04    8.85
   0  -8   3   43.62    9.24
   0   8  -2   24.60    6.74
   0  -8   2   37.32    8.26
   0  -8   1    1.15    3.34
   0  -8   0   84.99   12.09
   0  -8   0   58.61    7.98
   0  -8  -1   36.09    8.48
   0  -8  -1   44.22    8.61
   0  -8  -2   20.47    4.37
   0  -8  -2   28.09    6.22
   0  -8  -3   27.20    5.38
   0   9  -7    0.10    1.48
   0   9  -6    0.11    1.43
   0   9  -5    0.26    1.54
   0  -9   5   -0.83    1.24
   0  -9   4    2.45    3.75
   0  -9   3   13.36    6.81
   0  -9   2   51.76    7.97
   1  -9   1   42.33    7.34
   1  -9   2   31.96    6.69
   1  -9   3    7.97    3.93
   1  -9   3    0.04    3.20
  -1   9  -3   12.13    3.50
   1  -9   4    8.30    7.36
  -1   9  -4   24.72    5.57
   1  -9   5   11.62    8.82
  -1   9  -5   59.18    8.05
   1  -9   6    9.89    3.37
  -1   9  -6   52.35    9.22
  -1   9  -7   41.32    7.73
   1  -8  -3   24.03    4.84
   1  -8  -3    5.31    4.00
   1  -8  -2    0.73    2.80
   1  -8  -2    2.69    3.04
   1  -8  -1    0.27    2.07
   1  -8  -1    0.07    3.48
   1  -8   0    5.85    5.17
   1  -8   0    8.72    4.61
  -1   8   0    6.40    3.93
   1  -8   1    8.29    4.81
   1  -8   1    6.34    5.28
  -1   8  -1    9.80    4.96
   1  -8   2   12.40    5.61
   1  -8   2   12.33    6.27
  -1   8  -2   18.12    6.42
   1  -8   3    5.84    5.51
   1  -8   3   10.08    5.02
  -1   8  -3   12.54    6.21
   1  -8   4    3.79    3.25
   1  -8   4    0.43    3.36
  -1   8  -4    0.18    4.34
   1  -8   5    1.58    1.38
   1  -8   5   -1.39    1.37
  -1   8  -5   -0.36    2.19
   1  -8   6    0.37    1.60
   1  -8   6   -0.18    1.83
  -1   8  -6    0.38    3.10
   1  -8   7    0.13    1.51
   1  -8   7   -0.21    1.20
  -1   8  -7   -0.34    4.40
   1  -8   8    0.03    2.98
  -1   8  -8   16.39    5.72
   1  -8   9    0.00    1.49
  -1   8  -9    2.39    3.24
  -1   8 -10    1.73    3.84
   1  -7  -6    1.96    2.99
   1  -7  -5   75.36   17.15
   1  -7  -4  154.08   15.95
   1  -7  -4   61.68   11.09
   1  -7  -3   37.19    9.23
   1  -7  -3   22.07   11.30
   1  -7  -2   35.90    9.09
   1  -7  -2   27.35    8.36
   1  -7  -1   80.58   12.72
   1  -7  -1   94.08   13.30
  -1   7   1   76.30   11.74
   1  -7   0   38.89    9.24
   1  -7   0   35.11   14.45
  -1   7   0   37.91   13.66
   1  -7   1  260.14   24.95
   1  -7   1  265.16   27.16
  -1   7  -1  268.10   26.88
   1  -7   2  336.20   36.99
   1  -7   2  325.89   30.59
  -1   7  -2  339.88   32.24
   1  -7   3   71.87   12.51
   1  -7   3   80.96   12.14
  -1   7  -3   90.42   15.60
   1  -7   4  183.96   20.66
   1  -7   4  194.34   25.93
  -1   7  -4  207.65   25.53
   1  -7   5   66.85   15.48
   1  -7   5   48.29   10.03
  -1   7  -5   70.72   14.96
   1  -7   6   60.73   11.94
   1  -7   6  133.12   14.29
  -1   7  -6  141.65   20.05
   1  -7   7    6.39    4.45
   1  -7   7    2.33    2.96
  -1   7  -7    9.58   10.54
   1  -7   8   35.43    8.53
  -1   7  -8   40.07   12.51
   1  -7   9   50.18   12.73
  -1   7  -9   54.10   13.18
   1  -7  10   43.77    9.12
   1  -7  10   61.99   12.18
  -1   7 -10   72.16   18.75
   1  -7  11    0.06    2.63
   1  -7  11   -0.16    2.78
  -1   7 -11    9.73    3.95
  -1   7 -12    3.52    3.38
   1  -6  -8    3.27    6.03
   1  -6  -7    0.02    1.77
   1  -6  -6   -0.04    2.22
   1  -6  -5   60.08   11.74
   1  -6  -5  201.24   19.30
   1  -6  -4   -0.22    1.83
   1  -6  -4    0.06    2.65
   1  -6  -3   11.80    5.71
   1  -6  -3   15.83    7.37
   1  -6  -2   17.17   10.39
   1  -6  -2   25.41    8.28
  -1   6   2   24.68    6.79
   1  -6  -1    1.16    2.93
   1  -6  -1    0.06    3.19
  -1   6   1    0.99    3.04
   1  -6   0   12.58    9.51
   1  -6   0   10.44    6.47
  -1   6   0   14.91    6.14
   1  -6   1    5.65    5.17
   1  -6   1    5.03    7.71
  -1   6  -1    6.31    5.50
   1  -6   2    4.44    4.46
   1  -6   2    5.07    4.41
  -1   6  -2    3.64    5.37
   1  -6   3    1.80    3.19
   1  -6   3    0.81    3.17
  -1   6  -3    1.33    4.37
   1  -6   4    2.01    2.89
   1  -6   4   -0.63    2.51
   1  -6   4   -0.03    2.52
  -1   6  -4    2.90    4.03
   1  -6   5   -0.01    2.58
   1  -6   5    2.10    3.57
   1  -6   5    0.53    2.76
  -1   6  -5    0.10    7.01
   1  -6   6   39.78    8.39
   1  -6   6   39.04    8.24
   1  -6   6   24.98    6.47
  -1   6  -6   51.56   13.05
   1  -6   7   41.58   11.84
   1  -6   7   30.36    7.29
   1  -6   7   12.23    4.97
  -1   6  -7   38.32   11.43
   1  -6   8   -0.04    2.66
   1  -6   8    0.55    2.57
  -1   6  -8   -0.09    5.92
   1  -6   9   -0.26    2.49
   1  -6   9    0.68    2.70
  -1   6  -9    0.47    3.60
   1  -6  10    6.42    7.61
   1  -6  10    1.48    6.83
  -1   6 -10    4.64    6.12
   1  -6  11    2.18    3.04
   1  -6  11   -0.39    3.78
  -1   6 -11    2.44    5.98
   1  -6  12   36.20    6.55
   1  -6  12   33.24    7.91
  -1   6 -12    0.76   10.48
   1  -6  13    2.50    2.24
   1  -6  13   -0.14    1.62
   1  -5  -8   63.85   11.71
   1  -5  -7   -0.32    5.44
   1  -5  -6  186.20   23.68
   1  -5  -5   96.11   14.09
   1  -5  -5   42.69    8.42
   1  -5  -4   58.19   11.32
   1  -5  -4   40.47   11.34
   1  -5  -3  165.82   16.14
   1  -5  -3  180.10   19.36
  -1   5   3  179.67   20.87
   1  -5  -2   17.69    5.96
   1  -5  -2   10.93    4.80
  -1   5   2   -0.02    7.85
  -1   5   2   15.08    4.61
   1  -5  -1  616.34   45.10
   1  -5  -1  606.42   44.32
   1  -5  -1  539.62   38.61
  -1   5   1  598.30   43.70
  -1   5   1  568.62   42.08
   1  -5   0 1119.69   79.78
   1  -5   0 1150.57   81.27
   1  -5   0 1174.21   82.09
  -1   5   0 1122.34   75.61
  -1   5   0 1200.78   86.98
   1  -5   1  107.67   11.91
   1  -5   1   95.73    9.78
   1  -5   1  102.92   11.87
  -1   5  -1  110.34   13.23
  -1   5  -1  110.10   12.45
   1  -5   2  377.43   28.46
   1  -5   2  398.64   29.90
   1  -5   2  438.94   32.26
   1  -5   2  356.15   25.86
  -1   5  -2  377.01   31.58
  -1   5  -2  376.25   25.93
   1  -5   3  133.71   13.40
   1  -5   3  127.61   11.94
   1  -5   3  129.75   13.13
   1  -5   3  136.81   12.86
  -1   5  -3  123.17   10.81
  -1   5  -3  147.70   17.89
   1  -5   4  205.11   16.89
   1  -5   4  212.89   23.95
   1  -5   4  191.99   16.30
   1  -5   4  202.28   21.34
  -1   5  -4  218.79   31.21
  -1   5  -4  188.92   19.33
   1  -5   5  183.96   19.87
   1  -5   5  173.13   16.44
   1  -5   5  185.69   22.08
  -1   5  -5  158.89   14.53
  -1   5  -5  194.41   21.90
   1  -5   6  168.83   17.01
   1  -5   6  171.23   21.76
   1  -5   6  145.13   13.40
  -1   5  -6  164.05   19.79
   1  -5   7  142.33   15.67
   1  -5   7  138.18   15.65
  -1   5  -7  134.81   18.62
   1  -5   8  220.84   22.67
   1  -5   8  236.10   23.34
  -1   5  -8  205.36   23.94
   1  -5   9   73.31   13.00
   1  -5   9   74.73   13.04
  -1   5  -9   69.93   13.53
   1  -5  10  125.14   16.14
   1  -5  10  105.01   16.62
  -1   5 -10  100.28   16.60
   1  -5  11    6.74    4.89
   1  -5  11    2.38    4.55
  -1   5 -11   -0.04    4.45
   1  -5  12   -2.82    4.70
   1  -5  12   -2.29    6.60
   1  -5  13   82.08   10.69
   1  -5  13   80.30   13.19
   1  -5  14   14.27    3.70
   1  -5  14   17.74    5.61
   1  -4 -10    1.27    2.11
   1  -4  -9    2.74    3.77
   1  -4  -9   12.83    5.95
   1  -4  -8    2.56    2.95
   1  -4  -8    4.23    4.65
  -1   4   8   -0.39    3.09
   1  -4  -7  119.79   15.43
   1  -4  -7  222.92   22.30
  -1   4   7  212.10   23.88
   1  -4  -6    0.15    3.96
   1  -4  -6    1.66    2.28
  -1   4   6    0.17    2.67
   1  -4  -5   57.05    8.09
   1  -4  -5   91.05   12.97
   1  -4  -5   61.42    8.94
  -1   4   5   85.52    8.84
  -1   4   5   87.61    9.99
   1  -4  -4   55.85    7.23
   1  -4  -4   53.01    6.20
   1  -4  -4   51.83    6.95
   1  -4  -4   68.86   10.77
  -1   4   4   68.50    8.13
  -1   4   4   66.29    8.03
  -1   4   4   76.22    8.63
   1  -4  -3   41.28    7.87
   1  -4  -3   42.67    8.33
   1  -4  -3   30.60    4.59
   1  -4  -3   32.38    5.86
  -1   4   3   43.41    6.09
  -1   4   3   41.22    5.89
  -1   4   3   43.86    6.46
  -1   4   3   45.56    7.21
   1  -4  -2   47.21    8.11
   1  -4  -2   44.25    6.48
   1  -4  -2   44.75    6.65
  -1   4   2   49.28    7.98
  -1   4   2   59.48    9.87
  -1   4   2   47.92    5.85
  -1   4   2   50.32    7.46
   1  -4  -1  161.78   12.67
   1  -4  -1  169.50   14.51
   1  -4  -1  171.96   14.20
  -1   4   1  189.54   16.60
  -1   4   1  188.40   16.62
  -1   4   1  167.04   14.58
  -1   4   1  166.86   14.64
   1  -4   0    2.42    2.64
   1  -4   0    0.01    3.08
  -1   4   0    2.60    3.16
  -1   4   0    2.54    3.01
  -1   4   0    2.74    2.71
  -1   4   0   -0.49    4.16
   1  -4   1    2.39    2.27
   1  -4   1    5.70    3.39
   1  -4   1    4.66    3.28
   1  -4   1    5.00    3.50
  -1   4  -1    4.46    3.20
  -1   4  -1    4.69    3.93
   1  -4   2   12.98    3.48
   1  -4   2   17.30    4.67
   1  -4   2   16.78    4.84
   1  -4   2   15.08    4.35
  -1   4  -2    0.01    4.93
  -1   4  -2   13.45    3.11
  -1   4  -2   18.48    6.19
   1  -4   3  143.18   15.59
   1  -4   3  149.74   11.70
   1  -4   3  147.37   11.91
   1  -4   3  147.88   13.06
  -1   4  -3  136.90   10.28
  -1   4  -3  159.59   16.22
  -1   4  -3  138.88   13.11
   1  -4   4  458.17   31.43
   1  -4   4  451.04   29.89
   1  -4   4  447.67   28.78
   1  -4   4  439.41   28.09
  -1   4  -4  452.89   34.04
  -1   4  -4  441.27   28.90
  -1   4  -4  436.54   30.47
   1  -4   5 1703.91  109.90
   1  -4   5 1700.79  118.97
   1  -4   5 1347.13   90.36
   1  -4   5 1194.80   89.09
  -1   4  -5 1653.27  111.10
  -1   4  -5 1765.76  122.30
  -1   4  -5 1604.14  107.83
   1  -4   6  218.58   15.48
   1  -4   6  234.96   24.65
   1  -4   6  258.27   20.03
   1  -4   6  208.60   15.01
   1  -4   6  230.22   18.75
  -1   4  -6  225.97   20.55
  -1   4  -6  207.25   17.22
  -1   4  -6  211.18   22.08
   1  -4   7    5.98    3.75
   1  -4   7    7.07    4.66
   1  -4   7    1.71    1.80
   1  -4   7    2.54    2.00
  -1   4  -7   -0.26    3.92
   1  -4   8   58.56   12.02
   1  -4   8   52.78   10.38
  -1   4  -8   42.57    9.68
   1  -4   9   29.63    8.39
   1  -4   9    0.31    9.13
  -1   4  -9   23.40    6.97
   1  -4  10    0.11   10.52
   1  -4  10   46.60   10.04
  -1   4 -10   30.24   11.38
   1  -4  11   75.81   15.43
   1  -4  11   90.68   17.69
   1  -4  12   82.29   16.28
   1  -4  12  111.66   18.23
   1  -4  13    0.42    4.28
   1  -4  13    2.43    3.54
   1  -4  14    4.75    3.76
   1  -4  14   -0.14    3.18
   1  -3 -12   46.70    7.85
   1  -3 -11   14.95    4.64
  -1   3  11    0.40    3.93
   1  -3 -10  119.32   16.06
  -1   3  10  133.70   14.90
   1  -3  -9   61.26   17.45
   1  -3  -9   45.59   10.40
  -1   3   9   56.02    9.43
   1  -3  -8    5.80    5.35
   1  -3  -8    3.38    4.19
  -1   3   8    0.40    6.13
   1  -3  -7  189.90   19.18
   1  -3  -7  221.55   22.40
  -1   3   7  224.56   20.02
   1  -3  -6   68.35    8.24
   1  -3  -6   79.88   10.71
   1  -3  -6   84.66   12.30
  -1   3   6   86.89   10.28
  -1   3   6   79.72    7.95
   1  -3  -5  227.67   16.22
   1  -3  -5  280.87   19.19
   1  -3  -5  272.57   23.10
   1  -3  -5  279.32   20.74
   1  -3  -5  290.91   23.59
  -1   3   5  275.68   21.01
  -1   3   5  308.20   21.64
  -1   3   5  291.52   19.74
   1  -3  -4    9.59    2.51
   1  -3  -4   15.40    4.70
   1  -3  -4    7.53    2.94
   1  -3  -4   13.86    4.26
   1  -3  -4   12.70    5.51
  -1   3   4    0.01    3.56
  -1   3   4   15.85    3.63
  -1   3   4   15.63    4.77
  -1   3   4   11.68    3.29
  -1   3   4   12.50    3.59
   1  -3  -3  548.95   34.69
   1  -3  -3  420.11   26.83
   1  -3  -3  520.45   34.46
   1  -3  -3  552.03   31.32
   1  -3  -3  540.87   32.17
  -1   3   3  547.91   33.15
  -1   3   3  578.61   40.19
  -1   3   3  577.05   34.29
  -1   3   3  608.10   36.31
  -1   3   3  592.81   43.42
   1  -3  -2  447.70   29.43
   1  -3  -2  446.77   24.24
   1  -3  -2  471.25   28.59
   1  -3  -2  441.53   27.67
   1  -3  -2  466.18   30.22
  -1   3   2  509.55   27.47
  -1   3   2  499.11   36.69
  -1   3   2  464.38   29.83
  -1   3   2  509.25   30.77
  -1   3   2  495.87   29.00
   1  -3  -1  553.15   28.51
   1  -3  -1  559.56   35.82
   1  -3  -1  559.20   34.05
   1  -3  -1  508.35   32.58
  -1   3   1  556.50   34.02
  -1   3   1  544.37   35.61
  -1   3   1  558.66   36.08
  -1   3   1  580.25   37.04
   1  -3   0   15.49    4.40
   1  -3   0   14.38    1.60
   1  -3   0   12.74    4.11
   1  -3   0   13.31    2.90
  -1   3   0   15.70    2.70
  -1   3   0   14.91    4.84
  -1   3   0   14.68    4.44
  -1   3   0    0.13    9.52
   1  -3   1  659.76   40.10
   1  -3   1  744.13   45.17
   1  -3   1  747.66   44.85
   1  -3   1  789.91   38.85
   1  -3   1  769.07   52.25
  -1   3  -1  671.80   41.93
  -1   3  -1  743.82   43.21
  -1   3  -1  803.08   51.81
   1  -3   2   33.47    5.53
   1  -3   2   35.55    3.19
   1  -3   2   34.42    4.52
   1  -3   2   30.12    4.92
   1  -3   2   32.33    5.89
  -1   3  -2   38.42    7.34
  -1   3  -2   29.24    3.63
  -1   3  -2   29.17    5.55
   1  -3   3 1098.41   66.20
   1  -3   3 1113.92   66.36
   1  -3   3 1037.88   62.29
   1  -3   3 1260.57   65.13
   1  -3   3 1083.30   67.06
  -1   3  -3 1113.66   72.22
  -1   3  -3 1044.96   62.62
  -1   3  -3 1092.12   73.98
   1  -3   4 1371.88   89.22
   1  -3   4 1546.66   89.43
   1  -3   4 1515.24   93.72
   1  -3   4 1804.22  117.44
   1  -3   4 1471.96   94.87
  -1   3  -4 1438.92   96.23
  -1   3  -4 1385.05   89.34
  -1   3  -4 1377.55   95.10
   1  -3   5  403.25   22.93
   1  -3   5  390.89   25.36
   1  -3   5  419.21   21.47
   1  -3   5  298.58   18.61
  -1   3  -5  365.32   23.93
  -1   3  -5  354.80   22.67
  -1   3  -5  396.48   27.28
  -1   3  -5  372.53   20.21
   1  -3   6  276.26   16.25
   1  -3   6  305.20   21.40
   1  -3   6  303.71   20.11
   1  -3   6  296.53   21.48
   1  -3   6  292.31   17.05
  -1   3  -6  267.26   18.17
  -1   3  -6  265.54   18.30
  -1   3  -6  266.33   19.87
   1  -3   7  321.88   24.50
   1  -3   7  337.15   24.43
   1  -3   7  312.52   21.47
  -1   3  -7  313.88   25.22
  -1   3  -7  274.90   18.47
  -1   3  -7  299.15   21.23
   1  -3   8  248.38   26.76
  -1   3  -8  215.65   16.66
  -1   3  -8  199.35   17.13
  -1   3  -8  198.42   15.24
   1  -3   9   89.58   12.92
  -1   3  -9   72.02    8.90
  -1   3  -9   65.20    9.18
   1  -3  10   17.50    7.42
  -1   3 -10   10.11    4.57
   1  -3  11  248.74   32.61
  -1   3 -11  150.50   15.93
   1  -3  12   64.08   11.72
  -1   3 -12   28.06    8.31
   1  -3  13   85.28   12.39
  -1   3 -13   26.61    6.90
   1  -3  14   65.73   12.04
   1  -3  14   84.03   13.68
   1  -2 -13    3.20    2.67
  -1   2  13    0.46    1.78
   1  -2 -12   -0.32    2.39
  -1   2  12    0.13    1.46
   1  -2 -11    2.75    4.16
  -1   2  11    0.05    6.18
   1  -2 -10   -0.77    3.06
  -1   2  10   -0.06    2.67
   1  -2  -9    1.38    3.49
   1  -2  -9    2.03    3.80
  -1   2   9   -0.11    3.07
   1  -2  -8    0.03    3.98
   1  -2  -8   -1.00    2.65
  -1   2   8    0.18    2.15
   1  -2  -7   -0.32    4.31
   1  -2  -7    5.31    6.33
   1  -2  -7    6.05    3.00
  -1   2   7    7.59    3.92
  -1   2   7   -0.24    3.52
   1  -2  -6    3.07    2.48
   1  -2  -6    2.19    2.82
   1  -2  -6    0.03    5.20
   1  -2  -6   -0.06    2.22
  -1   2   6    0.16    2.67
  -1   2   6   -0.07    3.89
  -1   2   6    4.49    2.84
  -1   2   6    3.47    3.26
   1  -2  -5    3.49    2.65
   1  -2  -5    2.68    2.24
   1  -2  -5    2.84    2.03
   1  -2  -5    0.02    2.02
  -1   2   5   -0.14    2.10
  -1   2   5    0.17    2.01
  -1   2   5    0.07    2.94
  -1   2   5    3.06    2.40
  -1   2   5    0.97    1.23
   1  -2  -4    0.53    1.36
   1  -2  -4    0.28    1.20
   1  -2  -4    0.45    1.10
   1  -2  -4    0.58    1.41
   1  -2  -4    0.53    1.61
  -1   2   4    0.06    1.20
  -1   2   4    0.58    1.38
  -1   2   4   -0.66    0.93
  -1   2   4    0.23    2.03
  -1   2   4    0.04    1.27
   1  -2  -3  302.56   20.44
   1  -2  -3  316.55   17.45
   1  -2  -3  368.80   23.74
   1  -2  -3  343.11   22.80
  -1   2   3  352.60   19.54
  -1   2   3  335.61   19.75
  -1   2   3  369.80   21.53
  -1   2   3  388.41   22.57
  -1   2   3  331.38   20.83
  -1   2   3  333.69   20.96
   1  -2  -2    2.11    2.23
   1  -2  -2    1.53    1.37
   1  -2  -2   -0.28    3.00
   1  -2  -2    2.79    2.72
  -1   2   2    1.78    1.88
  -1   2   2    0.02    1.71
  -1   2   2    1.14    2.41
  -1   2   2    0.00    1.53
  -1   2   2    1.53    2.56
  -1   2   2    4.57    2.15
   1  -2  -1   -0.43    2.20
   1  -2  -1    7.38    1.62
   1  -2  -1    6.90    2.83
   1  -2  -1    8.65    3.33
  -1   2   1   -0.54    1.55
  -1   2   1    5.75    2.53
  -1   2   1   -0.18    3.05
  -1   2   1   -0.32    4.22
   1  -2   0   15.31    2.27
   1  -2   0   15.77    4.81
   1  -2   0   13.61    3.89
   1  -2   0   14.41    3.96
   1  -2   0   12.73    4.07
   1  -2   0   12.95    2.19
  -1   2   0   15.27    4.69
  -1   2   0   15.37    2.15
  -1   2   0   14.63    3.86
   1  -2   1  296.44   18.31
   1  -2   1  296.62   17.67
   1  -2   1  298.86   14.04
   1  -2   1  264.04   17.32
   1  -2   1  254.05   16.13
  -1   2  -1  264.59   16.98
  -1   2  -1  265.39   12.98
  -1   2  -1  298.97   20.59
   1  -2   2  282.15   19.36
   1  -2   2  245.17   14.89
   1  -2   2  282.89   15.93
   1  -2   2  236.84   16.13
   1  -2   2  227.98   18.85
  -1   2  -2  223.03   12.30
  -1   2  -2  238.25   16.98
  -1   2  -2  217.56   14.15
   1  -2   3 8619.25  718.60
   1  -2   3 9126.09  754.22
   1  -2   310275.70  836.63
   1  -2   3 8599.93  717.56
  -1   2  -3 8091.33  680.87
  -1   2  -3 8841.71  746.09
  -1   2  -3 8545.07  715.01
   1  -2   4  415.93   24.58
   1  -2   4  423.26   24.61
   1  -2   4  421.80   25.57
   1  -2   4  422.83   28.63
   1  -2   4  447.60   23.44
  -1   2  -4  358.82   22.65
  -1   2  -4  413.52   22.66
  -1   2  -4  374.00   25.01
   1  -2   5   61.67    7.52
   1  -2   5   53.75    4.67
   1  -2   5   58.54    7.50
   1  -2   5   56.54    6.96
   1  -2   5   57.92    4.46
   1  -2   5   58.94    5.96
  -1   2  -5   51.21   10.53
  -1   2  -5   57.50    5.89
  -1   2  -5   49.74    5.09
   1  -2   6   93.60    6.45
   1  -2   6   95.81   15.04
   1  -2   6   96.97    6.16
   1  -2   6   97.96    9.66
   1  -2   6   94.34    7.63
  -1   2  -6   88.84   10.03
  -1   2  -6   88.14    9.62
  -1   2  -6   95.85    8.62
   1  -2   7  128.60   12.27
   1  -2   7  134.96   13.72
   1  -2   7  114.61    8.84
  -1   2  -7  105.06    8.27
  -1   2  -7  121.10   10.93
  -1   2  -7  122.21   13.75
   1  -2   8    7.89    4.94
   1  -2   8    6.58    3.73
  -1   2  -8    6.89    3.73
  -1   2  -8    4.17    2.44
   1  -2   9  280.30   27.38
  -1   2  -9  253.71   22.41
   1  -2  10  144.74   18.53
  -1   2 -10  128.94   15.29
   1  -2  11    4.36    6.04
  -1   2 -11    1.96    6.53
  -1   2 -12    2.21    3.76
   1  -2  13    6.09   10.22
  -1   2 -13    5.16    4.51
   1  -2  14    0.00    3.29
  -1   2 -14    0.98    2.20
   1  -1 -14   45.03    7.51
   1  -1 -13   29.04    8.06
  -1   1  13   31.39    8.23
   1  -1 -12   76.10   20.66
  -1   1  12  100.29   15.52
   1  -1 -11  152.35   19.26
  -1   1  11  157.73   18.91
   1  -1 -10    1.65    4.41
  -1   1  10    2.50    6.94
   1  -1  -9  200.03   28.10
   1  -1  -9  210.95   21.81
  -1   1   9  217.50   27.74
   1  -1  -8   98.30   12.07
   1  -1  -8   96.22   10.45
   1  -1  -8  107.76   13.48
  -1   1   8  100.19    9.36
  -1   1   8  106.58   12.33
   1  -1  -7  368.43   26.44
   1  -1  -7  351.83   26.45
   1  -1  -7  326.17   25.74
   1  -1  -7  335.34   32.30
  -1   1   7  336.60   26.57
  -1   1   7  402.04   30.30
  -1   1   7  361.99   25.39
  -1   1   7  333.56   25.24
   1  -1  -6    8.52    4.30
   1  -1  -6   11.89    4.24
   1  -1  -6    0.90    4.29
   1  -1  -6   13.54    3.86
  -1   1   6   12.47    3.36
  -1   1   6   10.31    3.95
  -1   1   6   16.14    4.64
  -1   1   6   11.37    3.81
   1  -1  -5  623.63   38.39
   1  -1  -5  588.13   37.54
   1  -1  -5  601.59   37.34
   1  -1  -5  601.48   38.00
  -1   1   5  611.38   37.43
  -1   1   5  646.90   40.61
  -1   1   5  587.51   35.33
  -1   1   5  649.80   39.00
   1  -1  -4   69.29    7.35
   1  -1  -4   68.07    7.39
   1  -1  -4   69.29    7.33
  -1   1   4   71.82    7.31
  -1   1   4   71.64    6.84
  -1   1   4   76.27    7.96
  -1   1   4   73.48    7.07
  -1   1   4   69.89   10.58
   1  -1  -3 1116.31   67.14
   1  -1  -3 1133.40   70.77
   1  -1  -3 1056.70   67.72
  -1   1   3 1095.06   66.65
  -1   1   3 1167.03   66.90
  -1   1   3 1179.40   67.78
  -1   1   3 1076.57   69.61
  -1   1   3 1119.51   71.09
   1  -1  -2  151.62   10.47
   1  -1  -2  162.13   17.62
   1  -1  -2  158.79   10.23
  -1   1   2  156.41   11.36
  -1   1   2  156.36   10.90
  -1   1   2  162.82   14.54
  -1   1   2  161.29    9.17
  -1   1   2  155.43   11.82
   1  -1  -1 1543.99   92.97
   1  -1  -1 1581.10   87.97
   1  -1  -1 1511.80   86.30
  -1   1   1 1582.50   94.27
  -1   1   1 1714.31   89.72
  -1   1   1 1742.02   90.34
  -1   1   1 1554.95   92.52
  -1   1   1 1468.78   89.56
   1  -1   0   -0.08    1.73
   1  -1   0    2.11    1.53
   1  -1   0    2.96    2.36
   1  -1   0    2.30    1.62
  -1   1   0   -0.21    2.12
  -1   1   0    2.40    2.08
  -1   1   0    1.88    2.58
  -1   1   0    2.18    1.81
   1  -1   1 1737.03  101.06
   1  -1   1 1782.04   93.31
   1  -1   1 1798.11  100.18
   1  -1   1 1773.47  101.62
  -1   1  -1 1728.60  100.43
  -1   1  -1 1703.02   89.54
  -1   1  -1 1653.26   95.61
   1  -1   2 8198.05  640.13
   1  -1   2 7640.29  590.21
   1  -1   2 7278.75  561.14
  -1   1  -2 7156.04  556.48
  -1   1  -2 7619.89  589.00
  -1   1  -2 7202.54  559.48
  -1   1  -2 7200.10  558.03
  -1   1  -2 7072.29  543.32
   1  -1   3  934.98   54.09
   1  -1   3 1152.80   63.38
   1  -1   3 1028.89   60.08
   1  -1   3 1059.27   56.42
  -1   1  -3  935.40   52.07
  -1   1  -3  916.68   48.52
  -1   1  -3 1043.62   59.05
  -1   1  -3  956.34   56.08
   1  -1   4  228.62   20.68
   1  -1   4  232.02   21.07
   1  -1   4  263.04   15.79
   1  -1   4  251.85   12.95
  -1   1  -4  232.33   16.97
  -1   1  -4  230.87   13.18
  -1   1  -4  245.68   15.88
  -1   1  -4  214.76   11.15
   1  -1   5  816.24   51.52
   1  -1   5  809.04   42.88
   1  -1   5  934.34   54.13
   1  -1   5  859.94   52.91
  -1   1  -5  762.99   41.62
  -1   1  -5  812.77   54.92
   1  -1   6  446.22   30.39
   1  -1   6  467.08   30.83
   1  -1   6  414.89   22.77
  -1   1  -6  445.25   34.35
  -1   1  -6  403.36   23.66
   1  -1   7  466.44   33.74
   1  -1   7  472.66   32.51
  -1   1  -7  451.85   31.31
  -1   1  -7  406.89   23.40
   1  -1   8 1149.79   83.60
  -1   1  -8 1058.25   75.93
   1  -1   9  197.93   28.64
  -1   1  -9  178.59   24.95
   1  -1  10  276.06   28.79
  -1   1 -10  247.35   25.00
   1  -1  11  101.79   17.86
  -1   1 -11   78.05   14.18
   1  -1  12   96.16   16.15
  -1   1 -12   73.43   13.49
   1  -1  13   27.79    9.98
  -1   1 -13   18.61    7.73
   1  -1  14   -0.03    4.06
  -1   1 -14    3.62    3.44
   1   0 -14    2.05    2.82
  -1   0  14   -0.01    2.95
   1   0 -13    2.50    4.07
  -1   0  13    1.58    7.17
   1   0 -12    8.49    6.89
  -1   0  12   16.52    8.15
   1   0 -11  166.89   20.53
  -1   0  11  200.59   22.86
   1   0 -10    2.71    4.47
  -1   0  10    4.09    8.27
   1   0  -9   34.83   13.51
  -1   0   9   39.41    9.60
  -1   0   9   36.50    6.52
   1   0  -8   -0.02    2.95
   1   0  -8    1.27    2.51
  -1   0   8   -0.17    2.63
  -1   0   8    0.24    2.79
  -1   0   8   -0.07    1.96
  -1   0   8    1.72    2.08
   1   0  -7    2.54    2.11
   1   0  -7    0.11    2.12
   1   0  -7    0.45    2.29
   1   0  -7    1.60    2.98
  -1   0   7    0.60    3.85
  -1   0   7    0.35    1.90
  -1   0   7    0.47    2.67
  -1   0   7    0.22    1.93
   1   0  -6   26.63    7.71
   1   0  -6   16.77    4.32
   1   0  -6   20.35    4.88
   1   0  -6   22.42    6.90
   1   0  -6   22.67    5.94
  -1   0   6   20.37    5.13
  -1   0   6   26.27    6.42
  -1   0   6   19.85    4.46
   1   0  -5  244.80   16.96
   1   0  -5  236.88   15.70
   1   0  -5  247.21   18.26
   1   0  -5  238.38   16.07
  -1   0   5  275.69   16.64
  -1   0   5  273.14   17.77
  -1   0   5  234.60   16.52
  -1   0   5  246.78   16.69
   1   0  -4    0.06    2.24
   1   0  -4    0.16    1.26
   1   0  -4   -0.20    1.18
   1   0  -4   -0.01    1.01
  -1   0   4    0.30    1.16
  -1   0   4    0.16    1.17
  -1   0   4    0.10    2.05
  -1   0   4    0.01    0.96
   1   0  -3    2.26    2.07
   1   0  -3    2.65    2.59
   1   0  -3    2.11    3.45
   1   0  -3    2.90    2.16
  -1   0   3    3.93    3.62
  -1   0   3    3.20    3.65
  -1   0   3   -0.16    1.94
  -1   0   3    0.06    1.53
   1   0  -2    5.90    1.99
   1   0  -2    5.12    3.84
   1   0  -2    3.83    1.45
   1   0  -2    5.93    2.65
  -1   0   2    2.89    2.11
  -1   0   2    4.34    0.90
  -1   0   2    5.29    3.67
  -1   0   2    0.02    1.36
  -1   0   2    6.26    2.55
   1   0  -1   21.60    3.04
   1   0  -1   23.15    1.53
   1   0  -1   21.47    3.58
   1   0  -1   24.23    3.97
  -1   0   1   24.15    3.27
  -1   0   1   23.96    4.06
  -1   0   1   23.18    2.30
  -1   0   1   23.68    3.43
  -1   0   1   21.39    3.53
   1   0   0   15.19    3.54
   1   0   0   14.56    2.07
   1   0   0   15.13    2.49
   1   0   0   17.90    2.88
  -1   0   0   13.99    2.47
  -1   0   0   14.17    2.11
  -1   0   0   14.98    2.67
  -1   0   0   16.63    3.62
   1   0   1   12.45    2.76
   1   0   1   12.42    1.80
   1   0   1   14.02    2.92
   1   0   1   13.56    2.37
  -1   0  -1   12.86    1.04
  -1   0  -1    3.79    5.15
  -1   0  -1   14.82    2.98
  -1   0  -1   12.23    3.21
   1   0   2    0.63    1.55
   1   0   2    0.84    1.92
   1   0   2    0.53    1.67
   1   0   2    0.85    1.29
  -1   0  -2    0.70    0.25
  -1   0  -2    0.81    1.73
  -1   0  -2    0.48    0.32
  -1   0  -2    0.23    1.57
   1   0   3    2.97    2.71
   1   0   3   -0.19    2.28
   1   0   3    2.89    2.38
   1   0   3    2.85    1.51
  -1   0  -3    0.08    2.44
  -1   0  -3    4.03    2.37
  -1   0  -3    1.57    0.76
  -1   0  -3    0.04    1.74
   1   0   4   15.28    4.51
   1   0   4   -0.50    4.14
   1   0   4    8.57    6.94
   1   0   4   14.40    2.21
   1   0   4   14.14    4.00
  -1   0  -4   11.96    1.02
  -1   0  -4    0.83    4.28
  -1   0  -4   13.25    4.13
  -1   0  -4   12.36    2.63
   1   0   5   12.48    4.67
   1   0   5   12.74    1.99
   1   0   5    0.94    4.00
   1   0   5    0.02    5.52
   1   0   5   16.28    4.28
  -1   0  -5   12.07    3.90
  -1   0  -5   14.27    4.19
  -1   0  -5   10.54    1.70
  -1   0  -5   10.27    2.19
   1   0   6   -0.01    5.92
   1   0   6   13.69    5.07
   1   0   6   11.95    1.89
   1   0   6    0.02    4.58
  -1   0  -6    9.71    2.11
  -1   0  -6    8.75    4.00
  -1   0  -6   11.07    4.39
   1   0   7  142.51   14.01
   1   0   7  144.67   16.72
   1   0   7  134.33   14.87
  -1   0  -7  117.32   12.44
  -1   0  -7  124.37   13.33
   1   0   8   12.88    6.60
  -1   0  -8   11.85    5.86
   1   0   9   -1.18    5.32
  -1   0  -9    7.55    4.81
   1   0  10    2.98    4.81
  -1   0 -10    0.60    4.29
   1   0  11   10.64    8.07
  -1   0 -11   10.81    7.21
   1   0  12    2.62    6.18
  -1   0 -12    3.86    4.88
   1   0  13   52.15   11.95
  -1   0 -13   35.45    9.61
   1   0  14   -0.03    3.58
  -1   0 -14    4.25    4.54
   1   1 -14   11.96    5.02
  -1  -1  14   -0.00    9.67
   1   1 -13   47.13   10.14
  -1  -1  13   75.25   13.32
   1   1 -12   72.25   13.12
  -1  -1  12  109.31   17.47
   1   1 -11  122.81   16.07
  -1  -1  11  174.86   30.66
  -1  -1  11  140.86   19.62
   1   1 -10   51.83    9.73
  -1  -1  10   70.48   13.65
  -1  -1  10   56.73    8.45
   1   1  -9  212.68   19.73
  -1  -1   9  242.27   23.39
  -1  -1   9  238.42   19.27
   1   1  -8   30.53   10.12
   1   1  -8   28.67    9.13
   1   1  -8   36.56   14.35
  -1  -1   8   38.20    5.76
  -1  -1   8   34.13    8.06
  -1  -1   8   32.50    6.34
   1   1  -7  284.69   20.12
   1   1  -7  320.95   25.71
   1   1  -7  306.09   21.92
  -1  -1   7  314.93   21.84
  -1  -1   7  325.85   20.53
  -1  -1   7  309.69   24.03
   1   1  -6  244.31   19.28
   1   1  -6  250.21   16.61
   1   1  -6  248.58   17.64
  -1  -1   6  265.06   19.96
  -1  -1   6  281.93   16.87
  -1  -1   6  282.51   19.51
   1   1  -5  794.65   50.85
   1   1  -5  820.31   47.74
   1   1  -5  819.28   50.39
  -1  -1   5  773.52   49.56
  -1  -1   5  881.58   48.84
  -1  -1   5  872.35   52.80
   1   1  -4    0.65    1.77
   1   1  -4   -0.13    1.57
  -1  -1   4   -0.08    1.57
  -1  -1   4    0.53    0.87
  -1  -1   4   -0.13    1.08
  -1  -1   4   -0.07    1.82
   1   1  -3  713.38   42.56
   1   1  -3  711.79   42.14
  -1  -1   3  740.87   38.89
  -1  -1   3  689.34   42.14
  -1  -1   3  747.99   32.82
  -1  -1   3  724.77   42.17
  -1  -1   3  760.99   38.98
   1   1  -2  117.25    9.40
   1   1  -2  136.42   10.15
  -1  -1   2  122.57   10.37
  -1  -1   2  133.40    7.24
  -1  -1   2  141.14    6.85
  -1  -1   2  137.77    5.43
  -1  -1   2  135.89   14.41
   1   1  -1  607.95   34.46
   1   1  -1  605.10   31.04
  -1  -1   1  647.47   36.94
  -1  -1   1  615.17   30.64
  -1  -1   1  629.14   31.89
  -1  -1   1  648.43   30.11
  -1  -1   1  688.72   27.85
   1   1   0 8948.88  709.81
   1   1   0 8087.95  659.25
   1   1   0 8287.09  638.87
   1   1   0 7980.37  622.62
  -1  -1   0 8797.18  682.42
  -1  -1   0 8074.09  659.67
  -1  -1   0 8355.34  666.18
  -1  -1   0 8982.14  705.88
  -1  -1   0 8298.54  638.57
   1   1   1  971.20   53.42
   1   1   1 1042.29   47.32
   1   1   1  965.33   50.22
   1   1   1 1061.88   47.19
  -1  -1  -1  946.41   52.77
  -1  -1  -1  929.24   48.88
  -1  -1  -1  987.05   52.24
  -1  -1  -1  861.97   53.46
   1   1   2  521.02   27.97
   1   1   2  548.45   29.46
   1   1   2  465.08   38.16
  -1  -1  -2  498.21   28.02
  -1  -1  -2  488.81   27.32
  -1  -1  -2  517.15   28.04
  -1  -1  -2  479.44   32.53
   1   1   3  540.09   31.14
   1   1   3  568.07   30.34
   1   1   3  493.37   33.32
   1   1   3  424.87   30.68
  -1  -1  -3  488.54   27.51
  -1  -1  -3  501.74   30.03
  -1  -1  -3  509.67   29.58
   1   1   4 1099.25   66.66
   1   1   4 1078.34   60.93
   1   1   4  970.37   65.49
   1   1   4 1024.87   66.69
  -1  -1  -4  962.43   58.01
  -1  -1  -4 1030.71   64.87
  -1  -1  -4  986.58   60.52
  -1  -1  -4  945.50   55.61
   1   1   5  315.75   24.15
   1   1   5  341.32   23.27
   1   1   5  318.64   25.40
   1   1   5  348.86   19.30
  -1  -1  -5  300.22   19.98
  -1  -1  -5  303.95   22.28
  -1  -1  -5  325.01   22.48
  -1  -1  -5  297.61   21.10
   1   1   6 3534.65  266.32
   1   1   6 3558.45  259.47
   1   1   6 3441.51  263.55
   1   1   6 3393.94  236.19
  -1  -1  -6 3014.73  223.18
  -1  -1  -6 2793.30  212.98
  -1  -1  -6 3255.46  254.96
  -1  -1  -6 2950.63  211.01
   1   1   7  122.31   21.37
  -1  -1  -7   91.19   16.52
  -1  -1  -7   99.22   18.47
   1   1   8  568.85   45.05
  -1  -1  -8  421.62   35.12
   1   1   9   97.00   16.10
  -1  -1  -9   78.63   13.51
   1   1  10   84.85   15.64
  -1  -1 -10   68.84   19.74
   1   1  11   21.11   14.37
  -1  -1 -11   17.74    8.10
   1   1  12   30.80   10.34
  -1  -1 -12   24.42   12.98
   1   1  13   10.45   10.95
  -1  -1 -13   21.06    6.69
  -1  -2  15    0.10    1.86
   1   2 -14    4.49    5.93
  -1  -2  14   14.48    6.54
   1   2 -13   78.97   13.81
  -1  -2  13  194.62   20.48
   1   2 -12   31.63    8.28
  -1  -2  12   49.30    7.74
  -1  -2  12   62.02   18.76
   1   2 -11    2.72    3.85
  -1  -2  11    4.69    6.10
  -1  -2  11    5.05    3.95
   1   2 -10    8.05    7.13
  -1  -2  10   11.04    5.45
  -1  -2  10   16.32    7.78
   1   2  -9   40.22   10.34
  -1  -2   9   56.38   11.80
  -1  -2   9   54.99   12.80
   1   2  -8   80.06   12.06
   1   2  -8   86.57   10.18
  -1  -2   8   92.90    8.42
  -1  -2   8  103.62   13.70
  -1  -2   8   95.28   11.03
   1   2  -7  341.03   27.94
   1   2  -7  361.20   25.99
   1   2  -7  352.51   26.04
  -1  -2   7  390.10   23.85
  -1  -2   7  408.77   28.40
  -1  -2   7  405.95   31.16
   1   2  -6    3.74    4.80
   1   2  -6    0.39    3.59
   1   2  -6    1.94    2.81
  -1  -2   6    3.74    3.80
  -1  -2   6    4.22    1.85
  -1  -2   6    4.45    3.32
   1   2  -5    1.00    2.28
   1   2  -5    1.08    1.12
   1   2  -5    0.65    2.63
  -1  -2   5   -0.37    2.51
  -1  -2   5    0.92    0.40
  -1  -2   5   -0.57    2.37
  -1  -2   5    2.05    1.19
  -1  -2   5    0.71    0.63
   1   2  -4   -0.19    1.97
   1   2  -4    0.01    2.21
  -1  -2   4   -0.09    2.23
  -1  -2   4    0.16    0.95
  -1  -2   4    0.69    0.87
  -1  -2   4    1.17    1.90
   1   2  -3   21.16    4.67
   1   2  -3   19.16    5.13
  -1  -2   3   16.76    2.23
  -1  -2   3   20.27    3.87
  -1  -2   3   20.97    5.49
  -1  -2   3   18.93    1.70
  -1  -2   3   20.07    4.81
   1   2  -2  169.32   19.74
   1   2  -2  167.05   11.64
  -1  -2   2  180.05   10.55
  -1  -2   2  175.08    7.85
  -1  -2   2  168.98   10.16
  -1  -2   2  169.35   14.56
  -1  -2   2  179.77   12.56
   1   2  -1 5948.28  490.48
   1   2  -1 8988.25  755.70
   1   2  -1 8723.04  708.47
  -1  -2   1 8631.42  715.56
  -1  -2   1 8846.76  670.06
  -1  -2   1 9064.48  736.50
  -1  -2   1 8783.97  689.41
  -1  -2   1 9053.38  726.56
   1   2   0   36.50    3.68
   1   2   0   38.28    5.61
   1   2   0   35.18    6.76
  -1  -2   0   32.88    6.99
  -1  -2   0   34.03    5.07
  -1  -2   0   33.81    5.02
  -1  -2   0   36.69    2.46
  -1  -2   0   34.08    3.51
   1   2   1   48.03    7.59
   1   2   1   55.47    6.17
   1   2   1   50.21    3.80
   1   2   1   48.86    4.78
  -1  -2  -1   50.27    6.14
  -1  -2  -1   52.12    8.65
  -1  -2  -1   51.28    5.46
  -1  -2  -1   46.10    4.67
   1   2   2   17.81    3.91
   1   2   2   16.69    5.59
   1   2   2   18.46    3.65
   1   2   2   17.29    1.54
  -1  -2  -2   15.04    4.11
  -1  -2  -2   16.95    2.54
  -1  -2  -2   17.97    6.77
  -1  -2  -2   15.27    3.58
  -1  -2  -2   17.22    4.29
   1   2   3  301.15   22.45
   1   2   3  287.31   22.30
   1   2   3  315.30   18.63
   1   2   3  242.57    9.79
  -1  -2  -3  264.69   18.00
  -1  -2  -3  269.08   15.41
  -1  -2  -3  276.55   17.65
  -1  -2  -3  242.85   20.27
  -1  -2  -3  273.67   16.10
   1   2   4    0.25    4.05
   1   2   4    0.33    2.77
   1   2   4    4.82    2.27
   1   2   4   -0.12    4.01
  -1  -2  -4    3.20    2.10
  -1  -2  -4    5.12    2.30
  -1  -2  -4    4.20    3.16
  -1  -2  -4    3.88    3.68
   1   2   5   87.50   12.19
   1   2   5   82.90    9.60
   1   2   5   80.45   11.83
   1   2   5   95.09    8.08
  -1  -2  -5   83.45   15.07
  -1  -2  -5   79.52    8.26
  -1  -2  -5   54.66   10.73
  -1  -2  -5   71.53    7.20
   1   2   6   16.09    3.06
   1   2   6   -0.20    6.49
  -1  -2  -6   14.26    3.20
  -1  -2  -6   13.58    5.62
  -1  -2  -6    5.84    4.39
   1   2   7    0.27    5.15
  -1  -2  -7    4.18    4.49
  -1  -2  -7    3.39    3.47
   1   2   8   -0.34    4.78
  -1  -2  -8    2.30    3.41
   1   2   9    0.75    8.07
  -1  -2  -9    1.98    3.70
   1   2  10   -0.02    4.71
  -1  -2 -10    3.74    5.79
   1   2  11    2.46    2.56
  -1  -2 -11   -3.61    3.20
   1   2  12   -1.18    2.34
  -1  -2 -12    0.59    1.92
  -1  -3  15   -0.11    1.97
  -1  -3  14  170.72   27.99
  -1  -3  13  129.51   18.39
  -1  -3  13   87.17   11.48
  -1  -3  12   33.09   12.22
  -1  -3  12   30.93    7.67
  -1  -3  11   75.59   11.31
  -1  -3  11   88.89   25.08
  -1  -3  10   94.91   16.62
  -1  -3  10   81.36   11.84
  -1  -3   9   42.48   11.60
  -1  -3   9   40.24    8.51
  -1  -3   8 1165.57   84.09
  -1  -3   8 1156.02   77.24
  -1  -3   8 1254.81   96.05
   1   3  -7  620.87   47.24
   1   3  -7  627.22   44.95
  -1  -3   7  693.43   60.65
  -1  -3   7  656.72   43.46
  -1  -3   7  664.67   52.76
   1   3  -6  114.26   13.48
   1   3  -6  128.42   13.46
  -1  -3   6  125.28   14.22
  -1  -3   6  126.35   17.17
  -1  -3   6  122.45    8.43
   1   3  -5  387.82   27.56
   1   3  -5  393.98   36.06
  -1  -3   5  403.24   30.14
  -1  -3   5  369.84   20.89
  -1  -3   5  386.36   20.18
  -1  -3   5  411.80   27.94
  -1  -3   5  417.44   24.90
   1   3  -4  143.54   20.08
  -1  -3   4  139.08    8.41
  -1  -3   4  132.09    8.22
  -1  -3   4  142.07   12.19
  -1  -3   4  137.41   13.99
   1   3  -3  307.11   22.41
  -1  -3   3  313.63   23.90
  -1  -3   3  294.45   19.07
  -1  -3   3  305.57   17.39
  -1  -3   3  267.42   16.26
   1   3  -2 1957.85  132.33
  -1  -3   2 2086.99  131.99
  -1  -3   2 2109.91  140.44
  -1  -3   2 1936.64  133.64
  -1  -3   2 1882.39  118.23
   1   3  -1  382.43   26.13
   1   3  -1  393.15   24.04
  -1  -3   1  377.13   23.14
  -1  -3   1  388.12   27.81
  -1  -3   1  349.43   19.12
   1   3   0  554.46   32.96
   1   3   0  547.57   36.51
   1   3   0  535.16   30.89
   1   3   0  606.14   34.30
  -1  -3   0  497.61   30.89
  -1  -3   0  525.95   36.76
  -1  -3   0  552.87   24.43
  -1  -3   0  482.88   30.57
  -1  -3   0  514.26   22.41
   1   3   1  215.32   12.26
   1   3   1  274.49   17.81
   1   3   1  229.16   18.43
   1   3   1  246.92   15.32
  -1  -3  -1  228.82   19.95
  -1  -3  -1  215.59   15.80
  -1  -3  -1  171.18   14.31
  -1  -3  -1  220.29   11.88
  -1  -3  -1  219.50   10.71
   1   3   2  680.30   45.33
   1   3   2  741.31   49.30
   1   3   2  643.98   50.69
   1   3   2  564.21   29.94
  -1  -3  -2  482.99   39.20
  -1  -3  -2  558.70   35.00
  -1  -3  -2  603.29   43.27
  -1  -3  -2  591.27   32.03
  -1  -3  -2  602.98   32.88
   1   3   3  293.75   19.25
   1   3   3  278.27   22.47
   1   3   3  282.38   19.36
  -1  -3  -3  249.07   22.80
  -1  -3  -3  246.11   22.45
  -1  -3  -3  251.91   15.52
  -1  -3  -3  254.35   18.80
  -1  -3  -3  250.50   15.52
   1   3   4 1289.81   82.83
   1   3   4 1281.65   85.49
   1   3   4 1191.16   85.86
   1   3   4 1290.96   92.98
  -1  -3  -4 1081.49   73.21
  -1  -3  -4 1034.00   68.02
  -1  -3  -4 1051.92   69.49
  -1  -3  -4 1128.61   79.57
   1   3   5  129.83   15.90
  -1  -3  -5  100.86    9.97
  -1  -3  -5  108.04    9.70
  -1  -3  -5  106.14   12.62
  -1  -3  -5   79.71    9.09
   1   3   6  456.50   37.18
  -1  -3  -6  281.20   23.41
  -1  -3  -6  365.30   26.38
  -1  -3  -6  438.34   34.88
   1   3   7  106.31   15.65
  -1  -3  -7   83.76   18.83
  -1  -3  -7   58.97    9.52
   1   3   8  107.20   16.35
  -1  -3  -8   61.41   10.39
   1   3   9   -0.29   12.28
  -1  -3  -9   11.36    4.93
   1   3  10   -0.11    6.13
  -1  -3 -10    8.47    4.17
   1   3  11   34.62    7.46
  -1  -3 -11   10.44    8.52
   1   4 -14   18.42    4.92
  -1  -4  14   49.12    9.27
   1   4 -13    0.02    2.22
  -1  -4  13    0.64    3.32
  -1  -4  12   -0.05    2.73
  -1  -4  12   -0.03    1.89
  -1  -4  11   18.02   10.52
  -1  -4  11    0.18    5.27
  -1  -4  10    2.48    5.12
  -1  -4  10    0.12    6.07
  -1  -4   9   10.35    6.24
  -1  -4   9    0.13    4.93
  -1  -4   8   -0.13    2.17
  -1  -4   7    5.63    5.87
  -1  -4   7    6.47    4.70
  -1  -4   6    9.10    2.48
  -1  -4   6   10.36    5.85
  -1  -4   6    4.16    3.85
  -1  -4   6    9.51    4.68
   1   4  -5    8.96    4.88
  -1  -4   5    7.23    4.11
  -1  -4   5    5.63    2.14
  -1  -4   5    9.16    2.27
  -1  -4   5    5.14    2.27
  -1  -4   5    9.92    5.60
   1   4  -4  164.23   16.01
  -1  -4   4  118.88    9.38
  -1  -4   4  127.51    8.69
  -1  -4   4  149.60   15.73
  -1  -4   4  151.81   13.48
   1   4  -3 2178.89  155.77
  -1  -4   3 1971.22  133.45
  -1  -4   3 1833.21  120.05
  -1  -4   3 2107.51  144.21
  -1  -4   3 1986.07  144.43
   1   4  -2  283.42   27.55
   1   4  -2  293.82   25.85
  -1  -4   2  245.25   17.62
  -1  -4   2  289.13   24.12
  -1  -4   2  252.40   15.31
   1   4  -1  138.90   13.56
   1   4  -1  134.54   11.38
  -1  -4   1  117.88   11.33
  -1  -4   1  125.73   11.66
  -1  -4   1  139.68   14.88
   1   4   0   11.07    5.67
   1   4   0    6.43    2.97
   1   4   0   -0.04    2.94
   1   4   0    4.35    2.31
  -1  -4   0    4.34    3.01
  -1  -4   0    8.14    6.84
  -1  -4   0   -0.01    2.05
   1   4   1  209.48   24.30
   1   4   1  206.02   15.74
   1   4   1  212.72   15.71
  -1  -4  -1  196.33   19.85
  -1  -4  -1  172.02   13.05
  -1  -4  -1  178.08   15.92
   1   4   2   28.72    5.67
  -1  -4  -2   25.51    8.29
  -1  -4  -2   27.09    7.64
  -1  -4  -2   26.95    6.40
  -1  -4  -3  184.95   21.55
  -1  -4  -3  170.66   16.24
  -1  -4  -3  161.41   15.03
   1   4   4   11.01    9.63
  -1  -4  -4    9.39    4.06
  -1  -4  -4    0.25    4.49
   1   4   5  163.35   20.06
  -1  -4  -5  118.58   13.72
  -1  -4  -5  140.43   16.09
   1   4   6   -1.59    4.95
  -1  -4  -6    1.41    4.20
  -1  -4  -6    0.31    1.78
   1   4   7   32.61   10.70
  -1  -4  -7   25.50    9.19
   1   4   8   -0.26    5.20
   1   4   9   53.63   11.67
   1   4  10   -0.36    2.32
   1   5 -14   15.38    4.78
  -1  -5  14   24.60    7.47
   1   5 -13    0.32    9.54
  -1  -5  13   26.82    8.76
   1   5 -12   66.81   20.21
  -1  -5  12   89.58   16.93
   1   5 -11   30.47    9.10
  -1  -5  11    0.29    9.46
  -1  -5  10  371.43   38.80
  -1  -5  10  404.10   37.32
  -1  -5   9  439.39   55.92
  -1  -5   9  436.83   39.68
  -1  -5   8  117.50   16.93
  -1  -5   8  115.91   19.25
  -1  -5   7  219.86   26.99
  -1  -5   7  293.34   27.31
  -1  -5   6   80.45   14.77
  -1  -5   6   86.90   12.99
   1   5  -5  211.82   21.80
  -1  -5   5  187.61   21.19
  -1  -5   5  170.38   14.24
   1   5  -4  210.77   20.74
  -1  -5   4  191.73   15.89
  -1  -5   4  206.38   22.74
   1   5  -3  121.77   13.48
  -1  -5   3  119.42   23.08
  -1  -5   3   93.84   10.44
   1   5  -2  210.87   18.27
  -1  -5   2  140.71   14.27
  -1  -5   2  195.93   20.40
  -1  -5   2  170.97   12.60
   1   5  -1  222.41   18.18
  -1  -5   1  195.64   14.40
  -1  -5   1  197.15   23.10
  -1  -5   1  238.15   30.91
  -1  -5   0  109.76   12.81
  -1  -5   0  128.58   16.27
  -1  -5   0   99.99    9.88
  -1  -5  -1  241.17   21.62
  -1  -5  -1  255.05   33.06
  -1  -5  -1  209.51   17.22
  -1  -5  -2   20.09    9.11
  -1  -5  -2   21.26    7.12
  -1  -5  -2   16.78    5.36
   1   5   3   18.30    8.05
  -1  -5  -3   16.64    9.13
  -1  -5  -3    0.35    8.14
   1   5   4  280.67   28.27
  -1  -5  -4  242.98   23.72
  -1  -5  -4  242.07   22.87
   1   5   5   79.89   13.98
  -1  -5  -5   79.47   12.34
  -1  -5  -5   64.48   10.95
   1   5   6  112.05   15.28
  -1  -5  -6   86.59   12.60
  -1  -5  -6   53.79   11.16
   1   5   7   66.31   12.88
   1   5   8    0.46    2.80
   1   5   9   34.62    6.41
   1   6 -13    0.07    3.21
  -1  -6  13    2.32    3.36
   1   6 -12   13.08    6.09
  -1  -6  12   -0.13    6.06
   1   6 -11    5.20    7.80
  -1  -6  11    0.24    4.76
   1   6 -10   14.62    7.61
  -1  -6  10    0.22    7.26
   1   6  -9    0.37    2.59
  -1  -6   9   -0.27    2.42
   1   6  -8    0.24    4.91
  -1  -6   8    2.00    4.60
   1   6  -7    0.10    4.05
  -1  -6   7   -1.17    4.10
   1   6  -6    0.21    4.21
  -1  -6   6    2.57    7.03
   1   6  -5   40.78   10.58
  -1  -6   5   44.33   17.83
  -1  -6   5   28.60    6.47
   1   6  -4   59.70   12.32
  -1  -6   4   50.52    8.65
  -1  -6   4   58.30   20.49
   1   6  -3   26.03    8.02
  -1  -6   3   28.67    9.49
  -1  -6   3   13.92    6.14
   1   6  -2    1.82    3.54
  -1  -6   2    1.94    3.61
  -1  -6   2    3.96    5.09
  -1  -6   1   23.93    9.66
  -1  -6   1   23.98    7.69
  -1  -6   0   12.89    8.33
  -1  -6   0   13.80    6.90
  -1  -6  -1   41.26   12.10
  -1  -6  -1   40.55   10.27
   1   6   2   78.66   14.70
  -1  -6  -2   66.92   11.82
  -1  -6  -2   57.63    9.43
   1   6   3  122.19   16.77
  -1  -6  -3   90.59   12.20
  -1  -6  -3  106.38   14.70
   1   6   4   -0.23    2.53
  -1  -6  -4   -0.09    2.02
  -1  -6  -4   -0.20    2.17
   1   6   5   22.16    6.45
  -1  -6  -5    9.74    4.78
  -1  -6  -5    0.03    8.10
   1   6   6    2.45    3.87
   1   6   7   20.30    5.51
   1   7 -12   27.13    8.03
  -1  -7  12   16.39   10.80
   1   7 -11   55.17   13.01
  -1  -7  11   61.60   11.78
   1   7 -10   64.00   14.34
  -1  -7  10   60.76   13.15
   1   7  -9  106.89   18.01
  -1  -7   9   72.88   15.65
   1   7  -8   71.63   15.58
  -1  -7   8   59.29   14.68
   1   7  -7  116.37   19.87
  -1  -7   7  112.42   18.64
   1   7  -6   12.54    8.73
  -1  -7   6   13.66    8.42
   1   7  -5   36.00    9.62
  -1  -7   5   17.74    6.09
  -1  -7   5   41.52   10.84
   1   7  -4   44.44   10.44
  -1  -7   4   48.76   12.51
  -1  -7   4   38.24   12.52
   1   7  -3   92.04   13.96
  -1  -7   3  119.58   17.75
  -1  -7   3   99.60   18.94
  -1  -7   2   38.10   11.08
  -1  -7   2   26.80    8.38
  -1  -7   1   88.55   15.49
  -1  -7   1   78.81   13.43
  -1  -7   0    3.39    4.94
  -1  -7   0    0.67    4.00
   1   7   1   -0.45    2.78
  -1  -7  -1    0.61    2.44
   1   7   2   82.31   18.60
  -1  -7  -2   74.80   12.29
   1   7   3   42.94    8.27
  -1  -7  -3   37.19    8.62
   1   7   4   50.43    8.13
  -1  -7  -4   40.43    8.34
   1   7   5   46.36    5.86
   1   8 -10    1.20    2.58
  -1  -8  10   -0.19    2.15
   1   8  -9   -0.10    2.89
  -1  -8   9    0.88    2.60
   1   8  -8   -0.90    2.16
  -1  -8   8    0.95    2.07
   1   8  -7    4.62    7.78
  -1  -8   7    4.04    4.91
   1   8  -6    3.02    4.44
  -1  -8   6    4.78    4.93
   1   8  -5    0.33    2.79
  -1  -8   5    1.95    5.51
  -1  -8   5    0.76    1.98
   1   8  -4    0.31    2.26
  -1  -8   4    0.48    2.26
  -1  -8   4    4.38    5.42
  -1  -8   3   -0.29    1.81
  -1  -8   3    0.54    3.61
  -1  -8   2    1.80    3.83
  -1  -8   2    1.35    5.15
   1   8  -1   -0.28    4.51
  -1  -8   1    7.25    4.17
   1   8   0   24.33    6.20
  -1  -8   0   20.80   10.75
   1   8   1   -0.05    2.62
  -1  -8  -1    8.32    3.53
  -1  -8  -2    0.94    3.45
   2  -9   1   -0.04    1.31
   2  -9   1    0.17    1.25
   2  -9   2   -0.22    1.44
   2  -9   2    0.29    1.35
  -2   9  -2   -0.81    2.32
   2  -9   3    0.63    2.26
   2  -9   3    1.67    2.45
  -2   9  -3    1.42    2.74
   2  -9   4   15.67    5.77
   2  -9   4   34.84    5.48
  -2   9  -4   37.20   10.61
   2  -9   5    3.02    3.59
   2  -9   5    5.18    5.53
  -2   9  -5   23.56    5.08
   2  -9   6    0.99    2.21
   2  -9   6    0.01    1.65
  -2   9  -6    2.75    4.10
   2  -8  -3    2.39    3.50
   2  -8  -2   -0.46    2.29
   2  -8  -2    1.35    3.17
  -2   8   2    0.05    1.54
   2  -8  -1   21.20    5.87
   2  -8  -1   16.71    5.01
  -2   8   1   -0.10    4.54
   2  -8   0   -0.00    5.72
   2  -8   0    8.11    5.17
  -2   8   0   17.55    5.47
   2  -8   1   54.97   16.20
   2  -8   1   68.54   11.29
  -2   8  -1   69.07   12.11
   2  -8   2   12.02    6.17
   2  -8   2   -0.46    5.96
  -2   8  -2   20.90    6.94
   2  -8   3  116.20   22.23
   2  -8   3  133.93   16.33
  -2   8  -3  130.63   18.13
   2  -8   4   45.60   10.26
   2  -8   4   63.30   10.68
  -2   8  -4   64.25   12.84
   2  -8   5   65.24   11.73
   2  -8   5  100.83   13.06
  -2   8  -5  100.51   22.04
   2  -8   6   26.41    7.73
   2  -8   6   64.73    9.84
  -2   8  -6   59.85   11.79
   2  -8   7   12.69    5.88
   2  -8   7   55.44    8.19
  -2   8  -7   49.79    9.95
   2  -8   8   36.90    7.52
  -2   8  -8   37.05    9.45
   2  -8   9   84.83    9.76
  -2   8  -9   84.67   11.79
   2  -8  10   48.91    6.40
  -2   8 -10   46.89    7.46
   2  -7  -6   -0.94    2.86
   2  -7  -5   52.84   10.36
   2  -7  -4    4.95    4.11
   2  -7  -4   33.11    7.16
   2  -7  -3    8.51    3.49
   2  -7  -3   -0.03    5.25
  -2   7   3   -0.03    3.47
   2  -7  -2    0.70    2.19
   2  -7  -2    0.06    4.80
  -2   7   2   -0.13    2.53
   2  -7  -1    1.21    2.92
   2  -7  -1   -0.05    3.38
  -2   7   1    0.21    5.00
   2  -7   0    0.78    3.91
   2  -7   0    1.20    3.53
  -2   7   0    1.67    4.09
   2  -7   1    8.33    6.19
   2  -7   1    5.57    6.13
  -2   7  -1    7.50    6.67
   2  -7   2   16.10    7.25
   2  -7   2    9.90   11.56
  -2   7  -2   13.60    8.25
   2  -7   3   11.03   10.01
   2  -7   3    6.94    6.09
  -2   7  -3   11.97    7.63
   2  -7   4   15.67    6.96
   2  -7   4    7.56    6.22
  -2   7  -4   13.82    8.75
   2  -7   5    5.41    5.08
   2  -7   5    4.91    4.28
  -2   7  -5   -0.28    6.53
   2  -7   6    4.84    3.90
   2  -7   6   -0.18    5.38
  -2   7  -6    7.96    6.51
   2  -7   7    5.27    3.79
   2  -7   7   -0.03    9.19
  -2   7  -7   12.75    7.01
   2  -7   8   27.56    8.31
  -2   7  -8   26.78    9.95
   2  -7   9   -0.11    3.25
  -2   7  -9    2.54    3.81
   2  -7  10    0.07    3.81
  -2   7 -10    6.21    4.30
   2  -7  11    0.74    2.33
  -2   7 -11    0.78    2.04
   2  -7  12   -0.18    1.39
   2  -6  -8   23.42    6.44
   2  -6  -7   33.13    8.77
   2  -6  -6   41.93   16.13
   2  -6  -5   26.48    9.46
   2  -6  -4   30.98    7.84
   2  -6  -4   78.05   18.24
  -2   6   4   70.47    9.47
   2  -6  -3   49.41   10.89
   2  -6  -3   24.72    7.44
  -2   6   3   44.99    9.17
   2  -6  -2   32.83    7.85
   2  -6  -2   34.23   10.10
  -2   6   2   38.41    9.32
   2  -6  -1  154.05   18.97
   2  -6  -1  144.88   18.38
  -2   6   1  164.28   19.58
   2  -6   0    5.05    4.97
   2  -6   0    2.96    4.59
  -2   6   0    3.70    5.42
   2  -6   1  481.31   40.53
   2  -6   1  503.50   41.98
  -2   6  -1  490.20   52.50
   2  -6   2  511.11   42.38
  -2   6  -2  504.47   55.71
   2  -6   3  126.16   24.06
   2  -6   3  127.11   15.99
  -2   6  -3  125.02   26.83
   2  -6   4  184.92   20.09
   2  -6   4  188.63   19.97
  -2   6  -4  187.29   23.52
   2  -6   5  123.64   20.91
   2  -6   5  120.47   21.78
  -2   6  -5  118.40   18.43
   2  -6   6   23.47    8.10
   2  -6   6   18.67    6.49
  -2   6  -6   29.99    9.92
   2  -6   7  499.64   39.59
   2  -6   7  256.13   29.69
  -2   6  -7  457.70   39.96
   2  -6   8  427.52   37.13
  -2   6  -8  370.77   36.42
   2  -6   9   44.04   14.87
  -2   6  -9   33.08   10.03
   2  -6  10  109.33   20.60
  -2   6 -10   76.63   18.35
   2  -6  12   18.56    6.12
   2  -6  13   26.27    5.01
   2  -5  -9   19.53    6.77
   2  -5  -8    3.72    7.90
   2  -5  -7  137.66   18.28
   2  -5  -6   39.74   11.23
   2  -5  -5  218.53   24.29
  -2   5   5  209.37   20.03
   2  -5  -4    0.45    1.92
   2  -5  -4   -0.30    5.33
  -2   5   4    1.89    4.21
   2  -5  -3    0.02    4.56
   2  -5  -3    4.38    3.25
  -2   5   3    3.15    4.08
   2  -5  -2    0.35    2.39
   2  -5  -2   -0.07    1.78
  -2   5   2   -0.82    2.38
   2  -5  -1    1.29    2.58
   2  -5  -1   -0.57    3.50
  -2   5   1   -0.22    2.78
   2  -5   0   14.28    6.13
   2  -5   0    9.91    8.64
  -2   5   0   13.20    6.70
   2  -5   1  110.48   13.32
   2  -5   1   99.05   12.80
  -2   5  -1  105.41   14.92
   2  -5   2    0.00    2.62
   2  -5   2   -0.17    4.06
  -2   5  -2    1.07    2.87
   2  -5   3  148.47   15.46
   2  -5   3  189.06   24.38
  -2   5  -3  153.72   18.09
   2  -5   4    1.82    3.78
   2  -5   4    6.66    4.47
  -2   5  -4    4.68    5.02
   2  -5   5  149.40   15.07
   2  -5   5  155.54   17.04
  -2   5  -5  157.00   18.76
   2  -5   6  294.05   26.19
   2  -5   6  261.32   22.59
  -2   5  -6  265.25   26.35
   2  -5   7  187.00   20.16
   2  -5   7  167.99   17.14
  -2   5  -7  166.70   26.38
   2  -5   8   -0.19    6.38
  -2   5  -8   11.14    5.41
   2  -5   9    0.67    6.13
  -2   5  -9    8.03    4.89
   2  -5  10   -0.87    3.92
   2  -5  11    6.09    5.63
   2  -5  11    3.30    4.31
   2  -5  12   37.64    8.52
   2  -5  12   21.57    7.04
   2  -5  13    1.72    2.33
   2  -5  13    0.81    3.14
   2  -4 -11    1.57    1.52
   2  -4 -10   22.88    5.81
   2  -4  -9   21.52    7.06
   2  -4  -9   11.35    5.48
   2  -4  -8   48.16   10.17
   2  -4  -8   22.76    7.39
   2  -4  -7   37.84    8.80
   2  -4  -7   68.72   12.39
  -2   4   7   56.61   12.11
   2  -4  -6  383.64   32.74
   2  -4  -6  590.93   46.25
  -2   4   6  556.40   45.73
   2  -4  -5   85.07   12.20
   2  -4  -5   56.20    8.22
  -2   4   5   83.84   10.69
   2  -4  -4  207.39   16.79
   2  -4  -4  280.04   23.48
   2  -4  -4  208.62   17.79
  -2   4   4  287.50   23.02
   2  -4  -3   70.93    8.07
   2  -4  -3  112.20   12.18
   2  -4  -3  103.66   10.29
   2  -4  -3  107.84    9.05
  -2   4   3  122.52   17.30
   2  -4  -2   44.15    8.29
   2  -4  -2   44.02    7.80
   2  -4  -2   44.72    6.53
   2  -4  -2   36.56    4.51
  -2   4   2   34.87    4.53
  -2   4   2   53.64   15.99
  -2   4   2   42.61    8.66
   2  -4  -1  490.32   40.87
   2  -4  -1  550.26   37.82
   2  -4  -1  456.23   27.20
  -2   4   1  461.82   30.54
  -2   4   1  515.38   38.07
   2  -4   0 1052.98   69.84
   2  -4   0 1054.60   70.98
   2  -4   0 1049.90   62.03
  -2   4   0  974.56   60.79
  -2   4   0 1056.61   74.07
  -2   4   0 1061.67   72.44
   2  -4   1  178.55   15.14
   2  -4   1  172.54   15.05
   2  -4   1  172.07   10.02
   2  -4   1  169.11   14.13
  -2   4  -1  177.12   16.92
  -2   4  -1  164.73   14.97
   2  -4   2  338.24   20.08
   2  -4   2  316.51   22.92
   2  -4   2  321.51   24.00
   2  -4   2  305.72   26.82
  -2   4  -2  306.18   30.81
  -2   4  -2  285.93   21.57
   2  -4   3  273.91   19.49
   2  -4   3  255.79   20.41
   2  -4   3  264.71   14.70
   2  -4   3  261.18   19.02
  -2   4  -3  253.91   28.15
  -2   4  -3  254.91   25.15
   2  -4   4   58.11    7.54
   2  -4   4   59.70    8.90
   2  -4   4   57.21    4.67
   2  -4   4   52.78    7.16
  -2   4  -4   59.15    9.39
  -2   4  -4   58.14    7.78
   2  -4   5  576.81   41.21
   2  -4   5  532.81   39.36
   2  -4   5  552.69   39.95
  -2   4  -5  443.68   30.31
  -2   4  -5  565.13   41.77
  -2   4  -5  509.29   34.92
   2  -4   6  771.23   52.84
   2  -4   6  779.62   55.75
   2  -4   6  765.83   50.86
   2  -4   6  836.55   55.01
  -2   4  -6  802.83   58.69
  -2   4  -6  778.42   52.68
  -2   4  -6  630.37   45.29
   2  -4   7  113.59   16.43
   2  -4   7  163.45   19.08
   2  -4   7  102.66   10.09
  -2   4  -7  110.95   13.51
   2  -4   8  297.94   25.99
   2  -4   8  418.21   37.50
  -2   4  -8  263.57   25.00
   2  -4   9   54.80   10.99
   2  -4   9   83.58   16.27
   2  -4  10   63.30   12.50
   2  -4  10  102.18   18.47
   2  -4  11   -0.02    5.96
   2  -4  11   28.14    9.00
   2  -4  12   57.37   11.30
   2  -4  12   65.81   12.41
   2  -4  13    2.28    5.04
   2  -4  13   18.27    5.87
   2  -4  14   21.35    7.83
   2  -4  14   38.36    7.15
   2  -3 -12   -0.01    1.00
   2  -3 -11    3.25    3.95
   2  -3 -10   -1.93    6.03
   2  -3  -9   21.15    7.97
   2  -3  -9   24.99    7.96
   2  -3  -8    0.99    3.16
   2  -3  -8    0.29    3.39
  -2   3   8    0.67    2.34
   2  -3  -7  174.20   19.50
   2  -3  -7  170.68   18.44
  -2   3   7  180.94   16.88
   2  -3  -6   -0.10    2.05
   2  -3  -6   -0.11    1.72
  -2   3   6   -0.04    2.52
   2  -3  -5    1.30    2.97
   2  -3  -5    3.63    3.44
  -2   3   5    2.92    3.28
   2  -3  -4    0.50    2.06
   2  -3  -4   -0.00    1.83
   2  -3  -4   -1.62    1.74
   2  -3  -4    0.84    0.96
  -2   3   4   -0.13    2.28
  -2   3   4    0.00    1.72
  -2   3   4   -0.25    1.85
   2  -3  -3   14.84    3.38
   2  -3  -3   14.13    7.44
   2  -3  -3   13.61    3.33
   2  -3  -3    0.04    8.00
  -2   3   3   15.08    7.10
  -2   3   3   13.70    3.67
  -2   3   3   11.46    7.77
   2  -3  -2   26.83    4.48
   2  -3  -2   27.90    8.71
   2  -3  -2   27.11    6.41
   2  -3  -2   27.56    4.06
  -2   3   2   31.17    5.07
  -2   3   2   30.85    9.06
  -2   3   2   29.93    6.67
   2  -3  -1 1008.89   63.66
   2  -3  -1  943.05   58.21
   2  -3  -1  994.49   66.28
   2  -3  -1 1051.15   61.44
  -2   3   1 1272.20   80.54
  -2   3   1  941.54   45.77
  -2   3   1  903.06   45.46
  -2   3   1  994.33   58.84
  -2   3   1 1061.52   69.96
   2  -3   0   67.18    7.51
   2  -3   0   71.49    9.46
   2  -3   0   61.80    7.52
   2  -3   0   64.93    5.24
  -2   3   0   62.89    5.34
  -2   3   0   66.38    8.81
  -2   3   0   55.98    2.26
   2  -3   1  636.87   39.75
   2  -3   1  618.03   39.08
   2  -3   1  643.50   35.31
   2  -3   1  605.49   37.45
  -2   3  -1  589.74   32.59
  -2   3  -1  591.82   39.47
  -2   3  -1  594.00   37.86
   2  -3   2  118.07   10.13
   2  -3   2  102.60    6.80
   2  -3   2  114.69   10.47
   2  -3   2  108.84   10.50
   2  -3   2  127.65    8.28
  -2   3  -2  105.94   10.95
  -2   3  -2  104.89    7.18
  -2   3  -2   99.78    9.27
   2  -3   3  349.61   22.40
   2  -3   3  304.40   16.60
   2  -3   3  334.32   21.99
   2  -3   3  343.92   19.22
   2  -3   3  308.99   27.01
  -2   3  -3  314.29   22.46
  -2   3  -3  320.76   20.76
  -2   3  -3  324.31   18.61
   2  -3   4  374.10   24.52
   2  -3   4  471.42   33.30
   2  -3   4  364.57   23.76
   2  -3   4  402.13   23.29
   2  -3   4  382.40   23.96
  -2   3  -4  376.76   26.48
  -2   3  -4  354.49   22.82
  -2   3  -4  337.34   20.02
   2  -3   5  860.34   62.60
   2  -3   5  822.96   48.29
   2  -3   5  791.43   48.88
   2  -3   5  752.53   46.53
   2  -3   5  823.69   50.18
  -2   3  -5  617.95   42.99
  -2   3  -5  712.57   44.10
  -2   3  -5  741.39   44.21
  -2   3  -5  622.83   45.22
   2  -3   6    3.96    4.07
   2  -3   6    3.90    2.06
   2  -3   6    5.38    2.40
   2  -3   6    3.99    3.76
   2  -3   6    4.91    2.46
  -2   3  -6    0.01    2.90
  -2   3  -6    4.18    2.30
  -2   3  -6    2.76    2.76
   2  -3   7   36.13    7.42
   2  -3   7   36.98    6.32
   2  -3   7   33.18    5.22
   2  -3   7   38.30    5.00
  -2   3  -7   35.23    6.12
  -2   3  -7   33.79    4.89
  -2   3  -7   29.40    7.56
   2  -3   8    0.02    2.53
  -2   3  -8    1.16    2.05
   2  -3   9   50.08   13.46
  -2   3  -9   37.76    7.44
   2  -3  10  172.18   18.70
  -2   3 -10  120.58   18.53
   2  -3  11  206.21   20.95
  -2   3 -11  143.34   15.16
   2  -3  12   22.24    6.94
  -2   3 -12   11.18    4.83
   2  -3  13    0.26    3.35
   2  -3  13    1.64    4.74
  -2   3 -13    1.27    1.92
   2  -3  14   -0.10    2.35
   2  -3  14   -0.03    1.71
   2  -2 -13   23.69    5.91
   2  -2 -12   70.79   11.44
   2  -2 -11   19.53   12.26
   2  -2 -10   30.29    9.66
   2  -2  -9   59.29   15.50
   2  -2  -9   67.26   12.86
  -2   2   9   64.87    9.33
   2  -2  -8 1300.21  107.69
   2  -2  -8 1182.94   90.53
  -2   2   8 1283.39   93.28
   2  -2  -7  117.02   12.82
   2  -2  -7  124.13   13.82
  -2   2   7  109.44   10.60
  -2   2   7  106.57   10.90
  -2   2   7  128.07   12.61
   2  -2  -6  732.89   51.60
   2  -2  -6  791.75   54.82
   2  -2  -6  790.62   55.79
  -2   2   6  697.88   45.46
  -2   2   6  752.42   49.64
  -2   2   6  794.56   51.51
  -2   2   6  787.55   53.43
   2  -2  -5   62.21   11.41
   2  -2  -5   60.75    7.05
   2  -2  -5   63.72    9.10
  -2   2   5   59.69    7.72
  -2   2   5   73.97    8.62
  -2   2   5   61.71    5.95
  -2   2   5   66.89    7.33
  -2   2   5   62.82   12.43
   2  -2  -4  130.49   13.59
   2  -2  -4  124.44   14.50
   2  -2  -4  132.62   12.99
  -2   2   4  121.80    7.76
  -2   2   4  116.52    7.56
  -2   2   4  136.35   11.53
  -2   2   4  127.62   10.25
  -2   2   4  129.26   12.06
   2  -2  -3  485.28   34.86
   2  -2  -3  497.59   29.85
   2  -2  -3  467.87   26.34
   2  -2  -3  508.64   40.54
  -2   2   3  573.88   35.42
  -2   2   3  481.13   28.99
  -2   2   3  475.64   24.35
  -2   2   3  505.18   32.88
   2  -2  -2  292.25   17.51
   2  -2  -2  281.49   17.89
   2  -2  -2  293.81   17.18
   2  -2  -2  300.58   22.12
  -2   2   2  298.45   18.38
  -2   2   2  271.94   11.62
  -2   2   2  304.49   18.89
  -2   2   2  309.91   21.62
   2  -2  -1  532.99   36.33
   2  -2  -1  487.82   33.90
   2  -2  -1  463.91   27.69
   2  -2  -1  516.70   29.42
  -2   2   1  475.96   27.91
  -2   2   1  604.34   35.90
  -2   2   1  511.39   33.53
   2  -2   0  168.79   15.38
   2  -2   0  171.85   12.66
   2  -2   0  195.56   21.66
   2  -2   0  199.40   12.27
  -2   2   0  187.66   15.26
  -2   2   0  182.57   14.37
   2  -2   1  461.46   27.96
   2  -2   1  443.21   34.75
   2  -2   1  413.10   25.15
   2  -2   1  458.70   25.47
  -2   2  -1  434.76   25.02
  -2   2  -1  409.94   26.51
   2  -2   2  415.10   20.57
   2  -2   2  555.14   34.42
   2  -2   2  512.85   28.48
   2  -2   2  467.51   32.05
  -2   2  -2  433.73   25.23
  -2   2  -2  451.43   28.59
  -2   2  -2  415.59   30.46
  -2   2  -2  442.85   25.31
   2  -2   3  309.32   16.43
   2  -2   3  351.63   20.38
   2  -2   3  349.92   21.13
  -2   2  -3  351.41   23.81
  -2   2  -3  308.29   19.26
  -2   2  -3  336.12   19.48
  -2   2  -3  304.25   17.72
   2  -2   4    2.60    2.27
   2  -2   4   -0.06    1.78
   2  -2   4    3.25    2.15
  -2   2  -4   -0.01    2.92
  -2   2  -4    0.08    3.29
  -2   2  -4    6.87    1.65
  -2   2  -4    2.18    2.14
   2  -2   5  787.88   48.77
   2  -2   5  921.36   55.20
   2  -2   5  841.38   49.86
  -2   2  -5  754.73   45.54
  -2   2  -5  879.88   55.64
  -2   2  -5  737.01   42.54
  -2   2  -5  818.77   51.12
   2  -2   6  238.98   17.59
   2  -2   6  263.52   17.41
   2  -2   6  243.77   15.20
  -2   2  -6  225.11   16.12
  -2   2  -6  207.77   16.35
  -2   2  -6  227.66   13.40
  -2   2  -6  236.71   17.37
   2  -2   7  373.57   27.80
   2  -2   7  345.21   21.75
   2  -2   7  407.08   27.67
  -2   2  -7  352.44   26.10
   2  -2   8  326.78   33.12
  -2   2  -8  325.39   26.33
   2  -2   9   55.37   10.93
  -2   2  -9   46.65    9.38
   2  -2  10   57.78   11.14
  -2   2 -10   46.48   10.30
   2  -2  11  218.03   32.43
  -2   2 -11  166.73   20.29
   2  -2  12  100.64   22.35
  -2   2 -12   74.10   16.98
   2  -2  13   73.01   16.08
  -2   2 -13   38.87   12.31
   2  -2  14   49.30    8.50
   2  -2  14   73.60   12.04
   2  -1 -13    8.58    4.20
  -2   1  13    2.36    2.63
   2  -1 -12   -0.93    2.90
  -2   1  12    0.00    2.26
   2  -1 -11   11.88    5.73
  -2   1  11    0.34    5.12
   2  -1 -10   -1.29    3.18
  -2   1  10   -0.24    2.64
  -2   1  10    0.03    2.22
   2  -1  -9  126.76   16.15
   2  -1  -9  110.57   18.58
  -2   1   9  109.43   13.07
  -2   1   9  125.94   18.80
   2  -1  -8   -2.11    3.05
   2  -1  -8   -0.05    2.29
  -2   1   8    0.05    3.91
  -2   1   8   -1.20    2.58
   2  -1  -7    0.85    2.00
   2  -1  -7    1.68    2.08
   2  -1  -7    0.11    1.47
  -2   1   7   -0.02    1.27
  -2   1   7    0.01    1.47
  -2   1   7   -1.18    1.73
  -2   1   7    0.11    1.61
   2  -1  -6    0.42    2.03
   2  -1  -6    0.95    1.65
   2  -1  -6   -0.14    2.33
  -2   1   6   -0.03    2.12
  -2   1   6    0.60    2.04
  -2   1   6    0.13    1.40
  -2   1   6   -0.04    1.22
  -2   1   6   -0.01    1.88
   2  -1  -5    0.96    2.15
   2  -1  -5    0.77    2.57
   2  -1  -5    0.78    1.46
  -2   1   5    0.02    1.24
  -2   1   5   -0.02    2.01
  -2   1   5   -0.23    1.98
  -2   1   5    1.16    1.92
  -2   1   5    0.16    2.03
   2  -1  -4    0.90    1.78
   2  -1  -4    1.09    1.54
   2  -1  -4    0.99    2.43
  -2   1   4    1.55    1.27
  -2   1   4    0.00    1.26
  -2   1   4    1.54    2.34
  -2   1   4    0.84    1.28
  -2   1   4    0.88    2.26
   2  -1  -3   22.37    4.42
   2  -1  -3   21.44    3.38
   2  -1  -3   25.60    5.83
  -2   1   3   20.32    2.28
  -2   1   3   23.21    4.80
  -2   1   3   24.43    3.71
  -2   1   3   24.51    3.26
  -2   1   3   25.36    5.48
   2  -1  -2   -0.00    3.79
   2  -1  -2    4.15    2.47
   2  -1  -2    3.56    1.80
   2  -1  -2    0.41    1.92
  -2   1   2    0.08    2.82
  -2   1   2    3.82    2.82
  -2   1   2    4.38    0.90
  -2   1   2   -0.04    3.32
  -2   1   2    4.34    0.84
   2  -1  -1   56.01    7.84
   2  -1  -1   49.42    4.52
   2  -1  -1   57.13    6.53
  -2   1   1   50.43    6.24
  -2   1   1   60.72    6.63
  -2   1   1   54.82   10.74
   2  -1   0   13.74    4.21
   2  -1   0   12.88    2.65
   2  -1   0   15.09    3.90
  -2   1   0   15.53    3.93
  -2   1   0   12.98    3.76
  -2   1   0   13.71    4.15
   2  -1   1   47.69    5.54
   2  -1   1   48.15    2.66
   2  -1   1   59.33    6.48
   2  -1   1   52.74    6.50
   2  -1   1   48.58    5.76
  -2   1  -1   45.98    7.44
  -2   1  -1   47.14    6.58
  -2   1  -1   46.12    6.16
   2  -1   2   63.87    6.33
   2  -1   2   71.64    6.93
   2  -1   2   71.33    7.16
  -2   1  -2   59.56    4.58
  -2   1  -2   58.53    6.56
  -2   1  -2   61.14    4.33
  -2   1  -2   60.67    7.19
   2  -1   3  319.55   18.10
   2  -1   3  332.38   20.17
   2  -1   3  346.43   20.83
   2  -1   3  340.36   23.40
  -2   1  -3  309.68   19.94
  -2   1  -3  300.22   15.05
  -2   1  -3  325.29   20.66
  -2   1  -3  297.72   15.75
   2  -1   4    5.74    4.53
   2  -1   4    6.95    2.11
   2  -1   4    5.14    2.39
  -2   1  -4   -0.09    2.57
  -2   1  -4    4.79    1.06
  -2   1  -4    4.69    2.84
  -2   1  -4   -0.00    1.30
   2  -1   5    7.25    3.35
   2  -1   5   12.14    3.63
   2  -1   5    8.95    3.54
  -2   1  -5   -0.24    2.99
  -2   1  -5    8.42    3.58
   2  -1   6    2.72    2.96
   2  -1   6    3.40    2.89
   2  -1   6    2.14    1.66
   2  -1   6    0.01    3.12
  -2   1  -6    2.82    3.42
  -2   1  -6    3.48    3.03
   2  -1   7   13.33    2.62
   2  -1   7   11.31    8.30
  -2   1  -7   11.47    5.13
  -2   1  -7   10.69    5.32
   2  -1   8   38.62    8.68
  -2   1  -8   36.78    8.37
   2  -1   9  478.97   40.59
  -2   1  -9  434.21   36.86
   2  -1  10   71.04   13.57
  -2   1 -10   62.19   12.52
   2  -1  11   15.55    8.39
  -2   1 -11   11.22    7.17
   2  -1  12   15.86    7.41
  -2   1 -12   11.90    7.44
   2  -1  13    0.64    7.12
  -2   1 -13    3.00    3.71
   2  -1  14    0.00    2.72
  -2   1 -14    3.32    3.34
   2   0 -14   20.81    4.91
  -2   0  14    2.94    4.36
   2   0 -13   31.45    8.06
  -2   0  13   26.20    7.35
   2   0 -12   23.18    7.33
  -2   0  12    0.21   10.81
   2   0 -11   31.99    9.88
  -2   0  11   38.50   14.89
  -2   0  11   39.54    7.96
   2   0 -10  722.86   59.44
  -2   0  10  804.20   66.55
  -2   0  10  770.33   58.33
   2   0  -9  206.69   21.30
  -2   0   9  221.75   22.01
  -2   0   9  223.51   20.98
   2   0  -8  347.71   28.04
  -2   0   8  396.73   30.97
  -2   0   8  356.42   24.11
  -2   0   8  390.03   30.02
   2   0  -7  203.58   15.01
   2   0  -7  238.44   19.29
   2   0  -7  242.75   20.15
   2   0  -7  236.17   19.51
  -2   0   7  209.66   17.66
  -2   0   7  233.03   15.32
  -2   0   7  250.84   19.87
   2   0  -6   18.45    5.74
   2   0  -6   19.99    3.28
   2   0  -6   19.09    4.53
  -2   0   6   16.66    4.54
  -2   0   6   27.53    5.48
  -2   0   6   21.85    3.20
  -2   0   6   22.23    5.77
   2   0  -5  632.93   38.95
   2   0  -5  640.35   42.02
   2   0  -5  583.29   33.20
  -2   0   5  636.53   34.93
  -2   0   5  639.16   44.34
  -2   0   5  658.25   42.21
   2   0  -4  129.04    8.96
   2   0  -4  129.53   11.83
   2   0  -4  124.03    7.15
  -2   0   4  135.34    7.43
  -2   0   4  144.01   15.22
  -2   0   4  145.43   12.44
  -2   0   4  103.06    8.57
   2   0  -3  801.00   46.23
   2   0  -3  746.90   37.12
   2   0  -3  747.49   52.39
  -2   0   3  753.60   43.81
  -2   0   3  797.24   39.82
  -2   0   3  739.66   38.20
  -2   0   3  798.88   47.71
  -2   0   3  725.87   40.68
   2   0  -2   64.68    4.74
   2   0  -2   63.71    3.91
   2   0  -2   62.14    7.39
  -2   0   2   59.97    4.72
  -2   0   2   65.75    6.80
  -2   0   2   75.84    4.71
  -2   0   2   62.96    7.04
  -2   0   2   58.56    4.68
   2   0  -1  620.69   33.82
   2   0  -1  583.23   24.72
   2   0  -1  622.06   34.94
   2   0  -1  686.10   38.60
  -2   0   1  616.77   32.99
  -2   0   1  644.21   36.14
  -2   0   1  614.55   31.29
  -2   0   1  610.80   33.54
   2   0   0  510.22   24.24
   2   0   0  531.01   23.42
   2   0   0  509.11   26.45
   2   0   0  544.50   30.75
  -2   0   0  507.25   26.42
  -2   0   0  483.85   24.71
  -2   0   0  472.32   26.50
  -2   0   0  546.04   30.81
   2   0   1  966.58   49.51
   2   0   1  850.94   48.23
   2   0   1  903.79   45.08
   2   0   1  951.93   53.65
   2   0   1  975.98   55.57
  -2   0  -1  930.41   52.47
  -2   0  -1  870.47   42.71
  -2   0  -1  896.14   51.12
  -2   0  -1  887.30   51.35
   2   0   2 2015.07  122.55
   2   0   2 1970.64  131.60
   2   0   2 2048.54  127.85
   2   0   2 2009.46  127.85
  -2   0  -2 1970.38  101.90
  -2   0  -2 2045.79  130.35
  -2   0  -2 2035.50  105.66
  -2   0  -2 1812.75  115.29
   2   0   3 1469.43   99.12
   2   0   3 1547.51   93.93
   2   0   3 1624.88  100.88
   2   0   3 1531.72   93.18
  -2   0  -3 1468.38   92.86
  -2   0  -3 1374.74   85.78
   2   0   4  150.39   12.50
   2   0   4  158.41   11.75
   2   0   4  154.91   10.67
   2   0   4  175.34   13.64
  -2   0  -4  151.93   12.67
  -2   0  -4  138.15   10.48
   2   0   5  664.22   39.44
   2   0   5  753.35   53.72
   2   0   5  691.01   44.24
   2   0   5  672.85   45.45
  -2   0  -5  643.37   40.39
  -2   0  -5  657.73   48.90
   2   0   6  967.12   67.93
   2   0   6  939.56   61.33
   2   0   6 1010.69   67.19
   2   0   6  980.58   65.55
  -2   0  -6  842.14   55.63
  -2   0  -6  927.37   64.26
   2   0   7  254.13   29.13
   2   0   7  248.39   16.23
  -2   0  -7  192.99   14.57
  -2   0  -7  228.00   20.61
   2   0   8   -0.11   10.02
  -2   0  -8   12.51    5.91
   2   0   9  440.42   38.98
  -2   0  -9  372.71   34.42
   2   0  10  268.44   28.19
  -2   0 -10  235.79   26.47
   2   0  11   98.71   15.75
  -2   0 -11   75.12   14.45
   2   0  12  128.37   17.87
  -2   0 -12   99.79   16.11
   2   0  13   -0.37    5.81
  -2   0 -13   17.07    7.22
   2   1 -14    0.63    2.15
  -2  -1  14    1.09    3.72
   2   1 -13    8.24    3.65
  -2  -1  13    0.18    4.02
  -2  -1  13    0.20    2.64
   2   1 -12   45.61   10.25
  -2  -1  12   67.07   12.53
  -2  -1  12   62.17    9.84
   2   1 -11  356.15   32.73
  -2  -1  11  468.67   50.34
  -2  -1  11  439.82   35.51
   2   1 -10   11.12    5.81
  -2  -1  10   15.21    6.83
  -2  -1  10   10.15    6.15
   2   1  -9   -0.35    3.18
  -2  -1   9    4.18    3.79
  -2  -1   9    2.26    3.57
   2   1  -8   -0.11    1.46
  -2  -1   8   -0.72    3.00
  -2  -1   8    0.56    1.75
  -2  -1   8   -0.17    0.93
   2   1  -7    0.11    1.39
   2   1  -7   -0.03    1.23
   2   1  -7   -1.02    2.36
  -2  -1   7   -0.07    2.29
  -2  -1   7    0.02    0.70
  -2  -1   7    0.67    1.61
   2   1  -6   19.96    5.14
   2   1  -6   20.22    5.59
  -2  -1   6   17.48    5.14
  -2  -1   6   22.14    4.41
  -2  -1   6   19.18    5.82
  -2  -1   6   19.38    2.49
   2   1  -5 1061.60   67.69
   2   1  -5 1064.73   69.67
  -2  -1   5  936.31   61.79
  -2  -1   5 1023.59   61.74
  -2  -1   5 1009.93   55.51
  -2  -1   5 1114.95   71.46
   2   1  -4    1.61    3.30
   2   1  -4   -0.49    2.46
  -2  -1   4    1.42    0.55
  -2  -1   4   -0.17    2.00
  -2  -1   4    0.79    2.58
  -2  -1   4    0.43    0.78
  -2  -1   4    0.08    3.78
   2   1  -3  164.98   11.90
   2   1  -3  160.76   12.45
  -2  -1   3  162.35   10.28
  -2  -1   3  156.90   11.86
  -2  -1   3  173.85   13.06
  -2  -1   3  166.70    8.35
   2   1  -2    0.03    2.10
   2   1  -2    1.91    2.02
  -2  -1   2    1.75    1.62
  -2  -1   2   -0.04    2.28
  -2  -1   2   -0.03    3.35
  -2  -1   2    2.84    1.53
   2   1  -1    2.07    2.18
   2   1  -1    0.04    1.10
  -2  -1   1    0.17    1.75
  -2  -1   1   -0.21    1.50
  -2  -1   1    0.38    1.17
  -2  -1   1    0.04    1.04
   2   1   0   26.32    6.72
   2   1   0   25.64    1.77
   2   1   0   28.48    2.65
  -2  -1   0   26.84    5.02
  -2  -1   0   31.44    4.57
  -2  -1   0   27.31    2.38
  -2  -1   0   25.81    3.62
   2   1   1  409.11   23.81
   2   1   1  361.15   22.66
   2   1   1  367.56   17.16
   2   1   1  356.46   14.30
  -2  -1  -1  387.59   25.83
  -2  -1  -1  368.74   22.31
  -2  -1  -1  374.39   20.85
  -2  -1  -1  340.93   13.35
   2   1   2   44.93    5.76
   2   1   2   42.85    4.05
  -2  -1  -2   42.33    5.75
  -2  -1  -2   47.93    5.76
  -2  -1  -2   40.10    7.46
   2   1   3   46.04    8.19
   2   1   3   39.70    4.73
  -2  -1  -3   39.35    7.79
  -2  -1  -3   40.08    5.79
  -2  -1  -3   46.07    6.45
   2   1   4   20.09    3.94
   2   1   4   21.59    4.14
   2   1   4   18.32    5.78
  -2  -1  -4   18.73    4.58
  -2  -1  -4   19.42    4.72
   2   1   5   -0.12    6.84
   2   1   5    0.67    3.30
   2   1   5    7.86    2.81
  -2  -1  -5    7.06    5.51
  -2  -1  -5    7.35    2.97
   2   1   6    0.09    2.67
   2   1   6   -0.16    1.99
   2   1   6    0.69    2.22
  -2  -1  -6    0.38    3.46
  -2  -1  -6    0.94    2.41
   2   1   7   -0.30    3.39
  -2  -1  -7    0.65    1.77
  -2  -1  -7    0.81    2.59
   2   1   8    0.07   11.50
  -2  -1  -8   11.56    5.84
   2   1   9    0.82    6.09
  -2  -1  -9    7.68    7.64
   2   1  10    6.52    5.10
  -2  -1 -10   -1.23    4.34
   2   1  11   -0.00    5.57
  -2  -1 -11    0.64    3.23
   2   1  12    0.59    3.66
  -2  -1 -12    0.98    2.85
  -2  -2  14   22.56    6.18
  -2  -2  14   10.28    3.26
   2   2 -13    8.46    5.07
  -2  -2  13   33.50    8.26
  -2  -2  13   25.43    5.63
   2   2 -12   42.70   13.95
  -2  -2  12  100.57   15.22
  -2  -2  12   91.82   12.30
   2   2 -11   72.88   12.10
  -2  -2  11  153.65   18.48
  -2  -2  11  146.92   16.32
   2   2 -10   29.73    7.02
  -2  -2  10   48.79   16.53
  -2  -2  10   45.06    9.61
   2   2  -9  183.06   21.14
  -2  -2   9  232.39   23.74
  -2  -2   9  239.06   29.00
   2   2  -8   25.01    5.12
  -2  -2   8   34.31    8.51
  -2  -2   8   39.21    8.29
   2   2  -7  143.66   14.99
   2   2  -7  126.37   10.36
   2   2  -7  143.22   20.66
  -2  -2   7  131.85   14.99
  -2  -2   7  150.11   14.59
   2   2  -6  798.67   55.88
   2   2  -6  798.53   54.75
  -2  -2   6  728.51   52.91
  -2  -2   6  860.03   57.09
   2   2  -5  701.19   47.19
   2   2  -5  708.16   47.06
  -2  -2   5  642.00   44.93
  -2  -2   5  690.73   39.13
  -2  -2   5  733.35   47.16
   2   2  -4   83.21    9.33
   2   2  -4   79.85    8.78
  -2  -2   4   72.21    9.21
  -2  -2   4   62.21    6.78
  -2  -2   4   75.17    4.46
  -2  -2   4   82.03    8.52
   2   2  -3  722.50   46.14
   2   2  -3  769.82   46.13
  -2  -2   3  723.99   38.20
  -2  -2   3  756.93   49.63
  -2  -2   3  720.24   39.18
  -2  -2   3  785.60   46.80
   2   2  -2   58.97    7.89
   2   2  -2   65.62    8.21
  -2  -2   2   59.87    5.46
  -2  -2   2   56.64    8.13
  -2  -2   2   63.88    8.00
  -2  -2   2   64.08    6.17
   2   2  -1  994.40   63.90
   2   2  -1 1017.20   59.34
  -2  -2   1  986.91   53.02
  -2  -2   1 1014.65   65.78
  -2  -2   1 1047.95   61.42
  -2  -2   1  970.99   42.36
  -2  -2   1 1011.10   56.91
   2   2   0   45.00    2.82
   2   2   0   43.50    3.11
  -2  -2   0   46.07    2.71
  -2  -2   0   47.45   12.16
  -2  -2   0   41.72    2.89
  -2  -2   0   47.36    6.19
  -2  -2   0   47.06    3.83
   2   2   1  404.96   20.80
   2   2   1  444.06   19.04
   2   2   1  473.35   28.92
   2   2   1  399.44   18.47
  -2  -2  -1  439.40   27.56
  -2  -2  -1  414.53   21.73
  -2  -2  -1  417.23   22.62
  -2  -2  -1  447.15   32.66
   2   2   2  409.05   22.75
   2   2   2  442.73   26.92
  -2  -2  -2  398.30   22.82
  -2  -2  -2  375.67   28.88
  -2  -2  -2  391.32   25.40
  -2  -2  -2  331.62   20.60
   2   2   3  444.72   26.58
   2   2   3  493.62   30.39
  -2  -2  -3  438.00   41.47
  -2  -2  -3  425.00   26.20
  -2  -2  -3  428.04   28.48
  -2  -2  -3  351.71   22.90
   2   2   4  754.79   54.47
   2   2   4  729.64   49.94
   2   2   4  765.05   47.64
  -2  -2  -4  635.85   47.71
  -2  -2  -4  649.20   41.08
  -2  -2  -4  632.90   42.21
  -2  -2  -4  598.75   43.47
   2   2   5  511.78   39.43
   2   2   5  503.81   40.64
  -2  -2  -5  453.51   33.61
  -2  -2  -5  443.29   31.28
  -2  -2  -5  459.06   30.81
  -2  -2  -5  464.72   33.13
   2   2   6   12.04    6.80
  -2  -2  -6    8.42    4.39
  -2  -2  -6   10.80    4.05
   2   2   7  226.26   23.94
  -2  -2  -7  129.72   20.90
  -2  -2  -7  166.20   14.62
   2   2   8  567.37   47.55
  -2  -2  -8  352.82   32.57
   2   2   9   64.27   19.87
  -2  -2  -9   37.79    9.26
   2   2  10  184.90   21.73
  -2  -2 -10  129.74   17.80
   2   2  11   40.37   13.16
  -2  -2 -11   18.08    6.46
   2   2  12   71.23    9.51
  -2  -2 -12   29.73    8.43
   2   3 -14    0.17    4.78
  -2  -3  14   26.42    4.71
  -2  -3  14   39.84    7.42
  -2  -3  13   96.30   15.46
  -2  -3  13   87.78   12.00
  -2  -3  12   -0.45    3.56
  -2  -3  12   -0.11    4.09
  -2  -3  11    0.19    5.67
  -2  -3  11    1.85    4.57
  -2  -3  10    0.27    2.53
  -2  -3  10   -0.11    2.17
  -2  -3   9   11.12    5.98
  -2  -3   9    0.06    5.38
  -2  -3   8   12.92    5.70
  -2  -3   8   -0.03    5.46
  -2  -3   7  185.50   20.09
  -2  -3   7  201.36   19.10
   2   3  -6    0.03    5.49
   2   3  -6    0.66    5.00
  -2  -3   6   16.33    5.56
  -2  -3   6   17.23    4.99
   2   3  -5   74.58   10.89
   2   3  -5   76.68   13.99
  -2  -3   5   68.38   10.88
  -2  -3   5   70.89    9.51
   2   3  -4   42.93    9.00
   2   3  -4   45.04    6.69
  -2  -3   4   40.41    3.96
  -2  -3   4   40.48   13.06
  -2  -3   4   44.71    6.75
   2   3  -3    0.02    4.18
  -2  -3   3    5.36    3.97
  -2  -3   3    5.81    3.14
  -2  -3   3    4.55    2.70
   2   3  -2   56.27    8.78
  -2  -3   2   61.04    6.33
  -2  -3   2   58.27    9.70
  -2  -3   2   53.17    7.33
   2   3  -1 1192.82   90.25
  -2  -3   1 1226.44   94.83
  -2  -3   1 1282.50   81.07
  -2  -3   1 1135.96   70.84
   2   3   0   73.05   10.46
   2   3   0   91.53    8.89
   2   3   0   71.34    5.49
  -2  -3   0   77.92   11.59
  -2  -3   0   72.89    6.07
  -2  -3   0   81.05   12.14
   2   3   1   23.14    7.03
   2   3   1   28.48    5.53
   2   3   1   20.76    3.11
  -2  -3  -1   21.15    4.29
  -2  -3  -1   20.72    2.39
  -2  -3  -1   27.23    7.57
  -2  -3  -1   26.53    5.47
  -2  -3  -1   19.97    2.44
   2   3   2    0.09    5.04
   2   3   2    6.16    2.40
   2   3   2   11.83    3.57
  -2  -3  -2    4.00    1.71
  -2  -3  -2    8.36    5.30
  -2  -3  -2   10.54    3.77
  -2  -3  -2    5.84    2.34
  -2  -3  -2    4.09    1.85
   2   3   3    0.30    1.42
  -2  -3  -3    1.17    1.56
  -2  -3  -3    0.14    1.08
  -2  -3  -3    0.22    3.31
  -2  -3  -3    1.85    5.10
  -2  -3  -3    0.12    1.20
   2   3   4   30.87    8.87
  -2  -3  -4   18.45    4.18
  -2  -3  -4   21.57    5.86
  -2  -3  -4   19.66    4.40
  -2  -3  -4   18.77    4.93
   2   3   5  618.35   49.97
  -2  -3  -5  494.96   38.06
  -2  -3  -5  491.36   42.04
  -2  -3  -5  460.92   34.17
   2   3   6   12.50    7.50
  -2  -3  -6    7.30    4.39
  -2  -3  -6   10.12    4.70
   2   3   7   -0.41    7.74
  -2  -3  -7    6.99    4.60
  -2  -3  -7   10.72    4.21
   2   3   8    0.63    3.43
  -2  -3  -8    0.03    1.90
   2   3   9    0.09    9.75
  -2  -3  -9    4.07    3.33
   2   3  10   -0.21    4.01
  -2  -3 -10    1.77    2.08
   2   3  11    0.48    2.35
   2   4 -14    0.10    2.71
  -2  -4  14   -0.32    2.31
  -2  -4  13   -0.81    3.22
  -2  -4  13    0.09    2.50
  -2  -4  12   27.22    8.20
  -2  -4  12   -0.09    7.01
  -2  -4  11   50.67   13.40
  -2  -4  11   47.02   11.12
  -2  -4  10   94.62   17.46
  -2  -4  10   99.28   15.09
  -2  -4   9   -0.79    3.25
  -2  -4   9    0.24    2.65
  -2  -4   8  611.94   53.51
  -2  -4   8  617.46   48.87
  -2  -4   7  429.25   40.11
  -2  -4   7  420.93   33.81
  -2  -4   6  111.59   23.60
  -2  -4   6  111.20   12.84
  -2  -4   5  354.34   39.42
  -2  -4   5  309.40   20.08
  -2  -4   5  355.11   25.96
  -2  -4   4   67.40   18.27
  -2  -4   4   66.68    6.69
  -2  -4   4   66.21    8.24
  -2  -4   3  164.44   18.63
  -2  -4   3  160.56   12.53
  -2  -4   3  152.10   16.66
   2   4  -2  933.38   63.86
   2   4  -2  965.18   71.82
  -2  -4   2  957.98   73.81
  -2  -4   2  960.08   63.92
  -2  -4   1  248.63   25.00
  -2  -4   1  241.95   19.38
  -2  -4   0  239.11   24.29
  -2  -4   0  238.55   25.62
  -2  -4  -1  323.87   31.51
  -2  -4  -1  309.33   25.20
  -2  -4  -2  132.71   26.56
  -2  -4  -2  121.44   14.06
  -2  -4  -3  301.41   33.27
  -2  -4  -3  272.55   30.74
   2   4   4   48.12   18.13
  -2  -4  -4   32.32    6.77
  -2  -4  -4   43.88    8.60
   2   4   5   22.64    8.09
  -2  -4  -5    0.62    4.96
  -2  -4  -5   14.72    8.69
   2   4   6  353.94   43.54
  -2  -4  -6  267.31   24.12
   2   4   7   54.52   12.13
  -2  -4  -7   25.23    9.23
   2   4   8  148.62   20.72
   2   4   9   40.63   10.06
   2   5 -13   -0.18    2.51
  -2  -5  13   -0.34    2.71
   2   5 -12   -1.20    3.76
  -2  -5  12   -0.10    3.97
  -2  -5  11    0.50    3.28
  -2  -5  11   -0.09    2.83
  -2  -5  10   -0.19    7.32
  -2  -5  10   10.62    6.36
  -2  -5   9    0.01    7.22
  -2  -5   9   13.91    9.74
  -2  -5   8    0.81    4.70
  -2  -5   8   -0.14    2.51
  -2  -5   7   -0.11    3.57
  -2  -5   7    0.98    4.62
  -2  -5   6   18.43    9.63
  -2  -5   6   17.06    6.97
   2   5  -5    3.82    6.34
  -2  -5   5   11.36    3.39
  -2  -5   5   21.15   12.78
   2   5  -4   41.73    8.80
  -2  -5   4   50.95   18.69
  -2  -5   4   33.51    8.75
   2   5  -3  428.80   39.92
  -2  -5   3  441.38   40.95
  -2  -5   3  428.44   32.28
  -2  -5   2   30.98   10.80
  -2  -5   2   25.01    6.69
  -2  -5   1    2.85    5.65
  -2  -5   1    2.05    5.33
  -2  -5   0   26.29    7.71
  -2  -5   0   30.34   11.40
  -2  -5  -1    0.16    4.29
  -2  -5  -1    0.46    3.73
  -2  -5  -2   17.36   15.75
  -2  -5  -2   12.50    6.74
   2   5   3  413.92   41.30
  -2  -5  -3  336.48   31.14
   2   5   4   -0.18   16.12
  -2  -5  -4   28.68    7.50
   2   5   5   -0.29    6.30
  -2  -5  -5    8.97    4.93
   2   5   6    0.32    5.16
  -2  -5  -6   -0.41    1.99
   2   5   7    0.05    2.26
   2   5   8   -0.30    2.51
   2   6 -13    0.36    2.39
  -2  -6  13    0.24    2.47
   2   6 -12   47.30   10.90
  -2  -6  12   57.40   11.56
   2   6 -11   18.66    9.02
  -2  -6  11   21.01    9.35
   2   6 -10  123.01   19.31
  -2  -6  10  125.56   20.16
   2   6  -9   88.80   17.05
  -2  -6   9  104.02   18.76
   2   6  -8   99.29   18.02
  -2  -6   8  109.16   28.80
   2   6  -7  116.91   18.58
  -2  -6   7  128.71   21.42
   2   6  -6   72.54   20.83
  -2  -6   6   84.36   17.54
   2   6  -5   30.24    8.47
  -2  -6   5   36.46   17.57
  -2  -6   5   17.89    5.23
   2   6  -4  522.01   45.41
  -2  -6   4  561.28   64.30
  -2  -6   4  475.57   38.42
  -2  -6   3  303.42   45.38
  -2  -6   3  272.08   24.89
  -2  -6   2   66.97   14.86
  -2  -6   2   44.15    9.29
  -2  -6   1  165.82   23.05
  -2  -6   1  119.62   15.81
  -2  -6   0   23.30   11.05
  -2  -6   0   21.93    7.95
  -2  -6  -1   63.37   23.52
  -2  -6  -1   47.50   10.56
   2   6   2   49.58   13.72
  -2  -6  -2   41.92   10.50
   2   6   3    0.12    7.01
  -2  -6  -3   12.35    5.44
   2   6   4   49.03   10.93
  -2  -6  -4   45.80    9.57
   2   6   5   40.99   13.31
  -2  -6  -5   24.33    9.20
   2   6   6   57.16    9.75
   2   7 -11   -0.06    5.23
  -2  -7  11   15.27    7.70
   2   7 -10   37.68   10.44
  -2  -7  10   38.00   15.91
   2   7  -9    2.42    4.96
  -2  -7   9    2.50    8.04
   2   7  -8    5.86    6.30
  -2  -7   8    6.69    6.77
   2   7  -7    0.06    5.21
  -2  -7   7    6.42    5.78
   2   7  -6    0.21    6.12
  -2  -7   6   16.79    7.60
   2   7  -5   21.20    6.68
  -2  -7   5   33.23    9.92
  -2  -7   5    9.03    4.72
  -2  -7   4    2.87    6.07
  -2  -7   4    3.08    5.04
  -2  -7   3    7.72    4.62
  -2  -7   3    7.27    7.97
  -2  -7   2   13.00    7.83
  -2  -7   2    7.96    5.47
  -2  -7   1    2.08    5.19
  -2  -7   1    1.77    3.77
  -2  -7   0    1.95    3.61
  -2  -7   0   -0.57    2.54
   2   7   1    0.33   13.02
  -2  -7  -1   19.38    6.43
   2   7   2    1.49    4.03
  -2  -7  -2    2.24    5.78
   2   7   3    1.14    4.82
  -2  -7  -3    1.31    2.66
   2   7   4    0.03    2.00
  -2  -7  -4    0.58    1.52
   2   8  -8   25.92    6.08
  -2  -8   8   42.57    8.67
   2   8  -7   20.36    5.31
  -2  -8   7   39.35    8.58
   2   8  -6   24.84    5.57
  -2  -8   6   78.23   10.86
  -2  -8   5   97.35   15.04
  -2  -8   5   18.98    4.59
  -2  -8   4   29.36    7.54
  -2  -8   4   11.51    4.09
  -2  -8   3   54.00    9.64
  -2  -8   3   28.15    6.27
  -2  -8   2    4.63    5.32
  -2  -8   2    5.73    3.49
   2   8  -1    2.80    7.55
  -2  -8   1   10.40    6.73
   2   8   0   27.06    6.19
  -2  -8   0   19.40    5.86
   3  -8  -3    0.35    2.12
   3  -8  -2    0.80    2.30
  -3   8   2    0.15    1.70
   3  -8  -1    1.25    2.45
   3  -8  -1    1.97    3.34
  -3   8   1    1.26    2.91
   3  -8   0    2.98    3.05
   3  -8   0    0.04    3.61
  -3   8   0    1.21    3.91
   3  -8   1   -2.82    3.04
   3  -8   1   -0.02    2.21
  -3   8  -1    1.55    2.47
   3  -8   2    8.33    5.19
   3  -8   2   -0.07    5.38
  -3   8  -2   16.06    6.44
   3  -8   3   23.01    7.74
   3  -8   3   15.97    7.41
  -3   8  -3   23.50    8.78
   3  -8   4   92.97   13.13
   3  -8   4   70.54   13.24
  -3   8  -4   90.57   14.56
   3  -8   5   39.18    8.30
   3  -8   5   10.45    7.68
  -3   8  -5   41.88    9.30
   3  -8   6   -0.21    4.72
   3  -8   6    2.66    3.84
  -3   8  -6   12.47    5.02
   3  -8   7    0.72    1.68
   3  -8   7   -0.06    2.57
  -3   8  -7    0.57    2.69
   3  -8   8   24.12    6.34
  -3   8  -8   20.23    6.00
   3  -8   9   -0.17    2.52
  -3   8  -9    1.72    1.92
   3  -7  -5   -0.34    8.21
  -3   7   5   10.41    2.75
   3  -7  -4   94.05   12.99
  -3   7   4   79.61    9.89
   3  -7  -3    0.16    2.13
   3  -7  -3   -0.20    3.88
  -3   7   3    0.20    2.02
   3  -7  -2    2.44    3.18
   3  -7  -2    3.66    4.56
  -3   7   2    1.68    4.14
   3  -7  -1   31.65    8.34
   3  -7  -1   42.32   10.19
  -3   7   1   48.93   10.93
   3  -7   0   39.49   10.30
   3  -7   0   36.85   10.00
  -3   7   0   49.35   11.92
   3  -7   1   72.13   20.49
   3  -7   1   68.05   13.02
  -3   7  -1   81.56   15.36
   3  -7   2   89.01   21.93
   3  -7   2   87.60   14.77
  -3   7  -2  103.06   25.54
   3  -7   3    0.77    9.50
   3  -7   3    7.27    5.77
  -3   7  -3    9.20    7.17
   3  -7   4   -0.19    9.72
   3  -7   4    6.38    5.73
  -3   7  -4   11.79    6.87
   3  -7   5  110.12   15.77
   3  -7   5  102.60   20.91
  -3   7  -5  105.72   16.68
   3  -7   6   39.10    9.83
   3  -7   6   21.69    7.79
  -3   7  -6   39.42   14.87
   3  -7   7   77.33   12.08
   3  -7   7   30.95    8.52
  -3   7  -7   57.45   16.27
   3  -7   8   23.39    6.27
   3  -7   8    4.50    3.70
  -3   7  -8    9.76    8.56
   3  -7   9  197.31   18.17
  -3   7  -9  119.46   14.35
   3  -7  10  108.35    9.85
  -3   7 -10   24.02    5.53
   3  -7  11   51.73   11.97
   3  -6  -7    0.03    1.71
   3  -6  -6    0.84    3.69
  -3   6   6    0.02    1.50
   3  -6  -5   10.50    5.13
  -3   6   5    0.07    4.04
   3  -6  -4    2.71    5.22
  -3   6   4   -0.15    3.03
   3  -6  -3   16.03    5.88
   3  -6  -3   34.19    8.95
  -3   6   3   35.72    8.66
   3  -6  -2   -0.42    4.15
   3  -6  -2    4.72    5.17
  -3   6   2    1.33    4.44
   3  -6  -1   -0.18    8.37
   3  -6  -1   22.59    6.94
  -3   6   1   30.82    9.00
   3  -6   0   45.52   10.89
   3  -6   0   43.59   10.40
  -3   6   0   46.40   12.90
   3  -6   1    0.32    4.16
   3  -6   1    3.01    3.78
  -3   6  -1    0.17    4.72
   3  -6   2    0.64    2.66
  -3   6  -2   -0.46    3.02
   3  -6   3   18.74   13.01
   3  -6   3   19.47   13.64
  -3   6  -3   17.42    8.60
   3  -6   4   62.53   12.57
   3  -6   4   55.14   18.00
  -3   6  -4   52.24   12.28
   3  -6   5    6.30    5.49
   3  -6   5    8.22    5.64
  -3   6  -5   -0.01    5.53
   3  -6   6   28.58    8.98
   3  -6   6   25.12    8.65
  -3   6  -6   32.72    9.35
   3  -6   7   45.02   15.47
   3  -6   7   20.87   11.39
  -3   6  -7   30.11    9.20
   3  -6   8   31.44    7.97
   3  -6   8    9.05    5.26
  -3   6  -8   15.07    9.73
   3  -6   9    0.06    2.29
   3  -6  10   -0.16    2.57
   3  -6  11    0.21    2.26
   3  -6  12    0.52    3.30
   3  -5  -8   21.92    6.62
   3  -5  -7   42.73    9.49
  -3   5   7   37.47    7.58
   3  -5  -6    7.81    4.95
  -3   5   6    0.11    4.07
   3  -5  -5  110.07   15.98
  -3   5   5  115.44   15.09
   3  -5  -4  175.44   19.97
  -3   5   4  197.83   20.99
   3  -5  -3   87.16   12.78
   3  -5  -3   54.20    9.47
  -3   5   3   93.86   14.19
   3  -5  -2  122.65   15.49
   3  -5  -2  101.59   13.38
  -3   5   2  122.94   16.70
   3  -5  -1  140.76   16.45
   3  -5  -1  145.11   16.69
  -3   5   1  155.58   27.34
   3  -5   0  172.90   19.36
   3  -5   0  159.10   17.51
  -3   5   0  169.58   20.92
   3  -5   1  116.98   14.17
   3  -5   1  112.01   14.45
  -3   5  -1  121.39   23.62
   3  -5   2   82.74   17.75
   3  -5   2   82.74   12.97
  -3   5  -2   82.34   19.31
   3  -5   3  257.40   30.13
   3  -5   3  248.73   22.62
  -3   5  -3  246.47   23.96
   3  -5   4   90.26   19.18
   3  -5   4   81.82   11.54
  -3   5  -4   81.09   13.15
   3  -5   5  237.96   21.86
   3  -5   5  251.32   31.39
  -3   5  -5  236.31   23.76
   3  -5   6   54.70   11.04
   3  -5   6   49.03    8.73
  -3   5  -6   49.21   10.21
   3  -5   7  349.13   31.24
   3  -5   7  291.78   25.76
  -3   5  -7  279.52   27.20
   3  -5   8  122.75   16.08
   3  -5   8  243.79   23.09
   3  -5   9  152.07   19.62
   3  -5  10   79.12   13.80
   3  -5  11   29.84    8.78
   3  -5  12   -0.13    3.27
   3  -5  13  148.21   13.19
   3  -4 -10    0.28    2.71
   3  -4  -9    4.44    4.44
   3  -4  -9   10.91    4.94
  -3   4   9    7.01    3.60
   3  -4  -8    2.13    3.50
   3  -4  -8   -0.08    3.15
  -3   4   8    1.55    2.97
   3  -4  -7    0.60    6.12
   3  -4  -7    1.96    3.38
  -3   4   7    2.07    5.81
   3  -4  -6   -0.18    3.71
   3  -4  -6    4.05    4.75
  -3   4   6    1.51    3.69
   3  -4  -5   48.71    9.24
   3  -4  -5   71.09   11.12
  -3   4   5   83.84   12.35
   3  -4  -4    0.02    3.95
  -3   4   4    4.79    3.16
  -3   4   4    2.92    4.53
   3  -4  -3  121.55   13.36
   3  -4  -3   97.92   14.62
  -3   4   3  110.54   11.41
  -3   4   3  136.90   16.16
   3  -4  -2  120.34   12.87
   3  -4  -2  110.71   12.57
   3  -4  -2  107.32   10.48
  -3   4   2  109.60   11.29
  -3   4   2  121.66   15.29
   3  -4  -1   42.07    7.14
   3  -4  -1   42.12   11.57
   3  -4  -1   42.31    6.18
  -3   4   1   40.02    6.46
  -3   4   1   46.76    9.85
   3  -4   0   58.64    8.79
   3  -4   0   60.78   11.96
   3  -4   0   59.71    6.76
  -3   4   0   54.69    8.88
  -3   4   0   63.25   10.98
   3  -4   1   72.69    9.58
   3  -4   1   77.66    9.43
   3  -4   1   80.54    7.71
  -3   4  -1   65.63    6.94
  -3   4  -1   79.54   11.38
  -3   4  -1   78.52   10.25
   3  -4   2   24.51    6.41
   3  -4   2   20.74    5.55
   3  -4   2   20.58    3.73
  -3   4  -2   18.45    3.72
  -3   4  -2   21.75    6.40
  -3   4  -2   18.75    8.42
   3  -4   3   74.84    7.07
   3  -4   3   83.35   14.35
  -3   4  -3   61.00    6.38
  -3   4  -3   71.06   14.20
  -3   4  -3   79.98    9.37
   3  -4   4   20.13    6.25
   3  -4   4   15.26    3.56
   3  -4   4   24.20    5.61
  -3   4  -4   13.34    3.63
  -3   4  -4   16.74    5.60
   3  -4   5    5.43    6.84
   3  -4   5    1.93    3.46
  -3   4  -5    3.19    2.34
  -3   4  -5    3.16    3.41
   3  -4   6    2.72    2.85
   3  -4   6   -0.21    4.04
  -3   4  -6    1.69    2.08
  -3   4  -6    1.62    4.49
   3  -4   7   38.33    7.26
   3  -4   7   43.25    9.67
  -3   4  -7   28.10    6.15
   3  -4   8   -0.15    3.49
   3  -4   8   -0.18    3.60
  -3   4  -8    1.50    2.21
   3  -4   9   33.54    9.21
  -3   4  -9   14.04    8.72
   3  -4  10    9.11    5.72
  -3   4 -10    2.30    3.41
   3  -4  11   -1.18    2.79
  -3   4 -11    0.10    1.62
   3  -4  12    3.07    4.87
   3  -4  13   -0.51    4.01
   3  -3 -11   21.11    6.43
   3  -3 -10    3.78    3.92
  -3   3  10    0.00    4.44
   3  -3  -9  108.15   16.00
   3  -3  -9   98.08   18.42
  -3   3   9  116.96   18.42
   3  -3  -8   42.91   10.05
   3  -3  -8   47.01    9.24
  -3   3   8   54.68    9.97
   3  -3  -7  175.85   19.19
   3  -3  -7  172.46   24.42
  -3   3   7  204.09   20.41
   3  -3  -6 1475.65  111.99
   3  -3  -6 1543.03  116.99
  -3   3   6 1666.27  125.06
   3  -3  -5   72.07    9.78
  -3   3   5   86.36   11.13
  -3   3   5   88.07   17.76
   3  -3  -4  385.63   33.62
  -3   3   4  428.22   31.47
  -3   3   4  441.05   34.63
   3  -3  -3  157.23   12.96
   3  -3  -3  168.80   18.79
   3  -3  -3  189.73   15.31
  -3   3   3  200.83   17.26
  -3   3   3  225.74   18.96
  -3   3   3  192.20   18.60
   3  -3  -2   42.06    9.20
   3  -3  -2   38.19    6.14
   3  -3  -2   36.75    5.31
   3  -3  -2   43.44    5.68
  -3   3   2   44.82    6.70
  -3   3   2   42.86    8.59
   3  -3  -1  570.42   37.39
   3  -3  -1  569.62   50.28
   3  -3  -1  522.44   38.83
   3  -3  -1  569.70   36.28
  -3   3   1  554.11   40.50
  -3   3   1  591.12   48.71
   3  -3   0 1214.75   80.47
   3  -3   0 1253.65   95.37
   3  -3   0 1261.10   82.90
   3  -3   0 1441.66   92.97
  -3   3   0 1246.01   80.63
  -3   3   0 1329.09   98.96
   3  -3   1  202.87   15.86
   3  -3   1  185.72   14.06
   3  -3   1  218.84   14.85
  -3   3  -1  198.98   13.97
  -3   3  -1  202.61   21.97
  -3   3  -1  196.64   15.38
   3  -3   2  587.20   40.36
   3  -3   2  633.05   39.21
   3  -3   2  669.10   49.78
   3  -3   2  574.87   38.11
  -3   3  -2  585.03   36.95
  -3   3  -2  566.68   38.29
  -3   3  -2  582.13   41.95
   3  -3   3  252.64   25.15
   3  -3   3  253.45   17.34
   3  -3   3  242.59   19.25
   3  -3   3  266.78   24.80
  -3   3  -3  225.50   15.95
  -3   3  -3  223.80   15.61
   3  -3   4  384.43   30.46
   3  -3   4  387.45   28.13
   3  -3   4  407.86   26.85
   3  -3   4  419.53   33.12
  -3   3  -4  359.38   29.01
  -3   3  -4  359.83   26.84
  -3   3  -4  396.30   27.06
   3  -3   5  156.27   22.01
   3  -3   5  195.51   19.53
   3  -3   5  161.86   13.35
   3  -3   5  161.98   13.16
  -3   3  -5  133.61   11.69
  -3   3  -5  121.93    9.76
  -3   3  -5  137.65   12.61
   3  -3   6   76.03   12.78
   3  -3   6   49.88    8.19
  -3   3  -6   45.23    7.15
   3  -3   7  249.31   20.53
  -3   3  -7  211.00   18.11
   3  -3   8  183.63   16.19
  -3   3  -8  160.61   15.74
  -3   3  -9   67.35    9.79
  -3   3 -10   55.03    9.12
   3  -3  11   27.95    7.31
   3  -3  11   71.74   14.44
  -3   3 -11   30.05    7.03
   3  -3  12   38.70    7.85
   3  -3  12  103.63   14.71
  -3   3 -12   35.15    7.58
   3  -3  13    0.97    2.38
   3  -3  13   30.34    4.98
   3  -2 -12   -0.16    2.06
   3  -2 -11    3.29    4.80
  -3   2  11   -0.00    2.10
   3  -2 -10   -0.88    3.10
  -3   2  10    0.07    2.41
   3  -2  -9   -0.06    5.83
   3  -2  -9    1.04    2.51
  -3   2   9    0.15    4.76
   3  -2  -8    0.10    3.41
   3  -2  -8    1.03    2.43
  -3   2   8    1.22    3.43
   3  -2  -7    7.89    4.31
   3  -2  -7   11.40    6.53
  -3   2   7   15.17    6.19
   3  -2  -6    0.04    2.69
  -3   2   6   -0.71    2.62
   3  -2  -5   14.50    4.16
  -3   2   5   19.64    5.87
  -3   2   5   16.84    4.18
  -3   2   5   19.10    6.42
   3  -2  -4    2.96    2.07
   3  -2  -4   11.36    8.58
   3  -2  -4    9.97    3.02
   3  -2  -4   12.29    4.23
  -3   2   4   13.26    4.71
  -3   2   4   10.14    2.71
  -3   2   4   15.22    5.02
   3  -2  -3    9.80    2.68
   3  -2  -3    0.44    5.65
   3  -2  -3   10.85    2.90
   3  -2  -3   14.77    4.11
  -3   2   3   12.43    4.38
  -3   2   3   16.46    3.49
  -3   2   3   -0.10    4.87
   3  -2  -2   -0.62    5.63
   3  -2  -2   14.66    4.34
   3  -2  -2   12.04    3.11
   3  -2  -2   15.80    3.84
  -3   2   2   16.02    4.22
  -3   2   2   -0.16    5.09
   3  -2  -1  126.00   13.54
   3  -2  -1   99.45    7.82
   3  -2  -1  103.43   12.20
   3  -2  -1  116.41    9.88
  -3   2   1  111.36   10.15
  -3   2   1  118.63   11.30
   3  -2   0    1.80    4.13
   3  -2   0    1.74    2.44
   3  -2   0    1.74    2.30
  -3   2   0    1.19    2.12
  -3   2   0    0.92    2.54
  -3   2   0    1.15    2.31
   3  -2   1  101.24    9.34
   3  -2   1  102.32    8.31
   3  -2   1  117.87    9.82
   3  -2   1  121.48   10.92
  -3   2  -1  119.37   14.40
  -3   2  -1  126.93   17.96
  -3   2  -1  114.06    9.59
   3  -2   2    0.15    1.77
   3  -2   2    0.78    1.79
   3  -2   2    1.99    2.17
  -3   2  -2    0.45    1.80
  -3   2  -2   -0.76    2.61
  -3   2  -2    0.48    1.44
  -3   2  -2    0.96    2.06
   3  -2   3    0.12    2.38
   3  -2   3    0.37    1.83
   3  -2   3    0.61    1.85
  -3   2  -3    0.22    2.55
  -3   2  -3   -1.19    1.93
  -3   2  -3    1.33    1.05
  -3   2  -3    0.57    1.92
   3  -2   4    8.86    3.56
   3  -2   4    7.85    3.41
  -3   2  -4   11.48    7.26
  -3   2  -4    6.20    1.97
  -3   2  -4    4.59    2.78
  -3   2  -4    9.93    3.53
   3  -2   5  280.83   19.50
   3  -2   5  382.01   26.48
   3  -2   5  342.39   22.99
  -3   2  -5  337.80   26.06
  -3   2  -5  310.69   23.35
   3  -2   6   33.41    5.54
  -3   2  -6   39.62    7.48
  -3   2  -6   37.36    6.89
   3  -2   7   87.03    9.88
  -3   2  -7   77.65    9.79
  -3   2  -7   83.80   10.83
   3  -2   8   21.07    6.26
   3  -2   8   19.52    6.28
  -3   2  -8   18.68    6.40
   3  -2   9    1.16    6.69
  -3   2  -9    6.71    6.63
   3  -2  10   38.40    8.56
  -3   2 -10   39.36    8.71
   3  -2  11    0.04    2.19
  -3   2 -11    0.23    2.07
   3  -2  12    2.26    5.15
  -3   2 -12   14.71    4.69
   3  -2  13    1.02    2.21
   3  -2  13    3.56    4.55
  -3   2 -13    2.10    2.54
   3  -1 -13   27.46    6.72
   3  -1 -12    0.66    2.62
  -3   1  12    0.14    1.79
   3  -1 -11   92.01   21.88
  -3   1  11   97.41   12.68
   3  -1 -10   14.84    6.97
  -3   1  10    0.00    9.74
   3  -1  -9   21.58    7.94
  -3   1   9   19.46    7.89
   3  -1  -8 2256.75  179.37
  -3   1   8 2374.48  186.75
  -3   1   7  159.79   17.61
  -3   1   7  146.83   17.47
   3  -1  -6  365.62   24.75
  -3   1   6  538.50   37.53
  -3   1   6  432.56   29.04
  -3   1   6  521.00   37.59
   3  -1  -5  254.68   19.20
   3  -1  -5  274.53   23.94
   3  -1  -5  214.29   13.99
  -3   1   5  284.31   27.60
  -3   1   5  206.79   12.92
  -3   1   5  270.68   21.95
   3  -1  -4    0.82    4.06
   3  -1  -4    2.33    1.50
   3  -1  -4    4.47    3.19
  -3   1   4    4.49    3.12
  -3   1   4    2.45    1.25
  -3   1   4   -0.18    3.23
   3  -1  -3  461.75   33.10
   3  -1  -3  375.56   22.15
   3  -1  -3  370.68   21.53
   3  -1  -3  452.04   29.45
  -3   1   3  410.92   27.05
  -3   1   3  434.72   29.17
   3  -1  -2 5413.26  424.36
   3  -1  -2 4585.56  338.78
   3  -1  -2 5558.00  423.48
  -3   1   2 5235.71  400.75
  -3   1   2 4254.48  339.89
  -3   1   2 5351.23  410.67
   3  -1  -1  134.26   11.68
   3  -1  -1  105.45    6.11
   3  -1  -1  136.74   11.31
  -3   1   1  126.25   10.92
  -3   1   1  138.13   10.93
  -3   1   1  126.33   10.12
   3  -1   0 1948.69  132.82
   3  -1   0 1641.30  101.96
   3  -1   0 1922.91  125.22
  -3   1   0 1841.45  120.42
  -3   1   0 1913.97  125.56
  -3   1   0 1793.04  115.42
   3  -1   1  149.77    6.56
   3  -1   1  135.83    6.78
   3  -1   1  145.77    9.78
   3  -1   1  164.77    9.99
   3  -1   1  167.03   12.40
   3  -1   1  165.90   12.56
  -3   1  -1  160.95   12.42
  -3   1  -1  169.05   13.51
  -3   1  -1  166.39   10.29
   3  -1   2  790.48   44.14
   3  -1   2  869.70   58.26
   3  -1   2  854.76   52.86
  -3   1  -2  852.60   54.71
  -3   1  -2  780.03   43.15
  -3   1  -2  831.04   52.40
  -3   1  -2  744.42   42.08
   3  -1   3  132.44    8.72
   3  -1   3  143.79   12.47
   3  -1   3  142.37   11.38
  -3   1  -3  141.99   17.78
  -3   1  -3  130.89   11.56
   3  -1   4  207.79   17.14
   3  -1   4  240.69   18.70
   3  -1   4  215.23   15.36
  -3   1  -4  218.41   17.65
  -3   1  -4  202.61   16.18
   3  -1   5  302.16   21.22
   3  -1   5  327.13   25.64
   3  -1   5  369.38   26.63
  -3   1  -5  303.54   23.57
  -3   1  -5  274.83   21.87
   3  -1   6  387.48   28.11
  -3   1  -6  375.46   27.92
  -3   1  -6  374.79   28.36
   3  -1   7  176.70   16.74
  -3   1  -7  171.18   20.31
  -3   1  -7  171.58   17.19
   3  -1   8  412.37   40.36
  -3   1  -8  361.31   29.25
  -3   1  -8  372.69   31.85
   3  -1   9    3.25    6.84
  -3   1  -9    2.93    4.63
   3  -1  10   -0.20   12.10
  -3   1 -10   23.65    7.55
   3  -1  11  123.39   15.18
  -3   1 -11  106.58   14.63
   3  -1  12   86.59   12.21
  -3   1 -12   64.28    9.94
   3  -1  13   38.14    6.34
   3  -1  13   70.61   10.03
  -3   1 -13   28.36    6.61
   3   0 -13    7.97    3.60
  -3   0  13    0.19    2.71
   3   0 -12    4.49    3.80
  -3   0  12    0.02    3.33
   3   0 -11    3.84    4.58
  -3   0  11    0.48    6.84
   3   0 -10   -1.36    2.89
  -3   0  10    0.71    2.83
   3   0  -9   29.84    8.46
  -3   0   9   27.49    9.47
   3   0  -8    4.48    4.60
  -3   0   8    4.01    5.04
  -3   0   7   31.75    6.10
  -3   0   7   55.44    8.75
  -3   0   7   53.91    9.57
   3   0  -6   15.47    3.56
  -3   0   6   11.21    3.50
  -3   0   6   20.57    5.49
  -3   0   6   25.07    6.50
   3   0  -5   -0.04    1.94
   3   0  -5    0.55    4.27
  -3   0   5   -0.03    1.18
  -3   0   5    2.25    2.16
  -3   0   5    2.25    3.99
   3   0  -4   17.70    2.58
   3   0  -4    0.31    8.85
  -3   0   4   18.12    4.30
  -3   0   4   15.82    2.65
  -3   0   4   12.36    1.98
  -3   0   4   21.37    5.28
   3   0  -3  131.77    9.41
   3   0  -3  143.61   13.07
  -3   0   3  137.49   11.23
  -3   0   3  137.97    8.91
  -3   0   3  122.37    7.86
  -3   0   3  147.61   12.81
   3   0  -2    3.92    2.14
   3   0  -2   -0.11    2.95
  -3   0   2    5.90    2.03
  -3   0   2    6.24    2.84
  -3   0   2    0.19    2.71
  -3   0   2    4.60    2.19
   3   0  -1    1.18    1.46
   3   0  -1    2.38    2.69
  -3   0   1    1.23    1.85
  -3   0   1    2.04    2.04
  -3   0   1    0.93    1.69
  -3   0   1   -0.08    1.58
   3   0   0   30.46    3.12
   3   0   0   30.11    1.71
   3   0   0   32.52    5.40
   3   0   0   32.25    2.33
  -3   0   0   36.71    5.40
  -3   0   0   36.20    5.75
  -3   0   0   35.15    5.45
  -3   0   0   32.16    3.40
   3   0   1   24.58    2.51
   3   0   1   28.84    5.32
   3   0   1   25.81    2.27
   3   0   1   31.66    3.04
  -3   0  -1   25.16    5.48
  -3   0  -1   22.52    2.14
  -3   0  -1   25.24    3.71
  -3   0  -1   31.28    5.33
   3   0   2   64.43    7.59
   3   0   2   58.94    5.92
   3   0   2   61.30    8.07
  -3   0  -2   61.69    8.01
  -3   0  -2   56.33    6.92
   3   0   3   18.45    4.06
   3   0   3   20.46    7.03
   3   0   3   16.83    2.98
  -3   0  -3   17.67    5.18
  -3   0  -3   15.27    4.55
   3   0   4   -0.01    1.40
   3   0   4    0.20    1.43
   3   0   4    0.00    1.10
  -3   0  -4    0.99    1.75
  -3   0  -4   -0.20    1.60
   3   0   5   -0.25    3.43
   3   0   5    6.19    3.03
  -3   0  -5    5.81    3.51
  -3   0  -5    4.68    3.71
   3   0   6   -0.21    3.10
  -3   0  -6    2.85    2.72
  -3   0  -6   -0.06    5.39
   3   0   7   -0.11    3.69
  -3   0  -7    1.86    2.92
  -3   0  -7    3.14    4.00
   3   0   8   70.46   12.05
  -3   0  -8   55.64    8.72
  -3   0  -8   61.56   17.15
   3   0   9    0.01    5.11
  -3   0  -9    7.83    5.03
   3   0  10   -0.55    4.00
  -3   0 -10    3.41    3.93
   3   0  11    8.86    6.30
  -3   0 -11    8.70    5.53
   3   0  12   -0.26    2.74
  -3   0 -12    1.92    2.49
   3   1 -13   13.67    7.35
  -3  -1  13   -0.04    4.22
  -3  -1  13   30.06    5.08
   3   1 -12   13.84    4.44
  -3  -1  12    1.12    4.51
  -3  -1  12   -0.10    5.21
   3   1 -11   10.89    5.03
  -3  -1  11    0.03    7.32
  -3  -1  11   -0.23    9.01
   3   1 -10  346.13   31.30
  -3  -1  10  347.04   31.76
  -3  -1  10  425.48   44.15
   3   1  -9  133.63   19.89
  -3  -1   9  125.91   15.07
  -3  -1   9  160.02   25.57
   3   1  -8  188.25   16.85
  -3  -1   8  120.50   14.39
  -3  -1   8  198.96   19.47
   3   1  -7  149.12   13.45
  -3  -1   7  113.22   12.49
  -3  -1   7  184.42   19.31
  -3  -1   7  186.11   18.06
   3   1  -6  110.09   10.74
   3   1  -6  131.16   14.98
  -3  -1   6  101.12   10.64
  -3  -1   6  136.57   11.58
  -3  -1   6  144.40   20.12
   3   1  -5   99.07    9.24
   3   1  -5  101.81   11.63
  -3  -1   5   81.57    8.66
  -3  -1   5  100.66    9.48
  -3  -1   5  113.35   11.83
   3   1  -4 2078.60  144.44
   3   1  -4 2032.36  140.81
  -3  -1   4 1961.04  122.38
  -3  -1   4 1928.40  128.99
  -3  -1   4 1934.32  133.98
  -3  -1   4 2252.69  153.99
   3   1  -3  308.65   19.25
   3   1  -3  311.62   20.60
  -3  -1   3  322.50   18.12
  -3  -1   3  307.59   19.28
  -3  -1   3  291.98   19.09
  -3  -1   3  338.76   22.07
   3   1  -2  762.64   47.98
   3   1  -2  820.48   48.35
  -3  -1   2  841.24   49.03
  -3  -1   2  810.55   48.81
  -3  -1   2  625.18   38.91
  -3  -1   2  754.60   43.54
   3   1  -1  361.60   22.14
   3   1  -1  370.41   20.95
  -3  -1   1  398.73   27.21
  -3  -1   1  347.90   26.01
  -3  -1   1  386.57   21.55
  -3  -1   1  386.00   23.35
   3   1   0  483.90   32.34
   3   1   0  512.31   26.21
  -3  -1   0  523.65   30.22
  -3  -1   0  421.28   28.61
  -3  -1   0  532.95   36.42
  -3  -1   0  473.20   25.40
   3   1   1  337.78   26.58
  -3  -1  -1  244.73   18.60
  -3  -1  -1  296.90   20.21
  -3  -1  -1  312.92   19.77
   3   1   2  314.61   21.21
  -3  -1  -2  201.73   21.89
  -3  -1  -2  278.61   24.32
  -3  -1  -2  257.00   16.88
   3   1   3  275.53   23.75
   3   1   3  226.00   13.75
   3   1   3  264.26   20.40
  -3  -1  -3  231.48   17.05
  -3  -1  -3  239.30   18.54
   3   1   4  403.90   30.26
   3   1   4  358.60   23.04
  -3  -1  -4  368.56   26.14
  -3  -1  -4  355.77   32.23
   3   1   5  321.07   26.77
   3   1   5  336.18   26.91
  -3  -1  -5  317.55   24.72
  -3  -1  -5  307.39   23.94
   3   1   6  486.77   47.13
  -3  -1  -6  442.84   34.18
  -3  -1  -6  428.18   33.96
   3   1   7   99.94   14.89
  -3  -1  -7   82.31   10.61
  -3  -1  -7   71.55   11.89
   3   1   8  370.14   32.77
  -3  -1  -8  266.81   23.12
  -3  -1  -8  231.83   24.49
   3   1   9  222.29   23.56
  -3  -1  -9  143.37   18.17
   3   1  10  118.34   15.88
  -3  -1 -10   87.14   13.19
   3   1  11   85.45   11.79
  -3  -1 -11   56.80    9.00
   3   1  12  107.10   10.34
  -3  -1 -12   64.71    8.40
  -3  -2  14    0.18    1.34
  -3  -2  13    0.01    2.21
  -3  -2  13    0.62    2.11
   3   2 -12   -1.26    2.01
  -3  -2  12   -0.04    2.97
  -3  -2  12   -0.06    3.17
   3   2 -11    7.96    4.60
  -3  -2  11    0.87    6.39
  -3  -2  11   28.96    7.18
   3   2 -10   -0.13    2.63
  -3  -2  10    2.92    3.58
  -3  -2  10    2.05    4.09
   3   2  -9    7.41    4.07
  -3  -2   9   10.96    5.99
  -3  -2   9   17.91    7.25
   3   2  -8    1.76    2.07
  -3  -2   8   -0.12    3.11
  -3  -2   8   -0.01    3.68
  -3  -2   7   40.81    8.54
  -3  -2   7   49.41    6.39
  -3  -2   7   56.31   10.05
   3   2  -6   36.50    7.17
  -3  -2   6   30.96    6.86
  -3  -2   6   29.62    4.76
  -3  -2   6   30.84    7.59
   3   2  -5  273.80   21.32
   3   2  -5  270.26   21.56
  -3  -2   5  221.70   19.77
  -3  -2   5  279.92   18.20
  -3  -2   5  280.30   21.71
   3   2  -4    5.60    2.99
   3   2  -4   -0.00    4.70
  -3  -2   4    4.44    1.87
  -3  -2   4   -0.03    4.57
  -3  -2   4    0.03    2.89
  -3  -2   4    3.14    2.39
   3   2  -3   98.72    9.33
   3   2  -3   98.80   11.52
  -3  -2   3   92.18    6.84
  -3  -2   3   96.99   10.22
  -3  -2   3  102.44    7.46
  -3  -2   3   70.86   10.20
   3   2  -2   36.16    5.83
   3   2  -2   31.85    4.19
  -3  -2   2   32.06    3.82
  -3  -2   2   31.96    6.43
  -3  -2   2   33.57    4.90
  -3  -2   2   31.80    6.17
   3   2  -1    0.77    2.21
   3   2  -1   -0.01    1.18
  -3  -2   1    1.47    1.27
  -3  -2   1    1.34    2.56
  -3  -2   1    2.04    2.10
  -3  -2   1    1.45    1.14
   3   2   0    0.87    2.49
  -3  -2   0    1.67    1.65
  -3  -2   0    2.00    4.78
  -3  -2   0    3.18    2.74
   3   2   1  315.01   27.30
  -3  -2  -1  290.51   24.87
  -3  -2  -1  295.67   22.40
  -3  -2  -1  263.43   17.15
   3   2   2   28.14    6.11
  -3  -2  -2   23.37    7.14
  -3  -2  -2   27.62    6.60
  -3  -2  -2   22.90    4.20
   3   2   3   22.71    7.19
  -3  -2  -3   19.45    6.06
  -3  -2  -3   20.57    4.11
   3   2   4   -0.18    3.88
  -3  -2  -4    2.98    3.18
  -3  -2  -4    1.62    2.41
   3   2   5   29.14   13.37
  -3  -2  -5   20.66    5.51
  -3  -2  -5   23.33    6.74
   3   2   6   12.76    7.68
  -3  -2  -6    8.61    7.93
  -3  -2  -6   15.69    5.43
   3   2   7    0.19    7.42
  -3  -2  -7   10.47    4.77
  -3  -2  -7    7.84    7.12
   3   2   8   32.14    9.98
  -3  -2  -8   20.89    5.64
  -3  -2  -8   15.50    6.27
   3   2   9    0.38    4.45
  -3  -2  -9    1.78    2.86
   3   2  10   -0.06    5.52
  -3  -2 -10    0.98    2.10
   3   2  11   -0.02    2.22
  -3  -2 -11    0.73    2.05
  -3  -3  14    0.00    2.96
  -3  -3  14   30.46    4.22
  -3  -3  13   61.29   10.85
  -3  -3  13   71.41   10.03
  -3  -3  12   -0.29    2.58
  -3  -3  12   -0.07    2.37
  -3  -3  11   28.22    9.46
  -3  -3  11   24.08    8.83
  -3  -3  10   67.79   20.16
  -3  -3  10   65.78   12.71
  -3  -3   9   57.16   19.85
  -3  -3   9   72.14   13.39
  -3  -3   8  120.37   17.83
  -3  -3   8  155.44   18.24
  -3  -3   7  128.12   17.13
  -3  -3   7  152.73   22.88
  -3  -3   6   86.59   13.30
  -3  -3   6  104.76   17.29
  -3  -3   5  193.70   19.61
  -3  -3   5  219.99   18.41
  -3  -3   4  195.24   19.95
  -3  -3   4  210.04   14.56
  -3  -3   4  211.47   16.68
   3   3  -3  271.66   22.49
  -3  -3   3  251.28   23.55
  -3  -3   3  262.03   17.54
  -3  -3   3  259.54   18.20
  -3  -3   2  290.01   25.25
  -3  -3   2  293.53   19.87
  -3  -3   2  265.72   16.84
  -3  -3   1  245.96   22.73
  -3  -3   1  237.49   17.94
  -3  -3   0   17.41    8.26
  -3  -3   0   27.19    5.86
  -3  -3  -1  257.14   34.26
  -3  -3  -1  230.72   19.52
  -3  -3  -2  167.68   19.73
  -3  -3  -2  173.66   16.42
   3   3   3  354.08   33.49
  -3  -3  -3  345.25   29.81
   3   3   4  197.58   22.82
  -3  -3  -4  177.68   18.75
   3   3   5  183.96   22.88
  -3  -3  -5  153.27   17.15
   3   3   6   88.07   15.10
  -3  -3  -6   66.17   10.50
   3   3   7  104.75   16.88
  -3  -3  -7   78.05   11.38
   3   3   8  122.15   14.08
  -3  -3  -8   27.86    6.62
   3   3   9   75.30    9.19
  -3  -3  -9   10.99    3.89
   3   3  10   95.38   11.57
  -3  -4  13   -0.16    2.82
  -3  -4  13   -1.90    2.99
  -3  -4  12   -0.28    3.23
  -3  -4  12    0.05    2.15
  -3  -4  11   -0.60    3.18
  -3  -4  11   -0.01    2.88
  -3  -4  10   -0.57    4.37
  -3  -4  10    4.52    6.23
  -3  -4   9   36.37   11.95
  -3  -4   9   42.71   10.28
  -3  -4   8   -0.58    6.96
  -3  -4   8    1.84    3.70
  -3  -4   7   -0.83    1.92
  -3  -4   7    0.53    1.51
  -3  -4   6    4.88    6.03
  -3  -4   6    4.60    4.13
  -3  -4   5   97.12   15.87
  -3  -4   5   89.50   10.81
  -3  -4   4    2.73    4.41
  -3  -4   4    1.19    2.00
  -3  -4   4    2.34    3.96
  -3  -4   3   69.84   13.16
  -3  -4   3   62.73   10.92
  -3  -4   2    2.25    5.28
  -3  -4   2    3.24    3.14
  -3  -4   1   65.17   13.34
  -3  -4   1   62.72    9.56
  -3  -4   0    2.35    4.93
  -3  -4   0    0.49    5.15
  -3  -4  -1    8.24    7.37
  -3  -4  -1    6.76    5.14
  -3  -4  -2   14.70   14.68
  -3  -4  -2   13.02    6.15
   3   4   3   18.20   10.25
  -3  -4  -3   19.76    8.09
   3   4   4    3.39   10.24
  -3  -4  -4    5.18    4.89
   3   4   5   11.89    7.54
  -3  -4  -5    8.59    5.78
   3   4   6    7.43    6.57
  -3  -4  -6    5.80    4.33
   3   4   7   22.55    8.38
  -3  -4  -7   15.14    5.04
   3   4   8   -0.60    5.08
   3   5 -13   -0.11    1.53
  -3  -5  13    0.06    1.37
   3   5 -12    0.02    3.16
  -3  -5  12    0.68    2.90
  -3  -5  11   33.94   10.80
  -3  -5  11   44.90   10.21
  -3  -5  10   53.91   12.95
  -3  -5  10   47.16   11.47
  -3  -5   9   99.71   18.28
  -3  -5   9  113.20   22.96
  -3  -5   8    0.05   10.97
  -3  -5   8    7.88    8.55
  -3  -5   7    8.60    8.42
  -3  -5   7   11.14    6.03
  -3  -5   6   93.08   27.14
  -3  -5   6  106.11   13.58
   3   5  -5   90.07   13.53
  -3  -5   5   93.21   17.89
  -3  -5   4  103.28   17.09
  -3  -5   4   76.08    9.62
  -3  -5   3  115.47   19.05
  -3  -5   3  100.83   15.78
  -3  -5   2  289.82   42.32
  -3  -5   2  283.35   30.25
  -3  -5   1  219.71   28.28
  -3  -5   1  186.76   25.59
  -3  -5   0  149.72   21.98
  -3  -5   0  118.52   15.03
  -3  -5  -1  150.71   22.40
  -3  -5  -1  123.60   16.03
   3   5   2   58.91   15.19
  -3  -5  -2   49.60   11.53
   3   5   3   73.16   15.42
  -3  -5  -3   60.46   18.35
   3   5   4   56.41   13.16
  -3  -5  -4   47.65    9.85
   3   5   5   74.67   13.37
  -3  -5  -5   58.99   13.83
   3   5   6   43.72   14.60
  -3  -5  -6   30.30    6.15
   3   5   7   41.27    8.41
   3   6 -11   -0.01    3.60
  -3  -6  11    0.16    2.32
   3   6 -10   25.30    8.84
  -3  -6  10   29.57    9.74
   3   6  -9   35.14   10.15
  -3  -6   9   37.61   11.51
   3   6  -8   64.52   11.86
  -3  -6   8   39.17   13.63
   3   6  -7   -0.23    3.69
  -3  -6   7   -0.02    3.29
   3   6  -6   -0.03    1.75
  -3  -6   6   -0.00    4.15
  -3  -6   5   50.01   14.48
  -3  -6   4    0.19    8.18
  -3  -6   4   12.44    6.67
  -3  -6   3   33.28   11.89
  -3  -6   3   21.99    6.15
  -3  -6   2    0.91    6.02
  -3  -6   2    2.11    3.25
  -3  -6   1   -0.21    7.05
  -3  -6   1    5.20    4.17
  -3  -6   0   -0.27    6.22
  -3  -6   0    6.52    7.06
   3   6   1   -0.32    4.70
  -3  -6  -1   -1.20    3.44
   3   6   2    0.33    5.29
  -3  -6  -2    4.13    4.06
   3   6   3    0.02    5.53
  -3  -6  -3    0.90    4.11
   3   6   4    3.15    4.43
  -3  -6  -4    3.49    3.15
   3   6   5   19.84    5.71
  -3  -6  -5   11.78    3.94
  -3  -7  10    0.03    2.79
  -3  -7   9   -0.28    4.49
  -3  -7   8   31.44    9.76
   3   7  -7   18.83    5.73
  -3  -7   7   43.98   10.03
  -3  -7   6   27.79   10.62
  -3  -7   5   37.22   11.69
  -3  -7   4  198.38   20.79
  -3  -7   4   71.52   11.28
  -3  -7   3   80.77   14.92
  -3  -7   3   57.79   13.37
  -3  -7   2   75.56   14.26
  -3  -7   2   62.43   10.00
  -3  -7   1   49.65   12.27
  -3  -7   1   33.19   11.07
   3   7   0   10.70   11.76
  -3  -7   0   13.18    5.09
   3   7   1   25.03    7.40
  -3  -7  -1    9.31    8.33
   3   7   2  124.36   12.81
  -3  -7  -2  107.03   10.79
   4  -8  -1   19.49    5.57
  -4   8   1   20.29    5.54
   4  -8   0   16.07    5.62
   4  -8   0   35.07    9.81
  -4   8   0   36.15   10.67
   4  -8   1   21.88    6.46
   4  -8   1   34.34    7.23
  -4   8  -1   37.04    8.26
   4  -8   2   55.36    9.14
   4  -8   2   45.00    9.52
  -4   8  -2   62.17   11.40
   4  -8   3   25.09    7.31
   4  -8   3   20.45    7.00
  -4   8  -3   27.08    7.89
   4  -8   4   56.87   14.34
   4  -8   4   39.42    9.00
  -4   8  -4   54.74    9.90
   4  -8   5   -0.41    2.52
   4  -8   5    1.10    2.27
  -4   8  -5    0.54    2.57
   4  -8   6    5.66    5.94
   4  -8   6    0.23    3.04
  -4   8  -6    5.51    3.36
   4  -8   7    6.93    3.30
   4  -8   7    0.65    2.17
  -4   8  -7    1.79    2.30
   4  -7  -4   -0.49    2.02
  -4   7   4    1.08    1.99
   4  -7  -3   28.02    7.25
  -4   7   3   32.42    7.67
   4  -7  -2   10.42    9.28
   4  -7  -2   51.46    8.82
  -4   7   2   53.28    9.69
   4  -7  -1   50.72   13.90
   4  -7  -1   27.53    8.19
  -4   7   1   49.98   10.38
   4  -7   0    0.64    3.74
   4  -7   0    1.20    3.34
  -4   7   0    3.72    4.73
   4  -7   1   -0.77    2.86
   4  -7   1   -0.48    2.66
  -4   7  -1    0.69    3.31
   4  -7   2   13.33    6.59
   4  -7   2    6.62    6.24
  -4   7  -2   15.06   11.79
   4  -7   3   17.76    7.29
   4  -7   3    9.10    7.16
  -4   7  -3   16.95    7.92
   4  -7   4   54.32   11.11
   4  -7   4   47.42   10.70
  -4   7  -4   50.79   17.21
   4  -7   5    9.52    6.54
   4  -7   5   20.98   11.13
  -4   7  -5   15.29    6.76
   4  -7   6    6.53    5.16
   4  -7   6    4.47    4.35
  -4   7  -6    3.76    4.33
   4  -7   7   -1.71    3.56
   4  -7   7    0.25    2.57
  -4   7  -7    0.36    2.53
   4  -7   8    8.03    4.36
   4  -7   8    3.31    2.58
  -4   7  -8    1.92    2.22
   4  -7   9    3.36    3.83
   4  -6  -6   33.18    9.53
  -4   6   6   32.22    6.51
   4  -6  -5   21.23    6.79
  -4   6   5   25.68    7.34
   4  -6  -4   12.01    5.98
  -4   6   4   12.68    6.62
   4  -6  -3   80.50   11.80
   4  -6  -3   31.80   11.77
  -4   6   3   95.00   13.67
   4  -6  -2  107.50   13.51
   4  -6  -2   50.98   11.21
  -4   6   2  117.27   15.86
   4  -6  -1   67.23   11.47
   4  -6  -1   50.50   10.54
  -4   6   1   79.72   15.02
   4  -6   0  127.04   23.61
   4  -6   0  107.49   16.04
  -4   6   0  127.45   19.37
   4  -6   1   65.29   12.45
   4  -6   1   55.27   11.54
  -4   6  -1   59.86   13.67
   4  -6   2  279.79   29.79
   4  -6   2  235.98   24.85
  -4   6  -2  240.04   35.99
   4  -6   3    7.44    6.18
   4  -6   3    3.33    5.31
  -4   6  -3    3.06    5.66
   4  -6   4    3.03    9.05
   4  -6   4    5.63    5.64
  -4   6  -4    3.88    5.22
   4  -6   5   68.86   18.12
   4  -6   5   77.51   19.68
  -4   6  -5   62.13   16.91
   4  -6   6   39.07    9.60
   4  -6   6   37.29    9.23
  -4   6  -6   13.37   11.49
   4  -6   7   75.34   13.01
   4  -6   7   87.35   18.96
   4  -6   8   97.07   12.61
   4  -6   8   45.83   14.28
   4  -6   9    1.33    2.10
   4  -6   9    4.71    3.65
   4  -6  10    4.25    3.95
   4  -6  11   41.42   10.01
   4  -5  -8    0.06    1.18
   4  -5  -8   -0.25    1.00
  -4   5   8    0.16    1.19
   4  -5  -7    2.69    2.42
   4  -5  -7    2.43    3.05
  -4   5   7    2.33    3.71
   4  -5  -6    1.27    2.91
   4  -5  -6    4.62    3.72
  -4   5   6    4.35    4.63
   4  -5  -5  143.99   16.43
  -4   5   5  173.54   19.54
   4  -5  -4  100.95   13.49
  -4   5   4  109.71   24.02
   4  -5  -3  274.85   32.25
  -4   5   3  319.07   31.26
   4  -5  -2    0.36    5.15
   4  -5  -2    3.44    3.66
  -4   5   2    0.87    5.20
   4  -5  -1   44.54   10.06
   4  -5  -1   41.14   13.87
  -4   5   1   43.56   11.66
   4  -5   0   32.62    7.97
   4  -5   0   28.45    7.93
  -4   5   0    6.60   15.51
   4  -5   1   79.32   11.90
   4  -5   1   75.07   12.03
  -4   5  -1   84.12   14.14
   4  -5   2  107.54   20.00
   4  -5   2  113.77   15.44
  -4   5  -2  119.02   16.21
   4  -5   3  179.83   19.48
   4  -5   3  173.55   25.05
  -4   5  -3  169.81   19.25
   4  -5   4   50.51   14.45
   4  -5   4   48.09    9.90
  -4   5  -4   43.21    9.49
   4  -5   5    3.66    3.86
   4  -5   5    3.42    3.86
  -4   5  -5    0.03    3.49
   4  -5   6   38.44    9.80
   4  -5   6   35.48    8.36
   4  -5   7    0.72    5.80
   4  -5   7    0.99    2.80
   4  -5   8    8.20    5.86
   4  -5   8    6.98    4.03
   4  -5   9    4.49    3.43
   4  -5   9   13.90    5.75
   4  -5  10    3.27    4.18
   4  -5  11   -0.50    2.41
   4  -4 -10    7.08    3.06
   4  -4  -9   12.41    5.35
  -4   4   9   27.92    8.14
   4  -4  -8    1.48    2.45
   4  -4  -8   -0.55    5.20
  -4   4   8    3.81    3.62
   4  -4  -7   55.21   10.28
   4  -4  -7   57.54   13.47
  -4   4   7   82.35   12.44
   4  -4  -6    3.73    4.73
   4  -4  -6   -0.31    2.78
  -4   4   6    2.05    4.14
   4  -4  -5  108.72   13.23
  -4   4   5  114.71   14.43
  -4   4   5  136.57   25.10
   4  -4  -4  194.71   23.87
  -4   4   4  205.76   19.98
  -4   4   4  242.37   25.61
   4  -4  -3   93.46   11.82
   4  -4  -3  113.58   12.72
  -4   4   3  118.97   14.23
  -4   4   3  140.25   17.61
   4  -4  -2   69.75   10.11
   4  -4  -2   76.74   10.45
  -4   4   2   80.26   11.04
  -4   4   2   94.38   14.37
   4  -4  -1  202.27   22.83
   4  -4  -1  211.86   18.90
  -4   4   1  204.71   18.76
  -4   4   1  235.69   23.16
   4  -4   0  138.90   13.60
   4  -4   0  146.20   15.05
  -4   4   0  128.86   13.13
  -4   4   0  160.36   24.19
   4  -4   1  121.13   14.41
   4  -4   1  106.57   16.85
  -4   4  -1  107.00   15.73
  -4   4  -1  110.40   14.26
   4  -4   2  145.39   15.78
   4  -4   2  137.22   13.90
  -4   4  -2  132.24   13.09
  -4   4  -2  144.59   15.55
   4  -4   3  262.91   22.67
   4  -4   3  244.41   20.33
  -4   4  -3  209.60   17.73
  -4   4  -3  235.17   20.64
   4  -4   4  156.89   16.01
   4  -4   4  167.56   16.51
  -4   4  -4  120.35   12.12
  -4   4  -4  133.64   13.66
   4  -4   5  210.80   19.85
   4  -4   5  220.81   20.48
  -4   4  -5  167.80   16.17
   4  -4   6  264.38   23.63
   4  -4   6  307.93   26.96
  -4   4  -6  218.45   20.40
   4  -4   7   37.09    7.55
   4  -4   7   46.68    9.82
  -4   4  -7   26.83    7.37
   4  -4   8    3.71    3.67
   4  -4   8    4.58    8.21
  -4   4  -8    3.91    3.70
   4  -4   9  189.93   25.62
  -4   4  -9  106.57   13.17
   4  -4  10   40.28    8.45
  -4   4 -10   15.78    5.77
   4  -4  11   67.96   11.18
   4  -4  12   65.25    8.59
   4  -3 -11    0.02    1.89
   4  -3 -10   -2.11    2.87
  -4   3  10    0.19    2.34
   4  -3  -9    2.83    3.99
  -4   3   9    1.34    3.80
   4  -3  -8    1.07    4.70
  -4   3   8    6.14    5.17
   4  -3  -7   36.53   10.36
  -4   3   7   49.21   11.21
  -4   3   6   13.33    6.53
  -4   3   6    9.02    7.55
  -4   3   5  247.66   24.12
  -4   3   5  252.45   26.34
  -4   3   4    3.60    3.87
  -4   3   4   -0.19    4.29
   4  -3  -3   56.81    7.15
   4  -3  -3   44.54    6.61
  -4   3   3   69.31   10.38
  -4   3   3   72.79   11.29
   4  -3  -2   14.61    4.30
   4  -3  -2   14.59    3.92
  -4   3   2   14.64    5.52
  -4   3   2    0.01    6.18
   4  -3  -1   69.62    8.79
   4  -3  -1   67.47    7.46
  -4   3   1   84.46   10.45
  -4   3   1   86.75   11.75
   4  -3   0   22.08    4.49
   4  -3   0   21.00    5.98
  -4   3   0   22.89    5.94
  -4   3   0   26.03    6.55
   4  -3   1  348.57   24.28
   4  -3   1  392.56   30.29
  -4   3  -1  389.54   28.50
  -4   3  -1  391.08   28.66
   4  -3   2   83.97   11.82
   4  -3   2   98.55   12.24
  -4   3  -2   91.06   10.14
  -4   3  -2   88.77    9.60
  -4   3  -2   81.37    8.63
   4  -3   3   58.35   11.19
   4  -3   3   54.40    7.68
  -4   3  -3   57.55    8.59
  -4   3  -3   50.19    6.75
  -4   3  -3   50.87    6.52
   4  -3   4   80.51   13.75
   4  -3   4   81.66   10.34
  -4   3  -4   83.83   11.19
   4  -3   5   22.88    8.00
   4  -3   5   19.24    6.70
  -4   3  -5   15.92    5.79
   4  -3   6   81.66   18.13
   4  -3   6   74.39   11.99
  -4   3  -6   71.32   16.52
   4  -3   7  136.45   16.44
   4  -3   7  131.69   15.57
  -4   3  -7  121.09   15.76
   4  -3   8   10.19    5.08
   4  -3   8   14.28    6.76
  -4   3  -8   12.24    6.13
   4  -3   9    1.42    2.55
  -4   3  -9   -0.85    2.26
   4  -3  10    3.28    4.09
  -4   3 -10    0.98    3.64
   4  -3  11   16.56    6.58
  -4   3 -11    9.15    4.78
   4  -3  12   60.64   11.54
  -4   3 -12   27.03    9.37
   4  -2 -12    2.75    3.05
   4  -2 -11   30.49    8.35
  -4   2  11   34.91    6.86
   4  -2 -10   -1.72    3.56
  -4   2  10    0.91    5.28
   4  -2  -9  111.40   16.60
  -4   2   9  132.33   17.14
   4  -2  -8    0.32    4.06
  -4   2   8    1.86    4.09
  -4   2   7  108.63   16.08
  -4   2   7  110.24   24.50
  -4   2   6  243.42   24.98
  -4   2   6  250.42   34.99
  -4   2   5  232.83   23.96
  -4   2   4   12.09    5.65
  -4   2   4    0.90    9.14
   4  -2  -3  436.82   29.81
  -4   2   3  561.54   40.36
  -4   2   3  579.00   41.78
   4  -2  -2   20.68    6.58
  -4   2   2   21.50    6.38
  -4   2   2   22.64    6.29
   4  -2  -1  369.79   28.90
   4  -2  -1  329.69   26.73
   4  -2  -1  402.72   28.74
  -4   2   1  369.55   27.61
  -4   2   1  354.72   26.01
   4  -2   0 1066.74   80.33
   4  -2   0 1265.79   85.39
  -4   2   0 1212.58   82.65
  -4   2   0 1219.91   85.69
  -4   2   0 1154.19   78.27
   4  -2   1  303.14   21.47
   4  -2   1  275.70   17.44
   4  -2   1  367.53   31.06
  -4   2  -1  318.08   23.63
  -4   2  -1  350.44   33.36
  -4   2  -1  331.42   26.33
   4  -2   2  597.24   38.53
  -4   2  -2  715.31   49.49
  -4   2  -2  756.34   55.02
  -4   2  -2  617.20   39.91
  -4   2  -2  598.64   40.48
   4  -2   3  325.12   23.19
  -4   2  -3  341.85   26.50
  -4   2  -3  391.72   32.49
   4  -2   4  300.38   27.63
  -4   2  -4  350.88   31.07
  -4   2  -4  343.57   28.15
   4  -2   5  166.63   20.47
  -4   2  -5  169.20   19.55
  -4   2  -5  173.68   18.55
   4  -2   6  102.68   14.55
  -4   2  -6   76.45   18.97
  -4   2  -6   67.85   12.28
   4  -2   7  226.90   24.09
  -4   2  -7  136.36   16.77
  -4   2  -7  157.63   18.58
   4  -2   8  224.49   26.12
   4  -2   8  188.75   21.99
  -4   2  -8  189.34   21.48
   4  -2   9   93.15   15.97
  -4   2  -9   57.17   12.30
   4  -2  10  139.10   18.62
  -4   2 -10   84.27   13.64
   4  -2  11   38.95    8.19
  -4   2 -11   31.35    8.37
   4  -2  12   -0.01    2.62
  -4   2 -12    2.48    2.39
   4  -1 -12   -0.25    1.71
  -4   1  12    0.06    1.46
   4  -1 -11    4.75    4.26
  -4   1  11    0.36    3.84
   4  -1 -10    6.37    5.98
  -4   1  10   -0.79    3.74
   4  -1  -9   33.32    8.91
  -4   1   9   -0.54   14.63
   4  -1  -8    1.25    4.16
  -4   1   8    1.60    6.87
  -4   1   7   93.84   14.40
  -4   1   7   85.55   23.18
  -4   1   6    7.74    7.32
  -4   1   6    1.62    5.21
  -4   1   5    4.65    4.90
  -4   1   5    6.01    5.16
  -4   1   4    1.71    3.09
  -4   1   4    1.33    3.43
   4  -1  -3   -0.34    6.04
   4  -1  -3   15.04    3.65
  -4   1   3   16.92    5.11
  -4   1   3    0.01    7.72
   4  -1  -2   -0.43    9.47
   4  -1  -2   26.25    6.61
  -4   1   2   21.62    5.90
  -4   1   2   23.52    6.81
  -4   1   2   21.51    5.14
   4  -1  -1   34.79    6.62
   4  -1  -1   37.26    7.17
  -4   1   1   35.65   10.49
  -4   1   1   37.60    6.48
  -4   1   1   30.43    5.18
   4  -1   0    4.65    2.81
   4  -1   0    8.71    4.16
  -4   1   0    7.32    3.97
  -4   1   0    8.66    6.40
  -4   1   0    4.98    3.70
   4  -1   1   10.68    5.03
  -4   1  -1   10.80    7.84
  -4   1  -1   12.92    5.33
  -4   1  -2    6.83    4.31
  -4   1  -2    9.05    5.06
  -4   1  -3    7.27    7.82
  -4   1  -3    6.99    4.93
  -4   1  -4   10.72    5.83
  -4   1  -4    8.13    8.74
  -4   1  -5   64.34   11.20
  -4   1  -5   64.26   11.09
  -4   1  -6    6.21    7.29
  -4   1  -6    1.40    7.18
  -4   1  -7    1.90    3.77
  -4   1  -7    2.53    4.14
  -4   1  -8    2.39    3.34
  -4   1  -8    0.11    3.81
  -4   1  -9   19.25   11.94
   4  -1  10   -0.23    4.83
  -4   1 -10    4.74    4.23
   4  -1  11  170.75   17.82
  -4   1 -11  106.19   20.73
  -4   1 -12    6.54    5.48
   4   0 -13   15.91    5.12
  -4   0  13   34.71    5.09
   4   0 -12    8.65    5.32
  -4   0  12   -0.53    3.56
   4   0 -11   59.83   11.83
  -4   0  11   83.15   12.92
   4   0 -10   -3.46    3.90
  -4   0  10    0.19    4.54
   4   0  -9   65.54   11.81
  -4   0   9   69.48   20.01
  -4   0   8  208.46   21.10
  -4   0   8  215.78   24.44
  -4   0   7  181.76   19.22
  -4   0   7  187.78   21.43
  -4   0   6   47.58    9.70
  -4   0   6   44.30   10.19
  -4   0   5  306.85   32.19
  -4   0   5  319.63   27.11
  -4   0   4   91.04   10.84
  -4   0   4  105.66   12.41
   4   0  -3  231.26   19.98
  -4   0   3  213.04   17.43
  -4   0   3  204.89   15.05
  -4   0   3  224.94   18.30
   4   0  -2 1539.75  107.61
  -4   0   2 1511.74  109.94
  -4   0   2 1518.90  108.33
  -4   0   2 1514.07  103.39
   4   0  -1  248.00   17.48
  -4   0   1  270.53   20.16
  -4   0   1  288.12   25.29
  -4   0   1  253.29   16.98
  -4   0   0 1031.47   69.70
  -4   0   0 1017.47   70.16
  -4   0  -1  367.31   27.27
  -4   0  -1  345.76   33.48
  -4   0  -2  452.15   32.37
  -4   0  -2  479.45   42.94
  -4   0  -3   83.53   17.25
  -4   0  -3   89.05   11.63
  -4   0  -4  294.85   26.23
  -4   0  -4  294.95   24.85
  -4   0  -5   73.23   11.77
  -4   0  -5   71.69   11.30
   4   0   6  413.87   33.64
  -4   0  -6  439.26   36.26
  -4   0  -6  398.36   32.89
   4   0   7   82.50   11.81
  -4   0  -7   78.83   11.81
  -4   0  -7   75.84   11.97
   4   0   8  105.08   13.73
  -4   0  -8  103.69   12.72
  -4   0  -8   91.90   13.44
   4   0   9    0.17    4.37
  -4   0  -9    1.37    3.31
   4   0  10    0.01    3.03
  -4   0 -10    3.92    3.46
   4   0  11   -0.00    2.48
  -4   0 -11    8.75    3.49
  -4  -1  13    1.33    3.85
   4   1 -12    1.01    2.06
  -4  -1  12   -0.10    2.96
   4   1 -11   20.71    7.22
  -4  -1  11   43.67    9.66
   4   1 -10   26.65   11.76
  -4  -1  10   45.81   11.37
   4   1  -9  404.17   34.76
  -4  -1   9  527.21   44.03
  -4  -1   8   -0.71    2.34
  -4  -1   8    0.01    3.22
  -4  -1   7   24.63    6.58
  -4  -1   7   25.16    8.07
  -4  -1   6    5.50    3.73
  -4  -1   6   -0.14    4.43
  -4  -1   5  151.73   14.27
  -4  -1   5  159.59   16.06
  -4  -1   4    0.15    1.52
  -4  -1   4    0.20    1.81
   4   1  -3  329.06   28.51
  -4  -1   3  314.57   21.32
  -4  -1   3  314.42   22.29
  -4  -1   3  329.36   23.57
   4   1  -2    0.02    3.01
  -4  -1   2   14.31    3.35
  -4  -1   2    9.80    5.27
  -4  -1   2    5.78    4.26
  -4  -1   1    7.51    3.67
  -4  -1   1    4.36    3.17
  -4  -1   0    9.38    4.30
  -4  -1   0    7.09    3.55
  -4  -1   0    2.37    5.04
  -4  -1  -1    4.54    3.94
  -4  -1  -1    3.74    3.25
  -4  -1  -1    3.00    2.96
   4   1   2    0.00    4.10
  -4  -1  -2    0.09    2.48
  -4  -1  -2    5.22    3.48
   4   1   3   72.65    9.95
  -4  -1  -3   86.27   12.31
  -4  -1  -3   78.85   10.23
   4   1   4    0.43    3.19
  -4  -1  -4    1.27    6.73
  -4  -1  -4    4.32    3.25
   4   1   5    0.09    3.74
  -4  -1  -5    0.80    2.81
  -4  -1  -5   -1.23    2.31
   4   1   6   -0.10    3.62
  -4  -1  -6    2.49    3.71
  -4  -1  -6    1.75    3.23
   4   1   7   -0.17    4.55
  -4  -1  -7    6.68    4.28
  -4  -1  -7    2.84    4.02
   4   1   8    0.03    5.95
  -4  -1  -8   13.73    4.75
  -4  -1  -8   10.92    5.18
   4   1   9    0.33    4.01
  -4  -1  -9    5.96    3.72
   4   1  10    0.01    3.26
  -4  -1 -10    0.69    2.09
  -4  -2  13   33.26    9.75
  -4  -2  12    0.12    2.18
  -4  -2  11   42.84   10.72
  -4  -2  10  137.57   18.81
  -4  -2   9   67.91   13.64
  -4  -2   8  138.45   18.05
  -4  -2   7   66.99    8.68
  -4  -2   7   83.62   12.77
  -4  -2   6  123.22   14.63
  -4  -2   6  136.65   12.49
  -4  -2   6  167.24   16.76
  -4  -2   5  190.50   18.88
  -4  -2   5  167.78   17.02
  -4  -2   5  209.01   18.63
  -4  -2   4  213.19   15.90
  -4  -2   4  198.49   18.32
  -4  -2   4  229.74   18.34
   4   2  -3  109.44   10.46
  -4  -2   3  120.19   10.38
  -4  -2   3  105.40    9.06
  -4  -2   3  101.24   15.56
  -4  -2   3  112.63   13.26
   4   2  -2  513.57   35.57
  -4  -2   2  504.69   32.55
  -4  -2   2  493.28   37.15
  -4  -2   2  505.03   34.20
  -4  -2   1  131.98   14.00
  -4  -2   1  130.99   14.32
  -4  -2   1  138.68   12.61
  -4  -2   0  502.13   33.30
  -4  -2   0  505.81   39.32
  -4  -2   0  556.55   39.54
  -4  -2  -1   54.08    7.02
  -4  -2  -1   58.51    9.56
  -4  -2  -1   65.61   10.05
   4   2   2  168.14   17.52
  -4  -2  -2  143.43   17.18
  -4  -2  -2  147.23   16.28
   4   2   3  120.60   14.29
  -4  -2  -3   93.22   10.14
  -4  -2  -3  113.25   14.27
   4   2   4  339.04   37.45
  -4  -2  -4  321.15   37.35
  -4  -2  -4  269.32   22.84
   4   2   5  141.51   16.79
  -4  -2  -5  133.51   17.14
  -4  -2  -5  114.77   13.16
   4   2   6  141.31   17.10
  -4  -2  -6  128.90   15.68
  -4  -2  -6   97.81   12.62
   4   2   7   -0.03    5.19
  -4  -2  -7   -0.10    2.61
  -4  -2  -7    1.10    2.21
   4   2   8   -0.00    3.26
  -4  -2  -8    0.71    2.34
  -4  -2  -8    1.41    2.26
   4   2   9   28.04    5.87
  -4  -2  -9   10.92    3.76
  -4  -3  13    2.04    3.04
  -4  -3  12    2.21    3.70
  -4  -3  12   29.24    5.62
  -4  -3  11   73.64   12.70
  -4  -3  11  125.81   14.38
  -4  -3  10   -0.27    5.97
  -4  -3  10   26.35    7.00
  -4  -3   9   -0.18    2.69
  -4  -3   9   -0.59    2.96
  -4  -3   8    0.01    2.95
  -4  -3   8    1.00    3.07
  -4  -3   7   35.32   14.69
  -4  -3   7   48.01    9.73
  -4  -3   6   43.66   10.16
  -4  -3   6   53.85    9.36
  -4  -3   5  262.29   25.79
  -4  -3   5  287.96   28.07
  -4  -3   4   21.45    6.72
  -4  -3   4   15.18    4.60
  -4  -3   3   14.83    6.33
  -4  -3   3   10.52    5.97
  -4  -3   2    0.19    2.80
  -4  -3   2   -0.73    2.04
  -4  -3   1    0.10   11.27
  -4  -3   1   16.17    5.38
  -4  -3   0   -0.17    4.73
  -4  -3   0    5.15    3.95
  -4  -3  -1  186.91   21.65
  -4  -3  -1  206.84   20.43
   4   3   2   15.83    7.82
  -4  -3  -2   15.00    7.20
   4   3   3   17.16    8.25
  -4  -3  -3   19.84   11.34
   4   3   4    1.49    7.08
  -4  -3  -4    1.83    3.99
   4   3   5   26.78    8.95
  -4  -3  -5   25.69    8.62
   4   3   6    1.56    3.70
  -4  -3  -6    0.46    3.14
   4   3   7  115.19   15.15
  -4  -3  -7   87.87   15.70
   4   3   8   -1.20    4.89
  -4  -4  12   20.61    4.90
  -4  -4  12   45.64   11.30
  -4  -4  11   18.31    6.46
  -4  -4  11   27.64    7.69
  -4  -4  10   54.95   10.89
  -4  -4  10   63.62   10.83
  -4  -4   9   38.98   10.60
  -4  -4   9   57.23   10.10
  -4  -4   8   36.72   11.13
  -4  -4   8   60.69    9.83
  -4  -4   7  137.41   19.14
  -4  -4   7  159.95   16.49
  -4  -4   6   -2.75    3.82
  -4  -4   6    0.40    1.59
  -4  -4   5    3.18    5.14
  -4  -4   4  124.50   18.08
  -4  -4   3   51.66   12.21
  -4  -4   3   50.01    7.89
  -4  -4   2  252.90   28.12
  -4  -4   2  249.93   27.00
  -4  -4   1  113.25   19.42
  -4  -4   1  142.79   14.95
  -4  -4   0    4.50    6.02
  -4  -4   0    4.15    4.57
  -4  -4  -1   78.44   15.85
  -4  -4  -1   78.00   12.40
   4   4   2  188.52   23.06
  -4  -4  -2  148.84   18.48
   4   4   3   97.33   22.90
  -4  -4  -3   72.69   18.57
   4   4   4  111.50   15.82
  -4  -4  -4  105.20   14.01
   4   4   5   17.01    7.33
  -4  -4  -5   14.79    6.59
   4   4   6    5.16    5.24
  -4  -4  -6    6.90    6.28
   4   4   7   88.23   11.05
   4   5 -11   -0.03    2.78
  -4  -5  11    0.86    2.13
   4   5 -10   -0.01    2.99
  -4  -5  10    0.85    2.62
  -4  -5   9   -0.07    2.20
   4   5  -8    0.04    1.99
  -4  -5   8    0.05    2.22
   4   5  -7   27.18    6.89
  -4  -5   7   -0.03    7.98
  -4  -5   6   39.08   11.54
  -4  -5   5   -0.17    3.13
  -4  -5   4    0.11    4.53
  -4  -5   3   -0.89   12.92
  -4  -5   3   12.20    4.46
  -4  -5   2    0.09   12.98
  -4  -5   2   11.50    7.38
  -4  -5   1   -0.48   16.10
  -4  -5   1   35.39   11.01
  -4  -5   0    0.71    5.35
  -4  -5   0    2.22    3.51
   4   5   1   19.33    9.10
  -4  -5  -1   14.32    6.66
   4   5   2    0.61    1.92
  -4  -5  -2   -1.09    2.62
   4   5   3    4.39    8.65
  -4  -5  -3    7.87    4.84
   4   5   4    0.73    1.84
  -4  -5  -4   -0.66    1.65
   4   5   5  127.09   13.47
  -4  -5  -5  107.15   11.12
  -4  -6  10   -0.45    2.30
  -4  -6   9   39.86    9.09
  -4  -6   8    0.07    2.12
  -4  -6   7    0.28    3.00
  -4  -6   6    0.40    3.50
  -4  -6   5   -0.23    5.16
  -4  -6   4   45.78   12.57
  -4  -6   3   88.80   14.83
  -4  -6   3   58.32   11.49
  -4  -6   2   -0.29    5.40
  -4  -6   2    4.22    3.11
  -4  -6   1   -0.09    5.92
  -4  -6   1    5.22    3.57
   4   6   0   77.76   13.19
  -4  -6   0   43.33   12.35
   4   6   1   18.77   12.27
  -4  -6  -1   21.78    5.68
   4   6   2   60.21    9.31
  -4  -6  -2   50.81    8.27
  -4  -7   6   -0.10    1.93
  -4  -7   5   -0.18    2.20
  -4  -7   4    0.44    2.66
  -4  -7   3   -0.10    2.14
   4   7  -2    1.77    3.57
  -5   7   3   18.37    5.61
   5  -7  -2    0.90    3.21
  -5   7   2    1.99    3.10
   5  -7  -1  123.88   11.83
  -5   7   1  141.76   15.23
   5  -7   0  109.46   11.08
   5  -7   0   68.15   11.33
  -5   7   0  109.14   13.28
   5  -7   1   57.97   12.41
   5  -7   1   42.10   13.24
  -5   7  -1   63.23   15.35
   5  -7   2   80.11   15.14
   5  -7   2   65.69   11.25
  -5   7  -2   83.46   11.92
   5  -7   3   15.37    8.32
   5  -7   3    9.08    5.77
  -5   7  -3   11.73    5.63
   5  -7   4   20.02    5.26
   5  -7   4    9.88    5.77
  -5   7  -4    0.00    7.72
   5  -7   5   59.28    8.27
   5  -7   5   47.51    8.80
  -5   7  -5   31.08    6.52
   5  -7   6   59.20    8.17
   5  -7   6   42.43    8.35
   5  -7   7    8.21    5.46
   5  -7   7    4.32    2.97
  -5   6   5    4.87    4.18
   5  -6  -4    1.06    1.80
  -5   6   4    1.56    3.48
   5  -6  -3   53.17    7.87
  -5   6   3   75.31   11.95
   5  -6  -2   22.35    5.42
   5  -6  -2    7.56    4.66
  -5   6   2   35.88    7.93
   5  -6  -1   26.26    6.42
   5  -6  -1   17.69    6.42
  -5   6   1   36.02    8.83
   5  -6   0    0.63    2.86
   5  -6   0    2.75    3.11
  -5   6   0   -0.28    3.81
   5  -6   1    3.16    4.31
   5  -6   1    3.93    3.73
  -5   6  -1    0.23    4.63
   5  -6   2   -0.16    4.08
   5  -6   2    2.36    3.00
  -5   6  -2    0.14    3.72
   5  -6   3   43.65   12.04
   5  -6   3   45.61    8.66
  -5   6  -3   39.35    9.70
   5  -6   4   88.05   20.24
   5  -6   4   65.12   10.02
  -5   6  -4   49.60   10.09
   5  -6   5   27.84   14.83
   5  -6   5   32.15    7.71
   5  -6   6    0.11    2.93
   5  -6   6    0.65    2.39
   5  -6   7    0.42    2.28
   5  -6   7    0.12    2.14
   5  -6   8    0.61    2.20
   5  -6   8    0.43    1.80
   5  -6   9    0.44    1.85
   5  -5  -7   -0.63    1.46
  -5   5   7   18.98    3.39
   5  -5  -6    8.41    3.93
  -5   5   6   42.21   10.34
   5  -5  -5    6.83    4.36
  -5   5   5   34.00    7.58
   5  -5  -4    2.77    2.92
  -5   5   4    0.70    4.71
  -5   5   3   25.41    7.07
  -5   5   3   54.67   10.99
   5  -5  -2   37.88   12.71
  -5   5   2   44.79    8.45
  -5   5   2   86.82   12.71
   5  -5  -1   61.78   11.64
   5  -5  -1   70.34    9.53
  -5   5   1   48.47    9.66
  -5   5   1   85.28   12.97
   5  -5   0   92.02   13.23
   5  -5   0   91.36   11.64
  -5   5   0   64.04   11.10
  -5   5   0  107.53   14.74
   5  -5   1   82.12   14.48
   5  -5   1   84.20   12.25
  -5   5  -1   47.50    9.83
  -5   5  -1   91.76   19.47
   5  -5   2   78.03   10.64
   5  -5   2   88.61   12.83
  -5   5  -2   49.22    9.06
  -5   5  -2   87.81   12.88
   5  -5   3   21.82    5.91
   5  -5   3   21.96    7.26
  -5   5  -3    8.23    4.93
  -5   5  -3   20.32    6.52
   5  -5   4   70.48   10.88
   5  -5   4   67.69   12.13
   5  -5   5   53.70   14.20
   5  -5   5   53.93   10.44
   5  -5   6   79.17   11.00
   5  -5   6   77.75   11.82
   5  -5   7   59.78   13.50
   5  -5   7   54.59    9.66
   5  -5   8   70.16   15.06
   5  -5   8  105.77   15.33
   5  -5   9   -0.19    1.10
   5  -5   9    1.03    2.14
   5  -5  10    0.86    1.75
   5  -4  -9    4.31    2.48
  -5   4   9   -0.36    4.34
   5  -4  -8    0.10    2.37
  -5   4   8    2.06    2.90
   5  -4  -7    6.03    4.98
  -5   4   7   17.43    6.58
   5  -4  -6    4.88    4.31
  -5   4   6    3.58    5.68
  -5   4   5   48.20   10.53
  -5   4   5   66.74   13.17
  -5   4   4   10.92    7.24
  -5   4   4   -0.01    5.85
  -5   4   3   23.37    6.82
  -5   4   3    0.17    7.82
   5  -4  -2    0.87    2.47
  -5   4   2    1.62    3.40
  -5   4   2    0.52    5.98
   5  -4  -1    9.19    4.32
  -5   4   1    8.70    5.41
  -5   4   1    0.02    5.59
   5  -4   0    3.25    3.50
  -5   4   0    3.45    3.73
  -5   4   0   -0.33    3.91
   5  -4   1  218.65   22.11
  -5   4  -1  178.12   18.79
  -5   4  -1  196.03   19.47
   5  -4   2  196.32   26.40
  -5   4  -2  166.95   17.53
  -5   4  -2  159.88   16.60
   5  -4   3  204.42   20.74
   5  -4   3  176.07   16.84
  -5   4  -3  172.49   17.74
   5  -4   4   -0.22    1.79
   5  -4   4   -0.61    1.32
  -5   4  -4    0.95    1.46
   5  -4   5   22.99    7.33
   5  -4   5   22.31    5.81
  -5   4  -5   14.86    6.35
   5  -4   6    7.03    4.70
   5  -4   6    3.15    6.72
  -5   4  -6    5.44    3.99
   5  -4   7    0.90    3.51
   5  -4   7    2.27    3.32
  -5   4  -7    2.64    3.01
   5  -4   8    0.28    3.73
   5  -4   8   -0.63    2.46
  -5   4  -8   -1.03    2.23
   5  -4   9    0.76    2.28
   5  -4   9    1.32    1.64
  -5   4  -9   -0.30    1.96
   5  -4  10   -1.21    3.29
   5  -3 -10   29.49    6.97
  -5   3  10   47.61    6.72
   5  -3  -9   24.67    7.37
  -5   3   9   31.53    7.69
   5  -3  -8   38.58   14.56
  -5   3   8   59.26   16.28
   5  -3  -7   13.73    7.50
  -5   3   7   21.00    8.64
  -5   3   6  198.02   30.09
  -5   3   6  196.39   24.08
  -5   3   5   16.98    7.76
  -5   3   5   18.15    9.12
  -5   3   4    6.66    6.17
  -5   3   4    5.10    9.95
  -5   3   3  145.74   18.17
  -5   3   3  143.54   18.15
   5  -3  -2    6.85    5.84
  -5   3   2   10.15    5.25
  -5   3   2    0.24    5.15
   5  -3  -1  198.38   18.55
  -5   3   1  221.45   21.59
  -5   3   1  210.36   19.87
   5  -3   0  323.68   27.55
  -5   3   0  335.77   35.93
  -5   3   0  300.65   25.13
   5  -3   1    9.89    4.94
  -5   3  -1   13.18    5.12
  -5   3  -1    0.10    3.81
   5  -3   2   12.98    6.93
  -5   3  -2   11.85    5.96
   5  -3   3  244.27   24.97
  -5   3  -3  229.68   28.08
   5  -3   4  134.72   17.99
  -5   3  -4  124.00   14.80
   5  -3   5  213.74   23.30
  -5   3  -5  202.53   21.32
   5  -3   6  226.36   23.45
  -5   3  -6  200.85   21.47
   5  -3   7   24.80    6.06
   5  -3   7   20.98    7.29
  -5   3  -7   20.39    7.89
   5  -3   8   22.71    5.89
   5  -3   8   21.34    5.89
  -5   3  -8   24.11    7.74
   5  -3   9   50.65    7.50
   5  -3   9   39.00    6.81
  -5   3  -9   54.93   14.00
  -5   3 -10   29.46    6.56
   5  -2 -10   -0.58    2.40
  -5   2  10    0.33    3.65
   5  -2  -9    0.84    2.64
  -5   2   9   -0.37    2.81
   5  -2  -8    0.18    3.14
  -5   2   8    0.54    3.31
  -5   2   7    1.52    4.29
  -5   2   7    1.22    4.52
  -5   2   6    7.70    6.61
  -5   2   6    7.48    7.16
  -5   2   5    3.89    4.76
  -5   2   5   -0.09    4.46
  -5   2   4    7.21    7.99
  -5   2   4   -1.06    7.53
  -5   2   3    2.47    4.17
  -5   2   3    1.60    4.03
   5  -2  -2    1.42    2.40
  -5   2   2    1.99    3.60
  -5   2   2    0.09    4.79
   5  -2  -1   40.48    7.83
  -5   2   1   48.77   14.34
  -5   2   1   37.53    7.27
   5  -2   0   41.62    9.82
  -5   2   0   46.56    9.32
  -5   2   0   32.87    6.14
  -5   2  -1  119.78   14.71
  -5   2  -1  113.93   15.48
  -5   2  -2    4.21    4.83
  -5   2  -2    6.59    5.62
  -5   2  -3   38.92    9.54
  -5   2  -3   36.91   10.60
  -5   2  -4   10.97    9.52
  -5   2  -4    6.99    6.81
  -5   2  -5    5.02    5.38
  -5   2  -5    3.59    5.71
   5  -2   6    2.04    5.44
  -5   2  -6    3.12    4.99
   5  -2   7    7.43    6.18
  -5   2  -7    3.44    8.48
   5  -2   8   17.32    6.16
  -5   2  -8   14.08   10.90
   5  -2   9    7.71    3.68
  -5   2  -9   12.99    5.85
  -5   2 -10    0.33    2.34
   5  -1 -11   19.64    6.59
  -5   1  11   31.57    6.92
   5  -1 -10   34.28   14.01
  -5   1  10   47.31    9.84
   5  -1  -9   22.98    7.95
  -5   1   9   24.29    8.55
   5  -1  -8  102.93   16.32
  -5   1   8  131.94   18.03
  -5   1   7   89.88   14.81
  -5   1   7   93.61   15.60
  -5   1   6   60.67   12.33
  -5   1   6   63.93   12.78
  -5   1   5  170.35   20.59
  -5   1   5  170.89   27.45
  -5   1   4    0.22    4.00
  -5   1   4    2.83    3.76
  -5   1   3  203.77   20.35
  -5   1   3  216.93   20.24
  -5   1   2  468.76   37.50
  -5   1   2  453.07   39.45
  -5   1   1  110.48   13.95
  -5   1   1  121.71   20.15
  -5   1   0   25.79    7.64
  -5   1   0   25.15    8.57
  -5   1  -1  427.76   34.62
  -5   1  -1  486.70   40.32
  -5   1  -2  152.98   17.49
  -5   1  -2  151.34   19.60
  -5   1  -3  360.66   39.48
  -5   1  -3  362.18   34.88
  -5   1  -4  255.53   25.72
  -5   1  -4  239.08   26.79
  -5   1  -5  135.58   17.03
  -5   1  -5  133.40   18.75
  -5   1  -6  172.61   20.10
  -5   1  -6  186.10   22.48
  -5   1  -7  150.36   17.73
  -5   1  -7  145.47   17.34
   5  -1   8  136.29   17.19
  -5   1  -8  128.72   16.05
   5  -1   9   30.88    6.05
  -5   1  -9   37.59    8.07
  -5   1 -10   19.44    6.27
   5   0 -11   10.34    5.60
  -5   0  11   28.34    6.77
   5   0 -10    1.16    2.62
  -5   0  10   -0.09    3.49
   5   0  -9   18.92    7.18
  -5   0   9   24.96    8.53
  -5   0   8   11.75    5.25
  -5   0   8   -0.34    5.94
  -5   0   7   25.60    8.11
  -5   0   7   27.30    9.34
  -5   0   6    2.91    3.96
  -5   0   6   -0.07    3.95
  -5   0   5   17.01    7.21
  -5   0   5   16.97    6.89
  -5   0   4   15.03    6.12
  -5   0   4   14.72    5.80
  -5   0   3   39.78    7.98
  -5   0   3   36.90    7.06
  -5   0   2   10.11    5.35
  -5   0   2   10.12    4.64
  -5   0   1  107.49   13.15
  -5   0   1  108.35   13.10
  -5   0   0    4.81    4.91
  -5   0   0   11.10    5.37
  -5   0  -1    0.40    2.82
  -5   0  -1    1.31    3.28
  -5   0  -2    8.67    5.56
  -5   0  -2   10.39    6.76
  -5   0  -3   12.58    6.56
  -5   0  -3   10.10    7.53
  -5   0  -4    2.46    4.81
  -5   0  -4    4.39    5.38
  -5   0  -5    1.96    5.28
  -5   0  -5    4.59    4.48
  -5   0  -6    4.97    5.52
  -5   0  -6    4.70    4.83
  -5   0  -7    4.58    8.27
  -5   0  -7    5.41    4.81
  -5   0  -8   -0.23    2.17
  -5   0  -8    1.26    2.50
   5   0   9    0.16    2.98
  -5   0  -9    4.10    3.28
  -5  -1  12   17.11    5.16
  -5  -1  11   55.94   10.21
   5   1 -10    4.07    3.14
  -5  -1  10    0.02    4.64
   5   1  -9   40.03    8.87
  -5  -1   9   74.30   12.16
   5   1  -8   10.97    5.08
  -5  -1   8   -0.08    9.83
  -5  -1   7   60.70    9.82
  -5  -1   7   65.21   11.64
  -5  -1   6   47.60    8.73
  -5  -1   6   48.02    9.63
  -5  -1   5  124.68   14.27
  -5  -1   5  128.46   19.21
  -5  -1   4  178.68   16.47
  -5  -1   4  165.43   15.76
  -5  -1   3  276.32   22.05
  -5  -1   2   17.98    5.78
  -5  -1   2   19.36    5.59
  -5  -1   1  161.44   20.49
  -5  -1   1  181.16   23.79
  -5  -1   0  220.92   21.31
  -5  -1   0  208.12   18.39
  -5  -1  -1  179.88   16.99
  -5  -1  -1  201.75   21.20
  -5  -1  -2  260.24   23.08
  -5  -1  -2  275.81   27.27
  -5  -1  -3  132.73   15.35
  -5  -1  -3  152.01   19.01
  -5  -1  -4  184.07   19.39
  -5  -1  -4  191.42   30.83
  -5  -1  -5  150.33   16.91
  -5  -1  -5  147.38   19.14
  -5  -1  -6  196.13   19.98
  -5  -1  -6  213.83   21.86
  -5  -1  -7   22.51    7.41
  -5  -1  -7   41.20    8.26
  -5  -1  -8    9.57    4.65
  -5  -1  -8   13.37    4.66
  -5  -1  -9   13.83    3.75
  -5  -2  12    0.38    1.85
  -5  -2  11   29.96    7.39
  -5  -2  10   10.82    9.47
  -5  -2   9   39.55    9.51
  -5  -2   8    0.39    2.82
  -5  -2   7    0.20    2.40
  -5  -2   6    1.19    3.02
  -5  -2   5   42.91    7.83
  -5  -2   2   29.20    6.91
  -5  -2   1   10.91    5.62
  -5  -2   0    6.65    5.10
  -5  -2   0    4.33    3.22
  -5  -2  -1   14.45    6.67
  -5  -2  -1    9.39    4.10
  -5  -2  -2   15.93    7.00
  -5  -2  -2    8.53    4.10
  -5  -2  -3    7.15    5.42
  -5  -2  -3    2.61    3.17
  -5  -2  -4   -0.38    1.51
  -5  -2  -4    0.70    2.48
  -5  -2  -5   -0.20    2.14
  -5  -2  -5   -2.32    3.53
   5   2   6   -0.13    1.63
  -5  -2  -6    0.15    1.37
  -5  -2  -6   -1.92    3.48
   5   2   7   -0.28    2.42
  -5  -2  -7    0.66    2.17
  -5  -2  -7    1.41    2.37
  -5  -3  11    5.16    3.63
  -5  -3  10  139.71   14.14
  -5  -3   9   52.25    8.83
  -5  -3   8   72.50   10.21
  -5  -3   7   78.46   10.19
  -5  -3   6   21.54    5.41
  -5  -3   3   19.32    5.42
  -5  -3   2  144.15   15.38
  -5  -3   1   72.79   16.67
   5   3   0  201.90   21.32
  -5  -3   0  200.19   21.05
   5   3   1  103.63   13.78
  -5  -3  -1  113.96   21.76
   5   3   2   19.90    7.05
  -5  -3  -2   26.18    8.45
   5   3   3   40.33   12.45
  -5  -3  -3   53.55   11.21
   5   3   4  113.33   13.34
  -5  -3  -4  120.12   15.92
   5   3   5   26.77    9.82
  -5  -3  -5   29.71    8.11
   5   3   6   35.80    5.99
  -5  -3  -6   49.13    7.70
  -5  -4  10    1.28    2.37
  -5  -4   9   -0.08    2.37
  -5  -4   8   -0.18    2.59
  -5  -4   6    0.04    1.84
  -5  -4   5   71.28   17.10
  -5  -4   4   -0.15    2.50
  -5  -4   3    5.38    3.16
  -5  -4   3   -0.35    4.48
  -5  -4   2   -1.93    2.83
  -5  -4   2   -0.21    3.42
  -5  -4   1    0.33    3.94
  -5  -4   1    3.51    3.65
   5   4   0   25.35    7.97
  -5  -4   0   22.78    7.47
   5   4   1    3.41    5.83
  -5  -4  -1    1.23    6.51
   5   4   2    1.17    2.33
  -5  -4  -2   -0.65    2.91
   5   4   3    0.27    2.20
  -5  -4  -3   -1.48    2.70
   5   4   4   -0.24    1.96
  -5  -4  -4    1.50    2.49
  -5  -4  -5    1.12    2.42
  -5  -5   8    0.05    1.22
  -5  -5   7    0.37    2.21
  -5  -5   6   42.96    8.70
  -5  -5   5   24.39    7.07
  -5  -5   4   -0.13    3.41
  -5  -5   3   19.84    7.03
  -5  -5   3   26.04    7.19
  -5  -5   2   52.60    7.82
  -5  -5   2   48.98    9.92
   5   5  -1   50.24    9.23
  -5  -5   1   37.17    7.62
   5   5   0   -0.38    2.84
  -5  -5   0    0.01    1.78
   5   5   1    0.26    2.69
  -5  -5  -1    3.18    3.04
  -5  -5  -2   20.38    5.68
  -5  -6   5    0.27    1.54
  -6   6   3   30.51    6.49
  -6   6   2    9.50    7.56
  -6   6   1   30.52    7.03
   6  -6   0    5.49    6.77
  -6   6   0   19.80    5.03
   6  -6   1   45.07    8.19
  -6   6  -1   42.17    6.89
   6  -6   2   36.87    7.12
  -6   6  -2   17.75    4.41
   6  -6   3   21.87   10.37
   6  -6   4    4.12    4.35
   6  -6   5  147.68   16.23
   6  -6   6   67.96    9.17
   6  -5  -5   -1.44    1.19
  -6   5   5    0.95    4.72
   6  -5  -4    0.73    1.72
  -6   5   4    1.58    4.76
  -6   5   3    4.78    3.24
  -6   5   3    7.06    4.81
  -6   5   2    8.83    4.03
  -6   5   2   12.05    5.83
   6  -5  -1    5.31    3.82
  -6   5   1    5.64    3.69
  -6   5   1   13.23    7.21
   6  -5   0    7.39    4.37
  -6   5   0    1.85    3.62
  -6   5   0    4.67    3.77
   6  -5   1   23.94    6.58
  -6   5  -1   12.55    5.68
  -6   5  -1   16.15    5.08
   6  -5   2   -2.33    2.78
  -6   5  -2    0.54    1.39
   6  -5   3   -1.29    1.23
  -6   5  -3    0.68    0.89
   6  -5   4    0.72    2.91
  -6   5  -4    1.01    3.11
   6  -5   5    4.18    3.94
   6  -5   6    6.87    4.13
   6  -5   7    1.24    2.33
   6  -4  -7   16.05    7.49
  -6   4   7   28.26    9.41
   6  -4  -6   47.98    8.58
  -6   4   6   84.31   10.86
   6  -4  -5    1.81    5.01
  -6   4   5   24.36    6.49
  -6   4   4  111.02   14.39
  -6   4   4  131.34   22.18
  -6   4   3   18.60    6.87
  -6   4   3   25.17    7.64
  -6   4   2   -0.41    3.23
  -6   4   2    1.99    3.18
   6  -4  -1   51.84   13.31
  -6   4   1   63.71   16.83
  -6   4   1   73.33   11.06
   6  -4   0   41.72   12.40
  -6   4   0   54.40   15.00
  -6   4   0   47.20   12.19
   6  -4   1   62.10   10.37
  -6   4  -1   75.97   16.57
   6  -4   2  137.53   16.79
  -6   4  -2  114.76   14.64
   6  -4   3   22.11    7.67
  -6   4  -3   19.29    6.85
   6  -4   4    8.90    5.62
  -6   4  -4    5.32    4.69
   6  -4   5   67.39   10.70
  -6   4  -5   50.96    9.24
   6  -4   6   69.04   10.01
  -6   4  -6   40.65   12.37
   6  -4   7   31.43    5.84
  -6   4  -7   19.10    8.57
   6  -4   8   21.47    4.25
   6  -3  -8    0.38    1.86
  -6   3   8   -0.20    3.36
   6  -3  -7   -0.05    3.32
  -6   3   7    0.24    2.20
  -6   3   6    2.78    3.67
  -6   3   6   -0.04    3.79
  -6   3   5    9.15    5.80
  -6   3   5    4.10    9.15
  -6   3   4    3.02    5.72
  -6   3   4   -0.10    3.31
  -6   3   3   30.56    9.31
  -6   3   3   22.46    7.98
   6  -3  -2    0.66    2.61
  -6   3   2   -1.66    3.03
  -6   3   2   -0.37    2.44
   6  -3  -1   22.48    6.11
  -6   3   1   26.00    8.33
  -6   3   1   20.62    6.32
   6  -3   0    1.87    2.52
  -6   3   0   -1.37    3.25
   6  -3   1    0.26    2.82
  -6   3  -1   -2.15    3.36
   6  -3   2   15.80    6.94
  -6   3  -2   15.46    6.97
   6  -3   3   19.85    7.38
  -6   3  -3   16.23    7.31
   6  -3   4   25.39    8.04
  -6   3  -4   18.43    7.74
   6  -3   5    0.47    2.80
  -6   3  -5    0.31    2.58
   6  -3   6    1.59    4.83
  -6   3  -6    0.97    3.16
   6  -3   7    0.28    1.10
  -6   3  -7   -0.34    1.21
   6  -3   8    6.25    3.08
  -6   3  -8    3.90    3.65
   6  -2  -9   19.88    9.51
  -6   2   9   24.59    6.06
   6  -2  -8  112.01   14.07
  -6   2   8  128.44   14.14
  -6   2   7   20.38    6.22
  -6   2   7    0.14    6.14
  -6   2   6  214.74   22.97
  -6   2   6  213.29   22.00
  -6   2   5   31.67    9.77
  -6   2   5   30.38    8.77
  -6   2   4   -1.35    5.03
  -6   2   4    5.01    4.03
  -6   2   3   50.50   11.59
  -6   2   3   47.23   13.59
   6  -2  -2   46.32    7.82
  -6   2   2   85.01   12.66
  -6   2   2   72.20   14.06
   6  -2  -1   37.40    7.84
  -6   2   1   49.26   10.53
   6  -2   0  543.06   45.36
  -6   2   0  598.25   48.51
   6  -2   1    0.48    4.62
  -6   2  -1    5.95    4.83
   6  -2   2  105.86   17.83
  -6   2  -2  102.43   15.37
   6  -2   3   91.87   16.71
  -6   2  -3   79.98   13.39
   6  -2   4   35.58   12.03
  -6   2  -4   34.58    9.13
   6  -2   5  101.18   21.63
  -6   2  -5   92.55   19.59
   6  -2   6  155.82   17.74
  -6   2  -6  131.52   16.08
   6  -2   7   20.34    6.06
  -6   2  -7   18.18    6.17
   6  -2   8   19.62    4.40
  -6   2  -8   18.93    8.52
   6  -1  -9    2.91    3.22
  -6   1   9    0.70    5.53
   6  -1  -8    4.35    4.14
  -6   1   8   -0.07    6.38
  -6   1   7    3.50    3.78
  -6   1   7   -0.30    3.46
  -6   1   6    7.81    4.88
  -6   1   6    0.11    4.35
  -6   1   5    6.02    4.85
  -6   1   5    0.06    3.87
  -6   1   4   -3.08    4.51
  -6   1   4   -0.34    5.17
  -6   1   3    3.23    7.31
   6  -1  -2   -0.03    2.52
  -6   1   2    3.31    3.52
   6  -1  -1    2.35    4.48
  -6   1   1    4.07    4.66
  -6   1   0   57.86   10.95
  -6   1   0   48.59   10.20
  -6   1  -1   14.69    7.23
  -6   1  -1   13.19    7.31
  -6   1  -2    2.43    3.51
  -6   1  -2   -1.25    2.42
  -6   1  -3    1.18    2.71
  -6   1  -3   -1.00    3.12
  -6   1  -4    4.63    4.38
  -6   1  -4    0.92    5.32
  -6   1  -5    1.01    3.39
  -6   1  -5    1.37    3.94
   6  -1   6   15.47    7.49
  -6   1  -6    9.54    5.72
   6  -1   7    1.67    2.61
  -6   1  -7   -0.43    2.47
   6  -1   8    4.27    2.64
  -6   1  -8    3.59    3.25
  -6   0  10   56.58   12.30
   6   0  -9   10.62    4.18
  -6   0   9   -0.30    8.04
   6   0  -8   86.90   12.32
  -6   0   8  119.15   13.79
  -6   0   7   33.50    8.16
  -6   0   7   33.68    7.91
  -6   0   6    2.83    3.13
  -6   0   6   -0.61    2.80
  -6   0   5   29.62    8.69
  -6   0   5   26.63    6.58
  -6   0   4   92.14   13.40
  -6   0   3   55.59   10.02
  -6   0   2  432.13   34.13
  -6   0   2  359.83   30.01
  -6   0   1   46.50    9.14
  -6   0   1   38.77    9.80
  -6   0   0  192.20   19.69
  -6   0   0  220.68   23.90
  -6   0  -1   65.38   11.14
  -6   0  -1   70.47   19.55
  -6   0  -2   22.37   11.76
  -6   0  -2   29.49    9.80
  -6   0  -3   98.92   13.47
  -6   0  -3  109.35   24.35
  -6   0  -4  199.61   26.33
  -6   0  -4  243.92   26.72
  -6   0  -5   59.60    9.71
  -6   0  -5   71.49   13.63
  -6   0  -6    4.03    3.50
  -6   0  -6    2.30    4.30
   6   0   7   90.89   11.52
  -6   0  -7   52.25   12.24
  -6  -1  10    4.21    3.13
  -6  -1   9   -0.33    2.03
   6   1  -8    0.13    1.28
  -6  -1   8   -0.12    2.68
  -6  -1   7   36.03    7.21
  -6  -1   7   45.94    7.90
  -6  -1   6   -1.03    2.11
  -6  -1   6    0.02    2.07
  -6  -1   5   36.00    8.01
  -6  -1   4   -0.19    2.00
  -6  -1   3    6.43    4.26
  -6  -1   2   11.01    5.16
  -6  -1   2   19.80    5.92
  -6  -1   1   -0.47    3.96
  -6  -1   1    1.70    3.05
  -6  -1   0   14.26    8.98
  -6  -1   0   26.36    7.91
  -6  -1  -1    2.49    2.97
  -6  -1  -1    0.08    4.15
  -6  -1  -2    3.77    4.09
  -6  -1  -2   10.10    5.95
  -6  -1  -3    3.39    4.94
  -6  -1  -3   -0.13    7.74
  -6  -1  -4    3.44    3.09
  -6  -1  -4    2.42    5.05
  -6  -1  -5    3.29    3.02
  -6  -1  -5    5.62    7.93
  -6  -1  -6    0.64    1.74
  -6  -1  -6    1.47    4.68
  -6  -2   9   15.01    3.91
  -6  -2   8   -0.08    1.30
  -6  -2   7   23.34    4.72
  -6  -2   2   -0.39    2.21
  -6  -2   1   56.03    9.67
  -6  -2   0   43.53    9.53
  -6  -2  -1   78.59   12.79
  -6  -2  -2   93.78   14.05
  -6  -2  -3   91.06   13.58
  -6  -2  -4    2.70    4.25
  -6  -2  -5   53.27   13.54
  -6  -3   2    0.20    1.70
  -6  -3   1    5.73    4.08
  -6  -3   0   -0.07    2.90
  -6  -3  -1    3.91    6.71
  -6  -3  -2   -1.71    3.44
  -6  -3  -3    7.18    4.60
  -6  -4   2   28.11    4.63
  -6  -4   1   44.02    6.49
  -6  -4   0   17.90    4.80
  -6  -4  -1   16.15    4.72
   7  -5   2   16.22    4.83
  -7   4   3   10.94    6.60
  -7   4   2    1.89    2.79
  -7   4   1    4.55    3.99
  -7   4   0    6.26    4.25
   7  -4   1    2.29    4.44
  -7   4  -1    3.76    5.31
   7  -4   2    0.02    1.97
  -7   4  -2   -1.14    2.19
   7  -4   3   60.97    7.73
  -7   4  -3   40.97    7.56
   7  -4   4   69.02    8.08
  -7   4  -4   48.66    7.25
  -7   3   5   48.54    7.81
  -7   3   5   36.24    5.07
  -7   3   4   36.71    7.26
  -7   3   4   21.68    6.93
  -7   3   3   40.77    7.20
  -7   3   3   17.42    4.02
  -7   3   2   24.17    7.74
  -7   3   1   50.24   10.18
   7  -3   0   60.18    8.15
  -7   3   0   96.72   12.22
   7  -3   1   22.38    8.10
  -7   3  -1   27.60    7.12
   7  -3   2   96.38   11.60
  -7   3  -2   87.13   12.06
   7  -3   3   40.56    7.53
  -7   3  -3   41.30    7.82
   7  -3   4    1.28    2.82
  -7   3  -4    1.77    2.84
   7  -3   5   23.79    5.37
  -7   3  -5   20.13    5.45
   7  -2  -6   -0.33    2.03
  -7   2   6   -0.22    1.90
  -7   2   5    3.51    2.78
  -7   2   5   -0.05    1.52
  -7   2   4    0.15    2.08
  -7   2   3    1.53    3.78
  -7   2   2    7.30    5.47
  -7   2   1   -0.32    2.68
   7  -2   0    0.05    1.65
  -7   2   0    0.80    2.50
   7  -2   1   20.62    5.57
  -7   2  -1   25.27    7.10
   7  -2   2    4.97    5.62
  -7   2  -2    0.69    6.36
   7  -2   3   53.49    8.97
  -7   2  -3   57.39    9.46
   7  -2   4    2.03    3.88
  -7   2  -4   -0.03    2.51
   7  -2   5    4.38    3.36
  -7   2  -5    5.28    5.67
   7  -1  -7   32.25    8.79
  -7   1   6   43.85    6.53
  -7   1   6   17.08    3.52
  -7   1   5   22.56    6.50
  -7   1   4   53.81   15.28
  -7   1   3   43.90    9.44
  -7   1   2  147.83   16.47
   7  -1  -1   24.35    5.22
  -7   1   1   50.03    8.31
   7  -1   0   99.43   11.48
  -7   1   0  118.12   18.51
   7  -1   1   10.58    5.38
  -7   1  -1   12.20    5.43
   7  -1   2   -0.63    1.76
  -7   1  -2    0.48    1.67
   7  -1   3    6.79    4.86
  -7   1  -3    6.32    4.32
   7  -1   4   19.80    6.21
  -7   1  -4   14.89    8.34
   7  -1   5   20.98    5.31
  -7   1  -5   17.01    4.74
  -7   0   6    0.06    1.22
  -7   0   5   11.19    4.38
  -7   0   4   -2.17    4.68
  -7   0   3    3.15    5.60
  -7   0   2    2.42    3.27
  -7   0   1   12.47    7.42
   7   0   0    4.52    6.62
  -7   0   0    9.89    4.21
   7   0   1   15.32    6.61
  -7   0  -1   14.64    4.87
   7   0   2   -0.60    3.88
  -7   0  -2    4.59    4.17
   7   0   3   -0.07    3.20
  -7   0  -3    1.04    2.00
   7   0   4    0.93    4.08
  -7   0  -4   -0.47    1.48
  -7  -1   5    5.74    2.16
  -7  -1   4   33.02    4.78
  -7  -1   3   33.18    7.91
  -7  -1   2   71.77   10.56
  -7  -1   1    0.44    2.31
   7   1   0   10.89    4.36
  -7  -1   0    5.57    2.79
   7   1   1    0.42    4.33
  -7  -1  -1    6.86    2.34
  -7  -1  -2    6.93    1.92
   7   1   3   39.96    8.07
  -7  -2  -1    1.88    2.20
;
_shelx_hkl_checksum              49142
loop_
_space_group_symop_id
_space_group_symop_operation_xyz
1 +X,+Y,+Z
2 -X,-Y,-Z
loop_
_atom_site_label
_atom_site_type_symbol
_atom_site_fract_x
_atom_site_fract_y
_atom_site_fract_z
_atom_site_U_iso_or_equiv
_atom_site_adp_type
_atom_site_occupancy
_atom_site_site_symmetry_order
_atom_site_calc_flag
_atom_site_refinement_flags_posn
_atom_site_refinement_flags_adp
_atom_site_refinement_flags_occupancy
Ni1 Ni 1.000000 0.500000 0.000000 0.0336(3) Uani 1 2 d S . P
Ni2 Ni 0.500000 1.000000 1.000000 0.0357(3) Uani 1 2 d S . P
F1 F 0.4097(4) 0.7582(4) 0.3751(2) 0.0596(8) Uani 1 1 d . . .
F2 F 0.7702(4) 0.9884(4) 0.4545(2) 0.0596(8) Uani 1 1 d . . .
F3 F 0.7196(4) 0.6190(4) 0.5172(2) 0.0593(8) Uani 1 1 d . . .
F4 F 1.0475(4) 0.5861(4) 0.6448(2) 0.0653(9) Uani 1 1 d . . .
N1 N 0.7436(5) 0.4770(4) 0.0556(3) 0.0369(9) Uani 1 1 d . . .
H1 H 0.638973 0.393367 0.021244 0.044 Uiso 1 1 calc R U .
N2 N 1.0723(5) 0.6973(5) 0.1240(3) 0.0379(9) Uani 1 1 d . . .
H2 H 1.193601 0.767396 0.136304 0.046 Uiso 1 1 calc R U .
N3 N 0.4423(5) 0.9426(5) 0.8488(3) 0.0392(9) Uani 1 1 d . . .
H3 H 0.333629 0.971466 0.818583 0.047 Uiso 1 1 calc R U .
N4 N 0.7335(5) 0.8934(5) 0.9653(3) 0.0389(9) Uani 1 1 d . . .
H4 H 0.824824 0.885478 1.016010 0.047 Uiso 1 1 calc R U .
C1 C 0.7288(7) 0.5979(6) 0.1528(4) 0.0349(10) Uani 1 1 d . . .
C2 C 0.5518(6) 0.6083(5) 0.2144(3) 0.0365(11) Uani 1 1 d . . .
H2A H 0.425235 0.527430 0.188061 0.044 Uiso 1 1 calc R U .
C3 C 0.5728(7) 0.7398(7) 0.3129(4) 0.0422(12) Uani 1 1 d . . .
C4 C 0.7659(8) 0.8635(6) 0.3548(4) 0.0423(12) Uani 1 1 d . . .
C5 C 0.9381(7) 0.8591(6) 0.2976(3) 0.0389(11) Uani 1 1 d . . .
H5 H 1.062547 0.942173 0.325616 0.047 Uiso 1 1 calc R U .
C6 C 0.9225(7) 0.7253(6) 0.1949(4) 0.0341(10) Uani 1 1 d . . .
C7 C 0.5797(7) 0.8527(6) 0.7876(4) 0.0340(10) Uani 1 1 d . . .
C8 C 0.5662(7) 0.7815(6) 0.6709(3) 0.0404(11) Uani 1 1 d . . .
H8 H 0.454254 0.795661 0.625138 0.048 Uiso 1 1 calc R U .
C9 C 0.7223(8) 0.6921(6) 0.6280(4) 0.0428(12) Uani 1 1 d . . .
C10 C 0.8973(8) 0.6734(6) 0.6948(4) 0.0459(12) Uani 1 1 d . . .
C11 C 0.9174(6) 0.7396(6) 0.8077(4) 0.0395(11) Uani 1 1 d . . .
H11 H 1.034071 0.726701 0.850698 0.047 Uiso 1 1 calc R U .
C12 C 0.7553(6) 0.8283(6) 0.8570(4) 0.0340(10) Uani 1 1 d . . .
loop_
_atom_site_aniso_label
_atom_site_aniso_U_11
_atom_site_aniso_U_22
_atom_site_aniso_U_33
_atom_site_aniso_U_23
_atom_site_aniso_U_13
_atom_site_aniso_U_12
Ni1 0.0313(6) 0.0347(6) 0.0331(6) 0.0090(5) -0.0018(5) 0.0041(5)
Ni2 0.0335(6) 0.0366(6) 0.0364(7) 0.0110(5) -0.0035(5) 0.0062(5)
F1 0.0459(17) 0.075(2) 0.0553(18) 0.0075(15) 0.0160(14) 0.0181(15)
F2 0.0610(19) 0.0649(19) 0.0404(17) -0.0094(14) 0.0037(14) 0.0188(15)
F3 0.065(2) 0.074(2) 0.0367(16) 0.0087(14) 0.0102(14) 0.0182(16)
F4 0.0537(19) 0.087(2) 0.065(2) 0.0245(17) 0.0238(16) 0.0324(17)
N1 0.034(2) 0.033(2) 0.039(2) 0.0074(17) -0.0037(17) -0.0003(16)
N2 0.028(2) 0.040(2) 0.043(2) 0.0128(18) 0.0012(17) -0.0005(17)
N3 0.031(2) 0.049(2) 0.039(2) 0.0136(18) -0.0017(17) 0.0140(18)
N4 0.035(2) 0.044(2) 0.039(2) 0.0146(18) -0.0058(17) 0.0077(18)
C1 0.030(2) 0.037(2) 0.037(3) 0.007(2) 0.003(2) 0.0103(19)
C2 0.032(3) 0.035(3) 0.041(3) 0.009(2) -0.001(2) 0.007(2)
C3 0.035(3) 0.053(3) 0.044(3) 0.014(2) 0.011(2) 0.022(2)
C4 0.041(3) 0.048(3) 0.037(3) 0.004(2) 0.003(2) 0.018(2)
C5 0.033(3) 0.038(3) 0.040(3) 0.007(2) -0.006(2) 0.003(2)
C6 0.035(3) 0.033(2) 0.034(3) 0.010(2) -0.003(2) 0.005(2)
C7 0.030(2) 0.032(2) 0.039(3) 0.014(2) -0.002(2) -0.0022(19)
C8 0.035(3) 0.050(3) 0.036(3) 0.012(2) 0.001(2) 0.006(2)
C9 0.046(3) 0.048(3) 0.031(3) 0.007(2) 0.008(2) 0.005(2)
C10 0.042(3) 0.052(3) 0.041(3) 0.008(2) 0.007(2) 0.011(2)
C11 0.025(2) 0.044(3) 0.057(3) 0.028(2) 0.006(2) 0.002(2)
C12 0.024(2) 0.037(3) 0.041(3) 0.012(2) 0.002(2) 0.0047(19)
loop_
_atom_type_symbol
_atom_type_description
_atom_type_scat_dispersion_real
_atom_type_scat_dispersion_imag
_atom_type_scat_source
C C 0.0181 0.0091
;
International Tables for Crystallography
(Vol. C, Tables 4.2.6.8 and 6.1.1.4)
;
N N 0.0311 0.0180
;
International Tables for Crystallography
(Vol. C, Tables 4.2.6.8 and 6.1.1.4)
;
H H 0.0000 0.0000
;
International Tables for Crystallography
(Vol. C, Table 6.1.1.4)
;
F F 0.0727 0.0534
;
International Tables for Crystallography
(Vol. C, Tables 4.2.6.8 and 6.1.1.4)
;
Ni Ni -3.0029 0.5091
;
International Tables for Crystallography
(Vol. C, Tables 4.2.6.8 and 6.1.1.4)
;
loop_
_geom_angle_atom_site_label_1
_geom_angle_atom_site_label_2
_geom_angle_atom_site_label_3
_geom_angle
_geom_angle_site_symmetry_1
_geom_angle_site_symmetry_3
N1 Ni1 N1 180.0 2_765 .
N1 Ni1 N2 96.12(15) 2_765 .
N1 Ni1 N2 83.88(15) . .
N1 Ni1 N2 83.88(15) 2_765 2_765
N1 Ni1 N2 96.12(15) . 2_765
N2 Ni1 N2 180.0 . 2_765
N4 Ni2 N4 180.00(19) 2_677 .
N4 Ni2 N3 96.43(15) 2_677 .
N4 Ni2 N3 83.57(15) . .
N4 Ni2 N3 83.57(15) 2_677 2_677
N4 Ni2 N3 96.43(15) . 2_677
N3 Ni2 N3 180.0 . 2_677
C1 N1 Ni1 116.1(3) . .
C1 N1 H1 121.9 . .
Ni1 N1 H1 121.9 . .
C6 N2 Ni1 115.7(3) . .
C6 N2 H2 122.2 . .
Ni1 N2 H2 122.2 . .
C7 N3 Ni2 116.3(3) . .
C7 N3 H3 121.8 . .
Ni2 N3 H3 121.8 . .
C12 N4 Ni2 116.7(3) . .
C12 N4 H4 121.6 . .
Ni2 N4 H4 121.6 . .
N1 C1 C2 127.5(4) . .
N1 C1 C6 112.4(4) . .
C2 C1 C6 120.1(4) . .
C3 C2 C1 117.8(4) . .
C3 C2 H2A 121.1 . .
C1 C2 H2A 121.1 . .
F1 C3 C2 120.8(4) . .
F1 C3 C4 117.4(4) . .
C2 C3 C4 121.8(4) . .
F2 C4 C5 121.0(4) . .
F2 C4 C3 117.0(4) . .
C5 C4 C3 122.1(4) . .
C4 C5 C6 117.9(4) . .
C4 C5 H5 121.1 . .
C6 C5 H5 121.1 . .
N2 C6 C5 127.8(4) . .
N2 C6 C1 111.8(4) . .
C5 C6 C1 120.3(4) . .
N3 C7 C8 128.2(4) . .
N3 C7 C12 111.6(4) . .
C8 C7 C12 120.2(4) . .
C9 C8 C7 117.5(4) . .
C9 C8 H8 121.2 . .
C7 C8 H8 121.2 . .
F3 C9 C8 121.0(4) . .
F3 C9 C10 116.4(4) . .
C8 C9 C10 122.6(4) . .
F4 C10 C11 119.5(4) . .
F4 C10 C9 118.5(4) . .
C11 C10 C9 122.0(4) . .
C10 C11 C12 117.8(4) . .
C10 C11 H11 121.1 . .
C12 C11 H11 121.1 . .
N4 C12 C11 128.5(4) . .
N4 C12 C7 111.6(4) . .
C11 C12 C7 119.8(4) . .
loop_
_geom_bond_atom_site_label_1
_geom_bond_atom_site_label_2
_geom_bond_distance
_geom_bond_site_symmetry_2
Ni1 N1 1.832(3) 2_765
Ni1 N1 1.832(3) .
Ni1 N2 1.834(3) .
Ni1 N2 1.834(3) 2_765
Ni2 N4 1.831(3) 2_677
Ni2 N4 1.831(3) .
Ni2 N3 1.832(3) .
Ni2 N3 1.832(3) 2_677
F1 C3 1.347(5) .
F2 C4 1.352(5) .
F3 C9 1.351(5) .
F4 C10 1.345(5) .
N1 C1 1.336(5) .
N1 H1 0.8600 .
N2 C6 1.352(5) .
N2 H2 0.8600 .
N3 C7 1.349(5) .
N3 H3 0.8600 .
N4 C12 1.341(5) .
N4 H4 0.8600 .
C1 C2 1.414(5) .
C1 C6 1.439(6) .
C2 C3 1.354(5) .
C2 H2A 0.9300 .
C3 C4 1.422(6) .
C4 C5 1.356(6) .
C5 C6 1.403(5) .
C5 H5 0.9300 .
C7 C8 1.413(5) .
C7 C12 1.449(6) .
C8 C9 1.354(6) .
C8 H8 0.9300 .
C9 C10 1.409(6) .
C10 C11 1.362(6) .
C11 C12 1.410(5) .
C11 H11 0.9300 .
loop_
_geom_torsion_atom_site_label_1
_geom_torsion_atom_site_label_2
_geom_torsion_atom_site_label_3
_geom_torsion_atom_site_label_4
_geom_torsion
_geom_torsion_site_symmetry_1
N2 Ni1 N1 C1 -1.8(3) .
N2 Ni1 N1 C1 178.2(3) 2_765
N1 Ni1 N2 C6 -176.8(3) 2_765
N1 Ni1 N2 C6 3.2(3) .
N4 Ni2 N3 C7 -178.2(3) 2_677
N4 Ni2 N3 C7 1.8(3) .
N3 Ni2 N4 C12 0.0(3) .
N3 Ni2 N4 C12 180.0(3) 2_677
Ni1 N1 C1 C2 -178.7(3) .
Ni1 N1 C1 C6 0.2(5) .
N1 C1 C2 C3 178.4(4) .
C6 C1 C2 C3 -0.4(6) .
C1 C2 C3 F1 179.4(4) .
C1 C2 C3 C4 -0.6(7) .
F1 C3 C4 F2 0.6(6) .
C2 C3 C4 F2 -179.4(4) .
F1 C3 C4 C5 -178.6(4) .
C2 C3 C4 C5 1.4(7) .
F2 C4 C5 C6 179.8(3) .
C3 C4 C5 C6 -1.0(7) .
Ni1 N2 C6 C5 176.7(3) .
Ni1 N2 C6 C1 -3.9(5) .
C4 C5 C6 N2 179.3(4) .
C4 C5 C6 C1 0.0(6) .
N1 C1 C6 N2 2.3(5) .
C2 C1 C6 N2 -178.7(4) .
N1 C1 C6 C5 -178.2(3) .
C2 C1 C6 C5 0.8(6) .
Ni2 N3 C7 C8 175.3(3) .
Ni2 N3 C7 C12 -3.1(5) .
N3 C7 C8 C9 -178.5(4) .
C12 C7 C8 C9 -0.2(6) .
C7 C8 C9 F3 179.5(4) .
C7 C8 C9 C10 -2.0(7) .
F3 C9 C10 F4 0.2(7) .
C8 C9 C10 F4 -178.4(4) .
F3 C9 C10 C11 -179.4(4) .
C8 C9 C10 C11 2.1(8) .
F4 C10 C11 C12 -179.3(4) .
C9 C10 C11 C12 0.3(7) .
Ni2 N4 C12 C11 -179.5(3) .
Ni2 N4 C12 C7 -1.6(5) .
C10 C11 C12 N4 175.3(4) .
C10 C11 C12 C7 -2.5(6) .
N3 C7 C12 N4 2.9(5) .
C8 C7 C12 N4 -175.6(4) .
N3 C7 C12 C11 -179.0(4) .
C8 C7 C12 C11 2.5(6) .
