#------------------------------------------------------------------------------
#$Date: 2019-11-22 19:38:24 +0200 (Fri, 22 Nov 2019) $
#$Revision: 231353 $
#$URL: file:///home/coder/svn-repositories/cod/cif/4/51/65/4516516.cif $
#------------------------------------------------------------------------------
#
# This file is available in the Crystallography Open Database (COD),
# http://www.crystallography.net/
#
# All data on this site have been placed in the public domain by the
# contributors.
#
data_4516516
loop_
_publ_author_name
'Shirman, Tanya'
'Boterashvili, Meital'
'Orbach, Meital'
'Freeman, Dalia'
'Shimon, Linda J. W.'
'Lahav, Michal'
'van der Boom, Milko E.'
_publ_section_title
;
 Finding the Perfect Match: Halogen vs Hydrogen Bonding
;
_journal_issue                   10
_journal_name_full               'Crystal Growth &amp; Design'
_journal_page_first              4756
_journal_paper_doi               10.1021/acs.cgd.5b01260
_journal_volume                  15
_journal_year                    2015
_chemical_formula_moiety         'C13 H6 F5 N'
_chemical_formula_sum            'C13 H6 F5 N'
_chemical_formula_weight         271.19
_space_group_crystal_system      triclinic
_space_group_IT_number           2
_space_group_name_Hall           '-P 1'
_space_group_name_H-M_alt        'P -1'
_atom_sites_solution_hydrogens   difmap
_audit_creation_method           SHELXL-2013
_cell_angle_alpha                70.74(3)
_cell_angle_beta                 85.15(3)
_cell_angle_gamma                81.57(3)
_cell_formula_units_Z            2
_cell_length_a                   5.7660(12)
_cell_length_b                   9.0810(18)
_cell_length_c                   10.927(2)
_cell_measurement_reflns_used    4817
_cell_measurement_temperature    120(2)
_cell_measurement_theta_max      27.48
_cell_measurement_theta_min      1.0
_cell_volume                     533.9(2)
_computing_cell_refinement       HKL2000
_computing_data_collection       'Collect package (Bruker Nonius)'
_computing_data_reduction        HKL2000
_computing_structure_refinement  'SHELXL-2013 (Sheldrick, 2013)'
_computing_structure_solution    'SHELXS-97 (Sheldrick, 1990)'
_diffrn_ambient_temperature      120(2)
_diffrn_measured_fraction_theta_full 0.996
_diffrn_measured_fraction_theta_max 0.994
_diffrn_measurement_device_type  'Nonius KappaCCD'
_diffrn_measurement_method       'phi and omega scans'
_diffrn_radiation_type           MoK\a
_diffrn_radiation_wavelength     0.71073
_diffrn_reflns_av_R_equivalents  0.0241
_diffrn_reflns_av_unetI/netI     0.0334
_diffrn_reflns_Laue_measured_fraction_full 0.996
_diffrn_reflns_Laue_measured_fraction_max 0.994
_diffrn_reflns_limit_h_max       7
_diffrn_reflns_limit_h_min       -7
_diffrn_reflns_limit_k_max       11
_diffrn_reflns_limit_k_min       -11
_diffrn_reflns_limit_l_max       14
_diffrn_reflns_limit_l_min       -14
_diffrn_reflns_number            4656
_diffrn_reflns_point_group_measured_fraction_full 0.996
_diffrn_reflns_point_group_measured_fraction_max 0.994
_diffrn_reflns_theta_full        25.242
_diffrn_reflns_theta_max         27.480
_diffrn_reflns_theta_min         3.563
_diffrn_source                   sealed-tube
_exptl_absorpt_coefficient_mu    0.161
_exptl_absorpt_correction_type   none
_exptl_crystal_colour            colourless
_exptl_crystal_density_diffrn    1.687
_exptl_crystal_description       prism
_exptl_crystal_F_000             272
_exptl_crystal_size_max          0.500
_exptl_crystal_size_mid          0.200
_exptl_crystal_size_min          0.100
_refine_diff_density_max         0.408
_refine_diff_density_min         -0.253
_refine_diff_density_rms         0.069
_refine_ls_extinction_method     none
_refine_ls_goodness_of_fit_ref   1.024
_refine_ls_hydrogen_treatment    refall
_refine_ls_matrix_type           full
_refine_ls_number_parameters     196
_refine_ls_number_reflns         2436
_refine_ls_number_restraints     0
_refine_ls_restrained_S_all      1.024
_refine_ls_R_factor_all          0.0636
_refine_ls_R_factor_gt           0.0446
_refine_ls_shift/su_max          0.000
_refine_ls_shift/su_mean         0.000
_refine_ls_structure_factor_coef Fsqd
_refine_ls_weighting_details
'w=1/[\s^2^(Fo^2^)+(0.0859P)^2^] where P=(Fo^2^+2Fc^2^)/3'
_refine_ls_weighting_scheme      calc
_refine_ls_wR_factor_gt          0.1162
_refine_ls_wR_factor_ref         0.1286
_reflns_Friedel_coverage         0.000
_reflns_number_gt                1780
_reflns_number_total             2436
_reflns_threshold_expression     'I > 2\s(I)'
_cod_data_source_file            cg5b01260_si_003.cif
_cod_data_source_block           v105n
_cod_database_code               4516516
_shelx_space_group_comment
;
The symmetry employed for this shelxl refinement is uniquely defined
by the following loop, which should always be used as a source of
symmetry information in preference to the above space-group names.
They are only intended as comments.
;
_shelx_estimated_absorpt_t_min   0.924
_shelx_estimated_absorpt_t_max   0.984
_shelxl_version_number           2013-4
_shelx_res_file
;
TITL v105 in P-1
CELL  0.71073    5.7660    9.0810   10.9270    70.740    85.150    81.570
ZERR 2           0.0012    0.0018    0.0020     0.030     0.030     0.030
LATT   1
SFAC C H N F
UNIT 26 12 2 10
OMIT     0   1   1
OMIT     1   0   0
OMIT     3  -1   3
OMIT    -3  -6   3
SHEL 8.0 0.1

L.S. 4
BOND $H
ACTA
CONF
WPDB -2
TEMP -153
REM 'colourless'
SIZE 0.5 0.2 0.1
FMAP 2
PLAN 20

WGHT    0.085900
FVAR       0.28567
MOLE   1
F2    4    0.379138    0.655936    0.120690    11.00000    0.02675    0.04182 =
         0.03795   -0.02078   -0.00739    0.00932
F4    4    0.475319    0.705094    0.336890    11.00000    0.02527    0.04167 =
         0.03538   -0.01209   -0.01332    0.00243
F6    4    0.164286    0.885230    0.445830    11.00000    0.03862    0.03903 =
         0.02606   -0.01445   -0.00912   -0.00508
F8    4   -0.260568    1.008743    0.337004    11.00000    0.03405    0.04175 =
         0.03202   -0.01991   -0.00321    0.00603
F10   4   -0.362249    0.962492    0.119905    11.00000    0.02359    0.03643 =
         0.02981   -0.01328   -0.00773    0.00543
N17   3   -0.170018    0.631684   -0.418229    11.00000    0.03220    0.03198 =
         0.02866   -0.01251   -0.00443   -0.00180
C1    1    0.213832    0.743718    0.170670    11.00000    0.02409    0.02489 =
         0.02533   -0.01002   -0.00119   -0.00074
C3    1    0.268025    0.768003    0.282866    11.00000    0.02211    0.02636 =
         0.02846   -0.00600   -0.00534   -0.00221
C5    1    0.110535    0.858280    0.339418    11.00000    0.03019    0.02644 =
         0.01973   -0.00684   -0.00521   -0.00765
C7    1   -0.103232    0.920735    0.283709    11.00000    0.02574    0.02479 =
         0.02428   -0.00993   -0.00012   -0.00115
C9    1   -0.152596    0.894907    0.171727    11.00000    0.02130    0.02482 =
         0.02464   -0.00673   -0.00520   -0.00130
C11   1    0.000525    0.804901    0.110767    11.00000    0.02333    0.02220 =
         0.02164   -0.00508   -0.00208   -0.00411
C12   1   -0.070370    0.781885   -0.006524    11.00000    0.02415    0.02543 =
         0.02341   -0.00760   -0.00449   -0.00236
H12   2   -0.215975    0.833454   -0.030581    11.00000    0.05079
C13   1    0.047125    0.695794   -0.075236    11.00000    0.02650    0.02666 =
         0.02921   -0.00911   -0.00716   -0.00011
H13   2    0.211267    0.634176   -0.046369    11.00000    0.05019
C14   1   -0.033800    0.677028   -0.191510    11.00000    0.02842    0.02348 =
         0.02338   -0.00755   -0.00301   -0.00264
C15   1   -0.250431    0.746759   -0.246996    11.00000    0.02759    0.02974 =
         0.02915   -0.01327   -0.00182    0.00170
H15   2   -0.356150    0.815282   -0.213193    11.00000    0.05068
C16   1   -0.308142    0.721382   -0.357543    11.00000    0.02897    0.03348 =
         0.02832   -0.01280   -0.00548    0.00020
H16   2   -0.458644    0.768050   -0.402988    11.00000    0.04410
C18   1    0.036516    0.565411   -0.364656    11.00000    0.03205    0.02734 =
         0.02675   -0.01195   -0.00149   -0.00125
H18   2    0.132033    0.499724   -0.412416    11.00000    0.04602
C19   1    0.111368    0.584020   -0.254594    11.00000    0.02748    0.02513 =
         0.02732   -0.00822   -0.00395    0.00008
H19   2    0.270770    0.534197   -0.218436    11.00000    0.04082
HKLF 4 1  1.0000  0.0000  0.0000  0.0000  1.0000  0.0000  0.0000  0.0000  1.0000

REM  v105 in P-1
REM R1 =  0.0446 for    1780 Fo > 4sig(Fo)  and  0.0636 for all    2436 data
REM    196 parameters refined using      0 restraints

END

WGHT      0.0859      0.0000

REM Highest difference peak  0.408,  deepest hole -0.253,  1-sigma level  0.069
Q1    1   0.6336  0.5927  0.3444  11.00000  0.05    0.35
Q2    1   0.2305  0.4674 -0.3412  11.00000  0.05    0.32
Q3    1  -0.3917  0.8283 -0.1901  11.00000  0.05    0.28
Q4    1  -0.4930  0.8235 -0.3422  11.00000  0.05    0.28
Q5    1  -0.5713  0.8626 -0.3418  11.00000  0.05    0.28
Q6    1   0.0671  0.5817 -0.3214  11.00000  0.05    0.27
Q7    1  -0.0261  0.6907 -0.1248  11.00000  0.05    0.26
Q8    1  -0.3220  0.8549 -0.1097  11.00000  0.05    0.24
Q9    1  -0.4637  1.0527  0.1782  11.00000  0.05    0.23
Q10   1  -0.1761  1.0473  0.4434  11.00000  0.05    0.23
Q11   1   0.5258  0.5398  0.1088  11.00000  0.05    0.22
Q12   1  -0.4257  1.0888  0.2813  11.00000  0.05    0.22
Q13   1  -0.2797  0.8480 -0.0627  11.00000  0.05    0.22
Q14   1   0.3413  0.5418 -0.1131  11.00000  0.05    0.21
Q15   1  -0.1925  0.7731 -0.1177  11.00000  0.05    0.21
Q16   1  -0.1133  0.6445 -0.3411  11.00000  0.05    0.21
Q17   1  -0.5455  1.0912  0.1023  11.00000  0.05    0.20
Q18   1   0.4288  0.4204 -0.1800  11.00000  0.05    0.19
Q19   1   0.2085  0.6136 -0.1034  11.00000  0.05    0.19
Q20   1   0.2808  0.4868 -0.2656  11.00000  0.05    0.19
;
_shelx_res_checksum              92271
_shelx_hkl_file
;
   0   0  -1   -0.01    0.01
   0   0   1    0.00    0.01
   0   0  -2  152.98    3.53
   0   0   2  154.45    5.07
   0   0  -3   30.33    0.68
   0   0   3   28.90    0.78
   0   0  -4  153.35    2.93
   0   0   4  156.16    3.69
   0   0  -5   18.50    0.54
   0   0   5   17.72    0.53
   0   0  -6    8.71    0.33
   0   0   6    8.60    0.25
   0   0  -7    3.95    0.15
   0   0   7    3.83    0.16
   0   0  -8    1.51    0.10
   0   0   8    1.27    0.12
   0   0  -9   27.97    0.59
   0   0   9   29.67    0.68
   0   0 -10    4.40    0.15
   0   0  10    4.85    0.21
   0   0 -11    9.97    0.28
   0   0  11   10.58    0.37
   0   0 -12    2.45    0.50
   0   0  12    2.34    0.21
   0   0 -13    8.14    0.84
   0   0  13    8.93    0.56
   0  -1  12    1.35    0.24
   0   1 -12    1.28    0.47
   0  -1  11    0.06    0.16
   0   1 -11   -0.03    0.11
   0  -1  10    1.47    0.15
   0   1 -10    1.38    0.15
   0  -1   9    4.17    0.19
   0   1  -9    4.15    0.19
   0  -1   8    1.07    0.10
   0   1  -8    0.89    0.11
   0  -1   7    0.06    0.10
   0   1  -7    0.07    0.08
   0  -1   6  144.89    3.04
   0   1  -6  142.07    2.40
   0  -1   5    3.77    0.15
   0   1  -5    3.72    0.10
   0  -1   4   10.73    0.30
   0   1  -4   10.23    0.23
   0  -1   3    6.32    0.23
   0   1  -3    5.98    0.18
   0  -1   2   11.97    0.24
   0   1  -2   12.15    0.29
   0  -1   1   33.28    0.85
   0   1  -1   31.52    0.83
   0  -1   0   -0.01    0.02
   0   1   0    0.01    0.02
   0  -1  -1    0.01    0.02
   0   1   1    0.03    0.03
   0  -1  -2   11.37    0.26
   0   1   2   11.20    0.45
   0  -1  -3    7.60    0.21
   0   1   3    7.95    0.22
   0  -1  -4    0.46    0.05
   0   1   4    0.49    0.07
   0  -1  -5  170.83    4.31
   0   1   5  169.15    4.30
   0  -1  -6   34.21    0.93
   0   1   6   33.79    0.93
   0  -1  -7   30.62    0.89
   0   1   7   29.10    0.95
   0  -1  -8    5.85    0.22
   0   1   8    5.57    0.21
   0  -1  -9    6.85    0.35
   0   1   9    7.83    0.25
   0  -1 -10    0.72    0.11
   0   1  10    0.62    0.12
   0  -1 -11    1.43    0.12
   0   1  11    1.46    0.15
   0  -1 -12    0.41    0.10
   0   1  12    0.42    0.18
   0  -1 -13    0.42    0.43
   0   1  13    0.74    0.29
   0  -2  12    7.12    0.51
   0   2 -12    7.80    0.80
   0  -2  11   -0.02    0.16
   0   2 -11    0.12    0.25
   0  -2  10    0.57    0.13
   0   2 -10    0.41    0.16
   0  -2   9    0.93    0.12
   0   2  -9    1.05    0.15
   0  -2   8    0.02    0.08
   0   2  -8   -0.03    0.12
   0  -2   7    0.02    0.07
   0   2  -7    0.08    0.08
   0  -2   6   -0.09    0.07
   0   2  -6   -0.01    0.06
   0  -2   5   24.24    0.78
   0   2  -5   23.43    0.58
   0  -2   4    5.05    0.15
   0   2  -4    5.22    0.26
   0  -2   3   15.37    0.31
   0   2  -3   14.79    0.44
   0  -2   2   23.90    0.48
   0   2  -2   23.29    0.62
   0  -2   0  114.65    2.70
   0   2   0  113.25    2.22
   0  -2  -1   73.41    1.25
   0   2   1   70.71    1.19
   0  -2  -2   15.17    0.31
   0   2   2   15.05    0.34
   0  -2  -3    7.26    0.18
   0   2   3    7.12    0.19
   0  -2  -4   56.45    1.13
   0   2   4   55.92    1.17
   0  -2  -5    7.14    0.19
   0   2   5    6.67    0.21
   0  -2  -6    3.88    0.20
   0   2   6    3.92    0.17
   0  -2  -7    1.67    0.11
   0   2   7    1.82    0.12
   0  -2  -8    0.82    0.11
   0   2   8    0.71    0.09
   0  -2  -9    0.43    0.09
   0   2   9    0.47    0.09
   0  -2 -10    6.36    0.26
   0   2  10    6.09    0.22
   0  -2 -11    8.48    0.36
   0   2  11    8.48    0.30
   0  -2 -12    0.77    0.17
   0   2  12    0.43    0.15
   0  -2 -13    0.76    0.16
   0   2  13    0.70    0.22
   0  -3  11    1.14    0.29
   0   3 -11    0.97    0.47
   0  -3  10    0.05    0.14
   0   3 -10   -0.08    0.17
   0  -3   9    0.03    0.12
   0   3  -9    0.13    0.12
   0  -3   8   -0.03    0.13
   0   3  -8    0.17    0.12
   0  -3   7    3.58    0.17
   0   3  -7    3.64    0.20
   0  -3   6    3.82    0.24
   0   3  -6    3.91    0.18
   0  -3   5   16.77    0.48
   0   3  -5   16.77    0.46
   0  -3   4   18.29    0.38
   0   3  -4   19.11    0.47
   0  -3   3    4.51    0.15
   0   3  -3    4.23    0.15
   0  -3   2   42.16    0.88
   0   3  -2   42.48    0.91
   0  -3   1    1.37    0.10
   0   3  -1    1.30    0.06
   0  -3   0   96.42    1.80
   0   3   0   95.51    1.65
   0  -3  -1    8.29    0.18
   0   3   1    7.91    0.17
   0  -3  -2    0.91    0.06
   0   3   2    0.99    0.05
   0  -3  -3   12.76    0.27
   0   3   3   12.38    0.30
   0  -3  -4  124.80    2.41
   0   3   4  124.38    2.15
   0  -3  -5    1.54    0.10
   0   3   5    1.46    0.10
   0  -3  -6    2.09    0.12
   0   3   6    2.35    0.13
   0  -3  -7    3.94    0.17
   0   3   7    4.19    0.15
   0  -3  -8    0.29    0.10
   0   3   8    0.37    0.08
   0  -3  -9    6.78    0.27
   0   3   9    6.44    0.22
   0  -3 -10    0.31    0.12
   0   3  10    0.25    0.11
   0  -3 -11    1.51    0.18
   0   3  11    1.52    0.15
   0  -3 -12    1.09    0.21
   0   3  12    0.62    0.14
   0  -3 -13    6.66    0.75
   0   3  13    7.08    0.43
   0  -3 -14    0.10    0.54
   0   3  14    0.36    0.30
   0  -4  11    0.83    0.40
   0  -4  10   -0.04    0.23
   0   4 -10    0.07    0.12
   0  -4   9    3.56    0.24
   0   4  -9    3.53    0.20
   0  -4   8    0.79    0.13
   0   4  -8    0.84    0.15
   0  -4   7    0.58    0.11
   0   4  -7    0.65    0.12
   0  -4   6   17.90    0.92
   0   4  -6   17.26    0.49
   0  -4   5   -0.05    0.09
   0   4  -5    0.11    0.09
   0  -4   4    0.10    0.04
   0   4  -4    0.18    0.08
   0  -4   3   21.12    0.52
   0   4  -3   22.21    0.49
   0  -4   2    9.32    0.34
   0   4  -2    9.32    0.23
   0  -4   1    2.29    0.14
   0   4  -1    2.49    0.09
   0  -4   0    2.79    0.14
   0   4   0    2.92    0.10
   0  -4  -1   70.20    1.27
   0   4   1   64.71    1.33
   0  -4  -2   36.23    0.80
   0   4   2   33.89    0.64
   0  -4  -3   47.22    0.89
   0   4   3   45.41    0.97
   0  -4  -4    0.18    0.06
   0   4   4    0.01    0.05
   0  -4  -5   17.28    0.37
   0   4   5   17.10    0.41
   0  -4  -6    0.82    0.07
   0   4   6    0.55    0.09
   0  -4  -7   24.09    0.58
   0   4   7   23.16    0.50
   0  -4  -8   14.82    0.43
   0   4   8   14.16    0.34
   0  -4  -9   12.18    0.38
   0   4   9   11.67    0.30
   0  -4 -10    2.12    0.17
   0   4  10    2.08    0.14
   0  -4 -11    0.32    0.11
   0   4  11    0.48    0.12
   0  -4 -12    2.08    0.26
   0   4  12    1.84    0.17
   0  -4 -13    0.02    0.16
   0   4  13   -0.28    0.22
   0  -4 -14    0.30    0.24
   0   4  14    0.12    0.31
   0  -5  10    1.92    0.31
   0   5 -10    2.24    0.23
   0  -5   9   10.54    0.53
   0   5  -9   10.90    0.42
   0  -5   8    0.58    0.15
   0   5  -8    0.64    0.12
   0  -5   7    0.26    0.14
   0   5  -7    0.52    0.11
   0  -5   6    0.08    0.08
   0   5  -6    0.05    0.08
   0  -5   5    0.84    0.05
   0   5  -5    0.94    0.10
   0  -5   4    3.51    0.14
   0   5  -4    3.26    0.14
   0  -5   3    5.74    0.18
   0   5  -3    6.01    0.18
   0  -5   2    4.72    0.16
   0   5  -2    4.64    0.17
   0  -5   1    5.95    0.18
   0   5  -1    6.28    0.17
   0  -5   0    4.29    0.19
   0   5   0    4.08    0.12
   0  -5  -1    1.23    0.11
   0   5   1    1.29    0.09
   0  -5  -2   18.19    0.37
   0   5   2   17.18    0.35
   0  -5  -3    3.93    0.15
   0   5   3    4.01    0.13
   0  -5  -4    1.61    0.08
   0   5   4    1.72    0.09
   0  -5  -5    0.21    0.07
   0   5   5    0.11    0.07
   0  -5  -6    5.75    0.18
   0   5   6    5.86    0.21
   0  -5  -7    6.41    0.21
   0   5   7    6.60    0.23
   0  -5  -8   82.44    1.63
   0   5   8   78.28    1.47
   0  -5  -9    7.61    0.26
   0   5   9    7.83    0.25
   0  -5 -10    0.26    0.10
   0   5  10   -0.17    0.12
   0  -5 -11    0.13    0.11
   0   5  11    0.03    0.12
   0  -5 -12    0.35    0.17
   0   5  12    0.14    0.13
   0  -5 -13    0.89    0.20
   0   5  13    0.60    0.18
   0  -5 -14    1.21    0.31
   0   5  14    1.10    0.29
   0  -6   9    2.61    0.31
   0   6  -9    2.93    0.26
   0  -6   8    0.05    0.16
   0   6  -8    0.09    0.13
   0  -6   7    1.57    0.20
   0   6  -7    1.67    0.14
   0  -6   6    1.73    0.13
   0   6  -6    1.78    0.14
   0  -6   5    0.32    0.06
   0   6  -5    0.47    0.09
   0  -6   4   31.10    0.73
   0   6  -4   30.68    0.65
   0  -6   3    0.42    0.07
   0   6  -3    0.29    0.08
   0  -6   2    6.99    0.20
   0   6  -2    7.36    0.20
   0  -6   1    1.28    0.14
   0   6  -1    1.20    0.08
   0  -6   0    0.74    0.11
   0   6   0    0.85    0.10
   0  -6  -1    4.59    0.21
   0   6   1    4.46    0.16
   0  -6  -2   96.36    2.36
   0   6   2   92.37    1.93
   0  -6  -3   -0.13    0.04
   0   6   3    0.08    0.05
   0  -6  -4    7.77    0.22
   0   6   4    7.84    0.22
   0  -6  -5   12.10    0.29
   0   6   5   11.72    0.32
   0  -6  -6    0.18    0.09
   0   6   6    0.26    0.07
   0  -6  -7   75.78    1.44
   0   6   7   74.56    1.65
   0  -6  -8    2.03    0.13
   0   6   8    2.04    0.15
   0  -6  -9   29.13    0.68
   0   6   9   29.47    0.74
   0  -6 -10    0.16    0.10
   0   6  10    0.01    0.10
   0  -6 -11    0.63    0.21
   0   6  11    0.64    0.14
   0  -6 -12   -0.43    0.21
   0   6  12   -0.08    0.13
   0  -6 -13   14.87    0.78
   0   6  13   14.77    0.73
   0  -7   7   -0.14    0.22
   0   7  -7    0.17    0.12
   0  -7   6    4.84    0.25
   0   7  -6    4.91    0.21
   0  -7   5    0.11    0.06
   0   7  -5    0.07    0.09
   0  -7   4   10.94    0.39
   0   7  -4   10.60    0.30
   0  -7   3    3.02    0.13
   0   7  -3    3.01    0.15
   0  -7   2    4.89    0.12
   0   7  -2    4.84    0.17
   0  -7   1    6.67    0.31
   0   7  -1    7.06    0.21
   0  -7   0    2.57    0.18
   0   7   0    2.30    0.13
   0  -7  -1   18.02    0.59
   0   7   1   17.18    0.44
   0  -7  -2    1.16    0.14
   0   7   2    1.04    0.11
   0  -7  -3   27.43    0.84
   0   7   3   27.36    0.80
   0  -7  -4    0.18    0.05
   0   7   4    0.24    0.07
   0  -7  -5    0.43    0.09
   0   7   5    0.76    0.09
   0  -7  -6    2.72    0.18
   0   7   6    2.85    0.14
   0  -7  -7  160.12    3.42
   0   7   7  153.53    3.07
   0  -7  -8    5.81    0.26
   0   7   8    5.77    0.24
   0  -7  -9   17.20    0.54
   0   7   9   16.76    0.47
   0  -7 -10    1.06    0.20
   0   7  10    0.99    0.14
   0  -7 -11    3.55    0.30
   0   7  11    3.25    0.22
   0  -7 -12    2.35    0.29
   0   7  12    2.01    0.23
   0  -7 -13    0.41    0.27
   0   7  13    0.18    0.23
   0  -8   6    0.48    0.26
   0   8  -6    0.05    0.13
   0  -8   5    3.53    0.32
   0   8  -5    3.62    0.21
   0  -8   4    0.72    0.20
   0   8  -4    0.57    0.11
   0  -8   3    0.61    0.15
   0   8  -3    0.76    0.11
   0  -8   2    0.05    0.12
   0   8  -2    0.08    0.08
   0  -8   1    0.58    0.16
   0   8  -1    0.51    0.12
   0  -8   0    0.48    0.16
   0   8   0    0.17    0.14
   0  -8  -1   18.24    0.61
   0   8   1   17.82    0.48
   0  -8  -2   -0.04    0.13
   0   8   2    0.20    0.12
   0  -8  -3   -0.01    0.14
   0   8   3    0.34    0.16
   0  -8  -4    0.05    0.15
   0   8   4    0.87    0.28
   0  -8  -5    0.05    0.05
   0   8   5    0.13    0.08
   0  -8  -6    5.65    0.25
   0   8   6    5.21    0.21
   0  -8  -7   10.22    0.35
   0   8   7    9.71    0.32
   0  -8  -8    5.31    0.26
   0   8   8    5.94    0.30
   0  -8  -9   -0.04    0.14
   0   8   9   -0.02    0.13
   0  -8 -10    0.17    0.21
   0   8  10    0.06    0.14
   0  -8 -11    0.32    0.25
   0   8  11    0.04    0.14
   0  -8 -12    1.85    0.31
   0   8  12    1.63    0.27
   0  -9   4    0.19    0.30
   0   9  -4    0.33    0.18
   0  -9   3    0.52    0.21
   0   9  -3    0.42    0.12
   0  -9   2    1.00    0.21
   0   9  -2    0.97    0.16
   0  -9   1   -0.13    0.14
   0   9  -1    0.15    0.12
   0  -9   0    4.75    0.28
   0   9   0    4.57    0.23
   0  -9  -1    0.97    0.18
   0   9   1    1.21    0.18
   0  -9  -2    4.63    0.27
   0   9   2    4.62    0.26
   0  -9  -3   -0.11    0.14
   0   9   3    0.03    0.14
   0  -9  -4    0.16    0.15
   0   9   4    0.02    0.14
   0  -9  -5    0.09    0.14
   0   9   5    0.07    0.15
   0  -9  -6    1.46    0.19
   0   9   6    1.58    0.13
   0  -9  -7    0.87    0.09
   0   9   7    1.04    0.13
   0  -9  -8    0.79    0.18
   0   9   8    1.06    0.15
   0  -9  -9    2.31    0.28
   0   9   9    2.43    0.19
   0  -9 -10    0.86    0.25
   0   9  10    0.56    0.16
   0  -9 -11    2.08    0.32
   0   9  11    2.66    0.24
   0  -9 -12   -0.08    0.20
   0   9  12    0.06    0.25
   0  10  -2    0.73    0.18
   0 -10   1    0.35    0.33
   0  10  -1    0.21    0.16
   0  10   0    0.30    0.21
   0 -10  -1    0.24    0.18
   0  10   1    0.24    0.17
   0 -10  -2    0.27    0.20
   0  10   2    0.15    0.20
   0 -10  -3    5.49    0.34
   0  10   3    6.09    0.34
   0 -10  -4    0.22    0.18
   0  10   4    0.43    0.18
   0 -10  -5   -0.02    0.15
   0  10   5   -0.10    0.17
   0 -10  -6    0.49    0.16
   0  10   6    0.47    0.18
   0 -10  -7    1.90    0.25
   0  10   7    2.14    0.16
   0 -10  -8    2.53    0.28
   0  10   8    3.13    0.20
   0 -10  -9    0.33    0.22
   0  10   9    0.55    0.16
   0 -10 -10    1.69    0.43
   0  10  10    1.19    0.21
   0  11   0    0.01    0.30
   0  11   1    0.03    0.32
   0  11   2   -0.11    0.26
   0  11   3   -0.33    0.27
   0 -11  -4    4.57    0.54
   0  11   4    5.51    0.46
   0 -11  -5    0.50    0.39
   0  11   5    0.02    0.27
   0 -11  -6    1.00    0.46
   0  11   6    0.53    0.36
   0 -11  -7    0.54    0.42
   0  11   7    0.33    0.33
   0 -11  -8    1.08    0.35
   0  11   8    1.68    0.40
   1  11   9    0.18    0.38
  -1 -11  -9   -0.14    0.38
   1  11   8    0.69    0.40
  -1 -11  -8    0.72    0.43
   1  11   7    0.97    0.25
  -1 -11  -7    1.39    0.34
   1  11   6    4.12    0.38
  -1 -11  -6    3.61    0.36
   1  11   5    2.95    0.35
  -1 -11  -5    2.65    0.32
   1  11   4    0.05    0.25
  -1 -11  -4   -0.18    0.31
   1  11   3   -0.10    0.24
  -1 -11  -3    0.35    0.33
   1  11   2    0.05    0.25
   1  11   1    0.49    0.19
   1  11   0    0.73    0.21
   1  10  11    2.93    0.28
  -1 -10 -11    2.48    0.35
   1  10  10    0.30    0.16
  -1 -10 -10    0.20    0.26
   1  10   9   -0.11    0.12
  -1 -10  -9   -0.07    0.25
   1  10   8    0.33    0.13
  -1 -10  -8    0.69    0.26
   1  10   7    8.27    0.29
  -1 -10  -7    7.05    0.42
   1  10   6    6.56    0.37
  -1 -10  -6    8.03    0.42
   1  10   5    4.07    0.34
  -1 -10  -5    3.91    0.33
   1  10   4    0.26    0.21
  -1 -10  -4   -0.01    0.20
   1  10   3    0.71    0.24
  -1 -10  -3    0.16    0.32
   1  10   2    0.44    0.20
  -1 -10  -2    0.12    0.26
   1  10   1    0.53    0.24
  -1 -10  -1    0.37    0.28
   1  10   0    7.85    0.36
  -1 -10   0    6.17    0.66
   1  10  -1   -0.06    0.15
  -1 -10   1    0.04    0.32
   1  10  -2    0.14    0.16
  -1 -10   2   -0.35    0.34
   1  10  -3   -0.03    0.16
   1   9  12    0.52    0.22
  -1  -9 -12    0.69    0.29
   1   9  11    1.55    0.20
  -1  -9 -11    2.23    0.29
   1   9  10    2.13    0.21
  -1  -9 -10    1.95    0.29
   1   9   9    0.47    0.14
  -1  -9  -9    0.17    0.18
   1   9   8   14.63    0.47
  -1  -9  -8   14.37    0.41
   1   9   7    6.27    0.25
  -1  -9  -7    6.27    0.29
   1   9   6   94.82    1.97
  -1  -9  -6   95.95    2.15
   1   9   5    1.02    0.20
  -1  -9  -5    1.28    0.17
   1   9   4    0.28    0.15
  -1  -9  -4   -0.29    0.19
   1   9   3    0.03    0.09
  -1  -9  -3   -0.04    0.16
   1   9   2    8.76    0.30
  -1  -9  -2    9.06    0.64
   1   9   1    0.87    0.22
  -1  -9  -1    1.03    0.21
   1   9   0    5.23    0.26
  -1  -9   0    5.87    0.34
   1   9  -1    1.17    0.24
  -1  -9   1    0.44    0.21
   1   9  -2    1.75    0.13
  -1  -9   2    1.68    0.36
   1   9  -3    0.81    0.12
  -1  -9   3    0.87    0.22
   1   9  -4    0.45    0.17
  -1  -9   4    0.72    0.24
   1   9  -5    4.69    0.59
   1   8  12    8.25    0.83
  -1  -8 -12   10.28    0.60
   1   8  11    0.20    0.16
  -1  -8 -11   -0.06    0.17
   1   8  10    0.14    0.13
  -1  -8 -10    0.08    0.12
   1   8   9   -0.05    0.13
  -1  -8  -9    0.17    0.11
   1   8   8   14.95    0.45
  -1  -8  -8   14.85    0.39
   1   8   7    5.12    0.22
  -1  -8  -7    5.09    0.18
   1   8   6   29.46    0.73
  -1  -8  -6   30.20    0.88
   1   8   5    0.66    0.08
  -1  -8  -5    0.69    0.14
   1   8   4    4.03    0.20
  -1  -8  -4    4.50    0.27
   1   8   3    0.53    0.11
  -1  -8  -3    0.70    0.18
   1   8   2    0.03    0.12
  -1  -8  -2    0.15    0.16
   1   8   1   25.09    0.80
  -1  -8  -1   26.08    0.82
   1   8   0    1.08    0.13
  -1  -8   0    1.00    0.19
   1   8  -1    1.73    0.12
  -1  -8   1    1.52    0.20
   1   8  -2    0.07    0.07
  -1  -8   2    0.05    0.16
   1   8  -3    0.21    0.10
  -1  -8   3    0.17    0.16
   1   8  -4    0.29    0.10
  -1  -8   4    0.22    0.11
   1   8  -5    7.99    0.32
  -1  -8   5    7.75    0.40
   1   8  -6    0.18    0.14
  -1  -8   6    0.13    0.35
   1   7  13    2.83    0.32
  -1  -7 -13    2.55    0.24
   1   7  12    0.19    0.17
  -1  -7 -12    0.03    0.16
   1   7  11   -0.04    0.15
  -1  -7 -11    0.63    0.15
   1   7  10    0.10    0.11
  -1  -7 -10    0.06    0.09
   1   7   9    0.67    0.13
  -1  -7  -9    0.61    0.10
   1   7   8    6.72    0.26
  -1  -7  -8    6.93    0.23
   1   7   7   35.53    0.83
  -1  -7  -7   36.96    0.79
   1   7   6    2.96    0.15
  -1  -7  -6    2.91    0.12
   1   7   5    2.50    0.12
  -1  -7  -5    2.23    0.08
   1   7   4    0.15    0.05
  -1  -7  -4    0.04    0.12
   1   7   3    1.01    0.12
  -1  -7  -3    0.48    0.13
   1   7   2    4.87    0.20
  -1  -7  -2    4.50    0.25
   1   7   1    3.05    0.15
  -1  -7  -1    2.72    0.21
   1   7   0    0.44    0.09
  -1  -7   0    0.68    0.13
   1   7  -1    2.57    0.13
  -1  -7   1    2.12    0.20
   1   7  -2    0.07    0.07
  -1  -7   2    0.07    0.15
   1   7  -3    0.61    0.11
  -1  -7   3    0.52    0.08
   1   7  -4    2.38    0.14
  -1  -7   4    2.31    0.11
   1   7  -5    1.17    0.12
  -1  -7   5    0.92    0.09
   1   7  -6    0.08    0.11
  -1  -7   6   -0.05    0.10
   1   7  -7    0.11    0.14
  -1  -7   7    0.23    0.26
   1   6  13    0.11    0.18
  -1  -6 -13    0.50    0.23
   1   6  12   -0.05    0.17
  -1  -6 -12   -0.16    0.15
   1   6  11    3.72    0.24
  -1  -6 -11    3.64    0.16
   1   6  10    0.20    0.12
  -1  -6 -10    0.15    0.09
   1   6   9    7.31    0.28
  -1  -6  -9    6.99    0.21
   1   6   8   17.73    0.48
  -1  -6  -8   18.09    0.41
   1   6   7    5.21    0.21
  -1  -6  -7    4.98    0.17
   1   6   6   22.91    0.56
  -1  -6  -6   22.10    0.49
   1   6   5    0.54    0.07
  -1  -6  -5    0.53    0.06
   1   6   4   17.35    0.37
  -1  -6  -4   17.91    0.57
   1   6   3    0.35    0.05
  -1  -6  -3    0.17    0.12
   1   6   2   23.91    0.59
  -1  -6  -2   24.19    0.71
   1   6   1    7.84    0.27
  -1  -6  -1    8.40    0.32
   1   6   0   21.63    0.46
  -1  -6   0   22.30    0.70
   1   6  -1    0.51    0.07
  -1  -6   1    0.35    0.13
   1   6  -2    0.08    0.07
  -1  -6   2    0.04    0.06
   1   6  -3    0.89    0.10
  -1  -6   3    0.75    0.10
   1   6  -4    4.07    0.21
  -1  -6   4    3.95    0.12
   1   6  -5    0.27    0.11
  -1  -6   5    0.18    0.06
   1   6  -6    0.06    0.12
  -1  -6   6    0.05    0.06
   1   6  -7    4.17    0.26
  -1  -6   7    3.71    0.28
   1   6  -8    0.02    0.17
  -1  -6   8    0.07    0.19
   1   6  -9   -0.04    0.20
  -1  -6   9    0.64    0.43
   1   5  14    1.37    0.30
  -1  -5 -14    1.23    0.29
   1   5  13    0.50    0.19
  -1  -5 -13    0.45    0.15
   1   5  12    8.02    0.34
  -1  -5 -12    8.31    0.36
   1   5  11    1.28    0.14
  -1  -5 -11    1.51    0.12
   1   5  10    3.83    0.18
  -1  -5 -10    4.10    0.16
   1   5   9    0.13    0.09
  -1  -5  -9    0.26    0.08
   1   5   8    4.99    0.29
  -1  -5  -8    4.52    0.15
   1   5   7    0.15    0.15
  -1  -5  -7    0.25    0.06
   1   5   6    3.41    0.21
  -1  -5  -6    3.75    0.12
   1   5   5    2.99    0.19
  -1  -5  -5    2.87    0.11
   1   5   4    0.08    0.07
  -1  -5  -4    0.12    0.04
   1   5   3   42.80    0.94
  -1  -5  -3   44.49    1.18
   1   5   2    4.91    0.14
  -1  -5  -2    4.95    0.23
   1   5   1    0.02    0.06
  -1  -5  -1    0.01    0.09
   1   5   0    1.81    0.07
  -1  -5   0    1.84    0.14
   1   5  -1   14.22    0.38
  -1  -5   1   14.27    0.34
   1   5  -2   -0.01    0.13
  -1  -5   2    0.01    0.07
   1   5  -3    6.08    0.30
  -1  -5   3    6.27    0.22
   1   5  -4    0.64    0.16
  -1  -5   4    0.80    0.06
   1   5  -5    3.16    0.25
  -1  -5   5    2.73    0.12
   1   5  -6    1.19    0.22
  -1  -5   6    1.22    0.07
   1   5  -7    0.00    0.12
  -1  -5   7    0.02    0.10
   1   5  -8    2.72    0.23
  -1  -5   8    2.14    0.24
   1   5  -9    0.03    0.19
  -1  -5   9   -0.04    0.21
   1   5 -10   -0.62    0.53
  -1  -5  10    0.32    0.26
   1   4  14    0.44    0.27
  -1  -4 -14   -0.71    0.52
   1   4  13    0.34    0.15
  -1  -4 -13    0.43    0.20
   1   4  12    0.08    0.16
  -1  -4 -12    0.12    0.12
   1   4  11    2.20    0.17
  -1  -4 -11    2.34    0.13
   1   4  10   14.50    0.40
  -1  -4 -10   14.30    0.38
   1   4   9    2.16    0.16
  -1  -4  -9    2.26    0.11
   1   4   8    0.59    0.08
  -1  -4  -8    0.52    0.06
   1   4   7    0.91    0.11
  -1  -4  -7    0.92    0.07
   1   4   6    1.27    0.16
  -1  -4  -6    1.10    0.06
   1   4   5   10.54    0.34
  -1  -4  -5   10.41    0.22
   1   4   4    0.79    0.08
  -1  -4  -4    0.85    0.06
   1   4   3    5.76    0.16
  -1  -4  -3    5.59    0.16
   1   4   2   11.97    0.30
  -1  -4  -2   12.16    0.40
   1   4   1    5.59    0.16
  -1  -4  -1    5.96    0.23
   1   4   0   70.15    1.45
  -1  -4   0   71.57    1.76
   1   4  -1   86.62    1.84
  -1  -4   1   88.64    1.87
   1   4  -2  179.79    4.51
  -1  -4   2  182.40    3.76
   1   4  -3   12.30    0.44
  -1  -4   3   12.07    0.28
   1   4  -4    5.49    0.30
  -1  -4   4    5.04    0.14
   1   4  -5    0.84    0.18
  -1  -4   5    1.12    0.07
   1   4  -6    0.43    0.19
  -1  -4   6    0.46    0.11
   1   4  -7    0.41    0.18
  -1  -4   7    0.10    0.08
   1   4  -8    0.09    0.24
  -1  -4   8    0.08    0.11
   1   4  -9   -0.04    0.29
  -1  -4   9   -0.02    0.18
   1   4 -10   -0.05    0.48
  -1  -4  10    0.17    0.23
   1   3  14   -0.07    0.46
  -1  -3 -14   -0.73    0.52
   1   3  13    2.06    0.23
  -1  -3 -13    2.55    0.55
   1   3  12    0.92    0.14
  -1  -3 -12    1.21    0.15
   1   3  11    1.75    0.14
  -1  -3 -11    1.99    0.11
   1   3  10    1.57    0.13
  -1  -3 -10    1.53    0.09
   1   3   9    4.74    0.18
  -1  -3  -9    4.61    0.15
   1   3   8   20.31    0.55
  -1  -3  -8   20.23    0.41
   1   3   7   14.34    0.37
  -1  -3  -7   14.48    0.31
   1   3   6   47.10    0.88
  -1  -3  -6   48.83    0.87
   1   3   5   68.21    1.24
  -1  -3  -5   70.11    1.14
   1   3   4  285.77    6.73
  -1  -3  -4  284.44    5.35
   1   3   3    1.27    0.08
  -1  -3  -3    1.10    0.06
   1   3   2   13.98    0.33
  -1  -3  -2   13.25    0.30
   1   3   1    5.77    0.16
  -1  -3  -1    6.36    0.23
   1   3   0   66.23    1.35
  -1  -3   0   65.71    1.59
   1   3  -1   36.45    0.79
  -1  -3   1   36.68    0.79
   1   3  -2   33.36    0.81
  -1  -3   2   32.32    0.77
   1   3  -3    4.90    0.16
  -1  -3   3    4.29    0.12
   1   3  -4    5.32    0.19
  -1  -3   4    5.62    0.14
   1   3  -5   11.57    0.45
  -1  -3   5   10.15    0.26
   1   3  -6    3.56    0.18
  -1  -3   6    3.20    0.15
   1   3  -7   57.20    1.73
  -1  -3   7   57.80    1.22
   1   3  -8   -0.08    0.21
  -1  -3   8    0.14    0.08
   1   3  -9    0.43    0.23
  -1  -3   9    0.13    0.10
   1   3 -10    1.23    0.33
  -1  -3  10    1.25    0.25
   1   3 -11    0.52    0.50
  -1  -3  11    0.66    0.27
   1   2  13   -0.17    0.16
  -1  -2 -13   -0.01    0.17
   1   2  12   15.29    0.56
  -1  -2 -12   14.62    0.60
   1   2  11    4.90    0.22
  -1  -2 -11    4.59    0.26
   1   2  10   10.91    0.34
  -1  -2 -10   10.96    0.40
   1   2   9    9.59    0.31
  -1  -2  -9   10.14    0.29
   1   2   8   55.68    1.13
  -1  -2  -8   54.90    1.08
   1   2   7    0.76    0.08
  -1  -2  -7    0.59    0.05
   1   2   6    9.32    0.23
  -1  -2  -6    9.73    0.21
   1   2   5   11.68    0.26
  -1  -2  -5   11.45    0.24
   1   2   4   16.05    0.40
  -1  -2  -4   16.89    0.30
   1   2   3  145.47    2.92
  -1  -2  -3  149.34    2.48
   1   2   2   27.71    0.58
  -1  -2  -2   26.48    0.59
   1   2   1  154.79    2.94
  -1  -2  -1  155.46    3.62
   1   2   0    4.22    0.14
  -1  -2   0    4.35    0.13
   1   2  -2    5.67    0.18
  -1  -2   2    5.64    0.14
   1   2  -3   32.49    0.74
  -1  -2   3   31.39    0.55
   1   2  -4    7.87    0.27
  -1  -2   4    7.53    0.19
   1   2  -5   56.62    1.27
  -1  -2   5   53.00    1.08
   1   2  -6    4.66    0.21
  -1  -2   6    4.71    0.18
   1   2  -7    2.24    0.15
  -1  -2   7    2.27    0.13
   1   2  -8    1.21    0.21
  -1  -2   8    1.29    0.12
   1   2  -9    0.77    0.24
  -1  -2   9    0.75    0.13
   1   2 -10    5.96    0.42
  -1  -2  10    5.71    0.29
   1   2 -11    0.62    0.32
  -1  -2  11    0.71    0.23
   1   2 -12    6.42    0.79
  -1  -2  12    7.08    0.51
   1   1  13    0.02    0.17
  -1  -1 -13   -0.17    0.21
   1   1  12    0.07    0.15
  -1  -1 -12    0.07    0.08
   1   1  11    2.46    0.17
  -1  -1 -11    2.47    0.17
   1   1  10    0.02    0.09
  -1  -1 -10    0.06    0.10
   1   1   9    1.28    0.13
  -1  -1  -9    1.01    0.14
   1   1   8    7.32    0.22
  -1  -1  -8    7.19    0.27
   1   1   7    5.61    0.18
  -1  -1  -7    5.74    0.18
   1   1   6    0.22    0.05
  -1  -1  -6    0.22    0.05
   1   1   5  182.16    3.69
  -1  -1  -5  180.98    3.07
   1   1   4    0.48    0.06
  -1  -1  -4    0.47    0.02
   1   1   3    0.09    0.03
  -1  -1  -3    0.09    0.03
   1   1   2    2.31    0.09
  -1  -1  -2    2.39    0.12
   1   1   1    3.09    0.13
  -1  -1  -1    3.23    0.14
   1   1   0    3.45    0.11
  -1  -1   0    3.51    0.09
   1   1  -1    4.42    0.11
  -1  -1   1    4.27    0.11
   1   1  -2    2.29    0.08
  -1  -1   2    2.34    0.08
   1   1  -3    5.52    0.14
  -1  -1   3    5.63    0.13
   1   1  -4    0.11    0.04
  -1  -1   4    0.17    0.05
   1   1  -5    0.03    0.05
  -1  -1   5    0.11    0.08
   1   1  -6   30.06    0.64
  -1  -1   6   30.20    0.64
   1   1  -7    7.94    0.24
  -1  -1   7    8.07    0.24
   1   1  -8   12.59    0.32
  -1  -1   8   12.18    0.33
   1   1  -9    0.62    0.08
  -1  -1   9    0.58    0.11
   1   1 -10    1.15    0.10
  -1  -1  10    0.85    0.12
   1   1 -11    0.11    0.39
  -1  -1  11    0.05    0.17
   1   1 -12    0.77    0.53
  -1  -1  12    0.59    0.22
   1   0  13    0.86    0.24
  -1   0 -13    0.78    0.48
   1   0  12    0.02    0.17
  -1   0 -12   -0.08    0.06
   1   0  11   12.78    0.46
  -1   0 -11   11.10    0.43
   1   0  10    0.01    0.10
  -1   0 -10    0.02    0.10
   1   0   9    3.55    0.16
  -1   0  -9    3.56    0.10
   1   0   8    8.80    0.31
  -1   0  -8    8.81    0.31
   1   0   7    0.15    0.11
  -1   0  -7   -0.03    0.07
   1   0   6    1.03    0.11
  -1   0  -6    1.11    0.12
   1   0   5    1.37    0.18
  -1   0  -5    1.56    0.12
   1   0   4  139.84    3.35
  -1   0  -4  138.94    2.34
   1   0   3   11.72    0.25
  -1   0  -3   11.40    0.25
   1   0   2   36.95    0.67
  -1   0  -2   36.62    0.68
   1   0   1   13.99    0.38
  -1   0  -1   14.80    0.41
   1   0   0   68.74    1.98
  -1   0   0   77.04    2.98
   1   0  -1   29.46    0.48
  -1   0   1   29.32    0.53
   1   0  -2   11.09    0.20
  -1   0   2   10.92    0.27
   1   0  -3    8.23    0.19
  -1   0   3    7.95    0.19
   1   0  -4    0.37    0.06
  -1   0   4    0.28    0.05
   1   0  -5   73.55    1.41
  -1   0   5   70.18    1.55
   1   0  -6    7.87    0.26
  -1   0   6    7.56    0.21
   1   0  -7    0.67    0.09
  -1   0   7    0.78    0.10
   1   0  -8    1.21    0.07
  -1   0   8    1.39    0.12
   1   0  -9    2.05    0.12
  -1   0   9    1.97    0.14
   1   0 -10    0.55    0.07
  -1   0  10    0.51    0.13
   1   0 -11    5.27    0.17
  -1   0  11    5.38    0.26
   1   0 -12    3.35    0.22
  -1   0  12    2.93    0.30
   1   0 -13    0.20    0.50
  -1   0  13    0.44    0.28
   1  -1  12    0.06    0.19
  -1   1 -12    0.43    0.17
   1  -1  11    0.05    0.15
  -1   1 -11   -0.01    0.06
   1  -1  10    3.55    0.19
  -1   1 -10    3.31    0.14
   1  -1   9    0.09    0.08
  -1   1  -9    0.00    0.05
   1  -1   8    0.02    0.08
  -1   1  -8    0.00    0.08
   1  -1   7    0.10    0.07
  -1   1  -7   -0.13    0.06
   1  -1   6    2.21    0.12
  -1   1  -6    2.46    0.11
   1  -1   5   22.79    0.96
  -1   1  -5   22.14    0.52
  -1   1  -4   56.70    1.52
   1  -1   3   39.78    1.50
  -1   1  -3   38.70    0.85
   1  -1   2   18.95    0.33
  -1   1  -2   18.25    0.36
   1  -1   1  104.38    2.05
  -1   1  -1   98.83    3.37
   1  -1   0    5.36    0.10
  -1   1   0    5.27    0.11
   1  -1  -1  159.51    3.03
  -1   1   1  156.03    5.14
   1  -1  -2   12.04    0.30
  -1   1   2   11.97    0.34
   1  -1  -3    1.57    0.10
  -1   1   3    1.76    0.10
   1  -1  -4    7.33    0.30
  -1   1   4    7.44    0.27
   1  -1  -5  109.89    2.30
  -1   1   5  102.18    2.67
   1  -1  -6    1.40    0.11
  -1   1   6    1.57    0.10
   1  -1  -7    0.94    0.09
  -1   1   7    0.84    0.10
   1  -1  -8    1.16    0.11
  -1   1   8    0.93    0.11
   1  -1  -9    1.49    0.10
  -1   1   9    1.42    0.13
   1  -1 -10    1.81    0.14
  -1   1  10    1.83    0.15
   1  -1 -11    0.38    0.08
  -1   1  11    0.20    0.12
   1  -1 -12    0.39    0.14
  -1   1  12    0.21    0.18
   1  -1 -13    0.38    0.50
  -1   1  13    0.17    0.25
   1  -2  12    0.25    0.23
  -1   2 -12    0.49    0.45
   1  -2  11    0.03    0.14
  -1   2 -11    0.12    0.09
   1  -2  10    0.33    0.13
  -1   2 -10    0.56    0.08
   1  -2   9   -0.08    0.11
  -1   2  -9    0.02    0.06
   1  -2   8   10.20    0.32
  -1   2  -8   10.27    0.25
   1  -2   7    2.27    0.12
  -1   2  -7    2.19    0.09
   1  -2   6    2.57    0.13
  -1   2  -6    2.69    0.10
   1  -2   5   28.72    0.91
  -1   2  -5   27.06    0.57
   1  -2   4    2.02    0.12
  -1   2  -4    1.82    0.08
   1  -2   3    3.61    0.11
  -1   2  -3    3.69    0.10
   1  -2   2   75.65    1.10
  -1   2  -2   70.59    1.13
   1  -2   1   18.26    0.31
  -1   2  -1   17.90    0.50
   1  -2   0    1.33    0.04
  -1   2   0    1.27    0.05
   1  -2  -1    4.51    0.10
  -1   2   1    4.36    0.11
   1  -2  -2   91.84    1.57
  -1   2   2   89.10    1.50
   1  -2  -3   68.41    1.22
  -1   2   3   65.84    1.16
   1  -2  -4   18.98    0.49
  -1   2   4   18.23    0.43
   1  -2  -5    0.12    0.08
  -1   2   5    0.25    0.08
   1  -2  -6    3.43    0.20
  -1   2   6    3.64    0.17
   1  -2  -7    0.25    0.09
  -1   2   7    0.21    0.07
   1  -2  -8    6.24    0.23
  -1   2   8    5.99    0.23
   1  -2  -9   24.44    0.58
  -1   2   9   23.87    0.54
   1  -2 -10    2.79    0.15
  -1   2  10    2.71    0.16
   1  -2 -11    0.11    0.09
  -1   2  11   -0.04    0.11
   1  -2 -12    0.21    0.16
  -1   2  12    0.15    0.14
   1  -2 -13    0.31    0.16
  -1   2  13    0.06    0.21
   1  -3  11   -0.16    0.24
  -1   3 -11    0.22    0.12
   1  -3  10   11.38    0.45
  -1   3 -10   11.66    0.38
   1  -3   9   14.83    0.43
  -1   3  -9   14.66    0.43
   1  -3   8   34.05    0.83
  -1   3  -8   33.06    0.78
   1  -3   7    0.63    0.10
  -1   3  -7    0.76    0.09
   1  -3   6    3.16    0.20
  -1   3  -6    3.49    0.16
   1  -3   5    1.22    0.08
  -1   3  -5    1.03    0.08
   1  -3   4   21.26    0.46
  -1   3  -4   21.23    0.46
   1  -3   3   11.28    0.26
  -1   3  -3   11.46    0.27
   1  -3   2    6.33    0.16
  -1   3  -2    5.89    0.15
   1  -3   1   22.13    0.40
  -1   3  -1   21.26    0.48
   1  -3   0   72.67    1.12
  -1   3   0   70.94    2.40
   1  -3  -1    3.25    0.08
  -1   3   1    3.33    0.12
   1  -3  -2    3.09    0.09
  -1   3   2    3.26    0.11
   1  -3  -3   67.43    1.20
  -1   3   3   63.83    1.13
   1  -3  -4    0.14    0.05
  -1   3   4    0.07    0.05
   1  -3  -5   22.70    0.46
  -1   3   5   21.76    0.45
   1  -3  -6    0.99    0.08
  -1   3   6    0.64    0.08
   1  -3  -7   12.35    0.36
  -1   3   7   12.20    0.33
   1  -3  -8    9.48    0.28
  -1   3   8   10.10    0.28
   1  -3  -9  104.20    2.07
  -1   3   9  101.53    1.92
   1  -3 -10    5.69    0.22
  -1   3  10    6.13    0.24
   1  -3 -11    0.03    0.12
  -1   3  11    0.02    0.11
   1  -3 -12   -0.01    0.13
  -1   3  12    0.07    0.13
   1  -3 -13    0.39    0.16
  -1   3  13    0.11    0.20
   1  -4  10   22.17    0.88
  -1   4 -10   24.05    0.79
   1  -4   9    7.62    0.32
  -1   4  -9    7.54    0.28
   1  -4   8    6.33    0.25
  -1   4  -8    6.19    0.24
   1  -4   7    0.28    0.12
  -1   4  -7    0.62    0.09
   1  -4   6    9.73    0.33
  -1   4  -6   10.06    0.30
   1  -4   5   10.27    0.28
  -1   4  -5   10.53    0.26
   1  -4   4    3.54    0.11
  -1   4  -4    3.59    0.13
   1  -4   3   91.06    1.92
  -1   4  -3   86.37    1.53
   1  -4   2    0.54    0.06
  -1   4  -2    0.53    0.05
   1  -4   1   46.77    0.77
  -1   4  -1   43.71    0.93
   1  -4   0    6.52    0.14
  -1   4   0    6.31    0.21
   1  -4  -1    0.50    0.04
  -1   4   1    0.44    0.06
   1  -4  -2   12.78    0.24
  -1   4   2   12.80    0.29
   1  -4  -3  225.77    3.74
  -1   4   3  220.47    4.21
   1  -4  -4    0.09    0.05
  -1   4   4    0.16    0.06
   1  -4  -5   17.30    0.38
  -1   4   5   16.66    0.34
   1  -4  -6   12.77    0.32
  -1   4   6   12.77    0.28
   1  -4  -7    0.09    0.07
  -1   4   7    0.11    0.08
   1  -4  -8   95.02    2.20
  -1   4   8   91.02    1.70
   1  -4  -9    0.06    0.11
  -1   4   9    0.11    0.09
   1  -4 -10   27.73    0.64
  -1   4  10   26.35    0.64
   1  -4 -11   -0.04    0.12
  -1   4  11    0.03    0.10
   1  -4 -12    0.93    0.20
  -1   4  12    0.94    0.19
   1  -4 -13   -0.01    0.16
  -1   4  13   -0.21    0.23
   1  -5   9   36.95    1.50
  -1   5  -9   37.02    1.20
   1  -5   8    0.99    0.16
  -1   5  -8    0.85    0.11
   1  -5   7    0.22    0.24
  -1   5  -7   -0.07    0.08
   1  -5   6   -0.06    0.11
  -1   5  -6    0.16    0.08
   1  -5   5   13.24    0.32
  -1   5  -5   13.06    0.32
   1  -5   4    0.07    0.04
  -1   5  -4    0.04    0.07
   1  -5   3   22.68    0.51
  -1   5  -3   22.27    0.48
   1  -5   2    9.83    0.31
  -1   5  -2   10.10    0.25
   1  -5   1   13.55    0.26
  -1   5  -1   12.83    0.34
   1  -5   0    9.60    0.19
  -1   5   0    9.46    0.31
   1  -5  -1    2.98    0.09
  -1   5   1    3.08    0.14
   1  -5  -2   43.42    0.72
  -1   5   2   42.28    1.10
   1  -5  -3    2.21    0.08
  -1   5   3    2.40    0.10
   1  -5  -4   35.93    0.62
  -1   5   4   34.13    0.72
   1  -5  -5    0.12    0.06
  -1   5   5    0.28    0.07
   1  -5  -6    0.12    0.07
  -1   5   6    0.09    0.08
   1  -5  -7    2.62    0.13
  -1   5   7    2.62    0.12
   1  -5  -8  151.34    3.20
  -1   5   8  143.88    2.56
   1  -5  -9    1.59    0.13
  -1   5   9    1.47    0.12
   1  -5 -10    9.70    0.31
  -1   5  10    9.40    0.29
   1  -5 -11    1.07    0.21
  -1   5  11    1.30    0.18
   1  -5 -12    2.33    0.30
  -1   5  12    2.83    0.24
   1  -5 -13    0.12    0.25
  -1   5  13    0.57    0.22
   1  -6   8    0.17    0.20
  -1   6  -8    0.34    0.13
   1  -6   7    0.02    0.15
  -1   6  -7   -0.02    0.11
   1  -6   6    1.74    0.13
  -1   6  -6    1.88    0.13
   1  -6   5    1.02    0.07
  -1   6  -5    1.16    0.12
   1  -6   4    4.97    0.23
  -1   6  -4    4.88    0.20
   1  -6   3    0.65    0.08
  -1   6  -3    0.79    0.09
   1  -6   2    3.28    0.13
  -1   6  -2    3.66    0.16
   1  -6   1    0.25    0.06
  -1   6  -1    0.12    0.10
   1  -6   0   -0.05    0.05
  -1   6   0   -0.07    0.09
   1  -6  -1    2.70    0.08
  -1   6   1    2.63    0.19
   1  -6  -2   30.37    0.54
  -1   6   2   29.02    0.77
   1  -6  -3    3.83    0.10
  -1   6   3    3.80    0.13
   1  -6  -4    1.96    0.10
  -1   6   4    2.09    0.12
   1  -6  -5    0.98    0.08
  -1   6   5    1.29    0.13
   1  -6  -6    0.10    0.09
  -1   6   6    0.32    0.08
   1  -6  -7    2.29    0.13
  -1   6   7    2.61    0.16
   1  -6  -8    9.71    0.29
  -1   6   8    9.71    0.31
   1  -6  -9    0.55    0.12
  -1   6   9    0.86    0.18
   1  -6 -10    0.11    0.13
  -1   6  10    0.12    0.13
   1  -6 -11    0.14    0.21
  -1   6  11    0.24    0.12
   1  -6 -12   -0.18    0.21
  -1   6  12    0.15    0.15
   1  -6 -13    0.54    0.26
  -1   6  13    0.29    0.20
  -1   7  -7    0.06    0.13
   1  -7   6    0.70    0.15
  -1   7  -6    0.76    0.12
   1  -7   5    0.58    0.11
  -1   7  -5    0.70    0.12
   1  -7   4    0.73    0.10
  -1   7  -4    0.57    0.10
   1  -7   3    0.62    0.08
  -1   7  -3    0.75    0.10
   1  -7   2    1.94    0.10
  -1   7  -2    2.02    0.13
   1  -7   1   10.13    0.25
  -1   7  -1    9.70    0.34
   1  -7   0    0.06    0.05
  -1   7   0   -0.08    0.09
   1  -7  -1   11.55    0.25
  -1   7   1   11.35    0.37
   1  -7  -2    0.63    0.05
  -1   7   2    0.71    0.11
   1  -7  -3   27.89    0.52
  -1   7   3   27.08    0.75
   1  -7  -4    0.67    0.07
  -1   7   4    0.67    0.09
   1  -7  -5    0.03    0.07
  -1   7   5    0.05    0.08
   1  -7  -6    0.21    0.07
  -1   7   6    0.18    0.09
   1  -7  -7   -0.06    0.10
  -1   7   7   -0.05    0.09
   1  -7  -8    0.09    0.09
  -1   7   8    0.03    0.10
   1  -7  -9    0.13    0.13
  -1   7   9    0.08    0.12
   1  -7 -10    3.13    0.29
  -1   7  10    3.02    0.21
   1  -7 -11    1.22    0.38
  -1   7  11    0.81    0.18
   1  -7 -12    4.77    0.39
  -1   7  12    5.96    0.33
   1  -8   5    1.39    0.33
  -1   8  -5    1.42    0.21
   1  -8   4    0.17    0.19
  -1   8  -4    0.18    0.14
   1  -8   3    0.31    0.08
  -1   8  -3    0.31    0.11
   1  -8   2    1.62    0.07
  -1   8  -2    1.32    0.17
   1  -8   1    3.86    0.17
  -1   8  -1    3.75    0.22
   1  -8   0    0.71    0.12
  -1   8   0    0.64    0.13
   1  -8  -1    0.21    0.11
  -1   8   1    0.17    0.10
   1  -8  -2    1.58    0.10
  -1   8   2    1.69    0.14
   1  -8  -3    0.15    0.04
  -1   8   3    0.33    0.10
   1  -8  -4   12.35    0.28
  -1   8   4   13.46    0.46
   1  -8  -5    0.71    0.08
  -1   8   5    0.59    0.09
   1  -8  -6    0.35    0.10
  -1   8   6    0.42    0.10
   1  -8  -7    0.26    0.10
  -1   8   7    0.54    0.12
   1  -8  -8    3.15    0.17
  -1   8   8    3.78    0.20
   1  -8  -9    4.93    0.24
  -1   8   9    5.36    0.25
   1  -8 -10    0.68    0.20
  -1   8  10    0.62    0.15
   1  -8 -11    1.64    0.25
  -1   8  11    2.01    0.22
  -1   8  12    0.69    0.22
  -1   9  -4    0.07    0.25
   1  -9   3    0.70    0.34
  -1   9  -3    0.07    0.23
   1  -9   2    0.87    0.21
  -1   9  -2    1.00    0.19
   1  -9   1    0.00    0.16
  -1   9  -1   -0.11    0.17
   1  -9   0    1.80    0.20
  -1   9   0    1.95    0.20
   1  -9  -1    0.17    0.11
  -1   9   1    0.03    0.11
   1  -9  -2    0.11    0.12
  -1   9   2    0.16    0.10
   1  -9  -3    0.04    0.07
  -1   9   3   -0.11    0.13
   1  -9  -4    0.27    0.07
  -1   9   4    0.53    0.13
   1  -9  -5   13.71    0.34
  -1   9   5   13.64    0.51
   1  -9  -6    1.08    0.11
  -1   9   6    1.26    0.14
   1  -9  -7   -0.07    0.15
  -1   9   7    0.11    0.11
   1  -9  -8    0.62    0.18
  -1   9   8    0.49    0.14
   1  -9  -9    0.71    0.23
  -1   9   9    1.18    0.17
   1  -9 -10    0.68    0.30
  -1   9  10    1.40    0.24
   1  -9 -11   -0.14    0.24
  -1   9  11    0.31    0.20
  -1  10  -2    3.15    0.40
  -1  10  -1   38.92    2.15
   1 -10   0    0.11    0.23
  -1  10   0    0.41    0.24
   1 -10  -1   -0.19    0.22
  -1  10   1    0.01    0.19
   1 -10  -2    0.13    0.22
  -1  10   2    0.09    0.15
   1 -10  -3    3.40    0.29
  -1  10   3    3.39    0.25
   1 -10  -4    0.54    0.20
  -1  10   4    0.84    0.16
   1 -10  -5    0.28    0.20
  -1  10   5    0.04    0.15
   1 -10  -6    0.31    0.23
  -1  10   6    0.54    0.17
   1 -10  -7    2.41    0.38
  -1  10   7    2.60    0.21
   1 -10  -8   -0.10    0.33
  -1  10   8    0.23    0.17
   1 -10  -9    0.46    0.37
  -1  10   9    0.35    0.19
  -1  11   2    0.71    0.23
   1 -11  -3    0.21    0.41
  -1  11   3   -0.01    0.25
   1 -11  -4   13.38    0.96
  -1  11   4   13.47    0.74
   1 -11  -5    0.00    0.43
  -1  11   5   -0.16    0.30
   1 -11  -6   -0.08    0.28
  -1  11   6   -0.38    0.25
  -1  11   7    0.35    0.27
   2  11   8    0.62    0.45
  -2 -11  -8    0.45    0.30
   2  11   7    6.84    0.50
  -2 -11  -7    6.74    0.51
   2  11   6    3.31    0.41
  -2 -11  -6    3.28    0.36
   2  11   5   37.89    1.42
  -2 -11  -5   39.99    2.17
   2  11   4    0.21    0.18
  -2 -11  -4   -0.04    0.39
   2  11   3   -0.02    0.14
  -2 -11  -3    0.04    0.38
   2  11   2    0.11    0.17
  -2 -11  -2    0.63    0.40
   2  11   1    1.42    0.23
  -2 -11  -1    0.45    0.42
   2  11   0    0.80    0.20
  -2 -11   0    0.06    0.29
   2  10  10   -0.32    0.15
  -2 -10 -10    0.33    0.28
   2  10   9    0.09    0.13
  -2 -10  -9   -0.11    0.25
   2  10   8    0.03    0.12
  -2 -10  -8   -0.13    0.25
   2  10   7    3.16    0.20
  -2 -10  -7    3.48    0.33
   2  10   6    5.93    0.16
  -2 -10  -6    5.56    0.39
   2  10   5    6.83    0.33
  -2 -10  -5    8.40    0.65
   2  10   4    0.39    0.13
  -2 -10  -4    0.36    0.34
   2  10   3    0.41    0.12
  -2 -10  -3    1.10    0.35
   2  10   2   -0.40    0.24
  -2 -10  -2    0.00    0.33
   2  10   1    0.05    0.27
  -2 -10  -1    0.65    0.35
   2  10   0    4.75    0.42
  -2 -10   0    5.97    0.68
   2  10  -1    0.01    0.17
  -2 -10   1    0.14    0.39
   2  10  -2    0.91    0.22
  -2 -10   2    1.04    0.46
   2   9  12    4.07    0.37
  -2  -9 -12    3.27    0.37
   2   9  11    0.35    0.17
  -2  -9 -11    0.44    0.33
   2   9  10    0.60    0.16
  -2  -9 -10    1.01    0.25
   2   9   9   -0.15    0.11
  -2  -9  -9    0.04    0.22
   2   9   8    1.06    0.13
  -2  -9  -8    1.44    0.24
   2   9   7    3.62    0.20
  -2  -9  -7    4.02    0.25
   2   9   6   11.96    0.37
  -2  -9  -6   12.52    0.42
   2   9   5    1.36    0.07
  -2  -9  -5    1.05    0.25
   2   9   4    0.96    0.16
  -2  -9  -4    0.59    0.21
   2   9   3   -0.13    0.10
  -2  -9  -3   -0.04    0.16
   2   9   2    1.25    0.16
  -2  -9  -2    0.81    0.21
   2   9   1    2.12    0.24
  -2  -9  -1    2.11    0.27
   2   9   0    0.57    0.24
  -2  -9   0    0.29    0.31
   2   9  -1    0.04    0.15
  -2  -9   1    0.63    0.34
   2   9  -2    0.65    0.10
  -2  -9   2    0.78    0.39
   2   9  -3    0.07    0.16
  -2  -9   3   -0.06    0.20
   2   9  -4    0.08    0.17
  -2  -9   4    0.00    0.28
   2   8  12    0.32    0.19
  -2  -8 -12    0.42    0.25
   2   8  11    0.31    0.17
  -2  -8 -11    0.16    0.17
   2   8  10    1.43    0.18
  -2  -8 -10    1.73    0.17
   2   8   9    0.18    0.12
  -2  -8  -9    0.19    0.11
   2   8   8    7.92    0.30
  -2  -8  -8    7.75    0.25
   2   8   7   11.19    0.37
  -2  -8  -7   11.84    0.32
   2   8   6    1.56    0.11
  -2  -8  -6    1.53    0.20
   2   8   5    8.76    0.25
  -2  -8  -5    8.11    0.39
   2   8   4    0.24    0.05
  -2  -8  -4    0.37    0.18
   2   8   3    5.21    0.24
  -2  -8  -3    5.41    0.33
   2   8   2    0.23    0.18
  -2  -8  -2    0.27    0.17
   2   8   1    4.36    0.30
  -2  -8  -1    4.21    0.29
   2   8   0    1.94    0.23
  -2  -8   0    1.88    0.24
   2   8  -1    3.27    0.16
  -2  -8   1    2.92    0.28
   2   8  -2    0.15    0.07
  -2  -8   2    0.18    0.23
   2   8  -3    1.29    0.13
  -2  -8   3    1.19    0.17
   2   8  -4   -0.07    0.10
  -2  -8   4    0.00    0.12
   2   8  -5    0.53    0.15
  -2  -8   5    0.72    0.38
   2   8  -6   -0.07    0.18
  -2  -8   6   -0.06    0.38
   2   7  13    1.29    0.26
  -2  -7 -13    0.86    0.20
   2   7  12    0.32    0.20
  -2  -7 -12    0.41    0.16
   2   7  11    2.77    0.22
  -2  -7 -11    3.52    0.22
   2   7  10    1.02    0.17
  -2  -7 -10    1.12    0.14
   2   7   9    4.99    0.25
  -2  -7  -9    4.94    0.21
   2   7   8    0.34    0.20
  -2  -7  -8    0.20    0.09
   2   7   7    0.20    0.15
  -2  -7  -7    0.22    0.13
   2   7   6    0.68    0.12
  -2  -7  -6    0.56    0.09
   2   7   5    1.64    0.13
  -2  -7  -5    1.40    0.18
   2   7   4    2.91    0.13
  -2  -7  -4    2.55    0.23
   2   7   3    3.06    0.10
  -2  -7  -3    2.58    0.23
   2   7   2    4.28    0.11
  -2  -7  -2    4.26    0.26
   2   7   1    0.48    0.12
  -2  -7  -1    0.38    0.17
   2   7   0    0.06    0.05
  -2  -7   0    0.01    0.16
   2   7  -1    0.25    0.07
  -2  -7   1    0.41    0.18
   2   7  -2   -0.20    0.17
  -2  -7   2   -0.07    0.19
   2   7  -3    0.01    0.22
  -2  -7   3    0.12    0.08
   2   7  -4    0.30    0.24
  -2  -7   4    0.39    0.08
   2   7  -5    0.31    0.13
  -2  -7   5    0.21    0.09
   2   7  -6    0.29    0.15
  -2  -7   6   -0.03    0.19
   2   7  -7    0.14    0.22
  -2  -7   7    0.13    0.26
   2   6  13    0.30    0.22
  -2  -6 -13    0.43    0.18
   2   6  12    0.80    0.22
  -2  -6 -12    1.02    0.16
   2   6  11    0.33    0.14
  -2  -6 -11    0.27    0.11
   2   6  10    4.35    0.25
  -2  -6 -10    4.64    0.21
   2   6   9   15.78    0.62
  -2  -6  -9   15.44    0.42
   2   6   8    0.18    0.11
  -2  -6  -8    0.03    0.09
   2   6   7    0.72    0.15
  -2  -6  -7    0.39    0.08
   2   6   6    4.23    0.16
  -2  -6  -6    4.11    0.15
   2   6   5    0.21    0.06
  -2  -6  -5    0.24    0.07
   2   6   4   11.31    0.32
  -2  -6  -4   10.50    0.44
   2   6   3    0.20    0.09
  -2  -6  -3    0.08    0.14
   2   6   2    0.33    0.06
  -2  -6  -2    0.29    0.14
   2   6   1    5.09    0.14
  -2  -6  -1    5.15    0.28
   2   6   0    0.43    0.07
  -2  -6   0    0.46    0.15
   2   6  -1   36.94    0.86
  -2  -6   1   35.19    1.16
   2   6  -2   45.76    1.06
  -2  -6   2   45.11    1.05
   2   6  -3   73.10    2.09
  -2  -6   3   73.01    1.47
   2   6  -4    4.12    0.21
  -2  -6   4    4.49    0.15
   2   6  -5    0.91    0.26
  -2  -6   5    1.26    0.09
   2   6  -6    0.10    0.26
  -2  -6   6    0.13    0.09
   2   6  -7    0.00    0.31
  -2  -6   7    0.23    0.18
   2   6  -8   -0.26    0.44
  -2  -6   8    0.16    0.21
   2   5  13    0.29    0.17
  -2  -5 -13    0.51    0.23
   2   5  12    5.23    0.37
  -2  -5 -12    5.32    0.28
   2   5  11    1.04    0.19
  -2  -5 -11    1.14    0.14
   2   5  10    2.36    0.28
  -2  -5 -10    2.82    0.16
   2   5   9    1.21    0.14
  -2  -5  -9    1.21    0.12
   2   5   8    7.86    0.27
  -2  -5  -8    8.04    0.26
   2   5   7   17.06    0.48
  -2  -5  -7   16.74    0.39
   2   5   6   11.18    0.44
  -2  -5  -6   11.23    0.28
   2   5   5   38.34    0.86
  -2  -5  -5   40.32    0.78
   2   5   4   50.75    1.11
  -2  -5  -4   50.82    1.14
   2   5   3  144.88    2.55
  -2  -5  -3  139.72    3.62
   2   5   2    0.61    0.05
  -2  -5  -2    0.79    0.12
   2   5   1    4.72    0.14
  -2  -5  -1    4.21    0.20
   2   5   0    1.40    0.09
  -2  -5   0    1.60    0.13
   2   5  -1   27.73    0.69
  -2  -5   1   26.91    0.64
   2   5  -2   12.14    0.35
  -2  -5   2   11.47    0.28
   2   5  -3    9.34    0.29
  -2  -5   3    9.00    0.24
   2   5  -4    1.35    0.12
  -2  -5   4    1.01    0.07
   2   5  -5    1.66    0.23
  -2  -5   5    1.55    0.08
   2   5  -6    3.37    0.21
  -2  -5   6    3.00    0.15
   2   5  -7    1.31    0.29
  -2  -5   7    1.32    0.14
   2   5  -8   15.55    0.79
  -2  -5   8   18.46    0.90
   2   5  -9   -0.38    0.43
  -2  -5   9    0.16    0.24
   2   4  13    0.11    0.14
  -2  -4 -13    0.58    0.46
   2   4  12   -0.09    0.12
  -2  -4 -12   -0.14    0.11
   2   4  11   14.64    0.52
  -2  -4 -11   13.62    0.41
   2   4  10    6.56    0.24
  -2  -4 -10    5.89    0.22
   2   4   9   10.29    0.30
  -2  -4  -9    9.94    0.28
   2   4   8   10.85    0.37
  -2  -4  -8   10.53    0.27
   2   4   7   36.92    0.94
  -2  -4  -7   35.63    0.76
   2   4   6   -0.16    0.12
  -2  -4  -6   -0.06    0.06
   2   4   5    8.02    0.25
  -2  -4  -5    8.36    0.22
   2   4   4    3.60    0.14
  -2  -4  -4    3.42    0.13
   2   4   3    2.00    0.10
  -2  -4  -3    2.02    0.16
   2   4   2   38.76    0.88
  -2  -4  -2   39.34    1.05
   2   4   1    6.63    0.22
  -2  -4  -1    6.18    0.26
   2   4   0   41.49    0.98
  -2  -4   0   41.43    1.17
   2   4  -1    3.36    0.15
  -2  -4   1    3.58    0.14
  -2  -4   2  701.12   22.16
   2   4  -3    4.14    0.17
  -2  -4   3    4.43    0.15
   2   4  -4    4.09    0.19
  -2  -4   4    4.20    0.13
   2   4  -5    0.91    0.12
  -2  -4   5    0.96    0.08
   2   4  -6    7.67    0.39
  -2  -4   6    6.91    0.22
   2   4  -7    0.35    0.14
  -2  -4   7    0.23    0.10
   2   4  -8    0.56    0.16
  -2  -4   8    0.22    0.12
   2   4  -9    0.44    0.39
  -2  -4   9    0.10    0.21
   2   4 -10   -0.02    0.46
  -2  -4  10    0.29    0.24
   2   3  13    0.11    0.18
  -2  -3 -13    0.04    0.41
   2   3  12    0.68    0.17
  -2  -3 -12    0.62    0.20
   2   3  11    0.85    0.15
  -2  -3 -11    1.10    0.19
   2   3  10    3.23    0.17
  -2  -3 -10    3.31    0.17
   2   3   9    0.64    0.10
  -2  -3  -9    0.60    0.09
   2   3   8    0.26    0.08
  -2  -3  -8    0.23    0.07
   2   3   7    6.24    0.23
  -2  -3  -7    6.03    0.19
   2   3   6   11.80    0.47
  -2  -3  -6   12.00    0.29
   2   3   5    1.16    0.08
  -2  -3  -5    1.25    0.08
   2   3   4   65.24    1.20
  -2  -3  -4   64.45    1.19
   2   3   3    1.58    0.09
  -2  -3  -3    1.17    0.09
   2   3   2   10.77    0.29
  -2  -3  -2   10.46    0.38
   2   3   1    0.80    0.08
  -2  -3  -1    0.78    0.11
   2   3   0    1.63    0.10
  -2  -3   0    1.69    0.13
   2   3  -1    1.37    0.09
  -2  -3   1    1.24    0.07
   2   3  -2    0.18    0.07
  -2  -3   2    0.44    0.06
   2   3  -3    0.99    0.10
  -2  -3   3    0.96    0.07
   2   3  -4    1.26    0.11
  -2  -3   4    1.23    0.08
   2   3  -5    1.13    0.12
  -2  -3   5    1.17    0.08
   2   3  -6    0.27    0.11
  -2  -3   6    0.03    0.05
   2   3  -7    3.14    0.19
  -2  -3   7    3.42    0.17
   2   3  -8    1.53    0.17
  -2  -3   8    1.30    0.13
   2   3  -9    3.76    0.24
  -2  -3   9    3.84    0.19
   2   3 -10    0.05    0.30
  -2  -3  10   -0.06    0.22
   2   3 -11    0.20    0.54
  -2  -3  11    0.59    0.25
   2   2  13   -0.09    0.17
  -2  -2 -13    0.21    0.20
   2   2  12    3.75    0.25
  -2  -2 -12    3.81    0.26
   2   2  11   -0.08    0.11
  -2  -2 -11    0.15    0.16
   2   2  10   15.97    0.45
  -2  -2 -10   14.90    0.58
   2   2   9    0.17    0.08
  -2  -2  -9    0.08    0.12
   2   2   8    8.88    0.27
  -2  -2  -8    9.02    0.28
   2   2   7   21.56    0.57
  -2  -2  -7   22.47    0.49
   2   2   6    0.24    0.06
  -2  -2  -6    0.30    0.05
   2   2   5    5.67    0.18
  -2  -2  -5    5.59    0.16
   2   2   4    6.33    0.22
  -2  -2  -4    6.07    0.16
   2   2   3  193.46    3.70
  -2  -2  -3  187.42    3.17
   2   2   2   11.38    0.29
  -2  -2  -2   11.46    0.35
   2   2   1   41.53    0.94
  -2  -2  -1   43.01    0.98
   2   2   0    1.65    0.10
  -2  -2   0    1.75    0.09
   2   2  -1   11.84    0.32
  -2  -2   1   11.88    0.27
   2   2  -2   -0.02    0.05
  -2  -2   2    0.12    0.04
   2   2  -3    0.11    0.05
  -2  -2   3    0.03    0.02
   2   2  -4    1.19    0.08
  -2  -2   4    1.29    0.06
   2   2  -5   -0.03    0.06
  -2  -2   5    0.01    0.05
   2   2  -6   31.88    0.67
  -2  -2   6   31.30    0.68
   2   2  -7    3.00    0.19
  -2  -2   7    3.01    0.15
   2   2  -8    0.25    0.14
  -2  -2   8    0.22    0.10
   2   2  -9    0.58    0.18
  -2  -2   9    0.46    0.12
   2   2 -10    0.30    0.23
  -2  -2  10    0.54    0.22
   2   2 -11    0.82    0.49
  -2  -2  11    0.27    0.26
   2   1  13    3.76    0.37
  -2  -1 -13    2.96    0.31
   2   1  12    0.91    0.18
  -2  -1 -12    1.25    0.20
   2   1  11    0.58    0.14
  -2  -1 -11    0.51    0.07
   2   1  10    0.07    0.09
  -2  -1 -10    0.14    0.07
   2   1   9    3.82    0.17
  -2  -1  -9    3.72    0.14
   2   1   8    0.18    0.07
  -2  -1  -8   -0.02    0.10
   2   1   7    0.71    0.10
  -2  -1  -7    0.72    0.10
   2   1   6    0.45    0.07
  -2  -1  -6    0.57    0.09
   2   1   5    1.10    0.07
  -2  -1  -5    0.96    0.09
   2   1   4   26.28    0.56
  -2  -1  -4   26.44    0.54
   2   1   3   50.49    1.02
  -2  -1  -3   51.34    0.94
   2   1   2   19.30    0.49
  -2  -1  -2   19.60    0.42
   2   1   1   27.05    0.61
  -2  -1  -1   27.02    0.62
   2   1   0   66.04    1.21
  -2  -1   0   65.27    1.40
   2   1  -1    4.62    0.13
  -2  -1   1    4.67    0.11
   2   1  -2   66.37    1.24
  -2  -1   2   63.43    1.05
   2   1  -3    5.83    0.20
  -2  -1   3    5.35    0.15
   2   1  -4    0.13    0.08
  -2  -1   4    0.20    0.06
   2   1  -5    0.55    0.07
  -2  -1   5    0.63    0.08
   2   1  -6   28.86    0.61
  -2  -1   6   27.70    0.58
   2   1  -7    0.27    0.08
  -2  -1   7    0.07    0.08
   2   1  -8    0.09    0.08
  -2  -1   8    0.02    0.08
   2   1  -9    0.09    0.09
  -2  -1   9    0.06    0.11
   2   1 -10    2.94    0.16
  -2  -1  10    2.58    0.19
   2   1 -11    0.01    0.13
  -2  -1  11    0.19    0.24
   2   1 -12   -0.13    0.53
  -2  -1  12    0.42    0.23
   2   0  13    0.42    0.24
  -2   0 -13    0.15    0.22
   2   0  12    0.70    0.18
  -2   0 -12    0.61    0.19
   2   0  11    0.32    0.13
  -2   0 -11    0.06    0.14
   2   0  10    0.48    0.11
  -2   0 -10    0.65    0.12
   2   0   9    4.05    0.17
  -2   0  -9    4.03    0.13
   2   0   8    3.62    0.16
  -2   0  -8    3.71    0.13
   2   0   7   24.22    0.65
  -2   0  -7   24.60    0.48
   2   0   6    5.06    0.25
  -2   0  -6    5.10    0.16
   2   0   5    5.65    0.19
  -2   0  -5    5.65    0.15
   2   0   4    7.80    0.18
  -2   0  -4    7.53    0.18
   2   0   3   12.69    0.27
  -2   0  -3   12.37    0.25
   2   0   2   31.50    0.52
  -2   0  -2   31.24    0.63
   2   0   1   92.20    1.42
  -2   0  -1   89.17    1.58
   2   0   0    5.29    0.12
  -2   0   0    5.04    0.11
   2   0  -1    2.27    0.06
  -2   0   1    2.17    0.06
   2   0  -2    0.67    0.04
  -2   0   2    0.73    0.04
   2   0  -3   47.53    0.78
  -2   0   3   45.50    0.76
   2   0  -4   47.01    0.90
  -2   0   4   45.51    0.86
   2   0  -5    0.05    0.04
  -2   0   5    0.05    0.06
   2   0  -6    0.03    0.08
  -2   0   6    0.17    0.06
   2   0  -7    0.08    0.06
  -2   0   7   -0.06    0.08
   2   0  -8    0.01    0.09
  -2   0   8   -0.06    0.10
   2   0  -9   -0.13    0.10
  -2   0   9    0.01    0.09
   2   0 -10   21.86    0.59
  -2   0  10   20.89    0.70
   2   0 -11    0.25    0.16
  -2   0  11   -0.10    0.19
   2   0 -12    0.20    0.17
  -2   0  12    0.26    0.26
   2  -1  12    0.46    0.22
  -2   1 -12    0.50    0.20
   2  -1  11    0.06    0.15
  -2   1 -11    0.17    0.16
   2  -1  10    0.94    0.14
  -2   1 -10    0.71    0.13
   2  -1   9   33.56    0.81
  -2   1  -9   32.85    0.74
   2  -1   8   53.72    1.19
  -2   1  -8   52.03    1.13
   2  -1   7   70.31    1.62
  -2   1  -7   69.55    1.42
   2  -1   6    1.36    0.10
  -2   1  -6    0.98    0.09
   2  -1   5   20.45    0.51
  -2   1  -5   20.78    0.51
   2  -1   4    9.95    0.29
  -2   1  -4    9.49    0.22
   2  -1   3   96.87    1.52
  -2   1  -3   92.03    1.45
   2  -1   2   27.19    0.47
  -2   1  -2   26.42    0.47
   2  -1   1    0.46    0.03
  -2   1  -1    0.55    0.05
   2  -1   0   36.29    0.54
  -2   1   0   34.80    0.76
   2  -1  -1  158.22    2.38
  -2   1   1  152.15    2.55
   2  -1  -2    1.54    0.06
  -2   1   2    1.33    0.06
   2  -1  -3    6.43    0.14
  -2   1   3    6.64    0.17
   2  -1  -4   75.83    1.21
  -2   1   4   72.87    1.35
   2  -1  -5    4.33    0.13
  -2   1   5    4.41    0.14
   2  -1  -6   24.61    0.63
  -2   1   6   24.49    0.57
   2  -1  -7    0.49    0.08
  -2   1   7    0.60    0.10
   2  -1  -8   15.79    0.39
  -2   1   8   14.65    0.42
   2  -1  -9   10.62    0.27
  -2   1   9   10.05    0.30
   2  -1 -10   75.27    1.27
  -2   1  10   72.00    1.56
   2  -1 -11    3.72    0.29
  -2   1  11    3.32    0.26
   2  -1 -12    0.09    0.18
  -2   1  12    0.29    0.24
   2  -1 -13   -0.73    0.48
  -2   1  13    0.17    0.41
   2  -2  11    0.30    0.23
  -2   2 -11    0.72    0.20
   2  -2  10    0.43    0.14
  -2   2 -10    0.71    0.15
   2  -2   9   54.56    1.16
  -2   2  -9   55.48    1.20
   2  -2   8   18.47    0.47
  -2   2  -8   17.47    0.43
   2  -2   7    8.69    0.29
  -2   2  -7    8.57    0.24
   2  -2   6    0.99    0.14
  -2   2  -6    0.89    0.09
   2  -2   5   27.24    0.79
  -2   2  -5   27.06    0.60
   2  -2   4   26.14    0.55
  -2   2  -4   24.78    0.50
   2  -2   3    9.80    0.19
  -2   2  -3    9.09    0.34
   2  -2   2  167.08    2.32
  -2   2  -2  158.72    3.20
   2  -2   1    0.42    0.03
  -2   2  -1    0.49    0.04
   2  -2   0   76.22    1.20
   2  -2  -1   10.97    0.20
  -2   2   1   10.32    0.22
   2  -2  -2    2.46    0.08
  -2   2   2    2.34    0.13
   2  -2  -3   16.44    0.35
  -2   2   3   15.70    0.37
   2  -2  -4  203.14    3.51
  -2   2   4  188.67    3.64
   2  -2  -5    0.03    0.07
  -2   2   5   -0.01    0.06
   2  -2  -6    9.07    0.30
  -2   2   6    8.79    0.26
   2  -2  -7    5.32    0.18
  -2   2   7    4.88    0.19
   2  -2  -8    0.80    0.10
  -2   2   8    0.49    0.11
   2  -2  -9   63.23    1.10
  -2   2   9   60.34    1.26
   2  -2 -10    0.23    0.10
  -2   2  10   -0.04    0.10
   2  -2 -11   12.52    0.41
  -2   2  11   12.66    0.41
   2  -2 -12    0.25    0.21
  -2   2  12   -0.17    0.20
   2  -2 -13    1.04    0.22
  -2   2  13    0.81    0.28
   2  -3  11    0.75    0.26
  -2   3 -11    0.76    0.39
   2  -3  10    3.01    0.23
  -2   3 -10    3.17    0.34
   2  -3   9    0.48    0.14
  -2   3  -9    0.53    0.13
   2  -3   8   58.58    1.25
  -2   3  -8   55.44    1.21
   2  -3   7    0.92    0.10
  -2   3  -7    0.77    0.10
   2  -3   6    0.09    0.11
  -2   3  -6    0.11    0.08
   2  -3   5    0.03    0.09
  -2   3  -5    0.04    0.08
   2  -3   4   14.42    0.29
  -2   3  -4   13.58    0.37
   2  -3   3    0.38    0.05
  -2   3  -3    0.29    0.06
   2  -3   2   37.73    0.60
  -2   3  -2   34.91    1.00
   2  -3   1   14.73    0.24
  -2   3  -1   14.45    0.40
   2  -3   0    8.58    0.21
   2  -3  -1    1.25    0.08
   2  -3  -2    0.57    0.04
  -2   3   2    0.55    0.04
   2  -3  -3   47.26    0.87
  -2   3   3   45.24    0.80
   2  -3  -4    3.81    0.12
  -2   3   4    3.72    0.12
   2  -3  -5    9.40    0.24
  -2   3   5    9.10    0.23
   2  -3  -6    0.02    0.07
  -2   3   6    0.04    0.09
   2  -3  -7   -0.02    0.08
  -2   3   7    0.06    0.08
   2  -3  -8    0.54    0.11
  -2   3   8    0.64    0.11
   2  -3  -9   78.69    1.43
  -2   3   9   74.70    1.48
   2  -3 -10    0.09    0.09
  -2   3  10   -0.11    0.11
   2  -3 -11    2.63    0.19
  -2   3  11    2.61    0.19
   2  -3 -12    0.47    0.18
  -2   3  12    0.64    0.20
   2  -3 -13    0.83    0.20
  -2   3  13    0.99    0.22
   2  -4  10    0.14    0.18
  -2   4 -10    0.28    0.33
   2  -4   9    3.23    0.23
  -2   4  -9    3.93    0.35
   2  -4   8    3.50    0.19
  -2   4  -8    3.52    0.23
   2  -4   7    1.79    0.15
  -2   4  -7    1.88    0.17
   2  -4   6    0.01    0.09
  -2   4  -6    0.18    0.13
   2  -4   5   17.12    0.41
  -2   4  -5   16.60    0.54
   2  -4   4    7.34    0.21
  -2   4  -4    7.18    0.34
   2  -4   3    4.33    0.14
  -2   4  -3    4.18    0.25
   2  -4   2    0.50    0.05
  -2   4  -2    0.38    0.18
   2  -4   1   18.94    0.32
  -2   4  -1   19.23    0.79
   2  -4   0    0.57    0.07
   2  -4  -1    3.41    0.12
   2  -4  -2    5.91    0.13
  -2   4   2    9.16    1.08
   2  -4  -3   22.39    0.52
  -2   4   3   21.31    0.56
   2  -4  -4   21.17    0.43
  -2   4   4   20.77    0.58
   2  -4  -5   12.03    0.28
  -2   4   5   12.10    0.35
   2  -4  -6    3.99    0.18
  -2   4   6    4.13    0.21
   2  -4  -7    0.12    0.08
  -2   4   7    0.14    0.08
   2  -4  -8    0.07    0.10
  -2   4   8    0.02    0.08
   2  -4  -9    7.04    0.24
  -2   4   9    6.90    0.24
   2  -4 -10    0.24    0.15
  -2   4  10    0.52    0.15
   2  -4 -11    0.17    0.14
  -2   4  11    0.24    0.13
   2  -4 -12    0.15    0.18
  -2   4  12    0.00    0.15
   2  -4 -13   -0.02    0.20
  -2   4  13    0.03    0.19
   2  -5   9    0.06    0.23
  -2   5  -9    0.23    0.34
   2  -5   8    1.27    0.21
  -2   5  -8    0.81    0.19
   2  -5   7    0.37    0.14
  -2   5  -7    0.46    0.13
   2  -5   6    0.26    0.10
  -2   5  -6    0.21    0.12
   2  -5   5    5.76    0.19
  -2   5  -5    6.08    0.24
   2  -5   4    4.92    0.19
  -2   5  -4    4.76    0.24
   2  -5   3    0.20    0.07
  -2   5  -3    0.22    0.10
   2  -5   2    2.20    0.09
  -2   5  -2    1.91    0.13
   2  -5   1    6.34    0.16
  -2   5  -1    6.09    0.31
   2  -5   0   31.70    0.49
  -2   5   0   31.12    0.79
   2  -5  -1    0.09    0.03
  -2   5   1    0.12    0.03
   2  -5  -2   14.44    0.25
  -2   5   2   14.10    0.39
   2  -5  -3    0.35    0.07
  -2   5   3    0.16    0.05
   2  -5  -4   61.65    1.36
  -2   5   4   58.53    1.20
   2  -5  -5    1.05    0.11
  -2   5   5    0.93    0.11
   2  -5  -6    0.05    0.07
  -2   5   6    0.01    0.09
   2  -5  -7    0.52    0.09
  -2   5   7    0.76    0.11
   2  -5  -8    0.83    0.12
  -2   5   8    1.04    0.11
   2  -5  -9    1.00    0.13
  -2   5   9    1.08    0.12
   2  -5 -10    0.05    0.13
  -2   5  10    0.13    0.12
   2  -5 -11    1.75    0.21
  -2   5  11    2.32    0.21
   2  -5 -12    0.60    0.20
  -2   5  12    0.57    0.17
   2  -5 -13    4.71    0.34
  -2   5  13    4.70    0.36
   2  -6   8    0.87    0.30
  -2   6  -8    1.41    0.37
   2  -6   7    0.43    0.22
  -2   6  -7    0.22    0.19
   2  -6   6    1.12    0.12
  -2   6  -6    1.02    0.15
   2  -6   5    0.04    0.06
  -2   6  -5    0.11    0.16
   2  -6   4    3.20    0.14
  -2   6  -4    3.56    0.21
   2  -6   3   -0.01    0.08
  -2   6  -3    0.08    0.11
   2  -6   2    0.21    0.06
  -2   6  -2    0.26    0.14
   2  -6   1    6.74    0.19
   2  -6   0   16.69    0.29
  -2   6   0   16.72    0.46
   2  -6  -1    2.34    0.08
  -2   6   1    2.36    0.10
   2  -6  -2   -0.04    0.04
  -2   6   2   -0.09    0.05
   2  -6  -3    2.64    0.09
  -2   6   3    2.74    0.13
   2  -6  -4    0.50    0.09
  -2   6   4    0.61    0.10
   2  -6  -5    8.83    0.27
  -2   6   5    8.46    0.31
   2  -6  -6    1.09    0.09
  -2   6   6    1.17    0.13
   2  -6  -7    1.14    0.10
  -2   6   7    1.31    0.12
   2  -6  -8    0.42    0.11
  -2   6   8    0.37    0.11
   2  -6  -9    1.56    0.14
  -2   6   9    1.61    0.14
   2  -6 -10    3.85    0.20
  -2   6  10    4.52    0.25
   2  -6 -11    0.72    0.19
  -2   6  11    0.81    0.19
   2  -6 -12    2.19    0.31
  -2   6  12    2.63    0.26
  -2   7  -7    3.01    0.44
   2  -7   6    2.43    0.38
  -2   7  -6    2.89    0.28
   2  -7   5    2.52    0.18
  -2   7  -5    2.38    0.19
   2  -7   4   -0.05    0.08
  -2   7  -4    0.23    0.15
   2  -7   3    0.16    0.08
  -2   7  -3    0.06    0.15
   2  -7   2    0.67    0.11
  -2   7  -2    0.59    0.15
   2  -7   1    9.41    0.21
  -2   7  -1    9.52    0.42
   2  -7   0    0.00    0.06
  -2   7   0    0.01    0.07
   2  -7  -1    1.57    0.07
  -2   7   1    1.56    0.10
   2  -7  -2    0.14    0.06
  -2   7   2    0.01    0.06
   2  -7  -3    0.51    0.06
  -2   7   3    0.65    0.08
   2  -7  -4    1.73    0.09
  -2   7   4    1.48    0.10
   2  -7  -5    2.58    0.12
  -2   7   5    2.68    0.13
   2  -7  -6   22.06    0.53
  -2   7   6   21.92    0.55
   2  -7  -7    1.57    0.12
  -2   7   7    1.80    0.13
   2  -7  -8    0.39    0.11
  -2   7   8    0.62    0.12
   2  -7  -9    0.50    0.11
  -2   7   9    0.58    0.14
   2  -7 -10    0.12    0.17
  -2   7  10    0.42    0.16
   2  -7 -11    1.27    0.26
  -2   7  11    1.17    0.21
   2  -7 -12   -0.61    0.36
  -2   7  12    0.00    0.26
  -2   8  -5    0.08    0.21
   2  -8   4    0.42    0.24
   2  -8   3   -0.15    0.14
  -2   8  -3    0.18    0.13
   2  -8   2   29.23    0.72
  -2   8  -2   28.40    0.86
   2  -8   1   15.13    0.42
   2  -8   0   99.32    1.58
  -2   8   0   95.66    2.27
   2  -8  -1    1.18    0.08
  -2   8   1    1.43    0.10
   2  -8  -2    0.78    0.06
  -2   8   2    1.00    0.09
   2  -8  -3    0.03    0.05
  -2   8   3   -0.02    0.07
   2  -8  -4   12.59    0.28
  -2   8   4   12.19    0.51
   2  -8  -5    1.49    0.09
  -2   8   5    1.91    0.12
   2  -8  -6    0.09    0.09
  -2   8   6    0.35    0.11
   2  -8  -7    1.45    0.13
  -2   8   7    1.88    0.14
   2  -8  -8    5.26    0.20
  -2   8   8    5.70    0.23
   2  -8  -9    0.56    0.17
  -2   8   9    0.82    0.15
   2  -8 -10   -0.17    0.20
  -2   8  10   -0.15    0.19
   2  -8 -11   14.08    1.01
  -2   8  11   12.77    0.63
  -2   9  -3   -0.36    0.22
   2  -9   2    5.16    0.45
   2  -9   1    0.71    0.17
   2  -9   0    0.15    0.18
  -2   9   0    0.29    0.10
   2  -9  -1    0.06    0.10
  -2   9   1   -0.02    0.09
   2  -9  -2    1.05    0.17
  -2   9   2    1.40    0.11
   2  -9  -3    1.39    0.12
  -2   9   3    1.48    0.13
   2  -9  -4    0.06    0.11
  -2   9   4   -0.04    0.09
   2  -9  -5   18.79    0.44
  -2   9   5   19.20    0.62
   2  -9  -6    0.04    0.10
  -2   9   6    0.13    0.10
   2  -9  -7   -0.03    0.13
  -2   9   7    0.08    0.11
   2  -9  -8    0.26    0.15
  -2   9   8    0.05    0.15
   2  -9  -9    0.32    0.26
  -2   9   9    0.24    0.18
   2  -9 -10   -0.35    0.37
  -2   9  10   -0.07    0.24
  -2  10   0    0.15    0.16
  -2  10   1    0.09    0.16
   2 -10  -2   -0.02    0.38
  -2  10   2    0.25    0.14
   2 -10  -3    0.00    0.24
  -2  10   3    0.44    0.16
   2 -10  -4    0.26    0.26
  -2  10   4   -0.01    0.16
   2 -10  -5    0.15    0.24
  -2  10   5    0.06    0.19
   2 -10  -6    0.08    0.36
  -2  10   6   -0.14    0.18
   2 -10  -7    0.00    0.23
  -2  10   7    0.09    0.24
   2 -10  -8    0.47    0.42
  -2  10   8   -0.08    0.16
   3  11   7    0.66    0.37
  -3 -11  -7    0.90    0.32
   3  11   6    0.87    0.25
  -3 -11  -6    1.34    0.32
   3  11   5    4.03    0.62
  -3 -11  -5    3.54    0.56
   3  11   4    0.14    0.20
  -3 -11  -4   -0.14    0.43
   3  11   3    0.25    0.20
  -3 -11  -3    0.52    0.46
   3  11   2    0.08    0.21
  -3 -11  -2    0.40    0.44
   3  10  10    0.13    0.16
  -3 -10 -10    0.00    0.27
   3  10   9    0.03    0.16
  -3 -10  -9    0.54    0.28
   3  10   8    0.07    0.12
  -3 -10  -8    0.13    0.26
   3  10   7    4.35    0.24
  -3 -10  -7    4.86    0.38
   3  10   6    4.38    0.17
  -3 -10  -6    3.81    0.36
   3  10   5    0.62    0.05
  -3 -10  -5    0.47    0.42
   3  10   4    2.03    0.23
  -3 -10  -4    1.94    0.45
   3  10   3   -0.02    0.27
  -3 -10  -3   -0.32    0.38
   3  10   2    0.00    0.17
  -3 -10  -2    0.56    0.41
   3  10   1    0.10    0.16
  -3 -10  -1    0.36    0.27
   3  10   0    0.05    0.19
  -3 -10   0   -0.09    0.40
   3  10  -1   -0.15    0.20
  -3 -10   1    0.05    0.23
   3   9  11    0.75    0.20
  -3  -9 -11    0.74    0.27
   3   9  10    0.35    0.18
  -3  -9 -10    1.02    0.27
   3   9   9    0.45    0.18
  -3  -9  -9    0.16    0.21
   3   9   8    3.27    0.21
  -3  -9  -8    3.09    0.30
   3   9   7    0.21    0.11
  -3  -9  -7    0.16    0.21
   3   9   6    0.47    0.09
  -3  -9  -6    0.33    0.20
   3   9   5    0.32    0.08
  -3  -9  -5    0.76    0.36
   3   9   4    0.93    0.07
  -3  -9  -4    0.75    0.22
   3   9   3    1.98    0.07
  -3  -9  -3    1.83    0.27
   3   9   2    3.06    0.30
  -3  -9  -2    3.26    0.44
   3   9   1    0.15    0.14
  -3  -9  -1   -0.41    0.30
   3   9   0   -0.13    0.16
  -3  -9   0   -0.48    0.33
   3   9  -1    0.12    0.08
  -3  -9   1   -0.02    0.19
   3   9  -2    0.14    0.18
  -3  -9   2   -0.22    0.19
   3   9  -3    0.75    0.48
  -3  -9   3    0.05    0.47
   3   8  12    0.53    0.23
  -3  -8 -12    1.01    0.22
   3   8  11    1.51    0.23
  -3  -8 -11    1.41    0.22
   3   8  10    1.20    0.22
  -3  -8 -10    0.90    0.17
   3   8   9    3.69    0.40
  -3  -8  -9    3.51    0.21
   3   8   8   11.28    0.41
  -3  -8  -8   11.55    0.41
   3   8   7    0.01    0.08
  -3  -8  -7    0.20    0.16
   3   8   6    0.27    0.09
  -3  -8  -6    0.35    0.16
   3   8   5    2.25    0.19
  -3  -8  -5    2.70    0.29
   3   8   4   -0.05    0.09
  -3  -8  -4    0.27    0.21
   3   8   3    6.18    0.21
  -3  -8  -3    6.09    0.36
   3   8   2    0.40    0.07
  -3  -8  -2    0.66    0.22
   3   8   1    0.82    0.08
  -3  -8  -1    1.04    0.20
   3   8   0    0.91    0.07
  -3  -8   0    1.22    0.25
   3   8  -1    0.10    0.08
  -3  -8   1    0.08    0.14
   3   8  -2   12.82    0.44
  -3  -8   2   13.08    0.55
   3   8  -3   19.02    0.89
  -3  -8   3   18.53    0.79
   3   8  -4   25.16    1.45
  -3  -8   4   24.70    1.57
   3   8  -5    1.28    0.57
  -3  -8   5    0.62    0.33
   3   7  12    0.35    0.24
  -3  -7 -12    0.35    0.22
   3   7  11    4.46    0.34
  -3  -7 -11    4.09    0.26
   3   7  10    1.09    0.30
  -3  -7 -10    0.82    0.14
   3   7   9    1.73    0.19
  -3  -7  -9    1.44    0.14
   3   7   8    0.64    0.20
  -3  -7  -8    1.08    0.12
   3   7   7    4.46    0.22
  -3  -7  -7    4.49    0.18
   3   7   6    4.29    0.22
  -3  -7  -6    4.33    0.24
   3   7   5    2.26    0.16
  -3  -7  -5    2.29    0.22
   3   7   4   18.58    0.46
  -3  -7  -4   16.89    0.64
   3   7   3   21.10    0.43
  -3  -7  -3   20.69    0.75
   3   7   2   36.70    0.72
  -3  -7  -2   36.09    1.29
   3   7   1    0.16    0.06
  -3  -7  -1    0.39    0.18
   3   7   0    0.39    0.10
  -3  -7   0    0.58    0.18
   3   7  -1    0.29    0.09
  -3  -7   1    0.50    0.12
   3   7  -2    6.36    0.27
  -3  -7   2    5.93    0.26
   3   7  -3    1.91    0.15
  -3  -7   3    2.14    0.14
   3   7  -4    1.13    0.16
  -3  -7   4    1.03    0.10
   3   7  -5    0.50    0.15
  -3  -7   5    0.21    0.08
   3   7  -6    0.51    0.50
  -3  -7   6    0.30    0.38
   3   6  13    1.98    0.29
  -3  -6 -13    1.25    0.23
   3   6  12   -0.02    0.19
  -3  -6 -12   -0.07    0.12
   3   6  11    0.04    0.19
  -3  -6 -11    0.00    0.14
   3   6  10    5.41    0.43
  -3  -6 -10    5.88    0.25
   3   6   9    7.22    0.33
  -3  -6  -9    6.28    0.23
   3   6   8   11.36    0.50
  -3  -6  -8   11.12    0.34
   3   6   7    4.93    0.23
  -3  -6  -7    5.18    0.20
   3   6   6    7.16    0.27
  -3  -6  -6    7.62    0.24
   3   6   5    0.23    0.08
  -3  -6  -5    0.02    0.12
   3   6   4    2.53    0.11
  -3  -6  -4    1.84    0.19
   3   6   3    0.13    0.07
  -3  -6  -3   -0.06    0.15
   3   6   2    0.51    0.07
  -3  -6  -2    0.31    0.16
   3   6   1    3.30    0.14
  -3  -6  -1    3.39    0.23
   3   6   0    1.14    0.12
  -3  -6   0    0.91    0.16
   3   6  -1    6.68    0.27
  -3  -6   1    6.77    0.26
   3   6  -2    2.25    0.16
  -3  -6   2    1.84    0.16
   3   6  -3  134.90    3.01
  -3  -6   3  129.81    2.50
   3   6  -4    1.30    0.16
  -3  -6   4    1.21    0.12
   3   6  -5    0.89    0.16
  -3  -6   5    0.80    0.06
   3   6  -6    0.07    0.15
  -3  -6   6    0.01    0.11
   3   6  -7    0.71    0.23
  -3  -6   7    0.53    0.20
   3   6  -8   -0.45    0.54
  -3  -6   8   -0.02    0.25
   3   5  13   -0.33    0.22
  -3  -5 -13   -0.23    0.50
   3   5  12    0.13    0.19
  -3  -5 -12    0.13    0.11
   3   5  11    2.99    0.27
  -3  -5 -11    2.32    0.17
   3   5  10    2.36    0.20
  -3  -5 -10    2.25    0.15
   3   5   9    3.12    0.21
  -3  -5  -9    3.29    0.16
   3   5   8    1.41    0.23
  -3  -5  -8    1.66    0.12
   3   5   7    2.69    0.15
  -3  -5  -7    2.72    0.13
   3   5   6    2.35    0.14
  -3  -5  -6    2.28    0.12
   3   5   5    7.53    0.22
  -3  -5  -5    7.51    0.25
   3   5   4    1.32    0.11
  -3  -5  -4    1.46    0.18
   3   5   3    5.93    0.22
  -3  -5  -3    5.73    0.29
   3   5   2    1.78    0.10
  -3  -5  -2    1.78    0.16
   3   5   1    7.40    0.22
  -3  -5  -1    7.94    0.33
   3   5   0    0.21    0.10
  -3  -5   0    0.26    0.09
   3   5  -1    3.42    0.18
  -3  -5   1    3.47    0.17
   3   5  -2    2.23    0.15
  -3  -5   2    2.16    0.12
   3   5  -3    1.12    0.13
  -3  -5   3    1.03    0.10
   3   5  -4    0.68    0.13
  -3  -5   4    0.83    0.09
   3   5  -5    0.21    0.12
  -3  -5   5    0.13    0.09
   3   5  -6    0.51    0.16
  -3  -5   6    0.76    0.10
   3   5  -7   -0.03    0.18
  -3  -5   7    0.16    0.13
   3   5  -8    0.11    0.20
  -3  -5   8    0.33    0.20
   3   5  -9    0.87    0.52
  -3  -5   9    0.03    0.28
   3   4  13    0.51    0.28
  -3  -4 -13    0.89    0.45
   3   4  12   -0.04    0.19
  -3  -4 -12    0.06    0.19
   3   4  11    6.09    0.37
  -3  -4 -11    5.42    0.31
   3   4  10    0.11    0.13
  -3  -4 -10   -0.05    0.09
   3   4   9   15.11    0.72
  -3  -4  -9   14.11    0.39
   3   4   8    0.06    0.17
  -3  -4  -8    0.13    0.07
   3   4   7    6.38    0.32
  -3  -4  -7    6.20    0.19
   3   4   6   16.21    0.45
  -3  -4  -6   16.45    0.37
   3   4   5    0.09    0.05
  -3  -4  -5   -0.03    0.06
   3   4   4    5.70    0.21
  -3  -4  -4    5.91    0.29
   3   4   3    5.31    0.19
  -3  -4  -3    5.24    0.25
   3   4   2   79.45    1.48
  -3  -4  -2   77.13    2.22
   3   4   1    4.19    0.19
  -3  -4  -1    4.61    0.20
   3   4   0   21.13    0.57
  -3  -4   0   21.37    0.54
   3   4  -1    0.27    0.10
  -3  -4   1    0.06    0.06
   3   4  -2    0.77    0.11
  -3  -4   2    0.64    0.08
   3   4  -3    0.19    0.10
  -3  -4   3   -0.04    0.05
   3   4  -4    0.27    0.11
  -3  -4   4    0.34    0.04
   3   4  -5    0.38    0.13
  -3  -4   5    0.21    0.07
   3   4  -6   -0.07    0.12
  -3  -4   6   -0.01    0.08
   3   4  -7    6.90    0.34
  -3  -4   7    6.40    0.27
   3   4  -8    0.46    0.21
  -3  -4   8    0.39    0.23
   3   4  -9   -0.03    0.21
  -3  -4   9    0.13    0.20
   3   3  13    0.81    0.25
  -3  -3 -13    0.78    0.25
   3   3  12    3.07    0.30
  -3  -3 -12    2.68    0.21
   3   3  11    1.28    0.14
  -3  -3 -11    1.37    0.19
   3   3  10    0.07    0.08
  -3  -3 -10    0.14    0.15
   3   3   9   -0.09    0.19
  -3  -3  -9    0.06    0.13
   3   3   8   -0.15    0.16
  -3  -3  -8    0.14    0.06
   3   3   7    0.77    0.17
  -3  -3  -7    0.78    0.07
   3   3   6   10.21    0.26
  -3  -3  -6    9.87    0.24
   3   3   5    2.06    0.13
  -3  -3  -5    2.08    0.09
   3   3   4    1.27    0.11
  -3  -3  -4    1.26    0.07
   3   3   3    6.84    0.23
  -3  -3  -3    6.87    0.23
   3   3   2   10.33    0.31
  -3  -3  -2   10.52    0.38
   3   3   1    1.35    0.11
  -3  -3  -1    1.46    0.11
   3   3   0   13.55    0.38
  -3  -3   0   13.95    0.37
   3   3  -1   10.27    0.30
  -3  -3   1   10.46    0.26
   3   3  -2    0.95    0.11
  -3  -3   2    1.16    0.07
   3   3  -3    9.22    0.28
  -3  -3   3    9.34    0.21
   3   3  -4    1.48    0.12
  -3  -3   4    1.37    0.05
   3   3  -5    0.52    0.11
  -3  -3   5    0.34    0.07
   3   3  -6    0.21    0.13
  -3  -3   6    0.20    0.07
   3   3  -7    2.74    0.22
  -3  -3   7    2.63    0.17
   3   3  -8   -0.05    0.18
  -3  -3   8    0.18    0.12
   3   3  -9    0.22    0.25
  -3  -3   9    0.08    0.23
   3   3 -10    0.05    0.46
  -3  -3  10    0.21    0.28
   3   2  13    0.41    0.31
  -3  -2 -13    0.63    0.25
   3   2  12    1.90    0.26
  -3  -2 -12    1.13    0.18
   3   2  11    2.48    0.19
  -3  -2 -11    2.45    0.14
   3   2  10    0.24    0.10
  -3  -2 -10    0.24    0.09
   3   2   9    3.68    0.20
  -3  -2  -9    3.77    0.17
   3   2   8   15.26    0.44
  -3  -2  -8   15.13    0.41
   3   2   7   18.43    0.47
  -3  -2  -7   18.28    0.43
   3   2   6   33.73    0.84
  -3  -2  -6   33.20    0.69
   3   2   5    7.00    0.22
  -3  -2  -5    7.20    0.20
   3   2   4    4.83    0.18
  -3  -2  -4    5.23    0.18
   3   2   3    1.43    0.11
  -3  -2  -3    1.72    0.06
   3   2   2   16.61    0.45
  -3  -2  -2   16.73    0.44
   3   2   1   36.65    0.74
  -3  -2  -1   36.63    0.89
   3   2   0   33.09    0.73
  -3  -2   0   32.66    0.73
   3   2  -1    0.07    0.08
  -3  -2   1    0.12    0.06
   3   2  -2    7.29    0.21
  -3  -2   2    7.28    0.18
   3   2  -3    0.00    0.06
  -3  -2   3    0.01    0.03
   3   2  -4   15.90    0.39
  -3  -2   4   15.13    0.32
   3   2  -5   20.72    0.54
  -3  -2   5   19.74    0.44
   3   2  -6    2.12    0.13
  -3  -2   6    1.95    0.12
   3   2  -7   -0.20    0.09
  -3  -2   7   -0.10    0.11
   3   2  -8    0.05    0.10
  -3  -2   8    0.04    0.10
   3   2  -9   -0.19    0.22
  -3  -2   9    0.17    0.15
   3   2 -10    1.64    0.47
  -3  -2  10    0.94    0.27
   3   2 -11   11.57    1.10
  -3  -2  11   12.12    0.68
   3   1  12    0.39    0.23
  -3  -1 -12    0.32    0.17
   3   1  11    1.62    0.17
  -3  -1 -11    1.64    0.14
   3   1  10    0.28    0.11
  -3  -1 -10    0.11    0.09
   3   1   9    3.43    0.18
  -3  -1  -9    3.79    0.15
   3   1   8   55.17    1.38
  -3  -1  -8   56.84    1.04
   3   1   7  100.32    2.16
  -3  -1  -7   99.00    1.60
   3   1   6   90.87    1.68
  -3  -1  -6   89.40    1.66
   3   1   5    1.80    0.12
  -3  -1  -5    1.78    0.10
   3   1   4   39.08    0.90
  -3  -1  -4   38.72    0.79
   3   1   3   17.32    0.44
  -3  -1  -3   17.01    0.39
   3   1   2  102.32    2.13
  -3  -1  -2  102.72    2.14
   3   1   1   22.54    0.43
  -3  -1  -1   21.55    0.39
   3   1   0    1.04    0.08
  -3  -1   0    1.07    0.05
   3   1  -1   19.99    0.45
  -3  -1   1   19.26    0.33
   3   1  -2   92.53    1.69
  -3  -1   2   87.89    1.29
   3   1  -3    0.88    0.09
  -3  -1   3    0.78    0.05
   3   1  -4    5.63    0.19
  -3  -1   4    5.31    0.14
   3   1  -5   35.94    0.77
  -3  -1   5   35.58    0.73
   3   1  -6    3.23    0.16
  -3  -1   6    3.06    0.15
   3   1  -7    8.75    0.29
  -3  -1   7    8.42    0.26
   3   1  -8    0.15    0.11
  -3  -1   8   -0.05    0.11
   3   1  -9    8.90    0.33
  -3  -1   9    8.98    0.34
   3   1 -10    7.35    0.43
  -3  -1  10    6.35    0.39
   3   1 -11   31.94    1.27
  -3  -1  11   31.40    1.41
   3   0  12    8.01    0.51
  -3   0 -12    8.13    0.43
   3   0  11    0.07    0.22
  -3   0 -11   -0.08    0.16
   3   0  10    1.12    0.14
  -3   0 -10    1.09    0.09
   3   0   9    0.85    0.12
  -3   0  -9    1.12    0.09
   3   0   8   73.47    1.76
  -3   0  -8   71.14    1.31
   3   0   7   30.49    0.77
  -3   0  -7   30.33    0.61
   3   0   6    5.19    0.16
  -3   0  -6    5.30    0.16
   3   0   5    1.27    0.05
  -3   0  -5    1.21    0.07
   3   0   4   26.31    0.43
  -3   0  -4   26.31    0.52
   3   0   3   20.15    0.49
  -3   0  -3   20.54    0.44
   3   0   2    6.28    0.17
  -3   0  -2    6.10    0.17
   3   0   1  129.78    2.02
  -3   0  -1  123.67    2.17
   3   0   0   -0.07    0.04
  -3   0   0    0.01    0.04
   3   0  -1   35.42    0.84
  -3   0   1   33.80    0.55
   3   0  -2    5.41    0.16
  -3   0   2    5.44    0.13
   3   0  -3    4.08    0.16
  -3   0   3    4.04    0.11
   3   0  -4    9.12    0.24
  -3   0   4    9.08    0.23
   3   0  -5   64.21    1.16
  -3   0   5   60.44    1.15
   3   0  -6    0.30    0.07
  -3   0   6    0.18    0.08
   3   0  -7    0.74    0.11
  -3   0   7    0.99    0.11
   3   0  -8    0.94    0.12
  -3   0   8    1.17    0.13
   3   0  -9    0.14    0.11
  -3   0   9    0.44    0.11
   3   0 -10   23.03    0.71
  -3   0  10   23.31    0.74
   3   0 -11    0.07    0.17
  -3   0  11   -0.09    0.25
   3   0 -12    3.84    0.37
   3  -1  11    0.09    0.24
  -3   1 -11    0.15    0.18
   3  -1  10    1.63    0.15
  -3   1 -10    1.91    0.21
   3  -1   9    2.23    0.16
  -3   1  -9    2.18    0.16
   3  -1   8    0.32    0.09
  -3   1  -8    0.14    0.10
   3  -1   7   55.08    1.28
  -3   1  -7   53.83    0.96
   3  -1   6    0.87    0.07
  -3   1  -6    1.00    0.08
   3  -1   5    0.48    0.04
  -3   1  -5    0.36    0.06
   3  -1   4    0.01    0.05
  -3   1  -4   -0.06    0.05
   3  -1   3    1.47    0.06
  -3   1  -3    1.48    0.07
   3  -1   2    2.69    0.08
  -3   1  -2    2.75    0.10
   3  -1   1   36.16    0.53
  -3   1  -1   33.97    0.78
   3  -1   0    6.18    0.12
  -3   1   0    6.00    0.18
   3  -1  -1    0.06    0.04
  -3   1   1    0.05    0.04
   3  -1  -2    2.14    0.08
  -3   1   2    2.10    0.08
   3  -1  -3    0.13    0.04
  -3   1   3    0.03    0.05
   3  -1  -4   17.97    0.37
  -3   1   4   17.03    0.36
   3  -1  -5    3.79    0.12
  -3   1   5    3.64    0.14
   3  -1  -6    0.11    0.05
  -3   1   6    0.06    0.08
   3  -1  -7    0.01    0.06
  -3   1   7   -0.11    0.11
   3  -1  -8    0.05    0.06
  -3   1   8    0.08    0.13
   3  -1  -9   -0.05    0.10
  -3   1   9   -0.05    0.12
   3  -1 -10   23.59    0.70
  -3   1  10   24.38    0.77
   3  -1 -11    0.06    0.18
  -3   1  11    0.16    0.17
   3  -1 -12    0.36    0.23
  -3   1  12    0.54    0.30
   3  -2  11   -0.15    0.32
  -3   2 -11    0.19    0.23
   3  -2  10    0.62    0.22
  -3   2 -10    0.53    0.18
   3  -2   9    0.47    0.11
  -3   2  -9    0.44    0.13
   3  -2   8   12.43    0.40
  -3   2  -8   11.68    0.36
   3  -2   7    0.55    0.10
  -3   2  -7    0.70    0.11
   3  -2   6    3.79    0.17
  -3   2  -6    4.09    0.16
   3  -2   5   -0.01    0.08
  -3   2  -5    0.12    0.06
   3  -2   4   58.07    0.98
  -3   2  -4   55.34    1.03
   3  -2   3   20.01    0.39
  -3   2  -3   19.61    0.51
   3  -2   2    2.08    0.09
  -3   2  -2    2.68    0.27
   3  -2   1    0.05    0.03
  -3   2  -1    0.13    0.06
   3  -2   0   37.91    0.52
  -3   2   0   34.29    1.35
   3  -2  -1    1.08    0.07
  -3   2   1    1.30    0.11
   3  -2  -2    6.07    0.17
  -3   2   2    5.90    0.23
   3  -2  -3    3.15    0.11
  -3   2   3    3.14    0.15
   3  -2  -4    4.68    0.14
  -3   2   4    4.33    0.16
   3  -2  -5   25.35    0.50
  -3   2   5   24.41    0.59
   3  -2  -6   14.13    0.33
  -3   2   6   14.83    0.42
   3  -2  -7    2.48    0.12
  -3   2   7    2.98    0.16
   3  -2  -8    0.14    0.07
  -3   2   8    0.06    0.09
   3  -2  -9    0.05    0.07
  -3   2   9    0.14    0.11
   3  -2 -10    3.72    0.21
  -3   2  10    3.62    0.21
   3  -2 -11    0.94    0.20
  -3   2  11    0.77    0.19
   3  -2 -12    0.33    0.24
  -3   2  12    0.47    0.24
   3  -3  10    2.96    0.42
  -3   3 -10    3.07    0.30
   3  -3   9    0.08    0.13
  -3   3  -9    0.27    0.16
   3  -3   8   -0.05    0.11
  -3   3  -8    0.03    0.11
   3  -3   7    0.74    0.11
  -3   3  -7    0.81    0.12
   3  -3   6    1.00    0.13
  -3   3  -6    1.09    0.11
   3  -3   5    0.86    0.09
  -3   3  -5    0.57    0.08
   3  -3   4   15.57    0.30
  -3   3  -4   14.67    0.35
   3  -3   3    9.14    0.19
  -3   3  -3    9.13    0.34
   3  -3   2    0.05    0.03
  -3   3  -2    0.07    0.04
   3  -3   1    3.79    0.12
   3  -3   0    7.25    0.17
   3  -3  -1   31.82    0.62
   3  -3  -2    0.60    0.04
  -3   3   2    0.66    0.04
   3  -3  -3    8.48    0.19
  -3   3   3    8.10    0.22
   3  -3  -4    0.02    0.05
  -3   3   4    0.12    0.06
   3  -3  -5   46.82    0.77
  -3   3   5   44.96    0.84
   3  -3  -6    0.15    0.08
  -3   3   6    0.22    0.09
   3  -3  -7    0.98    0.09
  -3   3   7    1.09    0.11
   3  -3  -8    1.40    0.10
  -3   3   8    1.38    0.12
   3  -3  -9    1.31    0.11
  -3   3   9    1.48    0.13
   3  -3 -10    0.65    0.11
  -3   3  10    0.50    0.14
   3  -3 -11    0.11    0.18
  -3   3  11    0.26    0.17
   3  -3 -12    0.88    0.21
  -3   3  12    0.67    0.22
   3  -4   9    0.41    0.31
  -3   4  -9    0.10    0.35
   3  -4   8    0.46    0.13
  -3   4  -8    0.01    0.20
   3  -4   7    2.22    0.20
  -3   4  -7    2.23    0.18
   3  -4   6    1.50    0.16
  -3   4  -6    1.72    0.16
   3  -4   5    0.69    0.07
  -3   4  -5    0.63    0.10
   3  -4   4    0.04    0.05
  -3   4  -4    0.12    0.07
   3  -4   3    1.85    0.07
  -3   4  -3    2.10    0.10
   3  -4   2    0.13    0.04
  -3   4  -2    0.15    0.03
   3  -4   1    0.27    0.06
   3  -4   0   21.12    0.42
   3  -4  -1   52.74    0.91
   3  -4  -2    8.26    0.26
   3  -4  -3    0.27    0.04
  -3   4   3    0.15    0.04
   3  -4  -4    0.47    0.06
  -3   4   4    0.21    0.06
   3  -4  -5    0.05    0.06
  -3   4   5    0.15    0.07
   3  -4  -6    0.56    0.07
  -3   4   6    0.76    0.09
   3  -4  -7    0.82    0.09
  -3   4   7    0.99    0.11
   3  -4  -8    0.21    0.08
  -3   4   8    0.48    0.11
   3  -4  -9    0.29    0.09
  -3   4   9    0.45    0.12
   3  -4 -10   -0.01    0.12
  -3   4  10    0.08    0.16
   3  -4 -11    2.36    0.24
  -3   4  11    1.99    0.21
   3  -4 -12    0.78    0.19
  -3   4  12    0.96    0.23
   3  -5   8   -0.21    0.26
  -3   5  -8   -0.08    0.31
   3  -5   7    1.87    0.22
  -3   5  -7    1.79    0.23
   3  -5   6    7.38    0.38
  -3   5  -6    7.61    0.31
   3  -5   5   10.56    0.28
  -3   5  -5   10.63    0.35
   3  -5   4   10.35    0.25
  -3   5  -4    9.88    0.38
   3  -5   3    0.01    0.05
  -3   5  -3   -0.04    0.06
   3  -5   2    0.33    0.08
   3  -5   1    1.43    0.09
   3  -5   0   38.65    0.62
   3  -5  -1    0.55    0.07
   3  -5  -2    0.60    0.08
   3  -5  -3    0.11    0.08
   3  -5  -4    4.49    0.12
  -3   5   4    4.54    0.14
   3  -5  -5    7.15    0.19
  -3   5   5    7.20    0.22
   3  -5  -6    6.68    0.18
  -3   5   6    6.79    0.22
   3  -5  -7   22.10    0.49
  -3   5   7   21.57    0.49
   3  -5  -8    1.05    0.11
  -3   5   8    1.23    0.13
   3  -5  -9    1.98    0.14
  -3   5   9    2.23    0.17
   3  -5 -10    0.42    0.15
  -3   5  10    0.34    0.16
   3  -5 -11   -0.15    0.18
  -3   5  11   -0.08    0.17
   3  -5 -12    0.73    0.21
  -3   5  12    0.93    0.27
   3  -6   7    0.11    0.27
  -3   6  -7   -0.27    0.23
   3  -6   6    3.01    0.33
  -3   6  -6    3.19    0.25
   3  -6   5    0.67    0.10
  -3   6  -5    0.86    0.13
   3  -6   4    1.02    0.09
  -3   6  -4    1.35    0.17
   3  -6   3    1.49    0.08
  -3   6  -3    1.70    0.11
   3  -6   2    0.07    0.09
   3  -6   1   60.52    1.21
   3  -6   0   35.17    0.67
   3  -6  -1  151.75    2.41
   3  -6  -2    3.38    0.14
   3  -6  -3    3.72    0.16
   3  -6  -4    0.01    0.04
  -3   6   4    0.11    0.04
   3  -6  -5   19.39    0.40
  -3   6   5   18.71    0.46
   3  -6  -6    1.45    0.10
  -3   6   6    1.60    0.12
   3  -6  -7    0.01    0.09
  -3   6   7    0.11    0.09
   3  -6  -8    1.87    0.15
  -3   6   8    2.15    0.21
   3  -6  -9    6.01    0.22
  -3   6   9    6.40    0.28
   3  -6 -10    0.07    0.19
  -3   6  10    0.11    0.16
   3  -6 -11   -0.18    0.24
  -3   6  11    0.28    0.22
   3  -7   5    6.30    0.47
  -3   7  -5    7.08    0.48
   3  -7   4    0.06    0.15
  -3   7  -4   -0.03    0.16
   3  -7   3    0.00    0.09
  -3   7  -3   -0.21    0.07
   3  -7   2    0.09    0.11
   3  -7   1    8.26    0.26
   3  -7   0    0.72    0.11
   3  -7  -1   -0.13    0.10
   3  -7  -2    0.26    0.10
   3  -7  -3    1.39    0.13
   3  -7  -4    0.52    0.12
   3  -7  -5   -0.09    0.06
  -3   7   5    0.02    0.06
   3  -7  -6   15.29    0.37
  -3   7   6   14.70    0.47
   3  -7  -7    0.08    0.10
  -3   7   7   -0.03    0.10
   3  -7  -8   -0.11    0.15
  -3   7   8    0.03    0.12
   3  -7  -9    0.05    0.13
  -3   7   9   -0.15    0.17
   3  -7 -10   -0.03    0.35
  -3   7  10   -0.28    0.19
   3  -7 -11    0.29    0.39
  -3   7  11    0.36    0.41
  -3   8  -4    0.12    0.15
  -3   8  -3    0.21    0.13
   3  -8   2    0.22    0.21
   3  -8   1    0.18    0.15
   3  -8   0   16.08    0.41
   3  -8  -1    0.01    0.10
   3  -8  -2    0.12    0.13
   3  -8  -3   -0.04    0.10
   3  -8  -4    0.10    0.11
   3  -8  -5    1.12    0.13
  -3   8   5    1.47    0.08
   3  -8  -6    0.02    0.11
  -3   8   6    0.06    0.09
   3  -8  -7    0.21    0.13
  -3   8   7   -0.01    0.10
   3  -8  -8    0.58    0.17
  -3   8   8    0.56    0.15
   3  -8  -9    0.21    0.20
  -3   8   9    0.01    0.17
   3  -8 -10    0.30    0.31
  -3   8  10    0.44    0.35
   3  -9   1    0.67    0.24
   3  -9   0    0.56    0.15
   3  -9  -1    3.69    0.23
   3  -9  -2    0.07    0.15
   3  -9  -3    4.22    0.31
   3  -9  -4    0.09    0.21
   3  -9  -5    1.25    0.22
   3  -9  -6   -0.19    0.18
  -3   9   6   -0.06    0.13
   3  -9  -7    0.55    0.25
  -3   9   7    0.59    0.15
   3  -9  -8   -0.03    0.41
  -3   9   8   -0.11    0.27
   4  10   8    1.46    0.17
  -4 -10  -8    1.46    0.29
   4  10   7    6.02    0.31
  -4 -10  -7    6.89    0.49
   4  10   6   -0.11    0.19
  -4 -10  -6   -0.19    0.26
   4  10   5    0.02    0.20
  -4 -10  -5    0.21    0.47
   4  10   4    0.38    0.37
  -4 -10  -4    0.55    0.37
   4  10   3   -0.44    0.48
  -4 -10  -3    0.86    0.48
   4  10   2    2.15    0.29
  -4 -10  -2    1.37    0.52
   4  10   1    0.08    0.23
  -4 -10  -1    0.00    0.43
   4  10   0    0.10    0.23
  -4 -10   0    0.16    0.47
   4   9  10    1.73    0.26
  -4  -9 -10    1.30    0.26
   4   9   9   -0.07    0.21
  -4  -9  -9    0.33    0.21
   4   9   8    0.66    0.14
  -4  -9  -8    0.94    0.23
   4   9   7    1.00    0.15
  -4  -9  -7    1.31    0.25
   4   9   6    0.78    0.14
  -4  -9  -6    1.09    0.22
   4   9   5    0.60    0.15
  -4  -9  -5    0.85    0.49
   4   9   4    0.22    0.13
  -4  -9  -4    0.16    0.41
   4   9   3    5.21    0.27
  -4  -9  -3    6.27    0.60
   4   9   2    5.64    0.30
  -4  -9  -2    6.00    0.63
   4   9   1    6.79    0.25
  -4  -9  -1    5.64    0.43
   4   9   0    0.30    0.44
  -4  -9   0    0.09    0.22
   4   9  -1   -0.17    0.44
  -4  -9   1    0.30    0.23
   4   9  -2   -0.04    0.47
  -4  -9   2   -0.24    0.43
   4   8  11    0.18    0.21
  -4  -8 -11    0.38    0.20
   4   8  10    0.07    0.20
  -4  -8 -10    0.32    0.18
   4   8   9    1.91    0.48
  -4  -8  -9    1.62    0.22
   4   8   8    4.89    0.31
  -4  -8  -8    4.39    0.30
   4   8   7    9.37    0.37
  -4  -8  -7    9.55    0.47
   4   8   6    1.78    0.20
  -4  -8  -6    1.87    0.20
   4   8   5    0.59    0.13
  -4  -8  -5    0.58    0.27
   4   8   4    0.16    0.12
  -4  -8  -4    0.34    0.25
   4   8   3    0.21    0.08
  -4  -8  -3    0.15    0.32
   4   8   2    0.02    0.09
  -4  -8  -2   -0.18    0.20
   4   8   1    1.40    0.12
  -4  -8  -1    1.00    0.19
   4   8   0    0.01    0.10
  -4  -8   0    0.19    0.19
   4   8  -1    0.28    0.15
  -4  -8   1    0.34    0.20
   4   8  -2    0.71    0.17
  -4  -8   2    0.67    0.22
   4   8  -3    0.55    0.33
  -4  -8   3    0.46    0.19
   4   8  -4   23.57    1.51
  -4  -8   4   26.63    1.55
   4   7  11    0.32    0.22
  -4  -7 -11    0.56    0.14
   4   7  10    2.30    0.28
  -4  -7 -10    2.15    0.18
   4   7   9    1.16    0.32
  -4  -7  -9    1.74    0.15
   4   7   8    1.81    0.17
  -4  -7  -8    2.21    0.18
   4   7   7    0.90    0.15
  -4  -7  -7    1.01    0.15
   4   7   6    1.84    0.17
  -4  -7  -6    1.84    0.18
   4   7   5    1.02    0.11
  -4  -7  -5    0.57    0.23
   4   7   4    1.31    0.12
  -4  -7  -4    1.64    0.26
   4   7   3    0.98    0.11
  -4  -7  -3    1.10    0.21
   4   7   2    0.39    0.10
  -4  -7  -2    0.50    0.14
   4   7   1    0.62    0.11
  -4  -7  -1    0.55    0.12
   4   7   0    1.41    0.16
  -4  -7   0    1.57    0.17
   4   7  -1   -0.05    0.15
  -4  -7   1   -0.05    0.14
   4   7  -2    1.55    0.17
  -4  -7   2    1.15    0.16
   4   7  -3    0.56    0.16
  -4  -7   3    0.61    0.19
   4   7  -4    0.29    0.18
  -4  -7   4    0.26    0.17
   4   7  -5   -0.02    0.20
  -4  -7   5    0.01    0.18
   4   6  12   -0.17    0.25
  -4  -6 -12    0.04    0.28
   4   6  11    0.20    0.19
  -4  -6 -11    0.06    0.09
   4   6  10    2.59    0.39
  -4  -6 -10    2.88    0.17
   4   6   9   -0.19    0.36
  -4  -6  -9   -0.05    0.10
   4   6   8    6.91    0.28
  -4  -6  -8    7.61    0.25
   4   6   7   -0.05    0.11
  -4  -6  -7   -0.01    0.09
   4   6   6    0.29    0.09
  -4  -6  -6    0.16    0.11
   4   6   5    4.96    0.23
  -4  -6  -5    4.85    0.24
   4   6   4    0.20    0.09
  -4  -6  -4    0.16    0.19
   4   6   3    1.55    0.12
  -4  -6  -3    1.40    0.21
   4   6   2    1.82    0.14
  -4  -6  -2    1.94    0.17
   4   6   1   13.06    0.36
  -4  -6  -1   12.90    0.44
   4   6   0    0.72    0.13
  -4  -6   0    0.73    0.12
   4   6  -1    7.71    0.33
  -4  -6   1    7.81    0.32
   4   6  -2    0.03    0.13
  -4  -6   2    0.03    0.12
   4   6  -3    0.73    0.18
  -4  -6   3    0.51    0.09
   4   6  -4    0.14    0.17
  -4  -6   4    0.02    0.10
   4   6  -5    0.30    0.20
  -4  -6   5    0.45    0.15
   4   6  -6    0.23    0.26
  -4  -6   6    0.05    0.24
   4   6  -7   -0.48    0.37
  -4  -6   7    0.25    0.22
   4   5  12    1.52    0.28
  -4  -5 -12    1.64    0.26
   4   5  11    0.88    0.22
  -4  -5 -11    0.76    0.25
   4   5  10    0.61    0.27
  -4  -5 -10    0.55    0.09
   4   5   9    0.44    0.25
  -4  -5  -9   -0.07    0.07
   4   5   8   -0.17    0.22
  -4  -5  -8    0.09    0.08
   4   5   7    2.28    0.15
  -4  -5  -7    2.65    0.13
   4   5   6    1.23    0.11
  -4  -5  -6    1.13    0.11
   4   5   5   22.07    0.66
  -4  -5  -5   22.19    0.61
   4   5   4    2.29    0.17
  -4  -5  -4    2.72    0.17
   4   5   3    1.91    0.13
  -4  -5  -3    1.86    0.15
   4   5   2   -0.01    0.09
  -4  -5  -2    0.14    0.10
   4   5   1    0.02    0.09
  -4  -5  -1    0.11    0.09
   4   5   0    0.03    0.13
  -4  -5   0    0.02    0.08
   4   5  -1    4.63    0.23
  -4  -5   1    4.44    0.21
   4   5  -2    0.31    0.13
  -4  -5   2    0.48    0.10
   4   5  -3    0.10    0.14
  -4  -5   3    0.11    0.09
   4   5  -4    0.56    0.14
  -4  -5   4    0.80    0.07
   4   5  -5    0.14    0.20
  -4  -5   5    0.27    0.11
   4   5  -6    1.11    0.24
  -4  -5   6    0.80    0.16
   4   5  -7    0.13    0.21
  -4  -5   7    0.54    0.23
   4   5  -8    0.37    0.54
  -4  -5   8   -0.06    0.27
   4   4  12    0.52    0.23
  -4  -4 -12    1.15    0.20
   4   4  11    5.95    0.43
  -4  -4 -11    4.99    0.27
   4   4  10    3.59    0.46
  -4  -4 -10    3.35    0.21
   4   4   9   -0.15    0.21
  -4  -4  -9    0.03    0.10
   4   4   8    6.81    0.41
  -4  -4  -8    7.22    0.26
   4   4   7   25.85    0.60
  -4  -4  -7   25.51    0.51
   4   4   6   23.14    0.67
  -4  -4  -6   23.16    0.44
   4   4   5   25.28    0.70
  -4  -4  -5   26.39    0.57
   4   4   4    5.38    0.23
  -4  -4  -4    5.29    0.22
   4   4   3    2.04    0.13
  -4  -4  -3    2.13    0.17
   4   4   2    6.41    0.21
  -4  -4  -2    6.57    0.23
   4   4   1    7.55    0.25
  -4  -4  -1    7.94    0.29
   4   4   0   17.72    0.54
  -4  -4   0   17.53    0.49
   4   4  -1    9.09    0.33
  -4  -4   1    9.24    0.30
   4   4  -2    0.82    0.14
  -4  -4   2    1.00    0.09
   4   4  -3    2.93    0.19
  -4  -4   3    3.33    0.11
   4   4  -4    0.06    0.15
  -4  -4   4    0.01    0.04
   4   4  -5    4.47    0.26
  -4  -4   5    4.77    0.17
   4   4  -6    7.70    0.40
  -4  -4   6    6.77    0.26
   4   4  -7    1.43    0.24
  -4  -4   7    1.48    0.22
   4   4  -8    0.11    0.25
  -4  -4   8    0.12    0.26
   4   3  12    4.23    0.37
  -4  -3 -12    4.27    0.34
   4   3  11    0.78    0.18
  -4  -3 -11    0.51    0.12
   4   3  10    1.62    0.38
  -4  -3 -10    1.83    0.16
   4   3   9   -0.30    0.21
  -4  -3  -9    0.03    0.10
   4   3   8    5.33    0.32
  -4  -3  -8    5.51    0.21
   4   3   7   52.87    1.07
  -4  -3  -7   51.95    1.13
   4   3   6   92.62    2.03
  -4  -3  -6   92.37    1.69
   4   3   5   67.68    1.57
  -4  -3  -5   67.60    1.61
   4   3   4    1.20    0.12
  -4  -3  -4    1.07    0.10
   4   3   3   20.84    0.62
  -4  -3  -3   21.64    0.46
   4   3   2    8.29    0.26
  -4  -3  -2    8.37    0.28
   4   3   1   37.60    0.84
  -4  -3  -1   36.69    0.70
   4   3   0   10.06    0.32
  -4  -3   0    9.90    0.24
   4   3  -1    0.80    0.13
  -4  -3   1    0.69    0.06
   4   3  -2    5.17    0.24
  -4  -3   2    5.20    0.14
   4   3  -3   21.84    0.63
  -4  -3   3   22.51    0.42
   4   3  -4    0.71    0.15
  -4  -3   4    0.58    0.06
   4   3  -5    2.63    0.20
  -4  -3   5    2.29    0.12
   4   3  -6   12.07    0.47
  -4  -3   6   10.69    0.34
   4   3  -7    0.52    0.19
  -4  -3   7    0.65    0.14
   4   3  -8    1.51    0.29
  -4  -3   8    1.03    0.20
   4   3  -9    0.07    0.46
  -4  -3   9    0.19    0.22
   4   2  12    1.74    0.32
  -4  -2 -12    1.36    0.22
   4   2  11    6.85    0.45
  -4  -2 -11    6.50    0.32
   4   2  10   -0.34    0.31
  -4  -2 -10    0.01    0.10
   4   2   9    1.14    0.19
  -4  -2  -9    1.15    0.12
   4   2   8    0.99    0.20
  -4  -2  -8    1.04    0.10
   4   2   7   46.62    1.13
  -4  -2  -7   43.00    0.79
   4   2   6   32.90    0.86
  -4  -2  -6   31.60    0.65
   4   2   5    0.29    0.11
  -4  -2  -5    0.66    0.08
   4   2   4    0.50    0.10
  -4  -2  -4    0.46    0.08
   4   2   3    6.19    0.23
  -4  -2  -3    6.13    0.21
   4   2   2    3.33    0.14
  -4  -2  -2    3.79    0.12
   4   2   1    1.21    0.11
  -4  -2  -1    1.15    0.06
   4   2   0   49.57    1.16
  -4  -2   0   48.14    0.84
   4   2  -1    0.41    0.08
  -4  -2   1    0.31    0.06
   4   2  -2    3.09    0.17
  -4  -2   2    3.15    0.10
   4   2  -3    0.94    0.11
  -4  -2   3    0.94    0.07
   4   2  -4    3.05    0.15
  -4  -2   4    2.92    0.13
   4   2  -5    3.83    0.19
  -4  -2   5    3.82    0.16
   4   2  -6    9.80    0.31
  -4  -2   6    9.71    0.32
   4   2  -7    0.41    0.14
  -4  -2   7    0.35    0.13
   4   2  -8    0.01    0.13
  -4  -2   8    0.21    0.16
   4   2  -9    0.35    0.42
  -4  -2   9    0.44    0.22
   4   2 -10   -0.12    0.38
  -4  -2  10    0.08    0.25
   4   1  11    2.16    0.26
  -4  -1 -11    1.94    0.24
   4   1  10    0.60    0.32
  -4  -1 -10    0.36    0.12
   4   1   9    4.59    0.18
  -4  -1  -9    4.51    0.19
   4   1   8    0.31    0.15
  -4  -1  -8    0.30    0.09
   4   1   7    0.37    0.13
  -4  -1  -7    0.20    0.07
   4   1   6   31.99    0.81
  -4  -1  -6   30.54    0.58
   4   1   5    0.60    0.10
  -4  -1  -5    0.73    0.08
   4   1   4    2.48    0.14
  -4  -1  -4    2.91    0.14
   4   1   3   -0.06    0.09
  -4  -1  -3    0.12    0.06
   4   1   2    3.27    0.14
  -4  -1  -2    3.13    0.15
   4   1   1    2.84    0.11
  -4  -1  -1    2.70    0.10
   4   1   0   19.12    0.44
  -4  -1   0   18.03    0.35
   4   1  -1    0.52    0.11
  -4  -1   1    0.86    0.06
   4   1  -2    1.43    0.13
  -4  -1   2    1.27    0.07
   4   1  -3    3.07    0.14
  -4  -1   3    3.01    0.10
   4   1  -4    0.09    0.09
  -4  -1   4    0.19    0.07
   4   1  -5    3.51    0.17
  -4  -1   5    3.25    0.15
   4   1  -6    2.32    0.16
  -4  -1   6    2.44    0.15
   4   1  -7    1.27    0.15
  -4  -1   7    0.75    0.13
   4   1  -8    0.09    0.13
  -4  -1   8    0.11    0.12
   4   1  -9    0.23    0.20
  -4  -1   9   -0.03    0.19
   4   1 -10    0.51    0.23
  -4  -1  10    0.25    0.24
   4   0  11    0.96    0.39
  -4   0 -11    1.10    0.21
   4   0  10    0.42    0.31
  -4   0 -10    0.08    0.12
   4   0   9    0.77    0.20
  -4   0  -9    0.90    0.12
   4   0   8    4.34    0.17
  -4   0  -8    4.33    0.16
   4   0   7   19.09    0.61
  -4   0  -7   18.16    0.41
   4   0   6    0.07    0.05
  -4   0  -6    0.17    0.08
   4   0   5    3.46    0.17
  -4   0  -5    3.74    0.14
   4   0   4    0.43    0.09
  -4   0  -4    0.62    0.08
   4   0   3   70.17    1.57
  -4   0  -3   67.18    1.24
   4   0   2   20.26    0.41
  -4   0  -2   19.72    0.42
   4   0   1    0.77    0.07
  -4   0  -1    0.65    0.07
   4   0   0   -0.03    0.07
  -4   0   0    0.06    0.07
   4   0  -1   20.33    0.47
  -4   0   1   19.99    0.37
   4   0  -2    0.60    0.08
  -4   0   2    0.69    0.06
   4   0  -3    0.41    0.08
  -4   0   3    0.56    0.06
   4   0  -4    0.16    0.09
  -4   0   4    0.44    0.09
   4   0  -5    0.09    0.09
  -4   0   5    0.24    0.07
   4   0  -6   10.70    0.33
  -4   0   6   10.78    0.31
   4   0  -7    5.57    0.23
  -4   0   7    5.30    0.21
   4   0  -8    0.24    0.14
  -4   0   8    0.32    0.12
   4   0  -9    0.29    0.19
  -4   0   9    0.03    0.18
   4   0 -10    0.31    0.23
  -4   0  10    0.24    0.19
  -4   1 -10    0.03    0.18
   4  -1   9    6.23    0.53
  -4   1  -9    5.92    0.30
   4  -1   8    0.12    0.08
  -4   1  -8    0.11    0.12
   4  -1   7    0.12    0.06
  -4   1  -7    0.07    0.08
   4  -1   6    0.45    0.06
  -4   1  -6    0.60    0.08
   4  -1   5    3.41    0.09
  -4   1  -5    3.55    0.13
   4  -1   4    0.74    0.06
  -4   1  -4    0.76    0.08
   4  -1   3   10.27    0.22
  -4   1  -3    9.84    0.24
   4  -1   2    4.70    0.12
  -4   1  -2    4.66    0.14
   4  -1   1    0.03    0.05
  -4   1  -1   -0.06    0.04
   4  -1   0    0.95    0.07
  -4   1   0    1.04    0.09
   4  -1  -1    1.36    0.10
  -4   1   1    1.49    0.07
   4  -1  -2    6.41    0.17
  -4   1   2    6.00    0.15
   4  -1  -3    0.51    0.07
  -4   1   3    0.85    0.08
   4  -1  -4    3.02    0.12
  -4   1   4    3.31    0.13
   4  -1  -5   -0.05    0.08
  -4   1   5   -0.01    0.07
   4  -1  -6   11.47    0.29
  -4   1   6   11.30    0.31
   4  -1  -7    0.17    0.10
  -4   1   7    0.10    0.11
   4  -1  -8    2.99    0.19
  -4   1   8    2.75    0.22
   4  -1  -9    0.97    0.21
  -4   1   9    1.33    0.19
   4  -1 -10    0.49    0.18
  -4   1  10    0.45    0.17
   4  -1 -11   -0.13    0.26
  -4   1  11    0.17    0.39
   4  -2  10   -0.19    0.35
  -4   2 -10   -0.04    0.19
  -4   2  -9    5.40    0.38
   4  -2   8    0.24    0.17
  -4   2  -8   -0.17    0.13
   4  -2   7    1.10    0.10
  -4   2  -7    0.82    0.13
   4  -2   6    1.97    0.11
  -4   2  -6    2.05    0.13
   4  -2   5    3.25    0.13
  -4   2  -5    3.23    0.14
   4  -2   4    0.29    0.05
  -4   2  -4    0.46    0.10
   4  -2   3    0.13    0.05
  -4   2  -3    0.02    0.10
   4  -2   2    0.07    0.04
  -4   2  -2    0.01    0.06
   4  -2   1    0.05    0.04
  -4   2  -1    0.11    0.04
   4  -2   0    7.76    0.15
  -4   2   0    7.26    0.24
   4  -2  -1   37.62    0.59
  -4   2   1   36.50    0.93
   4  -2  -2   93.78    1.51
  -4   2   2   85.37    3.14
   4  -2  -3   14.08    0.31
  -4   2   3   13.19    0.35
   4  -2  -4    0.07    0.07
  -4   2   4    0.06    0.09
   4  -2  -5    0.67    0.08
  -4   2   5    0.85    0.10
   4  -2  -6    0.03    0.10
  -4   2   6    0.29    0.12
   4  -2  -7    0.67    0.09
  -4   2   7    0.70    0.13
   4  -2  -8    0.20    0.10
  -4   2   8    0.53    0.11
   4  -2  -9   -0.06    0.13
  -4   2   9   -0.11    0.16
   4  -2 -10    0.36    0.19
  -4   2  10   -0.01    0.19
   4  -2 -11    0.40    0.26
  -4   2  11    0.04    0.21
  -4   3  -9    0.61    0.22
   4  -3   8    8.65    0.70
  -4   3  -8    9.19    0.50
   4  -3   7   -0.03    0.09
  -4   3  -7   -0.01    0.12
   4  -3   6    3.64    0.18
  -4   3  -6    2.94    0.15
   4  -3   5   13.64    0.30
  -4   3  -5   14.01    0.35
   4  -3   4   23.05    0.43
  -4   3  -4   22.88    0.70
   4  -3   3   21.98    0.35
  -4   3  -3   21.65    0.50
   4  -3   2   -0.06    0.07
  -4   3  -2    0.17    0.17
   4  -3   1    1.44    0.10
   4  -3   0    3.22    0.12
   4  -3  -1   67.22    1.14
   4  -3  -2    1.04    0.05
  -4   3   2    1.09    0.05
   4  -3  -3    0.39    0.06
  -4   3   3    0.46    0.06
   4  -3  -4    0.05    0.06
  -4   3   4    0.08    0.06
   4  -3  -5    7.50    0.19
  -4   3   5    7.60    0.21
   4  -3  -6    8.42    0.22
  -4   3   6    8.26    0.25
   4  -3  -7    7.61    0.21
  -4   3   7    7.36    0.25
   4  -3  -8   14.00    0.33
  -4   3   8   14.03    0.39
   4  -3  -9    0.46    0.14
  -4   3   9    0.85    0.19
   4  -3 -10    1.93    0.21
  -4   3  10    1.51    0.21
   4  -3 -11    0.44    0.26
  -4   3  11   -0.17    0.21
  -4   4  -8   -0.28    0.28
  -4   4  -7    1.24    0.21
   4  -4   6    0.22    0.14
  -4   4  -6   -0.05    0.12
   4  -4   5    5.04    0.19
  -4   4  -5    5.18    0.30
   4  -4   4    0.99    0.07
  -4   4  -4    1.33    0.10
   4  -4   3    1.18    0.09
   4  -4   2    1.89    0.10
   4  -4   1    0.01    0.08
   4  -4   0   75.16    1.26
   4  -4  -1   47.21    0.83
   4  -4  -2  136.40    2.46
   4  -4  -3    3.76    0.17
   4  -4  -4    4.76    0.13
  -4   4   4    4.89    0.16
   4  -4  -5    0.03    0.06
  -4   4   5    0.10    0.07
   4  -4  -6   11.61    0.27
  -4   4   6   11.37    0.31
   4  -4  -7    0.39    0.10
  -4   4   7    0.34    0.10
   4  -4  -8   -0.04    0.09
  -4   4   8   -0.15    0.10
   4  -4  -9    0.61    0.13
  -4   4   9    1.28    0.18
   4  -4 -10    3.19    0.30
  -4   4  10    2.42    0.27
   4  -4 -11    0.12    0.22
  -4   4  11   -0.20    0.24
  -4   5  -7    0.11    0.25
  -4   5  -6    3.57    0.29
   4  -5   5    1.45    0.12
  -4   5  -5    1.86    0.14
   4  -5   4    3.84    0.13
  -4   5  -4    4.26    0.19
   4  -5   3    0.16    0.09
   4  -5   2    0.14    0.10
   4  -5   1    0.01    0.08
   4  -5   0    4.08    0.17
   4  -5  -1    0.11    0.09
   4  -5  -2    1.15    0.11
   4  -5  -3    0.56    0.10
   4  -5  -4    0.56    0.11
   4  -5  -5    0.11    0.06
  -4   5   5    0.30    0.07
   4  -5  -6    0.09    0.08
  -4   5   6    0.07    0.08
   4  -5  -7    7.70    0.22
  -4   5   7    7.95    0.28
   4  -5  -8    0.05    0.11
  -4   5   8    0.25    0.12
   4  -5  -9    0.21    0.17
  -4   5   9    0.24    0.18
   4  -5 -10    0.13    0.25
  -4   5  10   -0.02    0.21
  -4   6  -5    0.95    0.13
   4  -6   4    6.06    0.30
   4  -6   3    0.81    0.13
   4  -6   2    0.34    0.12
   4  -6   1    1.35    0.12
   4  -6   0   -0.11    0.10
   4  -6  -1    6.69    0.22
   4  -6  -2    0.00    0.11
   4  -6  -3   -0.05    0.10
   4  -6  -4    0.25    0.10
   4  -6  -5    1.31    0.16
  -4   6   5    1.13    0.30
   4  -6  -6    3.27    0.14
  -4   6   6    3.18    0.14
   4  -6  -7    0.07    0.11
  -4   6   7   -0.01    0.10
   4  -6  -8    0.03    0.12
  -4   6   8   -0.02    0.16
   4  -6  -9    0.52    0.21
  -4   6   9    1.01    0.21
   4  -6 -10    0.52    0.23
  -4   6  10    0.99    0.23
   4  -7   3    0.19    0.14
   4  -7   2    0.17    0.13
   4  -7   1    1.52    0.16
   4  -7   0    2.16    0.16
   4  -7  -1    1.38    0.15
   4  -7  -2    5.33    0.23
   4  -7  -3    0.13    0.12
   4  -7  -4    5.73    0.24
   4  -7  -5    0.68    0.13
   4  -7  -6    2.05    0.21
  -4   7   6    2.66    0.37
   4  -7  -7   -0.02    0.20
  -4   7   7    0.01    0.12
   4  -7  -8    0.42    0.18
  -4   7   8   -0.28    0.30
   4  -7  -9    0.02    0.24
  -4   7   9    0.04    0.18
   4  -8   1    1.15    0.19
   4  -8   0    0.09    0.15
   4  -8  -1    0.09    0.16
   4  -8  -2    3.08    0.23
   4  -8  -3    0.42    0.15
   4  -8  -4    1.23    0.16
   4  -8  -5    0.54    0.15
   4  -8  -6    0.16    0.16
   4  -8  -7   -0.02    0.25
  -4   8   7    0.03    0.31
   5   9   8    0.37    0.20
  -5  -9  -8    0.50    0.55
   5   9   7    0.80    0.19
  -5  -9  -7    0.97    0.24
   5   9   6   -0.07    0.15
  -5  -9  -6    0.34    0.22
   5   9   5    0.46    0.17
  -5  -9  -5    1.16    0.51
   5   9   4    0.21    0.18
  -5  -9  -4    0.27    0.44
   5   9   3    0.39    0.34
  -5  -9  -3   -0.30    0.30
   5   9   2    0.52    0.48
  -5  -9  -2    0.16    0.44
   5   9   1    0.39    0.48
  -5  -9  -1   -0.14    0.45
   5   9   0    0.17    0.56
  -5  -9   0    0.10    0.46
   5   8   9    0.46    0.50
  -5  -8  -9    0.26    0.49
   5   8   8    0.21    0.19
  -5  -8  -8    0.05    0.13
   5   8   7    1.49    0.23
  -5  -8  -7    1.51    0.21
   5   8   6   -0.14    0.14
  -5  -8  -6    0.05    0.19
   5   8   5    0.73    0.13
  -5  -8  -5    0.45    0.41
   5   8   4    0.65    0.14
  -5  -8  -4    0.67    0.42
   5   8   3    0.49    0.14
  -5  -8  -3    0.51    0.39
   5   8   2    0.22    0.14
  -5  -8  -2    0.05    0.27
   5   8   1    0.48    0.13
  -5  -8  -1    0.25    0.30
   5   8   0    0.79    0.16
  -5  -8   0    1.24    0.34
   5   8  -1   -0.04    0.18
  -5  -8   1   -0.08    0.27
   5   8  -2    1.64    0.44
  -5  -8   2    1.44    0.50
   5   7  10   -0.46    0.51
  -5  -7 -10   -0.25    0.48
   5   7   9    0.12    0.31
  -5  -7  -9    0.37    0.43
   5   7   8   -0.10    0.16
  -5  -7  -8    0.01    0.11
   5   7   7   -0.02    0.12
  -5  -7  -7   -0.15    0.12
   5   7   6    6.84    0.27
  -5  -7  -6    7.45    0.33
   5   7   5    0.85    0.16
  -5  -7  -5    0.59    0.28
   5   7   4   20.09    0.60
  -5  -7  -4   19.12    0.61
   5   7   3    1.85    0.18
  -5  -7  -3    1.76    0.18
   5   7   2    1.53    0.18
  -5  -7  -2    1.21    0.19
   5   7   1    0.31    0.14
  -5  -7  -1    0.00    0.17
   5   7   0    0.48    0.16
  -5  -7   0    0.65    0.19
   5   7  -1    0.02    0.22
  -5  -7   1   -0.11    0.11
   5   7  -2    1.24    0.26
  -5  -7   2    1.02    0.16
   5   7  -3    0.45    0.23
  -5  -7   3   -0.02    0.22
   5   7  -4    0.11    0.26
  -5  -7   4   -0.01    0.50
   5   6  10    5.05    0.67
  -5  -6 -10    5.54    0.42
   5   6   9    2.27    0.50
  -5  -6  -9    2.20    0.38
   5   6   8    0.00    0.13
  -5  -6  -8    0.04    0.06
   5   6   7    5.87    0.26
  -5  -6  -7    5.56    0.21
   5   6   6   20.42    0.73
  -5  -6  -6   21.08    0.54
   5   6   5   11.99    0.38
  -5  -6  -5   11.78    0.36
   5   6   4   11.84    0.37
  -5  -6  -4   11.93    0.45
   5   6   3    2.29    0.17
  -5  -6  -3    2.25    0.20
   5   6   2    0.40    0.13
  -5  -6  -2    0.46    0.15
   5   6   1    3.76    0.20
  -5  -6  -1    3.74    0.23
   5   6   0    2.05    0.18
  -5  -6   0    1.97    0.15
   5   6  -1    6.83    0.38
  -5  -6   1    6.44    0.25
   5   6  -2    3.05    0.29
  -5  -6   2    2.56    0.17
   5   6  -3    0.08    0.22
  -5  -6   3    0.23    0.08
   5   6  -4    0.36    0.22
  -5  -6   4    0.36    0.19
   5   6  -5   -0.07    0.29
  -5  -6   5    0.09    0.25
   5   5  11    2.24    0.52
  -5  -5 -11    1.76    0.52
   5   5  10   -0.01    0.41
  -5  -5 -10    0.43    0.19
   5   5   9    1.05    0.40
  -5  -5  -9    0.63    0.15
   5   5   8   -0.05    0.10
  -5  -5  -8    0.01    0.14
   5   5   7    2.39    0.15
  -5  -5  -7    2.62    0.21
   5   5   6   27.67    0.85
  -5  -5  -6   26.33    0.80
   5   5   5   48.66    1.26
  -5  -5  -5   49.60    0.88
   5   5   4   34.30    0.81
  -5  -5  -4   33.76    0.75
   5   5   3    0.42    0.13
  -5  -5  -3    0.27    0.07
   5   5   2    5.02    0.25
  -5  -5  -2    4.97    0.20
   5   5   1    2.13    0.19
  -5  -5  -1    1.75    0.12
   5   5   0    7.27    0.33
  -5  -5   0    7.74    0.27
   5   5  -1    3.79    0.26
  -5  -5   1    3.59    0.18
   5   5  -2   -0.11    0.24
  -5  -5   2   -0.02    0.07
   5   5  -3    0.79    0.22
  -5  -5   3    0.67    0.09
   5   5  -4    3.10    0.29
  -5  -5   4    2.86    0.13
   5   5  -5    0.23    0.18
  -5  -5   5    0.37    0.14
   5   5  -6    1.17    0.32
  -5  -5   6    0.46    0.19
   5   4  11    0.75    0.43
  -5  -4 -11    0.43    0.24
   5   4  10    3.38    0.53
  -5  -4 -10    2.99    0.26
   5   4   9    0.35    0.25
  -5  -4  -9   -0.04    0.13
   5   4   8    0.71    0.20
  -5  -4  -8    0.13    0.14
   5   4   7    0.55    0.08
  -5  -4  -7    0.57    0.15
   5   4   6   11.18    0.42
  -5  -4  -6   10.94    0.40
   5   4   5   20.62    0.63
  -5  -4  -5   21.04    0.59
   5   4   4   -0.04    0.12
  -5  -4  -4    0.04    0.03
   5   4   3    0.17    0.12
  -5  -4  -3   -0.06    0.05
   5   4   2    0.03    0.12
  -5  -4  -2    0.01    0.06
   5   4   1   -0.18    0.12
  -5  -4  -1   -0.01    0.06
   5   4   0    0.10    0.15
  -5  -4   0    0.19    0.06
   5   4  -1   15.25    0.50
  -5  -4   1   15.16    0.35
   5   4  -2    0.01    0.17
  -5  -4   2    0.36    0.08
   5   4  -3    0.15    0.15
  -5  -4   3    0.09    0.07
   5   4  -4   -0.41    0.23
  -5  -4   4    0.13    0.07
   5   4  -5    0.87    0.27
  -5  -4   5    0.65    0.11
   5   4  -6    0.96    0.30
  -5  -4   6    0.89    0.16
   5   4  -7    1.34    0.53
  -5  -4   7    1.01    0.25
   5   3  11    2.95    0.50
  -5  -3 -11    2.77    0.31
   5   3  10    4.67    0.52
  -5  -3 -10    3.43    0.23
   5   3   9    0.53    0.25
  -5  -3  -9    0.11    0.12
   5   3   8    6.57    0.37
  -5  -3  -8    6.58    0.23
   5   3   7    0.34    0.14
  -5  -3  -7    0.16    0.11
   5   3   6    0.46    0.15
  -5  -3  -6    0.52    0.13
   5   3   5   13.19    0.46
  -5  -3  -5   13.61    0.43
   5   3   4    0.32    0.11
  -5  -3  -4    0.55    0.12
   5   3   3    2.82    0.17
  -5  -3  -3    2.96    0.14
   5   3   2   -0.02    0.11
  -5  -3  -2    0.04    0.05
   5   3   1    4.69    0.20
  -5  -3  -1    4.67    0.14
   5   3   0    1.23    0.16
  -5  -3   0    1.19    0.08
   5   3  -1    6.36    0.29
  -5  -3   1    6.31    0.19
   5   3  -2    0.12    0.15
  -5  -3   2    0.09    0.07
   5   3  -3    0.82    0.18
  -5  -3   3    0.71    0.08
   5   3  -4    0.68    0.19
  -5  -3   4    0.98    0.08
   5   3  -5   -0.09    0.18
  -5  -3   5    0.23    0.08
   5   3  -6    0.46    0.23
  -5  -3   6    0.44    0.12
   5   3  -7    0.89    0.44
  -5  -3   7    0.74    0.23
   5   3  -8    0.49    0.48
  -5  -3   8    0.26    0.24
  -5  -2 -11    0.56    0.25
   5   2  10    0.92    0.38
  -5  -2 -10    0.76    0.15
   5   2   9    0.41    0.32
  -5  -2  -9    0.49    0.12
   5   2   8    1.11    0.16
  -5  -2  -8    1.05    0.11
   5   2   7    6.74    0.32
  -5  -2  -7    6.60    0.22
   5   2   6   15.07    0.49
  -5  -2  -6   14.61    0.38
   5   2   5    0.28    0.13
  -5  -2  -5    0.40    0.11
   5   2   4    1.84    0.16
  -5  -2  -4    2.21    0.13
   5   2   3    0.33    0.10
  -5  -2  -3    0.21    0.07
   5   2   2   31.06    0.70
  -5  -2  -2   30.19    0.55
   5   2   1    8.46    0.28
  -5  -2  -1    8.51    0.21
   5   2   0    0.06    0.11
  -5  -2   0    0.25    0.06
   5   2  -1    0.43    0.14
  -5  -2   1    0.00    0.06
   5   2  -2    1.69    0.14
  -5  -2   2    1.86    0.10
   5   2  -3    0.22    0.12
  -5  -2   3    0.21    0.07
   5   2  -4    0.76    0.14
  -5  -2   4    0.74    0.09
   5   2  -5    0.17    0.13
  -5  -2   5    0.19    0.10
   5   2  -6   -0.08    0.16
  -5  -2   6    0.08    0.12
   5   2  -7    1.97    0.26
  -5  -2   7    1.33    0.23
   5   2  -8    0.84    0.45
  -5  -2   8    1.02    0.21
  -5  -1 -10   -0.15    0.22
   5   1   9    0.16    0.30
  -5  -1  -9    0.08    0.13
   5   1   8    4.88    0.28
  -5  -1  -8    4.82    0.20
   5   1   7    0.22    0.15
  -5  -1  -7    0.19    0.10
   5   1   6    0.24    0.13
  -5  -1  -6    0.20    0.08
   5   1   5    0.43    0.13
  -5  -1  -5    0.32    0.08
   5   1   4    6.51    0.27
  -5  -1  -4    6.84    0.22
   5   1   3    0.19    0.10
  -5  -1  -3    0.05    0.08
   5   1   2    0.18    0.10
  -5  -1  -2    0.23    0.07
   5   1   1    0.41    0.08
  -5  -1  -1    0.52    0.07
   5   1   0    0.00    0.09
  -5  -1   0    0.07    0.05
   5   1  -1   -0.02    0.09
  -5  -1   1    0.00    0.06
   5   1  -2    0.12    0.10
  -5  -1   2    0.13    0.07
   5   1  -3   -0.07    0.10
  -5  -1   3    0.01    0.06
   5   1  -4    0.47    0.13
  -5  -1   4    0.51    0.08
   5   1  -5    1.29    0.15
  -5  -1   5    1.44    0.13
   5   1  -6    0.15    0.15
  -5  -1   6    0.06    0.12
   5   1  -7    0.54    0.22
  -5  -1   7    0.51    0.14
   5   1  -8    0.93    0.26
  -5  -1   8    0.19    0.16
   5   1  -9    2.43    0.32
  -5  -1   9    1.73    0.32
  -5   0 -10    2.87    0.31
  -5   0  -9    0.15    0.16
   5   0   8    4.16    0.24
  -5   0  -8    4.55    0.21
   5   0   7    1.26    0.17
  -5   0  -7    1.26    0.11
   5   0   6    1.89    0.17
  -5   0  -6    1.80    0.13
   5   0   5    0.97    0.13
  -5   0  -5    1.21    0.11
   5   0   4    3.80    0.19
  -5   0  -4    4.33    0.16
   5   0   3    4.19    0.17
  -5   0  -3    4.51    0.16
   5   0   2    0.15    0.08
  -5   0  -2    0.18    0.07
   5   0   1    0.97    0.09
  -5   0  -1    0.95    0.09
   5   0   0    0.14    0.08
  -5   0   0    0.00    0.05
   5   0  -1   16.77    0.41
  -5   0   1   16.32    0.34
   5   0  -2   30.28    0.67
  -5   0   2   29.35    0.56
   5   0  -3   81.33    1.67
  -5   0   3   77.57    1.37
   5   0  -4    9.83    0.33
  -5   0   4    9.95    0.29
   5   0  -5    0.24    0.12
  -5   0   5    0.02    0.10
   5   0  -6    1.95    0.17
  -5   0   6    1.94    0.18
   5   0  -7    0.28    0.19
  -5   0   7    0.48    0.15
   5   0  -8    1.73    0.33
  -5   0   8    1.00    0.21
   5   0  -9    0.24    0.25
  -5   0   9    0.22    0.27
  -5   1  -9    0.68    0.22
  -5   1  -8    0.73    0.22
   5  -1   7   15.86    0.64
  -5   1  -7   15.63    0.49
   5  -1   6    0.06    0.13
  -5   1  -6    0.08    0.11
   5  -1   5    4.23    0.18
  -5   1  -5    4.30    0.17
   5  -1   4   15.44    0.44
  -5   1  -4   15.29    0.37
   5  -1   3   27.88    0.56
  -5   1  -3   26.92    0.56
   5  -1   2   22.27    0.41
  -5   1  -2   20.88    0.45
   5  -1   1   -0.01    0.05
  -5   1  -1   -0.02    0.06
   5  -1   0    2.34    0.09
  -5   1   0    2.49    0.11
   5  -1  -1    3.18    0.11
  -5   1   1    3.35    0.13
   5  -1  -2   47.10    0.98
  -5   1   2   45.42    0.99
   5  -1  -3    0.71    0.09
  -5   1   3    0.76    0.11
   5  -1  -4    0.75    0.13
  -5   1   4    0.71    0.13
   5  -1  -5    0.18    0.09
  -5   1   5    0.01    0.09
   5  -1  -6    4.31    0.19
  -5   1   6    3.83    0.23
   5  -1  -7    3.64    0.24
  -5   1   7    4.10    0.24
   5  -1  -8    4.35    0.34
  -5   1   8    4.10    0.29
   5  -1  -9    6.85    0.60
  -5   1   9    5.45    0.41
  -5   2  -8    0.10    0.20
   5  -2   7    0.11    0.15
  -5   2  -7    0.17    0.18
   5  -2   6    0.76    0.16
  -5   2  -6    0.74    0.12
   5  -2   5    0.09    0.03
  -5   2  -5    0.06    0.09
   5  -2   4    2.88    0.09
  -5   2  -4    3.56    0.20
   5  -2   3    0.76    0.06
  -5   2  -3    0.95    0.08
   5  -2   2    0.08    0.04
  -5   2  -2    0.16    0.05
   5  -2   1    0.73    0.05
  -5   2  -1    0.84    0.06
   5  -2   0    0.11    0.04
  -5   2   0    0.10    0.05
   5  -2  -1   46.42    0.83
  -5   2   1   44.16    1.57
   5  -2  -2   33.79    0.64
  -5   2   2   33.01    1.21
   5  -2  -3   72.45    1.21
  -5   2   3   66.67    1.71
   5  -2  -4    2.76    0.12
  -5   2   4    2.66    0.17
   5  -2  -5    1.95    0.11
  -5   2   5    1.84    0.17
   5  -2  -6    0.09    0.09
  -5   2   6    0.10    0.11
   5  -2  -7    3.00    0.19
  -5   2   7    3.15    0.19
   5  -2  -8   -0.04    0.20
  -5   2   8    0.18    0.18
   5  -2  -9    0.36    0.20
  -5   2   9   -0.13    0.22
   5  -3   7    0.46    0.19
  -5   3  -7    0.12    0.16
   5  -3   6   -0.20    0.15
  -5   3  -6    0.08    0.14
   5  -3   5    1.76    0.12
  -5   3  -5    2.11    0.12
   5  -3   4    1.15    0.07
  -5   3  -4    1.44    0.08
   5  -3   3    0.11    0.09
  -5   3  -3    0.34    0.19
   5  -3   2   -0.01    0.09
   5  -3   1    0.18    0.08
   5  -3   0    0.00    0.09
   5  -3  -1    0.22    0.08
   5  -3  -2    0.47    0.10
   5  -3  -3    3.55    0.13
  -5   3   3    3.61    0.15
   5  -3  -4    0.64    0.08
  -5   3   4    0.41    0.09
   5  -3  -5    0.03    0.09
  -5   3   5   -0.07    0.09
   5  -3  -6    1.05    0.12
  -5   3   6    1.25    0.13
   5  -3  -7    0.23    0.14
  -5   3   7    0.10    0.12
   5  -3  -8    2.52    0.26
  -5   3   8    3.47    0.30
   5  -3  -9   -0.07    0.23
  -5   3   9   -0.28    0.25
   5  -4   6    0.80    0.37
  -5   4  -6    0.83    0.14
   5  -4   5    0.23    0.15
  -5   4  -5    0.17    0.05
   5  -4   4    2.36    0.16
   5  -4   3   11.26    0.33
   5  -4   2    1.72    0.13
   5  -4   1    0.55    0.11
   5  -4   0    6.39    0.24
   5  -4  -1   -0.07    0.10
   5  -4  -2    1.12    0.12
   5  -4  -3    0.22    0.10
   5  -4  -4    0.04    0.05
  -5   4   4   -0.05    0.07
   5  -4  -5    0.65    0.10
  -5   4   5    0.78    0.10
   5  -4  -6    1.85    0.14
  -5   4   6    2.00    0.14
   5  -4  -7    2.31    0.21
  -5   4   7    2.49    0.25
   5  -4  -8   -0.26    0.17
  -5   4   8    0.16    0.19
   5  -4  -9    0.24    0.21
  -5   4   9    0.25    0.21
   5  -5   5    1.21    0.33
   5  -5   4    0.18    0.15
   5  -5   3    0.21    0.12
   5  -5   2    0.18    0.12
   5  -5   1    0.09    0.12
   5  -5   0    1.86    0.16
   5  -5  -1    1.92    0.14
   5  -5  -2    1.07    0.13
   5  -5  -3    4.50    0.22
   5  -5  -4   -0.12    0.13
   5  -5  -5    2.94    0.20
   5  -5  -6    1.07    0.19
  -5   5   6    0.93    0.13
   5  -5  -7    0.83    0.17
  -5   5   7    0.92    0.18
   5  -5  -8   -0.23    0.38
  -5   5   8   -0.09    0.19
   5  -6   3   -0.13    0.17
   5  -6   2    0.56    0.14
   5  -6   1    5.09    0.25
   5  -6   0    1.72    0.16
   5  -6  -1    0.33    0.13
   5  -6  -2    0.40    0.15
   5  -6  -3    3.51    0.22
   5  -6  -4    0.50    0.16
   5  -6  -5    2.52    0.21
   5  -6  -6   -0.19    0.22
   5  -6  -7    0.29    0.38
  -5   6   7    0.01    0.10
   5  -7   1    0.76    0.21
   5  -7   0    3.00    0.22
   5  -7  -1   -0.09    0.15
   5  -7  -2    0.68    0.14
   5  -7  -3    0.04    0.16
   5  -7  -4    3.20    0.25
   5  -7  -5    4.01    0.30
   6   8   6    2.39    0.30
  -6  -8  -6    1.66    0.56
   6   8   5    9.55    0.51
  -6  -8  -5    9.76    0.96
   6   8   4    3.09    0.28
  -6  -8  -4    3.09    0.57
   6   8   3    3.54    0.27
  -6  -8  -3    3.48    0.47
   6   8   2    0.31    0.23
  -6  -8  -2    0.57    0.44
   6   8   1   -0.26    0.53
   6   7   7    0.14    0.16
  -6  -7  -7   -0.04    0.34
   6   7   6    0.50    0.21
  -6  -7  -6   -0.01    0.45
   6   7   5    8.14    0.39
  -6  -7  -5    7.99    0.77
   6   7   4   17.67    0.68
  -6  -7  -4   17.40    1.20
   6   7   3   12.59    0.52
  -6  -7  -3   12.82    0.63
   6   7   2    0.11    0.21
  -6  -7  -2   -0.03    0.13
   6   7   1    0.29    0.20
  -6  -7  -1    0.70    0.19
   6   7   0    0.26    0.21
  -6  -7   0    0.52    0.21
   6   7  -1    0.95    0.24
  -6  -7   1    1.17    0.20
   6   6   8    0.09    0.25
  -6  -6  -8    0.20    0.42
   6   6   7   -0.20    0.14
  -6  -6  -7   -0.13    0.30
   6   6   6    0.02    0.22
  -6  -6  -6    0.49    0.32
   6   6   5    0.97    0.23
  -6  -6  -5    1.11    0.11
   6   6   4    8.58    0.41
  -6  -6  -4    9.03    0.37
   6   6   3    0.31    0.18
  -6  -6  -3    0.13    0.08
   6   6   2    0.09    0.17
  -6  -6  -2   -0.06    0.11
   6   6   1    0.30    0.17
  -6  -6  -1    0.19    0.14
   6   6   0    0.10    0.20
  -6  -6   0    0.02    0.10
   6   6  -1   -0.07    0.21
  -6  -6   1    0.04    0.12
   6   6  -2    3.42    0.38
  -6  -6   2    3.70    0.23
   6   6  -3    0.40    0.32
  -6  -6   3    0.50    0.35
   6   5   9    3.27    0.49
  -6  -5  -9    3.76    0.59
   6   5   8   -0.02    0.24
  -6  -5  -8   -0.43    0.30
   6   5   7    5.03    0.38
  -6  -5  -7    4.25    0.40
   6   5   6    0.63    0.19
  -6  -5  -6    0.40    0.23
   6   5   5    0.10    0.19
  -6  -5  -5    0.40    0.26
   6   5   4    5.01    0.29
  -6  -5  -4    5.11    0.14
   6   5   3    0.41    0.20
  -6  -5  -3    0.52    0.09
   6   5   2    1.06    0.21
  -6  -5  -2    0.68    0.10
   6   5   1   -0.07    0.17
  -6  -5  -1    0.08    0.10
   6   5   0    1.13    0.22
  -6  -5   0    1.22    0.12
   6   5  -1    0.26    0.25
  -6  -5   1    0.41    0.11
   6   5  -2    1.21    0.24
  -6  -5   2    1.37    0.14
   6   5  -3    0.01    0.25
  -6  -5   3    0.17    0.12
   6   5  -4   -0.04    0.49
  -6  -5   4    0.26    0.44
   6   4   9    0.39    0.45
  -6  -4  -9    0.23    0.23
   6   4   8    0.96    0.26
  -6  -4  -8    0.81    0.21
   6   4   7    0.70    0.24
  -6  -4  -7    0.98    0.17
   6   4   6    2.97    0.29
  -6  -4  -6    2.89    0.28
   6   4   5    6.51    0.34
  -6  -4  -5    6.30    0.26
   6   4   4    0.53    0.20
  -6  -4  -4    0.13    0.10
   6   4   3    1.13    0.20
  -6  -4  -3    0.92    0.07
   6   4   2   -0.06    0.16
  -6  -4  -2   -0.12    0.07
   6   4   1    5.14    0.25
  -6  -4  -1    5.52    0.19
   6   4   0    2.36    0.23
  -6  -4   0    2.10    0.13
   6   4  -1   -0.05    0.16
  -6  -4   1    0.10    0.09
   6   4  -2   -0.03    0.22
  -6  -4   2   -0.06    0.09
   6   4  -3    0.38    0.22
  -6  -4   3    0.20    0.11
   6   4  -4   -0.01    0.42
  -6  -4   4   -0.01    0.16
   6   4  -5    1.25    0.52
  -6  -4   5    1.28    0.38
  -6  -3  -9    0.32    0.22
   6   3   8    0.21    0.24
  -6  -3  -8    0.03    0.14
   6   3   7    1.63    0.26
  -6  -3  -7    1.83    0.17
   6   3   6    0.44    0.18
  -6  -3  -6    0.20    0.14
   6   3   5    1.54    0.18
  -6  -3  -5    1.18    0.14
   6   3   4    0.15    0.16
  -6  -3  -4    0.26    0.11
   6   3   3    8.61    0.31
  -6  -3  -3    8.51    0.28
   6   3   2    0.10    0.14
  -6  -3  -2    0.08    0.06
   6   3   1    1.26    0.17
  -6  -3  -1    1.04    0.09
   6   3   0   -0.11    0.14
  -6  -3   0    0.02    0.08
   6   3  -1    0.09    0.18
  -6  -3   1    0.04    0.08
   6   3  -2    0.76    0.22
  -6  -3   2    0.49    0.09
   6   3  -3    0.98    0.22
  -6  -3   3    1.08    0.12
   6   3  -4    0.73    0.39
  -6  -3   4    1.04    0.19
   6   3  -5    0.33    0.28
  -6  -3   5    0.50    0.18
   6   3  -6   -0.11    0.46
  -6  -3   6    0.38    0.26
  -6  -2  -9    4.78    0.39
   6   2   8    0.22    0.33
  -6  -2  -8   -0.03    0.14
   6   2   7    2.47    0.28
  -6  -2  -7    2.39    0.18
   6   2   6    3.07    0.28
  -6  -2  -6    2.35    0.16
   6   2   5    1.09    0.18
  -6  -2  -5    1.48    0.14
   6   2   4    0.52    0.15
  -6  -2  -4    0.44    0.12
   6   2   3    3.17    0.20
  -6  -2  -3    2.92    0.16
   6   2   2    5.28    0.25
  -6  -2  -2    5.55    0.22
   6   2   1    0.30    0.14
  -6  -2  -1    0.29    0.08
   6   2   0    0.81    0.14
  -6  -2   0    0.53    0.09
   6   2  -1    0.19    0.14
  -6  -2   1    0.35    0.08
   6   2  -2   12.23    0.47
  -6  -2   2   13.18    0.32
   6   2  -3   13.77    0.60
  -6  -2   3   12.51    0.32
   6   2  -4   43.81    2.32
  -6  -2   4   40.80    1.08
   6   2  -5    4.77    0.55
  -6  -2   5    3.95    0.23
   6   2  -6    0.43    0.45
  -6  -2   6   -0.22    0.19
   6   1   8    0.71    0.39
  -6  -1  -8    0.31    0.19
   6   1   7    1.22    0.38
  -6  -1  -7    0.56    0.17
   6   1   6   10.18    0.57
  -6  -1  -6   10.88    0.39
   6   1   5    0.09    0.15
  -6  -1  -5    0.15    0.11
   6   1   4    3.91    0.20
  -6  -1  -4    4.10    0.19
   6   1   3   10.03    0.33
  -6  -1  -3    9.47    0.29
   6   1   2   16.85    0.47
  -6  -1  -2   17.90    0.43
   6   1   1    9.44    0.32
  -6  -1  -1    9.79    0.29
   6   1   0   -0.13    0.09
  -6  -1   0   -0.04    0.08
   6   1  -1    1.20    0.13
  -6  -1   1    1.43    0.11
   6   1  -2    1.90    0.15
  -6  -1   2    2.06    0.12
   6   1  -3   15.08    0.44
  -6  -1   3   14.99    0.36
   6   1  -4    0.34    0.19
  -6  -1   4    0.50    0.14
   6   1  -5    0.65    0.24
  -6  -1   5    0.82    0.16
   6   1  -6    0.73    0.32
  -6  -1   6   -0.37    0.20
   6   1  -7    1.03    0.25
  -6  -1   7    1.03    0.29
  -6   0  -8   10.11    0.52
   6   0   7    0.41    0.38
  -6   0  -7    0.02    0.14
   6   0   6    0.15    0.18
  -6   0  -6    0.19    0.15
   6   0   5    0.35    0.20
  -6   0  -5    0.14    0.10
   6   0   4    0.00    0.14
  -6   0  -4    0.04    0.10
   6   0   3    0.33    0.13
  -6   0  -3    0.41    0.10
   6   0   2    0.32    0.11
  -6   0  -2    0.43    0.10
   6   0   1    0.41    0.10
  -6   0  -1    0.61    0.10
   6   0   0    0.09    0.10
  -6   0   0    0.08    0.09
   6   0  -1    0.22    0.11
  -6   0   1    0.23    0.07
   6   0  -2   13.34    0.40
  -6   0   2   13.36    0.38
   6   0  -3   13.71    0.41
  -6   0   3   14.76    0.51
   6   0  -4   22.95    0.69
  -6   0   4   22.77    0.63
   6   0  -5    1.29    0.27
  -6   0   5    0.98    0.15
   6   0  -6   -0.17    0.32
  -6   0   6    0.39    0.14
   6   0  -7    0.24    0.34
  -6   0   7    0.09    0.21
   6  -1   7    0.52    0.40
  -6   1  -7    0.15    0.17
   6  -1   6    0.66    0.22
  -6   1  -6    0.89    0.18
   6  -1   5    0.09    0.17
  -6   1  -5    0.10    0.14
   6  -1   4    0.58    0.16
  -6   1  -4    0.60    0.10
   6  -1   3    0.57    0.14
  -6   1  -3    0.50    0.09
   6  -1   2    0.41    0.09
  -6   1  -2    0.43    0.08
   6  -1   1    0.06    0.08
  -6   1  -1    0.08    0.08
   6  -1   0    0.22    0.09
  -6   1   0    0.09    0.08
   6  -1  -1    0.15    0.08
  -6   1   1    0.21    0.10
   6  -1  -2    0.38    0.11
  -6   1   2    0.83    0.11
   6  -1  -3    0.76    0.13
  -6   1   3    0.83    0.11
   6  -1  -4    2.91    0.27
  -6   1   4    3.39    0.24
   6  -1  -5    0.20    0.22
  -6   1   5    0.16    0.15
   6  -1  -6    0.17    0.33
  -6   1   6    0.27    0.17
   6  -1  -7    0.76    0.39
  -6   1   7    1.17    0.22
   6  -2   6    0.57    0.41
  -6   2  -6    0.68    0.17
   6  -2   5    1.04    0.40
  -6   2  -5    1.52    0.17
   6  -2   4    0.01    0.37
  -6   2  -4    0.12    0.10
   6  -2   3    2.36    0.24
  -6   2  -3    3.29    0.19
   6  -2   2   11.47    0.44
  -6   2  -2   10.91    0.35
   6  -2   1    1.05    0.12
  -6   2  -1    0.79    0.07
   6  -2   0    0.85    0.08
  -6   2   0    0.82    0.06
   6  -2  -1    7.89    0.22
  -6   2   1    7.95    0.26
   6  -2  -2    0.02    0.08
  -6   2   2    0.03    0.08
   6  -2  -3    0.29    0.12
  -6   2   3    0.07    0.10
   6  -2  -4    0.26    0.13
  -6   2   4    0.16    0.12
   6  -2  -5    0.25    0.19
  -6   2   5    0.14    0.13
   6  -2  -6    0.30    0.20
  -6   2   6    0.38    0.17
   6  -2  -7    0.65    0.24
  -6   2   7    0.75    0.22
   6  -3   5    1.33    0.42
  -6   3  -5    1.35    0.38
   6  -3   4    1.64    0.24
   6  -3   3    0.06    0.18
   6  -3   2   -0.25    0.19
   6  -3   1   -0.05    0.09
   6  -3   0   -0.03    0.11
   6  -3  -1    1.33    0.15
   6  -3  -2    0.32    0.14
   6  -3  -3    0.39    0.15
  -6   3   3    0.53    0.06
   6  -3  -4    2.18    0.23
  -6   3   4    2.24    0.22
   6  -3  -5    0.09    0.17
  -6   3   5    0.14    0.15
   6  -3  -6    0.32    0.21
  -6   3   6    0.23    0.20
   6  -4   3   -0.05    0.24
   6  -4   2    1.56    0.25
   6  -4   1    0.75    0.23
   6  -4   0    5.15    0.27
   6  -4  -1    1.09    0.17
   6  -4  -2    1.23    0.16
   6  -4  -3    0.28    0.16
   6  -4  -4    4.12    0.27
   6  -4  -5    0.56    0.17
   6  -4  -6    3.64    0.31
  -6   4   6    3.92    0.29
   6  -5   1    1.36    0.22
   6  -5   0    1.07    0.22
   6  -5  -1    5.65    0.30
   6  -5  -2    0.08    0.16
   6  -5  -3    0.50    0.19
   6  -5  -4    0.28    0.19
   7   5   5    0.92    0.41
  -7  -5  -5    0.40    0.22
   7   5   4    0.64    0.30
  -7  -5  -4    0.79    0.23
   7   5   3    0.41    0.29
  -7  -5  -3    0.17    0.19
   7   5   2    6.24    0.46
  -7  -5  -2    5.82    0.35
   7   5   1   -0.06    0.30
  -7  -5  -1    0.19    0.17
   7   5   0    1.68    0.34
  -7  -5   0    1.94    0.25
   7   4   5    1.71    0.47
  -7  -4  -5    1.97    0.27
   7   4   4    0.28    0.40
  -7  -4  -4    0.49    0.20
   7   4   3    0.52    0.39
  -7  -4  -3    0.58    0.19
   7   4   2    1.46    0.29
  -7  -4  -2    1.56    0.21
   7   4   1    2.07    0.34
  -7  -4  -1    2.48    0.27
   7   4   0   -0.07    0.28
  -7  -4   0    0.33    0.18
   7   4  -1   -0.15    0.43
  -7  -4   1    0.02    0.17
   7   3   6    0.51    0.40
  -7  -3  -6    0.27    0.23
   7   3   5    4.95    0.61
  -7  -3  -5    3.53    0.32
   7   3   4    0.90    0.43
  -7  -3  -4   -0.16    0.19
   7   3   3    2.33    0.47
  -7  -3  -3    2.79    0.28
   7   3   2    3.04    0.50
  -7  -3  -2    3.24    0.29
   7   3   1    7.48    0.71
  -7  -3  -1    7.39    0.59
   7   3   0    1.31    0.50
  -7  -3   0    2.23    0.23
   7   3  -1    0.58    0.43
  -7  -3   1   -0.06    0.16
  -7  -3   2    0.24    0.15
   7   2   6    0.61    0.40
   7   2   5    0.14    0.32
  -7  -2  -5    0.03    0.19
   7   2   4    0.03    0.41
  -7  -2  -4    0.15    0.19
   7   2   3    0.39    0.41
  -7  -2  -3    0.11    0.17
   7   2   2   -0.05    0.41
  -7  -2  -2   -0.01    0.18
   7   2   1    0.15    0.39
  -7  -2  -1    0.26    0.18
   7   2   0    1.37    0.43
  -7  -2   0    0.66    0.18
   7   2  -1    0.50    0.42
  -7  -2   1    0.22    0.17
   7   2  -2    0.81    0.49
  -7  -2   2    0.12    0.16
  -7  -2   3    2.20    0.28
   7   1   5    1.47    0.48
  -7  -1  -5    0.91    0.19
  -7  -1  -4   -0.12    0.19
   7   1   3    0.19    0.29
  -7  -1  -3   -0.03    0.18
   7   1   2    0.19    0.20
  -7  -1  -2    0.40    0.17
   7   1   1    0.52    0.45
  -7  -1  -1    0.76    0.17
   7   1   0   -0.13    0.42
  -7  -1   0    0.12    0.15
   7   1  -1    0.00    0.43
  -7  -1   1   -0.11    0.15
  -7  -1   2    0.00    0.22
   7   1  -3    0.31    0.36
  -7  -1   3    0.55    0.25
   7   0   4    0.63    0.46
  -7   0  -4    0.73    0.17
   7   0   3    0.46    0.45
  -7   0  -3    0.08    0.16
   7   0   2    1.04    0.22
  -7   0  -2    1.47    0.19
   7   0   1    4.88    0.35
  -7   0  -1    5.01    0.28
   7   0   0    0.08    0.17
  -7   0   0    0.04    0.15
   7   0  -1    0.30    0.18
  -7   0   1    0.44    0.13
   7   0  -2    4.56    0.39
  -7   0   2    4.76    0.43
   7   0  -3   -0.06    0.32
  -7   0   3    0.11    0.19
  -7   1  -3    1.72    0.18
   7  -1   2    0.99    0.46
  -7   1  -2    0.48    0.13
   7  -1   1   -0.07    0.25
  -7   1  -1    0.00    0.12
   7  -1   0    0.64    0.22
  -7   1   0    0.96    0.15
   7  -1  -1   -0.25    0.21
  -7   1   1   -0.06    0.14
   7  -1  -2    0.40    0.29
  -7   1   2    0.33    0.14
   7  -1  -3    0.60    0.39
  -7   1   3    0.24    0.16
   7  -2   2   -0.18    0.32
   7  -2   1    2.79    0.42
   7  -2   0    0.19    0.25
   7  -2  -1    2.92    0.38
   7  -2  -2    0.58    0.38
   0   0   0    0.00    0.00
;
_shelx_hkl_checksum              39089
loop_
_space_group_symop_operation_xyz
'x, y, z'
'-x, -y, -z'
loop_
_atom_site_label
_atom_site_type_symbol
_atom_site_fract_x
_atom_site_fract_y
_atom_site_fract_z
_atom_site_U_iso_or_equiv
_atom_site_adp_type
_atom_site_occupancy
_atom_site_site_symmetry_order
_atom_site_calc_flag
F2 F 0.37914(15) 0.65594(11) 0.12069(9) 0.0346(3) Uani 1 1 d
F4 F 0.47532(15) 0.70509(11) 0.33689(9) 0.0342(3) Uani 1 1 d
F6 F 0.16429(16) 0.88523(11) 0.44583(8) 0.0331(3) Uani 1 1 d
F8 F -0.26057(16) 1.00874(11) 0.33700(9) 0.0350(3) Uani 1 1 d
F10 F -0.36225(14) 0.96249(10) 0.11990(8) 0.0299(2) Uani 1 1 d
N17 N -0.1700(2) 0.63168(16) -0.41823(13) 0.0303(3) Uani 1 1 d
C1 C 0.2138(3) 0.74372(17) 0.17067(14) 0.0245(3) Uani 1 1 d
C3 C 0.2680(2) 0.76800(17) 0.28287(14) 0.0262(3) Uani 1 1 d
C5 C 0.1105(3) 0.85828(17) 0.33942(14) 0.0249(3) Uani 1 1 d
C7 C -0.1032(3) 0.92074(17) 0.28371(14) 0.0247(3) Uani 1 1 d
C9 C -0.1526(2) 0.89491(17) 0.17173(14) 0.0238(3) Uani 1 1 d
C11 C 0.0005(2) 0.80490(17) 0.11077(13) 0.0227(3) Uani 1 1 d
C12 C -0.0704(3) 0.78188(17) -0.00652(14) 0.0243(3) Uani 1 1 d
H12 H -0.216(4) 0.833(3) -0.031(2) 0.051(6) Uiso 1 1 d
C13 C 0.0471(3) 0.69579(17) -0.07524(15) 0.0274(3) Uani 1 1 d
H13 H 0.211(4) 0.634(2) -0.046(2) 0.050(6) Uiso 1 1 d
C14 C -0.0338(3) 0.67703(17) -0.19151(14) 0.0250(3) Uani 1 1 d
C15 C -0.2504(3) 0.74676(19) -0.24700(15) 0.0284(3) Uani 1 1 d
H15 H -0.356(4) 0.815(3) -0.213(2) 0.051(6) Uiso 1 1 d
C16 C -0.3081(3) 0.72138(19) -0.35754(15) 0.0297(4) Uani 1 1 d
H16 H -0.459(4) 0.768(2) -0.4030(19) 0.044(5) Uiso 1 1 d
C18 C 0.0365(3) 0.56541(18) -0.36466(15) 0.0281(3) Uani 1 1 d
H18 H 0.132(3) 0.500(2) -0.4124(19) 0.046(6) Uiso 1 1 d
C19 C 0.1114(3) 0.58402(18) -0.25459(15) 0.0269(3) Uani 1 1 d
H19 H 0.271(3) 0.534(2) -0.2184(18) 0.041(5) Uiso 1 1 d
loop_
_atom_site_aniso_label
_atom_site_aniso_U_11
_atom_site_aniso_U_22
_atom_site_aniso_U_33
_atom_site_aniso_U_23
_atom_site_aniso_U_13
_atom_site_aniso_U_12
F2 0.0267(5) 0.0418(6) 0.0379(5) -0.0208(4) -0.0074(4) 0.0093(4)
F4 0.0253(5) 0.0417(6) 0.0354(5) -0.0121(4) -0.0133(4) 0.0024(4)
F6 0.0386(5) 0.0390(5) 0.0261(5) -0.0144(4) -0.0091(4) -0.0051(4)
F8 0.0341(5) 0.0417(6) 0.0320(5) -0.0199(4) -0.0032(4) 0.0060(4)
F10 0.0236(5) 0.0364(5) 0.0298(5) -0.0133(4) -0.0077(3) 0.0054(4)
N17 0.0322(7) 0.0320(7) 0.0287(7) -0.0125(5) -0.0044(5) -0.0018(5)
C1 0.0241(7) 0.0249(7) 0.0253(7) -0.0100(6) -0.0012(6) -0.0007(6)
C3 0.0221(7) 0.0264(8) 0.0285(8) -0.0060(6) -0.0053(6) -0.0022(6)
C5 0.0302(8) 0.0264(7) 0.0197(7) -0.0068(6) -0.0052(6) -0.0077(6)
C7 0.0257(7) 0.0248(7) 0.0243(7) -0.0099(6) -0.0001(6) -0.0011(6)
C9 0.0213(7) 0.0248(8) 0.0246(7) -0.0067(6) -0.0052(6) -0.0013(6)
C11 0.0233(7) 0.0222(7) 0.0216(7) -0.0051(5) -0.0021(6) -0.0041(5)
C12 0.0242(7) 0.0254(7) 0.0234(7) -0.0076(6) -0.0045(6) -0.0024(6)
C13 0.0265(8) 0.0267(8) 0.0292(8) -0.0091(6) -0.0072(6) -0.0001(6)
C14 0.0284(7) 0.0235(7) 0.0234(7) -0.0076(6) -0.0030(6) -0.0026(6)
C15 0.0276(8) 0.0297(8) 0.0291(8) -0.0133(6) -0.0018(6) 0.0017(6)
C16 0.0290(8) 0.0335(8) 0.0283(8) -0.0128(6) -0.0055(6) 0.0002(6)
C18 0.0321(8) 0.0273(8) 0.0267(8) -0.0119(6) -0.0015(6) -0.0013(6)
C19 0.0275(8) 0.0251(8) 0.0273(8) -0.0082(6) -0.0039(6) 0.0001(6)
loop_
_atom_type_symbol
_atom_type_description
_atom_type_scat_dispersion_real
_atom_type_scat_dispersion_imag
_atom_type_scat_source
C C 0.0033 0.0016 'International Tables Vol C Tables 4.2.6.8 and 6.1.1.4'
H H 0.0000 0.0000 'International Tables Vol C Tables 4.2.6.8 and 6.1.1.4'
N N 0.0061 0.0033 'International Tables Vol C Tables 4.2.6.8 and 6.1.1.4'
F F 0.0171 0.0103 'International Tables Vol C Tables 4.2.6.8 and 6.1.1.4'
loop_
_geom_angle_atom_site_label_1
_geom_angle_atom_site_label_2
_geom_angle_atom_site_label_3
_geom_angle
C18 N17 C16 115.76(13)
F2 C1 C3 116.46(13)
F2 C1 C11 120.70(13)
C3 C1 C11 122.85(14)
F4 C3 C5 119.44(13)
F4 C3 C1 120.26(13)
C5 C3 C1 120.29(14)
F6 C5 C3 120.52(14)
F6 C5 C7 120.64(14)
C3 C5 C7 118.84(14)
F8 C7 C9 120.19(13)
F8 C7 C5 120.14(13)
C9 C7 C5 119.65(14)
F10 C9 C7 116.91(13)
F10 C9 C11 119.39(12)
C7 C9 C11 123.70(13)
C9 C11 C1 114.64(13)
C9 C11 C12 119.51(13)
C1 C11 C12 125.85(14)
C13 C12 C11 128.26(14)
C13 C12 H12 119.8(14)
C11 C12 H12 112.0(14)
C12 C13 C14 125.66(14)
C12 C13 H13 119.9(11)
C14 C13 H13 114.5(11)
C19 C14 C15 116.38(14)
C19 C14 C13 119.13(14)
C15 C14 C13 124.50(14)
C16 C15 C14 119.48(14)
C16 C15 H15 118.4(13)
C14 C15 H15 122.0(13)
N17 C16 C15 124.42(15)
N17 C16 H16 111.6(11)
C15 C16 H16 123.9(11)
N17 C18 C19 124.34(15)
N17 C18 H18 112.9(11)
C19 C18 H18 122.8(11)
C18 C19 C14 119.61(15)
C18 C19 H19 121.9(11)
C14 C19 H19 118.4(11)
loop_
_geom_bond_atom_site_label_1
_geom_bond_atom_site_label_2
_geom_bond_distance
F2 C1 1.3486(17)
F4 C3 1.3417(17)
F6 C5 1.3337(17)
F8 C7 1.3439(17)
F10 C9 1.3519(17)
N17 C18 1.341(2)
N17 C16 1.347(2)
C1 C3 1.383(2)
C1 C11 1.395(2)
C3 C5 1.378(2)
C5 C7 1.380(2)
C7 C9 1.379(2)
C9 C11 1.393(2)
C11 C12 1.464(2)
C12 C13 1.334(2)
C12 H12 0.91(2)
C13 C14 1.459(2)
C13 H13 1.04(2)
C14 C19 1.403(2)
C14 C15 1.404(2)
C15 C16 1.377(2)
C15 H15 0.95(2)
C16 H16 1.00(2)
C18 C19 1.380(2)
C18 H18 1.00(2)
C19 H19 1.013(19)
loop_
_geom_torsion_atom_site_label_1
_geom_torsion_atom_site_label_2
_geom_torsion_atom_site_label_3
_geom_torsion_atom_site_label_4
_geom_torsion
F2 C1 C3 F4 -0.3(2)
C11 C1 C3 F4 179.42(13)
F2 C1 C3 C5 179.03(12)
C11 C1 C3 C5 -1.2(2)
F4 C3 C5 F6 1.0(2)
C1 C3 C5 F6 -178.35(13)
F4 C3 C5 C7 -179.23(13)
C1 C3 C5 C7 1.4(2)
F6 C5 C7 F8 -0.5(2)
C3 C5 C7 F8 179.76(12)
F6 C5 C7 C9 178.25(13)
C3 C5 C7 C9 -1.5(2)
F8 C7 C9 F10 0.4(2)
C5 C7 C9 F10 -178.31(12)
F8 C7 C9 C11 -179.81(12)
C5 C7 C9 C11 1.5(2)
F10 C9 C11 C1 178.59(12)
C7 C9 C11 C1 -1.2(2)
F10 C9 C11 C12 -1.5(2)
C7 C9 C11 C12 178.77(14)
F2 C1 C11 C9 -179.22(12)
C3 C1 C11 C9 1.0(2)
F2 C1 C11 C12 0.8(2)
C3 C1 C11 C12 -178.90(14)
C9 C11 C12 C13 -177.33(14)
C1 C11 C12 C13 2.6(3)
C11 C12 C13 C14 179.75(14)
C12 C13 C14 C19 179.10(14)
C12 C13 C14 C15 -0.7(3)
C19 C14 C15 C16 -0.1(2)
C13 C14 C15 C16 179.70(14)
C18 N17 C16 C15 -0.3(2)
C14 C15 C16 N17 0.4(3)
C16 N17 C18 C19 0.0(2)
N17 C18 C19 C14 0.3(2)
C15 C14 C19 C18 -0.2(2)
C13 C14 C19 C18 179.98(14)
