#------------------------------------------------------------------------------
#$Date: 2019-11-24 21:47:30 +0200 (Sun, 24 Nov 2019) $
#$Revision: 239510 $
#$URL: file:///home/coder/svn-repositories/cod/cif/4/51/67/4516751.cif $
#------------------------------------------------------------------------------
#
# This file is available in the Crystallography Open Database (COD),
# http://www.crystallography.net/
#
# All data on this site have been placed in the public domain by the
# contributors.
#
data_4516751
loop_
_publ_author_name
'Jaffe, Adam'
'Lin, Yu'
'Beavers, Christine M.'
'Voss, Johannes'
'Mao, Wendy L.'
'Karunadasa, Hemamala I.'
_publ_section_title
;
 High-Pressure Single-Crystal Structures of 3D Lead-Halide Hybrid
 Perovskites and Pressure Effects on their Electronic and Optical
 Properties.
;
_journal_issue                   4
_journal_name_full               'ACS central science'
_journal_page_first              201
_journal_page_last               209
_journal_paper_doi               10.1021/acscentsci.6b00055
_journal_volume                  2
_journal_year                    2016
_chemical_formula_sum            'C H6 Br3 N Pb'
_chemical_formula_weight         478.99
_space_group_crystal_system      cubic
_space_group_IT_number           221
_space_group_name_Hall           '-P 4 2 3'
_space_group_name_H-M_alt        'P m -3 m'
_atom_sites_solution_primary     'intrinsic phasing'
_atom_sites_solution_secondary   difmap
_audit_creation_method           SHELXL-2014/7
_cell_angle_alpha                90
_cell_angle_beta                 90
_cell_angle_gamma                90
_cell_formula_units_Z            1
_cell_length_a                   5.9328(14)
_cell_length_b                   5.9328(14)
_cell_length_c                   5.9328(14)
_cell_measurement_reflns_used    567
_cell_measurement_temperature    296(2)
_cell_measurement_theta_max      21.3
_cell_measurement_theta_min      3.52
_cell_volume                     208.82(9)
_computing_cell_refinement       'SAINT V8.34A(Bruker, 2013)'
_computing_data_collection       'Apex2 v2014.11-0 (Bruker, 2014)'
_computing_data_reduction        SAINT
_computing_molecular_graphics
;
     	SHELXTL 5.1, XP (Sheldrick, 1994)
	ShelXle Rev 699 (Hubschle, 2011)
	WinCoot, (P.Emsley, B.Lohkamp W.G.Scott and K.Cowtand, 2010)
;
_computing_publication_material  SHELXL-2014/7
_computing_structure_refinement  'SHELXL-2014/7 (Sheldrick, 2014)'
_computing_structure_solution    'SHELXT (Sheldrick, 2012)'
_diffrn_ambient_temperature      296(2)
_diffrn_detector_area_resol_mean 10.42
_diffrn_measured_fraction_theta_full 1.000
_diffrn_measured_fraction_theta_max 1.000
_diffrn_measurement_device_type  'Bruker D8 with PHOTON 100 detector'
_diffrn_measurement_method       '\f and \w shutterless scans'
_diffrn_radiation_monochromator  'silicon 111'
_diffrn_radiation_type           synchrotron
_diffrn_radiation_wavelength     0.7293
_diffrn_reflns_av_R_equivalents  0.0313
_diffrn_reflns_av_unetI/netI     0.0076
_diffrn_reflns_Laue_measured_fraction_full 1.000
_diffrn_reflns_Laue_measured_fraction_max 1.000
_diffrn_reflns_limit_h_max       9
_diffrn_reflns_limit_h_min       -9
_diffrn_reflns_limit_k_max       9
_diffrn_reflns_limit_k_min       -9
_diffrn_reflns_limit_l_max       9
_diffrn_reflns_limit_l_min       -9
_diffrn_reflns_number            4451
_diffrn_reflns_point_group_measured_fraction_full 1.000
_diffrn_reflns_point_group_measured_fraction_max 1.000
_diffrn_reflns_theta_full        25.950
_diffrn_reflns_theta_max         34.053
_diffrn_reflns_theta_min         3.524
_diffrn_source
;
Advanced Light Source, station 11.3.1
;
_exptl_absorpt_coefficient_mu    34.335
_exptl_absorpt_correction_T_max  0.4404
_exptl_absorpt_correction_T_min  0.3199
_exptl_absorpt_correction_type   multi-scan
_exptl_absorpt_process_details   'SADABS-2014/5 (Sheldrick, 2015)'
_exptl_crystal_colour            orange
_exptl_crystal_density_diffrn    3.809
_exptl_crystal_description       block
_exptl_crystal_F_000             206
_exptl_crystal_size_max          0.030
_exptl_crystal_size_mid          0.020
_exptl_crystal_size_min          0.010
_refine_diff_density_max         0.464
_refine_diff_density_min         -0.593
_refine_diff_density_rms         0.151
_refine_ls_extinction_method     none
_refine_ls_goodness_of_fit_ref   1.274
_refine_ls_hydrogen_treatment    undef
_refine_ls_matrix_type           full
_refine_ls_number_parameters     10
_refine_ls_number_reflns         113
_refine_ls_number_restraints     3
_refine_ls_restrained_S_all      1.256
_refine_ls_R_factor_all          0.0153
_refine_ls_R_factor_gt           0.0153
_refine_ls_shift/su_max          0.000
_refine_ls_shift/su_mean         0.000
_refine_ls_structure_factor_coef Fsqd
_refine_ls_weighting_details
'w=1/[\s^2^(Fo^2^)+(0.0263P)^2^+0.0660P] where P=(Fo^2^+2Fc^2^)/3'
_refine_ls_weighting_scheme      calc
_refine_ls_wR_factor_gt          0.0408
_refine_ls_wR_factor_ref         0.0408
_reflns_Friedel_coverage         0.000
_reflns_number_gt                113
_reflns_number_total             113
_reflns_threshold_expression     'I > 2\s(I)'
_cod_data_source_file            oc6b00055_si_005.cif
_cod_data_source_block           MAPbBr3_RT
_cod_original_cell_volume        208.82(15)
_cod_database_code               4516751
_shelx_shelxl_version_number     2014/7
_shelx_space_group_comment
;
The symmetry employed for this shelxl refinement is uniquely defined
by the following loop, which should always be used as a source of
symmetry information in preference to the above space-group names.
They are only intended as comments.
;
_shelx_estimated_absorpt_t_min   0.426
_shelx_estimated_absorpt_t_max   0.725
_shelx_res_file
;

    sad_a.res created by SHELXL-2014/7


TITL sad_a.res in Pm-3m
REM Old TITL sad in Pm-3m

REM SHELXT solution in Pm-3m
REM R1 0.453,  Rweak 0.494,  Alpha 0.034,  Orientation as input
REM Formula found by SHELXT:  N Br3 Pb

CELL  0.72930   5.9328   5.9328   5.9328   90.000   90.000   90.000
ZERR    1.000   0.0014   0.0014   0.0014    0.000    0.000    0.000
LATT  1
SYMM -X, -Y, Z
SYMM -X, Y, -Z
SYMM X, -Y, -Z
SYMM Z, X, Y
SYMM Z, -X, -Y
SYMM -Z, -X, Y
SYMM -Z, X, -Y
SYMM Y, Z, X
SYMM -Y, Z, -X
SYMM Y, -Z, -X
SYMM -Y, -Z, X
SYMM Y, X, -Z
SYMM -Y, -X, -Z
SYMM Y, -X, Z
SYMM -Y, X, Z
SYMM X, Z, -Y
SYMM -X, Z, Y
SYMM -X, -Z, -Y
SYMM X, -Z, Y
SYMM Z, Y, -X
SYMM Z, -Y, X
SYMM -Z, Y, X
SYMM -Z, -Y, -X
SFAC C H N BR PB
DISP $C  0.00341  0.00169 11.32113!source kissel
DISP $H -0.00002  0.00000  0.66638!source kissel
DISP $N  0.00664  0.00342 19.38436!source kissel
DISP $Br -0.27128  2.47050 10018.37566!source kissel
DISP $Pb -3.41943 10.20082 41609.52882!source kissel
UNIT 1 6 1 3 1
SIZE 0.03 0.02 0.01 !orange block
REM DFIX 1.5 0.1 C1 N1
TEMP -273.150
L.S. 300
BOND $H
LIST 4
ACTA
FMAP 2
PLAN 20
EXYZ C1 N1
EADP C1 N1
EXYZ C2 N2
EADP C2 N2
EXYZ C3 N3
EADP C3 N3
EQIV $1 -x, -y, -z
EQIV $2 +z, +y, +x
EQIV $3 -z, -x, -y
RTAB MA C1 N1_$1
RTAB MA C2 N2_$2
RTAB MA C3 N3_$3
SADI 0.05 C1 N1_$1 C2 N2_$2 C3 N3_$3
WGHT    0.026300    0.066000
FVAR       0.71502
PB01  5    0.500000    0.500000    0.500000    10.02083    0.02551    0.02551 =
         0.02551    0.00000    0.00000    0.00000

BR02  4    0.000000    0.500000    0.500000    10.06250    0.02221    0.13642 =
         0.13642    0.00000    0.00000    0.00000
part 1
C1    1    0.000000   -0.120298    0.000000    10.00521    0.02991
N1    3    0.000000   -0.120298    0.000000    10.00521    0.02991
part 2
C2    1    0.084729    0.000000   -0.084729    10.01041    0.05305
N2    3    0.084729    0.000000   -0.084729    10.01041    0.05305
Part 3
C3    1    0.069251    0.069251    0.069251    10.00521    0.04098
N3    3    0.069251    0.069251    0.069251    10.00521    0.04098
Part 0
HKLF 4

REM  sad_a.res in Pm-3m
REM R1 =  0.0153 for     113 Fo > 4sig(Fo)  and  0.0153 for all     113 data
REM     10 parameters refined using      3 restraints

END

WGHT      0.0250      0.0722

REM Highest difference peak  0.464,  deepest hole -0.593,  1-sigma level  0.151
Q1    1  -0.0664 -0.1960  0.0000  10.50000  0.05    0.46
Q2    1   0.0000  0.3944  0.5000  10.25000  0.05    0.36
Q3    1   0.1463  0.1463  0.1463  10.16667  0.05    0.31
Q4    1   0.2070  0.0000 -0.2585  10.50000  0.05    0.24
Q5    1   0.2278  0.5000  0.2278  10.25000  0.05    0.19
Q6    1   0.2971  0.2971  0.2017  10.50000  0.05    0.17
Q7    1   0.0000  0.2164  0.5000  10.25000  0.05    0.17
Q8    1   0.2784 -0.0760 -0.2784  10.50000  0.05    0.16
Q9    1   0.2345  0.4695  0.4313  11.00000  0.05    0.15
Q10   1   0.5000  0.4036  0.5000  10.12500  0.05    0.13
Q11   1   0.3993  0.3993  0.2627  10.50000  0.05    0.12
Q12   1   0.1690  0.3736  0.3736  10.50000  0.05    0.12
Q13   1   0.1572  0.2610  0.5000  10.50000  0.05    0.12
Q14   1   0.3609  0.1562  0.2147  11.00000  0.05    0.12
Q15   1   0.1309  0.5000  0.1309  10.25000  0.05    0.11
Q16   1   0.2790  0.2790  0.5000  10.25000  0.05    0.09
Q17   1   0.0000  0.2522  0.3936  10.50000  0.05    0.08
Q18   1   0.2038  0.2038  0.4262  10.50000  0.05    0.07
Q19   1   0.2347  0.3648  0.5000  10.50000  0.05    0.07
Q20   1   0.1002  0.1945  0.5000  10.50000  0.05    0.06
;
_shelx_res_checksum              94550
_shelx_hkl_file
;
   1   0   0 4054.99   71.69
   1   0   0 3874.61   72.49
  -1   0   0 3971.60   72.09
   0   1   0 4079.99   71.99
   0   0   1 4026.70   71.09
   0   0  -1 4070.09   71.09
   0   1   0 3999.60   72.09
   0  -1   1 1257.57   25.60
   0  -1   1 1371.36   32.30
   0   1   1 1298.57   24.60
   1  -1   0 1327.67   25.80
  -1   0  -1 1293.07   25.10
  -1   0   1 1304.17   24.80
  -1   1   0 1370.16   27.80
   0   1  -1 1377.56   26.60
   1  -1   0 1239.88   23.20
   1   0  -1 1288.87   24.90
   1   0   1 1253.27   22.60
   1   1   0 1315.87   25.70
   1  -1   0 1281.97   24.50
   1   0   1 1323.27   25.90
   1   1   0 1300.47   27.20
   0   1   1 1342.87   28.90
   1   1   0 1253.37   26.10
   0  -1   1 1301.57   24.50
   0   1   1 1292.27   24.70
  -1  -1   0 1288.87   29.80
  -1   0  -1 1315.37   23.20
  -1   0   1 1318.97   29.40
  -1   1   0 1312.37   25.70
   0  -1  -1 1302.97   24.70
  -1   0   1 1315.07   25.20
   1   0   1 1241.78   23.70
   0   1  -1 1275.57   25.70
   1   0  -1 1287.07   29.80
   1   1   0 1281.37   31.50
  -1  -1  -1  156.68    4.90
  -1  -1  -1  157.28    8.50
  -1  -1   1  159.78   10.00
   1  -1   1  163.18    6.10
   1   1   1  157.98    7.10
   1   1  -1  157.88   11.30
   1  -1   1  156.98    3.80
   1   1   1  166.88    6.50
  -1   1   1  155.48    5.50
  -1   1  -1  159.68    8.30
  -1   1   1  160.08    9.20
   1   1  -1  168.58    5.50
   1   1   1  169.38   10.00
   1  -1   1  164.68    5.50
   1  -1  -1  159.58    4.70
  -1   1   1  154.68    6.60
   1  -1  -1  164.78    7.30
  -1  -1   1  162.38    6.70
  -1   1  -1  158.58    5.50
   1   1  -1  164.98    7.10
  -2   0   0 9530.95  170.08
   0   2   0 9452.15  170.58
   0   2   0 9522.75  170.38
   2   0   0 9336.87  168.98
   0   0  -2 9999.00  168.88
   0   0   2 9618.04  167.98
   2   1   0 3481.75   63.99
   2   0   1 3431.06   65.89
  -2  -1   0 3567.64   69.59
   1   0  -2 3362.56   63.19
   2  -1   0 3413.76   61.59
   0   2  -1 3562.44   67.99
   1   0  -2 3520.15   71.09
   0  -1   2 3549.04   69.89
   0  -2  -1 3383.96   64.09
   0  -2   1 3508.05   65.09
   0   2  -1 3531.25   65.79
   0   2   1 3569.44   64.39
  -1   0   2 3502.95   69.39
  -2   0   1 3457.35   64.39
   0  -1   2 3492.65   63.99
   0   1   2 3533.35   64.19
   0   1   2 3477.25   62.69
   1  -2   0 3450.35   64.79
   2  -1   0 3598.94   66.49
   2   1   0 3498.35   72.39
   1   2   0 3681.23   67.39
   2   0  -1 3501.25   63.79
  -2   0  -1 3496.85   64.09
  -2   0   1 3491.15   69.89
  -1  -2   0 3433.36   65.39
  -1  -2   0 3700.03   75.79
  -1   2   0 3523.55   64.89
   0  -1  -2 3482.85   64.09
  -2   0  -1 3513.45   64.29
  -2   0   1 3564.34   62.59
  -1   2   0 3520.35   68.79
   0   1  -2 3496.85   64.39
   0   1   2 3549.34   69.99
   1   2   0 3400.26   67.19
  -2   1   0 3610.14   66.69
  -1   0  -2 3484.15   64.09
  -1   0   2 3359.56   65.69
   0   2  -1 3612.04   67.19
   0   2   1 3569.74   69.89
   1   2   0 3418.96   65.59
   2   0   1 3506.95   65.79
  -1   0   2 3455.45   64.09
   0  -2   1 3467.25   61.99
   0   2   1 3539.95   62.59
   2   0  -1 3505.35   71.79
   2  -1   0 3478.75   65.39
   2   1   0 3520.75   67.79
  -2   1   0 3523.25   65.69
   0   1  -2 3605.54   64.59
   1   0   2 3477.55   64.79
  -1  -2  -1 1231.68   25.90
  -1  -2   1 1246.58   35.80
  -2   1  -1 1272.37   29.00
  -2   1   1 1301.27   29.00
  -1   1  -2 1260.57   27.90
  -2  -1  -1 1293.57   28.90
  -1  -1  -2 1204.58   21.80
  -2   1  -1 1234.38   26.00
  -2   1   1 1292.27   29.20
  -1   2   1 1222.48   26.80
   1  -2  -1 1231.28   27.20
   1  -2   1 1253.57   26.50
   1  -1  -2 1253.17   29.30
   1  -1   2 1254.67   24.70
   1   1  -2 1262.37   35.30
   1   2   1 1290.57   26.80
   2  -1  -1 1254.97   29.80
   2  -1   1 1227.98   26.50
   2   1  -1 1256.37   35.60
   2   1   1 1257.67   31.50
  -1   1   2 1249.77   30.80
  -1   2  -1 1281.67   30.10
  -1   2   1 1275.17   31.80
   1   1  -2 1278.57   24.80
   1   1   2 1250.17   32.40
  -2  -1   1 1265.27   32.80
  -1  -1  -2 1231.18   23.00
  -1  -1   2 1240.68   32.10
  -2   1   1 1244.68   25.60
  -1  -2   1 1239.98   25.60
  -1  -1   2 1254.37   26.60
  -1   1   2 1252.77   25.90
  -1   2   1 1253.47   23.60
   1  -2   1 1272.17   24.10
   1  -1   2 1291.17   26.70
   1   1   2 1269.37   27.30
   1   2   1 1253.47   28.30
   2  -1   1 1262.27   26.90
   2   1   1 1284.27   28.60
  -1   1  -2 1241.08   25.40
  -1   1   2 1281.87   27.80
  -1   2  -1 1297.67   27.00
  -1   1  -2 1310.97   27.60
   1  -2  -1 1236.88   23.50
   1  -1  -2 1259.17   24.30
   1   1  -2 1292.97   27.00
   1   2  -1 1269.97   29.00
   1   2   1 1272.97   29.00
   2  -1  -1 1247.18   24.60
   2  -1   1 1214.58   23.10
   2   1  -1 1241.28   26.90
   2   1   1 1282.47   25.10
  -2  -1  -1 1244.08   24.50
   1   2  -1 1248.98   27.60
   1   2   1 1254.87   31.40
  -2   0   2 5892.81  105.29
   0  -2   2 5989.70  104.09
   0   2  -2 5326.57  111.59
   2   0  -2 5781.52  104.59
   2   2   0 5230.48  112.19
   0  -2   2 5768.62  105.59
   0  -2   2 6293.77  118.79
   0   2   2 5822.72  103.89
   2  -2   0 5882.21  106.49
  -2  -2   0 6222.68  114.19
   2   0  -2 6092.19  115.69
  -2   2   0 5722.73  105.99
   0  -2  -2 5801.82  104.49
  -2   0  -2 5768.32  105.19
  -2   0   2 5513.55  105.49
   0   2  -2 5940.21  107.09
   0   2   2 5973.50  112.89
   2   2   0 5819.32  107.49
   2  -2   0 5792.92  103.59
   2   0   2 6010.70  106.59
  -2   0   2 5999.00  112.69
   0   2   2 6000.30  104.49
   2   2   0 5956.50  120.39
   2   0   2 5836.22  103.39
   2   1  -2 2710.63   54.09
   2   2   1 2820.42   54.69
  -1   2  -2 2803.52   53.99
  -1   2   2 2784.22   53.89
   1  -2  -2 2816.02   55.19
   2  -1   2 2681.23   48.70
   1   2  -2 2677.83   68.89
   2  -1  -2 2709.33   51.49
  -1   2  -2 2845.22   57.79
   1  -2  -2 2710.53   50.09
   1   2  -2 2814.82   56.19
   2  -2  -1 2780.52   50.39
   2  -2   1 2538.95   49.99
   2   1   2 2872.21   50.39
   2   2  -1 2829.12   56.09
  -2  -2  -1 2837.72   54.09
  -2  -2  -1 2817.92   59.99
  -2  -2   1 2836.22   62.39
  -2  -1  -2 2779.82   49.70
  -2  -1  -2 2858.61   51.79
  -2  -1   2 2928.51   62.09
  -2   1  -2 2728.63   51.49
  -2   1   2 2801.82   57.19
  -2   2  -1 2789.82   53.69
  -2   2   1 2793.32   55.29
  -1  -2  -2 2689.43   51.39
  -1  -2   2 2910.41   63.99
   1   2  -2 2803.92   53.89
  -2  -1   2 2861.71   54.29
  -2   2   1 2793.32   50.79
  -1  -2   2 2790.62   53.09
  -1   2   2 2833.02   52.19
   1   2   2 2845.02   51.99
   2  -2  -1 2910.81   56.29
   2  -2   1 2822.82   54.09
   2  -1  -2 2829.52   59.49
   2  -1   2 2812.02   51.89
   2   1  -2 2842.72   65.89
   2   2  -1 2875.21   69.69
   2   2   1 2782.32   56.19
   2   2   1 2647.64   64.09
  -2   2   1 2865.91   59.49
   1  -2   2 2766.72   52.99
  -2  -1  -2 2780.42   52.19
  -2   1  -2 2778.52   56.29
  -2   1   2 2837.72   57.39
  -2   2  -1 2865.61   58.89
   2  -1   2 2657.63   55.29
  -1   2  -2 2786.52   56.89
  -1   2   2 2854.31   60.69
   1   2   2 2772.92   60.99
   2   2  -1 2785.12   52.89
   1  -2   2 2790.62   52.49
   2   1   2 2699.63   54.99
   2  -2   1 2789.52   52.19
  -2  -2  -2 4092.19   77.99
  -2   2   2 3837.92   72.09
   2  -2   2 3877.41   73.29
  -2   2  -2 4014.50   73.79
  -2   2   2 3917.11   75.99
   2  -2  -2 3964.40   77.89
   2   2  -2 3980.20   76.69
   2   2   2 3973.90   74.49
   2   2  -2 3957.00   71.69
  -2  -2   2 4126.29   84.39
  -2   2  -2 3974.70   78.89
  -2   2   2 3977.40   81.19
   2  -2  -2 3745.43   71.09
  -2  -2  -2 3826.52   71.29
   2   2  -2 4027.60   92.19
   2  -2   2 3926.51   73.29
   0   3   0 1756.62   41.70
   0   0   3 1725.33   36.00
   0   0  -3 1708.33   39.60
   3   0   0 1683.73   34.20
   3   0   0 1707.73   39.30
   3   0   0 1725.53   42.20
   0   0  -3 1720.83   32.60
   0   3   0 1682.13   41.00
  -3   0   0 1691.93   39.70
   0  -3   0 1712.63   36.00
   0   0  -3 1727.63   38.90
   0   0   3 1689.53   36.90
   0   3   0 1764.42   36.70
  -3   0   0 1714.43   35.00
   1   3   0  538.45   19.70
   0   3   1  556.64   13.90
   0  -3   1  558.34   12.70
  -3   1   0  558.24   18.30
  -1   0  -3  570.94   15.70
   0   3  -1  557.54   19.80
   0   3   1  557.84   15.80
   1   0  -3  550.44   21.70
   1   0   3  571.24   11.20
   1   0   3  548.95   12.10
   3  -1   0  576.24   19.00
   3   1   0  534.85   23.20
  -3   0  -1  569.54   16.80
  -3   0   1  681.53   32.40
  -1  -3   0  582.84   16.60
  -1   3   0  559.54   16.10
   0  -1  -3  554.34   17.50
   0  -1   3  563.94   19.60
   0   1  -3  578.44   24.00
   0   1   3  567.54   13.90
   1  -3   0  569.24   16.20
   3   0  -1  569.34   22.40
   3   0   1  539.75   19.30
   0   1   3  561.44   16.20
   1   3   0  579.54   17.50
   3   0   1  567.44   18.30
  -3   1   0  570.34   17.60
  -1   0   3  536.85   19.40
   0  -3  -1  568.74   15.90
  -1   3   0  533.55   20.50
   0   1   3  541.55   21.40
   0   3   1  575.54   21.80
   1   0  -3  574.84   13.70
   3   0   1  565.24   13.70
  -1   0  -3  559.84   12.20
   0   3  -1  560.84   16.90
   1   0   3  585.24   16.70
   3   1   0  549.05   19.90
  -3  -1   0  594.04   20.70
  -1   0   3  542.55   16.00
   0  -1  -3  572.94   12.70
   0   1  -3  578.34   15.80
   1  -3   0  554.34   12.20
   1   3   0  569.74   20.30
   3   0  -1  575.04   15.30
  -3  -1   0  564.34   13.10
   0  -1   3  580.94   16.10
   0  -3   1  583.64   16.40
   3   1   0  553.04   15.60
  -3   0  -1  577.24   16.50
   0  -3  -1  570.14   12.00
   0   3  -1  537.15   20.80
   1   0  -3  556.24   14.50
   3  -1   0  572.84   13.50
  -3   0   1  584.54   14.90
   1  -3   1   56.69    5.80
   1  -3  -1   57.69    3.90
   1  -3  -1   49.50    6.20
  -1   3   1   81.19   14.30
  -1  -1   3   63.99    9.50
  -1   1   3   49.70    6.40
   1   1  -3   53.39    5.40
  -1   1  -3   64.09    7.30
   3  -1   1   52.89    8.00
   3   1  -1   80.09   11.40
   3   1   1   61.49    9.00
  -3  -1  -1   66.39    8.50
  -1   3  -1   58.09    6.10
  -1   3   1   55.79    5.80
   1  -1  -3   59.69    8.70
   1  -1   3   57.69    4.20
   1  -1   3   67.49    8.30
   1   1  -3   43.00   10.70
   1   1   3   55.69    2.40
   1   1  -3   50.49    6.50
   1   3  -1   78.69   10.80
   1   3   1   62.69    9.60
   1  -1  -3   47.50    5.70
   1  -3   1   58.99    3.60
   1  -1   3   54.29    6.90
   1   3   1   54.29    7.30
  -1  -3  -1   52.19    5.50
  -1  -3   1   60.39    6.50
  -1  -3   1   69.49   13.50
  -1  -1  -3   49.00    4.10
   1   3   1   62.09    6.00
   3  -1  -1   67.79    9.50
  -3  -1   1   51.39    3.40
  -3   1  -1   62.39    8.60
  -3   1   1   60.99    8.40
  -1   1  -3   53.29    7.40
   3   1   1   64.99   10.70
  -3   1   1   49.60    6.70
  -1  -3   1   58.09    5.60
  -1   1   3   58.69    6.50
  -1   3   1   58.09    3.60
   3  -1   1   55.59    4.80
   3   1  -1   60.79    7.70
   3   1   1   52.79    5.60
   1   3  -1   62.29    9.00
   1   3   1   65.89   10.30
   3   1  -1   68.59   13.60
   3  -1   1   58.19    7.00
  -3  -1   1   56.59    9.90
  -3   1   1   55.19    7.80
  -3   1  -1   56.39    5.80
  -1   1   3   59.69   10.60
   0   3   2 1503.95   31.30
   2   0   3 1423.96   33.20
   0  -2  -3 1446.96   27.60
   3   0   2 1452.95   28.30
   0   2   3 1526.15   30.70
   3   0  -2 1411.86   45.60
  -3  -2   0 1492.25   39.10
  -3   2   0 1524.95   34.00
  -2   0   3 1495.45   38.70
   0  -3  -2 1509.65   32.50
   0  -3   2 1438.06   32.60
   3   0  -2 1515.95   32.00
   2  -3   0 1429.26   28.10
   2   3   0 1396.56   39.00
   0   3   2 1426.06   39.90
  -3   0  -2 1500.85   33.00
  -3   0   2 1429.16   29.80
  -2   3   0 1509.75   39.60
   0   2  -3 1478.95   34.10
   0   2   3 1469.95   32.30
   2   3   0 1443.16   36.20
   3   0   2 1466.05   34.60
   0   2   3 1454.45   40.40
   2   3   0 1466.75   36.10
   0   2  -3 1488.35   35.20
   0  -3   2 1480.65   30.40
   3   0   2 1431.06   34.10
   0   3  -2 1467.45   37.80
   0  -3   2 1535.05   47.40
   0   3   2 1509.95   32.00
   2   0  -3 1493.95   42.20
  -3   2   0 1491.45   38.00
  -2   0  -3 1491.65   32.80
   0   3  -2 1461.85   36.20
  -3   0  -2 1462.15   29.90
  -3   0   2 1517.25   39.20
  -2  -3   0 1506.55   34.50
  -2  -3   0 1478.05   42.70
  -2   3   0 1558.64   33.40
   0  -2  -3 1463.55   32.40
   0  -2   3 1485.85   32.80
   3  -2   0 1475.35   33.50
   3   2   0 1461.05   37.30
   0  -2   3 1504.25   32.00
   3  -2   0 1463.65   28.70
   3   2   0 1459.25   33.70
  -3   0   2 1455.85   32.80
   3  -2   0 1516.85   34.80
   3   2   0 1448.46   46.70
   0  -3  -2 1484.35   27.70
  -2   0   3 1424.96   32.40
   0  -2   3 1496.45   41.00
  -3   2  -1  655.63   23.10
   1  -2   3  647.94   18.00
   1   3   2  642.44   18.60
   3   2   1  623.64   21.50
  -1   2   3  646.94   17.80
  -2   1  -3  635.44   20.00
   3   1  -2  619.24   18.70
   2  -3   1  635.04   15.10
  -2  -1   3  650.63   18.80
  -3  -2   1  674.83   24.70
  -3   2  -1  617.74   17.80
   1   2  -3  639.74   18.00
  -2  -1   3  624.54   24.40
   2   3  -1  646.54   20.10
  -3   1   2  626.14   21.80
  -1  -3   2  619.04   27.80
  -1   3  -2  646.94   18.90
   1  -3  -2  663.83   19.00
  -1  -2  -3  638.54   15.70
   1   3   2  650.93   17.60
   2  -1  -3  643.24   24.10
  -3   1   2  649.93   18.30
  -1  -3   2  653.63   17.20
  -1  -2  -3  636.54   12.60
   3   2   1  643.94   29.30
   2  -3   1  652.53   14.00
   2   3  -1  623.54   21.60
   2  -1  -3  650.43   16.70
  -3   1   2  653.03   21.00
   3  -2  -1  633.24   15.10
   2   1   3  659.13   19.70
  -1  -3   2  676.83   20.00
  -3  -1  -2  646.44   17.70
  -2   3   1  631.64   18.80
  -2  -3  -1  641.54   18.20
   1   2  -3  641.14   20.20
   1  -2   3  637.54   26.80
  -2   3   1  665.63   25.20
   2  -3   1  648.24   18.30
  -1   3  -2  644.94   22.40
   1  -2   3  652.33   16.90
   1  -3  -2  643.54   14.20
   1   3   2  637.74   25.10
   3  -1   2  649.24   13.70
   3  -2  -1  640.74   21.10
  -2  -3  -1  627.94   26.50
   1   2  -3  604.14   30.70
   3   1  -2  673.93   29.30
  -1   2   3  653.13   18.00
  -2   3   1  647.64   13.60
   3   2   1  680.73   19.30
  -1   3  -2  659.63   23.60
  -3  -1  -2  643.74   16.90
   3  -1   2  635.34   18.00
  -1   2   3  651.93   25.40
  -3   1  -2  654.03   20.30
   1  -3   2  638.74   17.90
  -3   2   1  638.14   19.90
   1  -2  -3  655.63   20.50
  -2   1   3  648.14   21.10
  -1   3   2  658.03   18.20
  -3  -1   2  649.74   19.10
  -3   2   1  629.84   16.40
  -3  -1   2  641.84   24.30
  -3   1  -2  654.43   16.50
  -1  -2   3  666.93   25.20
  -2  -3   1  636.34   18.20
   1   2   3  653.33   26.20
  -1  -2   3  662.33   18.10
  -2  -3   1  627.64   26.90
  -2   3  -1  645.34   18.50
   2   3   1  625.14   20.70
   3  -2   1  643.24   14.10
  -1   3   2  654.63   15.90
   3  -2   1  648.44   18.70
   3   1   2  621.94   20.20
   2  -1   3  635.74   12.30
  -2   3  -1  652.53   24.10
  -1   2  -3  671.03   21.30
   1   2   3  642.04   14.90
   3   2  -1  638.74   31.50
  -1   2  -3  657.63   21.30
  -2   1   3  651.83   18.30
  -1  -3  -2  659.03   17.30
   1  -3   2  646.74   16.00
   2  -1   3  661.13   18.90
  -3  -2  -1  637.14   22.00
   3   2  -1  651.03   23.40
  -3   2   1  637.84   23.00
   2  -3  -1  619.34   14.40
   3   1   2  631.34   22.70
   1   3  -2  665.23   22.90
   2  -1   3  652.93   15.00
   2   1  -3  682.13   29.50
   3  -2   1  643.04   18.90
   2   3   1  631.84   23.80
   3   1   2  657.23   15.60
   2  -3  -1  657.53   19.40
   3  -1  -2  642.64   23.80
  -1  -3  -2  626.94   13.20
  -2  -1  -3  641.34   17.00
   2   3   1  632.34   21.40
   2   1  -3  662.23   19.00
   2   1  -3  655.23   14.50
   3  -1  -2  646.34   16.70
  -2  -3   1  674.73   21.20
  -1   3   2  668.23   25.60
   1  -2  -3  653.73   14.80
   3   2  -1  631.64   20.00
   1   2   3  632.44   18.80
  -2   1   3  644.34   22.80
   2   2  -3 1232.28   31.60
  -2   2   3 1252.27   30.70
  -2  -2   3 1277.07   37.20
  -2   2  -3 1226.48   28.30
  -3   2   2 1272.77   35.60
  -2   2  -3 1245.38   33.60
  -2   2   3 1149.39   38.90
  -2   3  -2 1250.77   35.30
  -2   3   2 1225.88   37.60
   2   2  -3 1241.08   26.90
   2   2   3 1210.18   37.80
   2   3  -2 1206.78   29.80
   2   3   2 1238.78   36.80
   2   3   2 1194.48   30.90
   3  -2   2 1162.88   29.20
   3   2   2 1248.28   32.40
  -2  -2  -3 1212.18   27.60
  -3  -2   2 1186.18   29.70
  -3   2   2 1229.88   27.80
  -2  -3   2 1212.78   28.80
  -2   3  -2 1247.08   29.60
  -2   3   2 1267.87   30.10
   2  -3  -2 1256.77   31.40
   2  -3   2 1242.58   29.50
   2  -2  -3 1223.58   33.70
   2   3  -2 1208.28   33.20
   2   3   2 1237.68   32.80
  -3   2  -2 1248.68   34.10
   2  -3   2 1191.08   23.80
   2  -2  -3 1231.98   25.90
   2  -3  -2 1192.18   24.90
  -2  -2  -3 1186.28   21.90
  -3   2  -2 1272.47   28.60
  -3   2   2 1291.27   32.10
  -2  -3  -2 1217.18   27.50
  -2  -3  -2 1256.17   37.70
  -2  -3   2 1222.78   38.60
  -2  -2  -3 1204.68   24.10
   3  -2   2 1254.37   29.00
   3   2  -2 1216.28   45.20
  -3  -2  -2 1240.38   27.70
  -3  -2  -2 1208.68   31.20
  -2  -2   3 1220.38   29.20
  -2   2   3 1357.66   37.40
  -2   3   2 1216.28   25.90
   2  -3   2 1235.28   27.00
   2  -2   3 1224.08   29.10
   2   2   3 1203.68   30.80
  -3  -2   2 1219.38   36.90
   3  -2  -2 1274.17   26.40
   3  -2   2 1181.28   23.70
   3   2  -2 1239.38   31.70
   2  -2   3 1275.87   27.40
   2   2  -3 1300.37   45.80
   3  -2  -2 1191.08   33.30
   3   2   2 1242.78   29.00
   0  -3   3  307.97   29.80
   3   0   3  396.96   16.10
   3   3   0  404.36   19.50
  -3   0  -3  418.66   15.40
  -3   3   0  408.36   21.00
   0   3  -3  403.26   17.10
  -3   0   3  399.96   15.50
   0   3   3  342.47   14.10
   0  -3  -3  397.36    9.80
   0   3  -3  374.56   18.70
   3  -3   0  412.06   10.60
   3   0  -3  384.06   14.00
   3   3   0  388.26   17.40
   0   3   3  392.66   14.50
   0  -3  -3  393.76   14.20
   0  -3   3  400.46   14.50
   0   3   3  388.66   22.50
   3   3   0  390.36   17.20
  -3   0  -3  390.26    8.90
  -3   0   3  405.76   19.20
  -3   3   0  385.36   14.50
   3   0   3  383.46   12.10
   3  -3   0  373.66   15.10
   3   0  -3  387.06   22.60
   3   1   3  175.58   12.50
  -3  -3  -1  173.48   10.80
  -3  -3  -1  179.68   15.00
  -3  -3   1  163.18   15.30
  -3  -1   3  193.28   15.50
  -3   1  -3  179.18    7.50
  -3   1   3  168.78   12.80
   1   3   3  173.78   11.30
   3  -3   1  172.78   10.70
   3  -1   3  178.48   11.30
  -1  -3   3  182.28   11.20
  -1  -3   3  178.38   17.60
  -1   3   3  174.48    9.50
   1  -3  -3  182.58   11.70
   1  -3   3  147.79   20.00
   1   3   3  178.48    8.50
   3  -3  -1  154.98   11.50
   3  -3   1  177.28   10.30
   3  -1  -3  182.18   16.10
   3  -1   3  175.58    8.70
   3   1  -3  176.88   20.10
   3   3  -1  209.48   25.90
  -1   3  -3  157.78   15.00
   1  -3  -3  179.28    6.80
   1   3  -3  182.58   14.40
   3  -3  -1  188.18    7.40
   3  -3   1  172.28    6.60
   3  -1  -3  174.08    9.60
  -3  -1  -3  172.68    9.40
  -3   1  -3  183.48   12.60
  -3   1   3  170.48   13.40
  -3   3  -1  179.28   16.30
   3   3   1  179.68   14.40
   3   3   1  171.48   14.40
  -3  -1   3  183.48   10.90
  -3   1   3  173.68   10.70
  -3   3   1  170.88    7.80
  -1  -3   3  167.48   10.00
  -1   3   3  162.18    9.60
   1  -3   3  167.08    9.50
  -3   3  -1  182.38    9.80
  -3   3   1  167.78   10.20
  -1  -3  -3  161.08    8.60
   1   3  -3  174.58   12.00
   1   3   3  176.58   17.30
   3   3  -1  164.58   10.90
  -1   3   3  182.68   17.40
   3   3   1  161.18   12.90
  -3   3   1  178.58   16.20
  -1   3  -3  176.48   14.20
   3   3  -1  177.08   13.80
   3  -1   3  177.28    5.50
   3   1  -3  178.48   11.20
  -3  -3   2  422.76   16.80
  -3  -2   3  443.96   16.90
  -3   2   3  433.06   15.40
   3  -3  -2  442.06   12.60
   2  -3  -3  444.36   12.40
   2  -3   3  443.26   10.50
   2   3  -3  425.36   19.80
  -3   3   2  384.96   15.40
  -2  -3   3  433.36   16.20
  -2   3   3  426.26   14.60
   2   3   3  450.95   18.00
   3  -3   2  458.55   16.00
   3  -2   3  432.36   16.40
   3   2   3  443.26   18.80
   3   3   2  442.46   19.30
  -3   3  -2  439.16   15.40
  -3   3   2  449.16   16.70
  -2  -3  -3  426.86   13.10
   2  -3  -3  459.75   18.80
   2  -3   3  414.56   15.50
   3  -3  -2  441.46   18.60
   3  -3   2  434.16   11.00
   3  -2  -3  438.66   13.60
  -3  -2  -3  439.66   13.90
  -3   2  -3  437.26   19.90
  -3   2   3  432.76   22.00
  -3   3  -2  399.66   22.00
  -3   2   3  426.06   17.60
  -2  -3  -3  442.76    9.70
   3  -2   3  446.96   10.30
   3   2  -3  416.66   18.60
   3   3  -2  452.15   20.40
   3   3   2  429.76   18.50
  -3   3   2  430.36   23.50
  -2   3  -3  438.96   21.50
  -2   3   3  435.76   24.10
   2   3  -3  442.36   16.50
   2   3   3  466.75   24.60
   3   3  -2  437.56   14.40
   3   3   2  452.85   22.50
  -3  -3  -2  432.06   14.70
   3  -3   2  449.16   15.80
   3  -2  -3  432.06   20.80
   3  -2   3  442.16   14.70
   3   2  -3  445.26   30.70
   3   3  -2  367.56   30.40
  -2   3  -3  441.86   16.10
  -2   3   3  456.45   16.10
  -3  -3   2  438.26   23.10
  -3  -2  -3  436.36   11.10
  -3  -2  -3  445.66   14.20
  -2  -3  -3  425.86   21.60
  -2  -3   3  447.36   23.10
  -3  -3  -2  456.35   20.30
  -3   2  -3  419.16   14.10
  -3  -2   3  431.96   22.00
   3   3  -3  234.98   17.10
  -3  -3  -3  228.48   14.70
  -3  -3   3  222.48   18.60
   3   3   3  241.88   20.70
   3   3  -3  251.37   31.40
  -3   3  -3  231.38   12.00
  -3   3   3  230.28   13.00
   3  -3  -3  252.87   16.10
  -3  -3  -3  227.58    9.90
   3  -3  -3  239.08    9.90
  -3  -3   3  220.48   13.20
  -3   3   3  230.78   11.90
   3  -3   3  248.18   13.10
   3  -3   3  239.68   12.30
  -3   3  -3  248.08   19.20
   3  -3   3  233.58    7.50
   3   3   3  244.78   15.80
  -3   3   3  245.08   20.80
  -4   0   0 3119.69   60.79
  -4   0   0 3160.38   66.29
   0   0   4 3037.70   61.59
   0   4   0 3170.28   62.49
   0   0  -4 2967.80   59.79
   0   4   0 3205.68   69.39
   0  -4   0 3149.78   61.49
   4   0   0 2997.30   58.89
   0   0   4 3030.90   61.29
   0   0  -4 3156.68   57.69
   0   0  -4 3052.49   66.79
   4   0   0 3207.28   70.79
   0  -4   0 2995.20   54.89
   0   4   0 3162.58   69.99
   4   0   0 3043.10   66.19
   0  -4  -1 1867.51   35.20
   0  -4  -1 1951.50   41.10
  -4  -1   0 1874.01   46.50
   0   4  -1 1994.30   43.20
   0   4   1 1917.51   41.40
   0   4  -1 1923.51   49.10
   0  -1  -4 1904.51   36.30
   0   1  -4 1810.32   41.50
   1  -4   0 1824.02   35.20
   1   4   0 1876.31   47.90
   4   0  -1 1840.72   39.10
   4   0   1 1878.91   37.70
   1   0  -4 1841.52   49.30
   1   0   4 1856.41   34.50
   0  -4   1 1836.62   40.80
   0  -1   4 1821.92   40.80
   0   1   4 1822.32   40.70
   1   4   0 1862.61   41.10
   4   0   1 1901.41   45.10
  -4   1   0 1926.71   43.90
  -1   0   4 1854.71   44.80
   4   1   0 1835.12   39.80
  -4   0  -1 1948.11   44.10
  -4   0   1 1935.81   47.20
  -1  -4   0 1860.01   41.10
  -1   4   0 1975.80   41.80
   0  -1  -4 1892.71   43.90
   0  -1   4 1908.81   46.30
   0   1   4 1844.42   37.70
   1  -4   0 1886.61   40.80
   4   0  -1 1858.61   50.09
   4   0   1 1904.71   47.60
  -1   0  -4 1884.81   35.90
  -4   0  -1 1956.60   42.80
  -4   0   1 1894.51   39.70
  -1   4   0 1877.31   48.60
   0   1  -4 1893.61   41.10
   1   4   0 1906.51   47.50
  -1   0  -4 1912.81   40.90
   1   0   4 1844.62   35.20
   4  -1   0 1808.52   46.20
  -1   0   4 1869.41   40.70
   0  -4   1 1868.51   35.60
   0   4   1 1805.42   38.00
   1   0   4 1871.21   41.20
  -4  -1   0 1904.41   37.70
  -4   1   0 1915.01   43.90
   0   4   1 1916.51   49.20
   1   0  -4 1900.01   38.80
   4  -1   0 1864.01   37.50
   4  -1   0 1937.61   45.10
   1   0  -4 1923.61   38.50
   4   1   0 1854.01   46.10
   0   4  -1 1811.02   46.40
  -4   1   1 1159.18   31.70
  -1  -4   1 1141.69   42.60
  -1  -4  -1 1064.79   27.00
  -1   4   1 1109.89   27.70
   1  -4   1 1152.48   27.90
   1  -1  -4 1044.50   33.90
   1  -1   4 1091.59   23.60
   1  -1   4 1079.29   29.40
   1   1  -4 1175.58   39.30
   4   1   1 1101.09   36.70
   1   1  -4 1097.29   28.80
   1  -4  -1 1155.08   27.80
  -1  -4   1 1123.39   28.10
  -1  -1   4 1103.89   27.80
  -1   1   4 1123.29   27.50
   1  -1   4 1150.28   28.50
   1   1   4 1110.99   28.40
   1   4   1 1046.50   28.40
   4  -1   1 1082.99   30.80
   4   1  -1 1062.59   32.80
   4   1   1 1134.39   32.50
  -1   4  -1 1088.79   28.00
  -4  -1   1 1112.19   33.80
   4  -1  -1 1058.89   24.90
  -4  -1  -1 1109.79   25.60
  -4  -1   1 1106.39   23.10
  -4   1  -1 1111.69   30.00
   4   1   1 1112.39   26.10
  -1   4   1 1128.99   36.30
   1   1  -4 1137.19   26.30
   1   4  -1 1085.69   32.40
   1   4   1 1068.99   34.00
  -1   1   4 1054.99   34.40
  -4   1  -1 1132.09   28.20
   4  -1   1 1113.99   23.90
   4   1  -1 1099.19   27.40
  -1  -1   4 1117.09   34.10
  -1   1   4 1091.99   27.70
   1   4  -1 1157.78   34.60
   1   4   1 1128.19   34.20
   4  -1   1 1121.09   31.30
  -1  -1  -4 1102.69   25.70
  -1   1  -4 1043.00   28.30
  -1   4  -1 1122.19   34.60
  -1   1  -4 1104.99   26.80
   1  -4  -1 1090.49   22.30
   1  -1  -4 1115.39   25.00
   4   1  -1 1144.09   39.50
  -4  -1  -1 1105.09   34.40
   4  -1  -1 1127.89   34.20
   1   4   1  977.10   34.80
  -4   2   0 2126.89   47.00
   2  -4   0 2159.38   46.10
   0   2   4 2131.59   42.30
   2   0  -4 2081.89   41.70
   0  -2   4 2203.88   45.50
   0  -2   4 2159.98   53.29
   4   0  -2 2181.48   44.50
   4   0   2 2142.69   41.80
   0   4  -2 2131.69   53.59
   4  -2   0 2048.10   48.80
   0   4   2 2077.69   54.69
  -2   0   4 2156.98   52.89
   4   0  -2 2144.09   56.69
   4   0   2 2102.29   50.19
  -4   0  -2 2169.58   46.00
   4   2   0 2116.39   62.89
  -4   2   0 2070.39   51.29
   0   2   4 2088.89   45.60
   0  -4  -2 2047.30   39.30
  -4   0   2 2094.69   51.59
  -2   0  -4 2099.79   45.60
   0   4  -2 2153.88   51.29
   0  -2  -4 2048.79   40.50
   0   2  -4 2153.28   48.40
   2  -4   0 2065.99   39.70
  -2  -4   0 2092.39   46.50
  -2  -4   0 2134.49   59.49
  -2   4   0 2237.88   55.19
   0   2  -4 2169.38   47.30
   0   2   4 2104.39   55.89
   2   4   0 2075.19   50.99
   4   2   0 2120.99   51.29
   2   4   0 2129.09   52.09
  -4   0   2 2134.19   46.20
   4   0   2 2139.19   48.60
   0  -4   2 2147.19   45.90
   2   0  -4 2096.89   44.60
  -4  -2   0 2154.68   52.89
   4  -2   0 2095.19   47.90
  -4  -2   0 2124.59   40.60
   0  -4   2 2135.29   64.09
  -4   0  -2 2166.18   44.40
   4  -2   0 2164.18   41.30
   4   2   0 2095.79   47.20
   0  -4   2 2015.70   42.90
   0   4   2 2083.29   43.40
   2   0   4 2089.39   46.50
   2   0  -4 2145.99   57.99
   0   4   2 2209.38   45.40
   0  -2   4 2062.39   45.00
   0  -2  -4 2123.49   48.10
  -2   0   4 2033.20   45.30
  -2   4   0 2241.88   46.70
   0  -4  -2 2140.29   45.20
  -4  -2   1 1455.45   41.60
   2  -4   1 1396.76   28.00
   1   4   2 1430.76   34.20
   2   4  -1 1411.06   40.30
  -1   2   4 1512.35   45.10
  -1   4  -2 1404.36   41.40
   1  -4  -2 1404.76   28.20
   4   2   1 1323.67   37.90
   1   4   2 1488.55   42.80
  -1   2   4 1450.45   33.60
  -4  -1  -2 1441.46   34.40
  -4  -2   1 1477.75   28.20
   1  -2   4 1448.06   41.30
  -2   1  -4 1427.86   36.40
  -1   4  -2 1459.55   40.40
   4  -2  -1 1412.66   47.70
  -4  -1  -2 1431.66   32.20
   1   2  -4 1293.67   49.60
   1   4   2 1500.15   34.30
  -2  -4  -1 1480.25   34.00
  -2  -4  -1 1405.56   46.40
  -4   1   2 1452.05   36.70
  -1  -4   2 1451.55   35.00
  -2   4   1 1364.16   42.20
   1  -4  -2 1490.05   34.60
   1   2  -4 1468.15   33.80
   2   4  -1 1454.85   39.20
   2  -4   1 1478.15   34.00
  -1  -2  -4 1451.25   27.30
  -4   2  -1 1456.45   39.80
  -4   1   2 1449.85   38.40
  -1  -4   2 1420.86   31.50
  -4   2  -1 1474.45   34.10
   4   1  -2 1487.25   47.80
  -2  -1   4 1463.65   41.40
   1  -2   4 1444.96   31.60
  -2  -1   4 1468.05   34.50
   2   1   4 1467.75   35.10
   4  -1   2 1422.66   36.10
  -1  -4   2 1413.36   48.00
  -1   4  -2 1484.55   35.40
  -1  -2  -4 1380.36   32.30
   1  -2   4 1491.25   34.30
   4   2   1 1423.16   49.50
   4  -2  -1 1426.16   30.20
   2  -1  -4 1458.95   43.10
  -2   4   1 1479.45   34.60
   2  -1  -4 1422.26   32.00
   4   1  -2 1432.96   34.00
  -4   1   2 1392.16   33.60
   4  -1   2 1409.46   36.10
   4   2   1 1435.86   35.00
   1   2  -4 1413.86   35.90
   4  -1   2 1437.96   28.80
  -1   2   4 1469.35   33.10
  -2  -4   1 1464.15   46.70
   1  -4   2 1382.06   33.10
   4   2  -1 1424.66   40.30
   2  -4  -1 1410.46   28.50
   1  -4   2 1413.46   29.50
   4   1   2 1437.56   31.50
  -1  -4  -2 1490.55   33.40
   2  -1   4 1440.46   33.50
  -4  -2  -1 1387.86   38.40
  -2  -4   1 1467.95   35.60
   4   2  -1 1410.16   35.90
   4  -2   1 1462.55   36.60
   2   4   1 1396.56   40.10
   1   2   4 1460.55   35.00
  -1   4   2 1461.15   33.80
   2  -1   4 1441.56   34.90
   4   1   2 1411.36   37.30
   2   1  -4 1445.86   48.40
  -2  -4   1 1400.26   32.50
  -1  -2   4 1469.35   34.30
   4   2  -1 1411.36   50.99
   2  -1   4 1349.16   25.50
   1   2   4 1516.45   45.00
   1  -2  -4 1429.96   39.00
   2   4   1 1438.46   41.20
  -4  -1   2 1387.96   34.70
  -2   4  -1 1488.55   34.50
  -1   2  -4 1414.96   37.00
   1   2   4 1453.95   28.50
  -1   2  -4 1512.05   37.20
  -2   1   4 1454.95   34.10
   4  -1  -2 1459.55   41.70
   2   1  -4 1432.96   30.20
   1  -2  -4 1413.86   30.10
  -4  -2  -1 1374.46   33.00
  -4   1  -2 1420.36   32.10
  -4   2   1 1445.06   39.90
  -2  -1  -4 1425.76   32.30
  -4   1  -2 1436.06   36.60
  -2   1   4 1405.56   39.80
  -2   4  -1 1389.66   41.30
  -1   4   2 1440.36   43.30
   1   4  -2 1442.96   38.10
  -4   2   1 1481.95   36.50
   4   1   2 1317.87   41.90
   4  -1  -2 1493.25   32.00
   4  -2   1 1492.75   36.50
  -1   4   2 1395.76   29.80
  -1  -2   4 1470.05   41.70
   2   4   1 1414.06   36.70
   2  -1   4 1432.76   28.20
   2  -4  -1 1432.86   34.60
  -2   1   4 1433.46   36.90
  -1  -4  -2 1418.56   27.60
   2   1  -4 1429.46   34.40
   1   4  -2 1461.35   41.10
   4  -2   1 1419.26   29.10
  -4  -1   2 1351.36   40.30
  -2   2   4 1482.45   35.90
   2  -4   2 1512.45   34.80
  -4   2   2 1568.94   38.80
   2  -4  -2 1488.05   36.60
  -2   4  -2 1483.25   43.20
  -4  -2   2 1443.16   35.90
   2  -4   2 1442.06   28.60
   2  -2  -4 1473.85   31.90
   2   4  -2 1480.55   38.30
   2  -2   4 1439.36   27.50
  -2   4   2 1440.56   44.60
   4   2   2 1511.15   35.50
  -2   4  -2 1518.25   35.60
  -2  -2   4 1483.75   43.60
  -2  -2  -4 1468.15   32.30
  -2   2  -4 1448.46   39.30
  -2   2   4 1429.36   43.80
   4  -2  -2 1475.25   31.70
   4  -2   2 1465.25   29.30
  -4   2   2 1474.15   34.30
  -4  -2  -2 1474.95   32.10
   4  -2   2 1460.35   36.50
   4   2  -2 1428.56   52.69
   2   2  -4 1483.85   37.80
  -2  -4  -2 1476.95   34.00
   2  -2  -4 1490.95   42.10
  -2  -4   2 1432.96   34.00
  -2  -2   4 1491.45   35.40
  -2   4   2 1495.75   35.10
  -2  -4   2 1374.56   36.30
  -2  -4   2 1441.36   46.40
   2   2  -4 1455.35   53.29
   2  -2   4 1397.66   35.00
   2   4   2 1506.85   44.00
   2   2  -4 1468.75   32.80
   2  -4  -2 1499.75   29.60
  -4   2  -2 1464.25   39.90
  -4   2   2 1465.05   41.30
   2   4  -2 1490.15   41.70
   2   4   2 1479.55   41.30
   4   2   2 1437.36   38.80
  -2   2   4 1473.25   34.70
   4   2  -2 1427.16   37.30
  -4  -2  -2 1479.85   37.90
  -4  -2   2 1475.05   42.80
  -4   2  -2 1457.25   33.90
   2   4   2 1494.05   37.80
   4  -2   2 1478.15   36.70
   2  -4   2 1404.56   30.50
   4  -2  -2 1508.15   41.50
   2  -2   4 1509.15   44.00
   2   2   4 1451.65   36.40
  -2   4   2 1472.35   29.80
  -2  -4  -2 1420.16   47.40
   2  -2   4 1507.75   31.90
   3   4   0  904.51   29.80
  -4   0  -3  906.71   25.70
   4   3   0  892.91   29.20
   3   0  -4  901.41   19.60
   3  -4   0  907.01   19.80
   3   4   0  842.72   30.50
   4   0  -3  868.11   24.00
   0  -3   4  870.51   24.70
   0  -3   4  832.62   34.10
   0   3   4  912.91   22.90
   0  -3  -4  935.01   20.10
   0   3  -4  911.81   30.30
   4  -3   0  908.81   20.50
  -3  -4   0  913.01   26.70
   4   0   3  886.41   19.70
   0  -3  -4  886.21   26.20
   0   3  -4  904.91   28.00
  -3   0   4  918.81   30.90
   0  -4  -3  858.71   24.80
   0  -4   3  909.91   25.10
   0  -4   3  918.11   39.20
   0   4   3  908.31   24.10
   3   0  -4  910.51   36.80
   4  -3   0  871.21   27.10
   4   3   0  889.41   45.80
   4   0  -3  920.01   35.40
  -3   0   4  899.71   25.80
   0  -4   3  901.41   23.30
   3   0   4  862.51   26.50
   4   3   0  873.81   30.90
   0   4  -3  922.31   32.50
   3   0  -4  885.21   24.60
  -4   3   0  889.11   32.70
  -3   0  -4  875.01   25.70
   4   0   3  899.81   27.50
  -4   0   3  886.51   25.80
   0  -3   4  905.71   24.60
   0   3   4  881.91   25.20
   3   4   0  896.51   30.20
   4   0   3  870.51   27.50
  -4   0   3  930.01   30.90
  -3  -4   0  893.11   34.00
  -3   4   0  887.21   25.20
   3  -4   0  904.71   25.90
  -3   4   0  903.21   34.10
  -4   0  -3  886.91   20.30
   0   4  -3  922.01   29.90
   0  -4  -3  902.61   19.20
  -4  -3   0  859.51   31.30
  -4   3   0  884.61   25.60
   0   3   4  918.51   35.60
   0   4   3  913.31   35.20
   3   4  -1  622.64   23.70
  -4   3  -1  592.74   27.20
   4  -1   3  595.74   22.00
   3  -4   1  613.14   14.80
  -1  -4   3  616.34   20.70
   4  -1   3  611.74   14.70
   4  -3  -1  613.04   16.00
   3  -4   1  613.84   20.10
  -4   3  -1  619.74   20.20
  -3   1  -4  635.04   22.40
  -1  -4   3  628.04   31.50
  -3   4   1  640.64   20.50
  -3   4   1  615.24   29.00
   1   4   3  632.64   19.40
   3  -1  -4  598.94   28.70
   4   3   1  601.14   24.80
  -1  -3  -4  613.74   19.20
   4  -3  -1  631.94   23.30
  -1   3   4  638.74   19.20
  -4   1   3  641.04   20.90
   1   4   3  622.94   28.30
  -1   3   4  621.44   20.10
  -4  -3   1  638.54   14.10
   3   1   4  626.54   22.30
   1  -4  -3  660.83   21.50
  -4  -3   1  637.14   27.40
  -3  -1   4  661.53   27.40
  -1   4  -3  618.14   25.70
   1  -3   4  634.04   19.00
  -1   4  -3  597.84   26.90
   4   1  -3  604.84   31.80
  -3  -4  -1  611.34   28.10
   1  -3   4  630.64   30.70
  -4  -1  -3  610.04   19.00
   1  -3   4  591.54   19.90
  -1  -4   3  631.04   19.30
  -3  -4  -1  623.54   20.70
   1  -4  -3  607.64   14.90
   1   4   3  623.64   21.20
  -3  -1   4  604.64   20.40
   3  -1  -4  626.94   19.10
   3   4  -1  587.84   25.70
  -4   1   3  627.24   24.30
   4   1  -3  638.84   21.00
   4  -1   3  629.44   21.40
  -1   3   4  591.84   29.40
   1   3  -4  617.94   21.60
   1   3  -4  600.44   24.50
  -4   1   3  598.54   22.80
  -4  -1  -3  615.44   15.40
   4   3   1  634.24   24.10
   3   1  -4  605.34   21.40
   4   3  -1  587.84   39.10
   3   4   1  606.74   24.60
  -3   1   4  611.44   23.90
   1  -3  -4  594.94   15.70
   3  -4  -1  632.54   15.30
   3   4   1  615.24   25.60
   4  -1  -3  612.64   18.90
   1  -3  -4  637.54   22.90
   4  -3   1  594.44   21.30
   3  -1   4  611.14   20.70
   3   1  -4  601.54   33.20
  -3  -4   1  607.14   21.00
   3  -4  -1  596.74   21.20
  -3   1   4  614.24   20.60
  -1   4   3  621.64   19.00
  -3   1   4  582.84   24.70
   1  -4   3  577.44   19.20
   3  -1   4  617.94   21.50
   1   3   4  615.94   21.30
   4  -3   1  621.24   21.80
  -3  -1  -4  623.34   19.30
  -4  -1   3  608.84   21.10
  -4  -1   3  666.43   26.50
  -4   1  -3  619.74   17.20
   1   4  -3  626.74   27.00
  -3  -4   1  616.34   22.50
  -3  -4   1  612.84   27.90
  -3   4  -1  636.24   20.40
   4  -3   1  621.24   15.30
   4   3  -1  611.44   24.30
  -1   4   3  631.34   29.80
   1   4  -3  638.14   23.80
  -1  -3   4  608.44   20.20
  -1   3  -4  609.24   24.30
   3  -1   4  601.14   15.80
  -1  -3   4  638.14   21.50
   1   3   4  633.34   17.20
  -4   1  -3  627.74   22.50
   1  -4   3  617.24   18.50
  -4   3   1  611.14   20.90
  -4   3   1  612.14   18.10
  -1  -4  -3  642.64   20.10
   1   3   4  611.94   29.10
   3   4   1  618.04   25.80
  -1  -4  -3  621.14   14.10
  -1   3  -4  613.54   25.80
  -1  -3   4  631.04   28.10
  -1   4   3  645.44   19.70
  -4   3   1  626.74   28.10
  -3   4  -1  626.44   28.50
   4   1   3  621.34   22.80
   4  -1  -3  608.14   28.50
  -4  -3  -1  580.64   25.20
   1  -4   3  626.44   35.90
   3  -4   2  722.03   16.30
   3  -4   2  695.03   20.60
   4   2  -3  693.13   25.20
   4  -2   3  720.03   24.20
   2  -4  -3  737.63   17.50
   3  -2  -4  709.73   19.70
  -4  -3   2  699.73   23.50
   2  -3   4  606.64   53.09
   2  -3   4  726.63   20.80
  -4   3  -2  702.13   28.80
   4   3   2  701.63   25.70
  -2   3   4  700.93   32.50
   2   3  -4  728.83   22.90
   4  -3  -2  710.73   26.10
  -2  -3  -4  720.93   14.80
   3  -4   2  707.53   22.20
  -4  -3   2  708.93   29.80
  -4   3  -2  697.03   21.60
   3   2   4  681.33   23.70
  -2  -4   3  709.73   22.10
  -2   3   4  701.93   21.80
  -2  -4   3  750.82   25.40
   4  -2   3  680.23   16.20
   4  -2   3  711.03   22.70
  -4   2   3  700.83   28.70
  -4   2   3  703.83   21.90
  -3   4   2  746.23   32.30
   2  -3   4  708.23   15.40
   2  -3   4  709.33   22.30
   3   4  -2  723.53   28.30
   2   4   3  731.03   24.70
  -4  -2  -3  694.13   20.00
  -3   4   2  712.63   18.00
   4  -3  -2  724.53   18.50
  -4  -2  -3  701.93   18.10
  -4  -2  -3  712.53   20.70
  -3   2  -4  673.13   25.70
  -4   2   3  678.43   24.40
  -3  -4  -2  675.23   21.00
  -3  -4  -2  696.83   31.20
   2   4   3  692.03   30.90
  -2   3   4  737.63   22.50
   2   3  -4  731.53   26.80
  -3   4   2  713.63   22.60
  -2  -3  -4  684.83   18.60
  -2  -3  -4  704.23   25.10
   3  -2  -4  693.93   29.30
  -3  -2   4  694.13   23.10
  -2   4  -3  698.83   29.50
   4   3   2  705.13   26.70
  -3  -2   4  738.53   29.80
  -2   4  -3  729.53   23.30
  -2  -4   3  709.73   31.00
   4   2  -3  725.33   40.70
   2  -4  -3  731.43   24.60
  -3  -4   2  644.34   29.30
   2   4  -3  695.73   24.80
  -4   2  -3  697.03   20.30
  -3  -4   2  736.83   23.10
  -4  -3  -2  723.63   18.80
   4   2   3  711.93   26.00
  -4   3   2  718.73   30.50
  -3  -4   2  696.53   25.60
   2  -3  -4  713.43   18.30
  -3   2   4  699.83   22.60
   3  -4  -2  718.73   17.60
  -4   3   2  702.23   20.50
  -4  -2   3  687.63   23.30
   3   4   2  698.03   28.30
   2  -4   3  696.13   20.40
  -4   3   2  689.23   23.40
   4   2   3  714.03   21.30
  -3  -2  -4  704.13   20.00
  -2  -3   4  685.23   29.60
  -4  -3  -2  685.33   21.80
  -4  -3  -2  752.52   27.40
   4  -3   2  695.03   22.90
  -3   4  -2  686.13   29.60
   2  -4   3  707.93   21.40
  -2  -4  -3  708.03   20.70
  -2  -4  -3  705.93   34.20
  -2   4   3  716.63   20.40
  -2  -3   4  699.13   22.50
   2   3   4  716.83   24.00
   3  -2   4  697.33   23.10
   4  -2  -3  706.93   19.70
  -3   4  -2  697.93   22.20
   3   4   2  721.43   26.70
  -2  -4  -3  707.23   15.40
   2  -4   3  696.53   15.90
   2   4  -3  684.13   28.60
   3  -2   4  695.53   14.90
   3   2  -4  702.83   25.00
   4  -3   2  715.43   16.70
   4   3  -2  723.73   27.20
  -3   2   4  701.23   30.20
   2  -3  -4  713.33   26.80
  -4   2  -3  705.13   27.00
  -2   4   3  702.73   22.00
   4  -2  -3  714.33   29.20
  -2   3  -4  728.63   27.50
   3  -2   4  716.93   19.80
   3   2  -4  723.83   41.10
   2   3   4  709.03   31.70
   3   4   2  697.23   30.10
   4   3  -2  663.93   42.60
   4  -3   2  702.23   23.50
  -4  -2   3  700.93   28.90
   3  -4  -2  724.33   24.50
  -2   4   3  731.23   32.40
  -3   2   4  687.73   24.10
   3  -4  -3  398.76   12.70
  -3   4  -3  387.56   17.10
  -3   4   3  390.16   16.70
   3  -4  -3  362.26   19.90
   3  -4   3  396.66   16.60
  -4  -3   3  360.46   22.20
   3   3  -4  382.66   39.40
   4  -3  -3  351.46   21.10
   4  -3   3  397.16   17.30
   4   3  -3  323.47   36.90
   4  -3   3  382.16   18.30
   4   3   3  363.46   20.40
  -4   3   3  372.36   17.50
  -3  -4  -3  374.46   15.30
   4   3  -3  381.36   21.70
   4   3   3  387.76   22.20
  -3  -4   3  389.66   25.30
  -3  -3  -4  393.36   11.80
  -3  -3  -4  377.26   14.10
  -3  -3   4  382.46   24.40
   3  -3  -4  393.86   22.90
   3  -3   4  410.26   16.10
  -3  -4   3  359.06   19.80
  -4  -3   3  397.76   18.40
   3  -4   3  402.26   10.90
   3  -3  -4  390.46   14.00
  -4   3  -3  381.96   16.30
  -4  -3  -3  397.06   14.20
  -4   3  -3  390.16   23.60
  -4   3   3  398.16   25.80
  -3  -4  -3  379.76   23.90
  -3   4  -3  377.96   24.40
  -3   4   3  400.86   27.40
   3   4   3  404.56   25.30
  -3  -3  -4  385.56   13.70
  -3   3  -4  388.76   22.80
  -3   3   4  365.36   26.40
  -4   3   3  392.26   16.80
  -3   3   4  368.76   17.20
   3  -3   4  400.06   10.50
   3   3  -4  384.46   21.90
   3   4  -3  402.86   23.50
   4  -3  -3  391.36   13.60
   4  -3   3  393.16   11.10
  -3   3   4  382.06   16.80
  -3   4   3  378.36   19.80
  -4  -3  -3  378.06   14.20
  -4  -3  -3  376.06   18.80
  -3  -3   4  415.76   18.40
   3  -4   3  393.76   16.90
   3  -3   4  369.16   17.30
   3   3   4  400.26   20.40
   3   4   3  389.86   20.70
  -3  -4   3  387.06   18.20
   4  -4   0  858.81   27.20
  -4   4   0  826.62   34.50
   0   4  -4  870.51   30.30
   0   4   4  852.41   35.30
  -4   0   4  887.21   31.80
  -4   4   0  853.41   25.60
   0  -4  -4  834.12   19.30
   0   4  -4  847.12   33.00
   4   0  -4  860.51   38.60
   4   0  -4  873.41   25.10
   4   4   0  865.81   31.80
  -4   0  -4  853.31   26.10
   4   4   0  835.62   31.30
   0  -4   4  820.52   24.50
   4  -4   0  850.21   20.00
   0  -4   4  841.72   25.00
   0  -4   4  829.32   37.10
   0  -4  -4  860.01   26.40
   4   4   0  847.62   29.90
   0   4   4  831.72   23.80
  -4  -4   0  787.32   27.30
  -4  -4   0  813.22   33.10
  -4   0   4  846.82   26.60
   4   0   4  848.42   27.80
   0   4   4  872.91   26.10
  -4  -4  -1  677.03   30.00
  -4  -4  -1  702.13   23.80
  -4  -4   1  661.23   23.40
  -4  -4   1  719.93   30.50
  -4   1   4  691.53   23.60
  -1  -4   4  705.73   22.50
  -1   4   4  684.03   22.70
   1  -4   4  681.13   22.30
   1   4   4  703.53   24.20
   4  -1   4  685.03   24.90
   4   1   4  689.83   25.90
   4   4   1  671.73   27.30
  -4   1   4  704.03   29.00
  -4   4  -1  644.34   30.10
  -4   4   1  703.63   32.50
  -1   4  -4  711.73   28.60
  -1   4   4  702.13   33.60
   1   4  -4  693.13   26.60
   1   4   4  686.33   32.70
   4   4  -1  721.93   25.10
   4   4   1  717.83   29.50
  -4   1   4  719.23   27.10
  -4   4  -1  697.23   22.70
  -4   4   1  715.33   23.20
  -1  -4   4  662.73   23.00
  -1  -4   4  690.03   32.50
  -1   4   4  685.63   21.60
   1  -4  -4  716.33   25.30
   1  -4   4  690.53   21.70
   1  -4   4  707.83   36.80
   1   4   4  687.83   21.20
   4  -4  -1  620.84   23.80
   1  -4  -4  691.53   17.40
  -1  -4  -4  667.03   15.80
  -1   4  -4  706.23   30.60
  -4  -1   4  683.33   23.50
   1   4  -4  643.94   29.30
   4  -4  -1  737.43   18.00
   4  -4   1  704.13   16.90
   4  -1  -4  680.83   21.00
   4   1  -4  687.53   23.40
   4   4  -1  686.83   29.30
   4   4   1  749.42   29.90
   4  -1  -4  691.93   33.00
   4  -1   4  680.53   21.60
   4   1  -4  634.24   36.90
  -4   1  -4  702.83   25.10
  -4   1  -4  690.93   17.90
   4  -4   1  701.73   24.00
  -4  -1   4  701.23   28.40
  -4  -1  -4  703.73   21.80
   2   4  -4  612.54   28.60
   2  -4  -4  617.94   17.20
   2   4   4  601.94   24.40
   4   2   4  580.04   24.10
   4   4   2  622.54   27.30
   2  -4   4  622.44   14.70
   2  -4   4  618.34   21.30
  -4   4   2  606.74   32.40
  -2   4  -4  624.64   29.00
  -2   4   4  601.14   32.60
   2   4  -4  639.34   25.30
   2   4   4  656.53   31.90
   4   4   2  637.34   30.00
   4  -4   2  606.24   22.10
   4  -4   2  631.44   24.00
  -2  -4  -4  627.94   14.40
  -2  -4   4  629.14   21.80
  -2   4   4  612.24   21.50
  -4  -4  -2  622.44   21.30
  -4  -4  -2  588.64   27.70
  -4  -4   2  625.44   29.50
  -4  -2   4  578.94   27.60
  -4   2  -4  609.94   21.30
  -4   4  -2  632.14   21.50
  -2  -4  -4  601.34   20.40
  -2  -4   4  612.74   23.90
  -2  -4   4  583.34   29.50
  -2   4   4  615.24   21.30
   2  -4  -4  572.64   24.90
   2  -4   4  616.64   39.80
  -4   2  -4  629.44   26.70
   4  -2  -4  585.04   29.60
  -4   2   4  631.74   22.40
  -4  -2  -4  627.34   19.70
   4   2  -4  612.34   25.10
   4  -2   4  544.65   20.70
  -4   4  -2  604.74   30.10
  -4  -4   2  627.14   23.00
   4  -2   4  594.14   23.70
   4  -4  -2  611.64   16.80
   4  -4   2  624.14   15.60
   4  -2  -4  637.54   19.90
  -4  -2   4  627.84   23.30
   4   4  -2  619.14   28.50
   4   4   2  601.54   27.90
  -4   2   4  619.54   30.00
  -4  -4  -3  391.46   16.80
   3   4  -4  400.66   24.70
   3  -4  -4  380.96   14.30
   4   4  -3  384.66   24.20
  -4  -4  -3  411.66   23.90
  -3   4   4  411.46   18.30
   4  -4   3  361.26   18.20
   4  -3   4  352.46   17.80
   4  -4   3  401.66   20.70
  -4   3   4  393.36   19.10
  -4  -3  -4  396.06   15.30
   4   3   4  384.96   21.30
  -4   3  -4  393.96   18.00
  -4   4  -3  384.96   17.80
   4   4   3  361.56   26.80
  -4  -3   4  372.56   19.10
   4  -4  -3  377.96   13.60
   4  -4   3  390.96   11.80
   4  -3  -4  375.66   15.30
   4  -3   4  380.86   11.40
   4   3  -4  377.46   23.00
   3  -4   4  394.16   17.40
   3  -4   4  400.46   11.30
  -4   3  -4  397.26   23.30
   4  -3   4  369.76   20.00
   3   4   4  409.76   27.50
  -3  -4   4  386.46   18.70
  -3   4  -4  392.66   26.00
   3  -4   4  376.36   18.90
   3   4   4  385.36   21.40
  -3   4   4  366.96   28.40
  -4   4   3  392.66   28.30
  -4   4  -3  378.66   26.10
  -4   3   4  378.76   27.30
  -4  -4   4  298.17   19.30
   4  -4   4  320.97   20.50
   4  -4  -4  292.87   13.30
  -4   4  -4  284.47   24.40
  -4  -4  -4  283.47   13.40
  -4   4   4  291.17   28.30
   4  -4   4  291.97   10.60
  -4   4  -4  293.97   18.40
   4  -4   4  292.57   18.80
   4   4   4  296.47   21.20
   4   4  -4  292.87   23.30
   0   0   5  343.07   14.90
   0   0  -5  377.86   15.20
   0   5   0  379.76   23.10
  -5   0   0  417.56   19.10
   0   0  -5  386.66   23.00
   0  -5   0  364.56   15.10
   5   0   0  395.16   14.00
   0   0   5  379.06   16.00
   5   0   0  377.06   20.70
   0   5   0  389.66   16.50
  -5   0   0  370.16   16.50
   5   0   0  360.56   22.90
   0   1   5  227.18   13.90
  -5   0  -1  219.98   14.00
   5   0   1  205.08   16.30
   1   0  -5  235.28   11.70
  -1   0   5  225.98   13.20
   0  -5  -1  227.48    7.90
   0   5  -1  228.68   20.40
  -5   0  -1  226.78   13.20
  -5   0   1  221.88   13.50
   0  -5   1  217.48    8.30
   1   0   5  219.88   12.80
  -5  -1   0  210.98   15.00
  -5   1   0  220.48   14.60
  -1   0   5  228.58   15.70
   5   1   0  234.38   22.20
   5  -1   0  211.98   17.20
   5   1   0  218.88   17.70
  -1   5   0  232.88   18.80
   0  -1  -5  226.28   11.20
  -5  -1   0  232.68   11.50
   1   5   0  243.28   19.30
   0   1  -5  216.88   12.90
   1  -5   0  221.08    7.90
   1   5   0  213.88   19.70
   5   0  -1  232.38   11.70
  -5   0   1  236.58   16.00
  -1  -5   0  242.28   12.60
  -1  -5   0  238.08   26.50
  -1   5   0  246.28   13.00
   0  -1  -5  236.98   17.00
   0   1   5  228.98   10.10
   1  -5   0  228.68   12.50
   5   0  -1  233.88   20.10
   5   0   1  221.58   18.50
  -5   1   0  228.68   16.10
   5   0   1  218.28   10.70
  -1   0  -5  207.18   12.50
   0   5  -1  249.97   19.30
   0   5   1  214.78   19.00
   1   0  -5  224.38   11.60
   5  -1   0  209.88   10.40
   0   1  -5  230.88   13.30
   0  -5  -1  235.88   12.10
   0  -5   1  241.08   12.50
   0   5  -1  240.78   14.10
   0   5   1  221.18   12.40
   1   0  -5  208.88   29.90
   0  -1  -5  234.48    9.70
   5   1   0  243.18   12.50
   5  -1   0  222.28   17.80
   1   0   5  224.18    7.40
   1   0   5  221.38    7.10
   0  -1   5  235.48   13.60
   1  -5   1  132.69   10.10
   1   1  -5  129.99   11.90
  -1   5  -1  145.89   16.00
   1  -1  -5  160.28   18.50
   5   1   1  147.49   15.70
   1  -1  -5  156.68    9.20
   1  -5  -1  143.59    6.60
  -1   5   1  127.89   18.60
   1  -1   5  135.19    7.80
   5  -1   1  136.59    8.40
   5   1  -1  138.49   11.00
   5   1   1  145.59   10.60
  -1   5   1  141.89   10.40
   1  -1  -5  134.49    9.20
   1   1  -5  143.09   10.60
   1   5  -1  146.89   16.70
   1   5   1  143.09   17.50
   5  -1  -1  137.49    9.50
   1  -5  -1  129.19   10.10
  -1   1  -5  130.69   12.10
  -5  -1  -1  131.49    9.90
  -5   1  -1  145.89   14.00
  -5   1   1  141.09   14.10
  -1  -1  -5  137.29   10.20
  -5  -1  -1  141.59   13.30
  -5  -1   1  160.48   14.50
   1  -1   5  133.69   12.80
  -1  -5   1  131.99    8.70
  -1  -1   5  143.69   11.80
  -1   1   5  141.99   12.10
   1  -1   5  118.19   11.30
  -1   1  -5  147.69   12.60
  -5   1  -1  125.89   10.90
  -5   1   1  154.68   13.60
  -1  -5  -1  141.39   10.10
  -1  -5   1  139.19   10.60
  -1  -5   1  184.98   25.30
  -1  -1   5  143.79   19.20
   5  -1   1  142.69   14.60
   5   1  -1  131.39   15.30
  -1   1   5  139.59   11.20
  -1   5  -1  153.78   11.10
   1   1  -5  130.79   20.00
   1   1   5  138.09   12.20
   5  -1   1  145.29   15.70
   5   1  -1  169.78   21.00
   5   1   1  162.48   20.30
   1  -5   1  133.89    6.30
   1   5  -1  146.89   18.40
   1   5   1  140.09   13.90
   5  -1  -1  139.39   16.40
   0   2   5  377.56   25.90
   0  -2   5  370.26   16.60
   0   5  -2  337.37   23.90
   2   0  -5  347.07   15.60
  -5   0   2  381.86   17.60
   5   2   0  393.76   21.70
   0  -5   2  359.76   30.70
  -5   2   0  388.46   17.50
  -2   0   5  374.66   20.60
   0  -5  -2  402.86   15.90
  -2   0   5  349.57   16.30
   0   5   2  370.66   16.20
   2   0   5  355.56   17.20
   2   5   0  393.36   22.70
  -2   0  -5  371.36   16.50
   0  -2  -5  352.56   12.30
   0   2  -5  381.36   19.40
   0   5  -2  353.56   21.60
   0   5   2  378.66   24.80
   2   0  -5  386.46   14.10
   5  -2   0  351.56   20.20
   0   2   5  357.46   12.70
  -5  -2   0  388.86   20.90
   5   0  -2  363.46   24.50
   5   0   2  369.86   22.50
   0   2   5  368.16   16.60
   5   0   2  342.17   19.10
   2   0  -5  380.96   26.60
  -5  -2   0  365.76   12.80
   5   2   0  339.07   31.10
   5   0  -2  358.86   14.80
  -5   0  -2  367.36   16.50
   5  -2   0  360.86   12.70
   5   0   2  376.56   13.10
   2  -5   0  374.06   16.00
  -2  -5   0  380.66   27.50
   0  -2   5  363.36   14.90
   0  -5  -2  394.16   10.70
  -2   5   0  375.86   16.00
   0  -2  -5  347.87   21.00
   0  -5   2  392.56   17.80
   5   2   0  364.76   17.90
  -5   0  -2  383.16   16.20
  -5   0   2  401.16   20.80
   2  -5   0  370.06   10.80
   2   5   0  357.16   23.10
   0   5   2  400.96   16.00
   5  -2   0  359.96   19.30
  -2   5   0  372.36   24.20
  -2  -5   0  356.06   15.70
   0   2  -5  387.56   18.20
  -5   2   0  363.26   21.30
   2   5  -1  277.67   21.50
   5  -1   2  284.07   18.70
   1   5   2  247.68   14.20
   2  -1  -5  242.58   22.40
  -1  -5   2  250.57   11.90
   1  -2   5  254.97   20.10
   1   2  -5  254.07   14.80
   1  -2   5  259.37   14.90
   5  -1   2  263.87   10.60
  -1  -5   2  264.07   25.80
   2   1   5  261.17   15.40
  -2  -1   5  274.17   20.10
   2  -5   1  258.47    8.80
  -1  -5   2  254.57   13.90
  -5   2  -1  254.77   18.40
   1   2  -5  255.37   16.20
   2  -1  -5  269.47   13.10
  -1   5  -2  253.47   20.30
   5  -2  -1  256.67   11.50
   1  -5  -2  260.57   13.90
   5  -2  -1  267.87   19.10
  -5   1   2  253.27   15.10
   5   2   1  267.07   19.40
   1  -5  -2  258.97    8.90
  -1   2   5  255.57   22.80
  -5  -1  -2  252.27   14.60
   5   2   1  269.47   15.70
  -5  -1  -2  265.87   13.30
  -1   2   5  227.08   13.70
   2   5  -1  256.57   19.00
  -1  -2  -5  241.88   12.70
   5  -1   2  234.18   17.00
  -1   2   5  241.68   16.50
   5   1  -2  271.37   14.30
   1  -2   5  272.07   11.70
  -2   1  -5  239.18   15.70
   1   5   2  269.07   22.20
   2  -5   1  264.27   13.40
  -2   5   1  253.77   22.40
  -1  -2  -5  269.17   12.10
  -2  -5  -1  261.47   13.30
  -2  -5  -1  258.17   26.30
  -5   1   2  254.97   16.50
   5   2   1  245.68   29.70
  -5   1   2  235.58   23.40
  -5  -2   1  266.37   18.70
  -5   2  -1  256.57   13.60
  -2  -1   5  265.77   15.50
  -1   5  -2  258.17   14.60
   5   1  -2  251.47   24.80
  -2   5   1  248.08   13.30
   5   2  -1  260.67   15.90
   1  -2  -5  261.57   11.90
  -5   2   1  246.68   14.10
   1   2   5  263.67   15.50
   2  -1   5  263.77   15.40
  -5  -2  -1  259.67   17.10
  -1  -5  -2  256.87   13.10
  -5  -1   2  254.67   16.30
   5   1   2  248.78   25.10
   2  -5  -1  256.57    9.00
  -5   1  -2  266.07   16.40
  -5   2   1  263.37   15.50
  -5  -2  -1  260.67   11.70
  -1   2  -5  278.87   17.20
   5  -1  -2  255.37   21.40
  -2  -5   1  245.78   13.80
   2  -5  -1  255.87   14.00
   2   1  -5  250.97   11.90
   2  -1   5  241.48   10.30
  -2  -5   1  259.37   13.40
   2  -1   5  250.57    7.70
  -1  -5  -2  266.07    8.50
  -1  -2   5  269.27   21.00
   5   1   2  272.87   18.30
  -5  -1   2  243.88   17.40
   1   5  -2  247.48   21.40
  -5   2   1  242.48   19.60
  -2  -5   1  298.07   24.90
  -2  -1  -5  254.17   12.70
   2   5   1  263.77   18.40
   2   1  -5  274.27   15.70
  -1   5   2  272.27   23.10
   5  -2   1  258.57   10.20
   1  -5   2  269.27   13.30
  -2   5  -1  256.47   21.70
   1  -2  -5  278.77   21.40
   5   1   2  257.27   16.80
   1   5  -2  253.17   19.50
   2   5   1  268.37   21.00
   5  -1  -2  260.67   12.90
  -2   5  -1  271.57   14.20
   2   5   1  232.78   21.20
  -2   1   5  263.37   14.70
  -2   1   5  259.77   15.70
   1   2   5  252.57    7.90
   5   2  -1  258.47   29.10
  -1   5   2  277.67   13.80
   5  -2   1  267.57   17.30
   5  -2   1  246.68   17.00
   2   1  -5  223.68   26.80
  -1  -2   5  261.97   14.20
  -2  -5   2  333.87   15.30
  -5   2   2  342.27   16.90
   2   2  -5  319.07   33.30
  -5  -2   2  350.16   18.30
  -2   2   5  325.87   16.10
   2  -5   2  346.27   10.20
  -2   5  -2  338.97   23.50
   2  -5  -2  347.87   11.00
  -5  -2   2  335.17   21.00
  -5   2  -2  363.46   15.70
  -2  -2   5  348.97   22.60
  -2  -5  -2  312.47   14.80
  -2  -5  -2  356.86   30.50
  -2  -5   2  338.27   16.60
  -2  -5   2  372.26   27.30
   5   2  -2  329.27   32.30
   2  -2   5  353.16   13.00
   2  -2   5  314.27   21.30
  -5  -2  -2  343.37   13.90
  -5   2  -2  318.07   20.10
  -5   2   2  342.07   22.50
  -2  -2  -5  337.17   13.90
  -2   2  -5  340.37   19.40
  -2   2   5  350.26   25.10
   5  -2   2  341.87   19.50
   5  -2   2  344.57   19.00
  -5   2   2  337.97   18.00
   2  -2  -5  344.67   14.30
   2  -2   5  336.77    8.70
   2   2  -5  353.36   19.40
   2  -5   2  342.37   15.50
   2  -2  -5  372.86   25.00
  -2   2   5  344.37   17.00
   2  -2   5  348.67   17.10
  -2   5   2  355.96   26.10
   5   2  -2  321.77   17.80
   5   2   2  310.77   17.70
   2   5   2  330.07   23.60
  -5  -2  -2  359.36   18.50
   2   5  -2  356.46   24.10
   5  -2  -2  350.36   13.70
   2   5  -2  347.17   21.20
   2   2  -5  335.67   15.10
   5  -2   2  349.67   11.60
   5  -2  -2  325.37   21.90
   2  -5  -2  333.47   16.60
   2   5   2  348.57   20.60
  -2   5  -2  339.77   16.30
  -2   5   2  355.96   15.90
   5   2   2  347.97   21.40
  -2  -2   5  348.57   17.20
   2   2   5  354.66   18.20
   0   3   5  213.08   10.80
   0   3  -5  232.68   16.60
  -5   3   0  195.48   20.20
   3  -5   0  221.48    8.60
   0  -5  -3  208.88   13.60
  -3   5   0  199.58   13.00
   0  -3  -5  192.28   18.10
   3   5   0  217.98   18.70
   0   3  -5  222.38   18.80
   0  -3   5  209.98   21.80
   0  -3   5  222.38   13.50
   0  -5   3  210.18   12.10
   5   3   0  210.98   17.70
  -3   0   5  205.18   14.40
   0  -3  -5  211.68    9.80
   5   0   3  222.28   16.70
   3   0  -5  220.98   25.00
   3   5   0  206.38   21.10
   5   0  -3  211.48   12.70
   3   0  -5  218.58   10.40
  -5   0   3  202.68   17.40
  -5  -3   0  210.28   10.00
   0   3   5  217.38   14.80
  -5   0  -3  222.68   11.00
   5   0  -3  259.77   23.50
  -5  -3   0  229.68   18.80
  -5   3   0  225.48   13.90
  -3   5   0  216.48   21.60
   3   0   5  214.38   15.50
   5   3   0  206.98   19.10
   0  -5   3  202.68   12.80
   0  -5   3  232.78   27.70
   0   5   3  228.68   13.10
   5  -3   0  195.58   15.60
   5   3   0  211.18   33.90
   3  -5   0  192.68   13.30
  -3   0  -5  209.28   13.50
   0   5  -3  207.38   18.80
   0   5   3  202.88   22.40
  -3   0   5  197.28   18.20
   0   3   5  194.68   22.90
   3   5   0  226.78   20.20
  -5   0   3  211.48   15.10
   0  -3   5  213.68   14.30
  -5   0  -3  214.68   14.10
   0  -5  -3  216.88    8.30
   3   0  -5  206.18   14.10
  -3  -5   0  212.38   22.40
   0   5  -3  206.88   21.80
   5  -3   0  213.48    9.70
   5   0   3  227.68   20.70
  -3  -5   0  225.98   14.40
   3   5  -1  183.38   18.20
  -3  -5  -1  179.58   12.70
   5  -1   3  168.38   18.20
  -5   1   3  181.18   16.10
  -5  -1  -3  180.68   12.50
   3   1   5  194.28   15.60
  -1   3   5  190.58   14.30
  -5  -3   1  200.48   18.50
  -5   3  -1  156.88   12.10
   5   3   1  168.88   31.20
  -3  -1   5  174.88   17.90
   1  -5  -3  170.78    8.10
   1  -3   5  165.18   13.60
   3  -1  -5  186.28   12.60
   1   5   3  194.18   13.10
   5  -3  -1  168.98    9.40
  -1  -5   3  152.18   12.80
  -3   5   1  178.18   12.90
  -3  -5  -1  192.58   22.00
   3   5  -1  207.98   21.40
   1   5   3  176.18   22.40
  -1  -5   3  179.68   12.00
   5  -1   3  178.78   16.20
   1  -3   5  191.58   11.60
   5   3   1  182.08   17.70
  -3   1  -5  185.88   15.10
  -5   3  -1  188.38   19.80
  -1   3   5  155.48   11.10
   5   1  -3  173.38   13.50
  -3   5   1  165.98   21.80
   1  -3   5  180.68   22.00
   1  -5  -3  189.58   13.70
   1   3  -5  177.78   15.60
   5   1  -3  228.08   34.10
   5   3   1  186.18   17.50
   3  -1  -5  204.08   22.50
   3  -5   1  167.58   12.50
  -5  -1  -3  187.98   11.00
   1   5   3  164.38   15.30
  -5   1   3  173.28   13.90
   1   3  -5  180.68   18.10
  -3  -1   5  162.68   13.80
  -1   5  -3  174.88   18.30
   3  -5   1  186.68    7.80
  -1   3   5  211.78   23.90
  -1  -3  -5  175.58   16.30
  -1  -5   3  187.18   24.60
   5  -3  -1  169.08   16.80
   3   5   1  168.18   19.70
   1  -3  -5  182.28   10.10
  -1   3  -5  181.78   19.70
   1   3   5  180.68    9.90
  -1   3  -5  183.08   16.60
  -5   1  -3  172.48   14.80
   3   5   1  170.18   20.50
   3   1  -5  128.29   22.50
  -3  -5   1  176.28   13.60
  -1  -5  -3  186.08    7.70
  -5   3   1  165.88   20.00
  -5   1  -3  186.48   11.00
  -5  -3  -1  185.78   10.10
   5  -1  -3  162.58   11.70
   1  -3  -5  207.18   19.40
   5   3  -1  239.18   35.00
  -1  -3   5  175.18   14.00
   1  -5   3  179.68   11.40
   3  -5  -1  184.58    8.30
  -1   5   3  185.68   23.10
  -5  -3  -1  190.38   17.90
   1   3   5  193.88   23.70
   5   1   3  201.08   24.10
   1  -5   3  171.88   26.80
  -5  -1   3  174.78   16.50
  -5   3   1  158.28   12.40
  -3  -1  -5  171.48   11.40
  -3   1   5  191.98   16.30
  -1  -5  -3  198.18   13.10
  -1   5   3  175.88   13.20
   1  -5   3  184.58   12.30
  -1  -3   5  201.18   21.30
  -3   5  -1  155.38   11.90
  -3   5  -1  180.08   21.30
  -5  -1   3  186.28   14.80
  -3  -5   1  176.48   14.00
  -1  -3   5  181.38   13.10
  -5   3   1  186.28   13.50
  -3   1   5  191.78   14.80
   5   3  -1  158.68   17.20
  -3  -5   1  164.48   20.10
   5  -3   1  173.88    8.90
   1   3   5  190.68   14.60
   3   5   1  158.48   17.90
   5  -3   1  168.28   15.10
   1   5  -3  173.08   17.80
   3   1  -5  187.68   15.10
  -1   5   3  167.48   11.90
   1   5  -3  209.18   21.20
   3  -1   5  155.98   14.20
   5  -3   1  181.18   17.80
   5   1   3  182.68   16.50
   2  -5  -3  228.78    9.60
   3  -2  -5  204.28   23.70
  -3  -2   5  200.78   19.10
   2  -3   5  194.48   26.10
   2  -5  -3  236.98   16.00
  -2   3   5  226.18   24.70
  -2   3   5  224.18   15.10
   2  -3   5  210.88   15.10
   2  -3   5  211.28    7.40
  -3  -5  -2  262.97   25.30
   3  -2  -5  204.98   12.70
  -2  -5   3  228.08   14.20
  -2   5  -3  198.18   15.00
  -5   2   3  224.28   15.40
   5   3   2  208.48   19.20
  -2   3   5  213.78   13.50
  -5   3  -2  216.78   20.00
  -5  -2  -3  218.78   13.50
   2   5   3  230.68   18.10
   3  -5   2  231.88    8.70
   5  -2   3  232.08    9.60
  -5  -2  -3  215.78   12.50
   5  -2   3  251.07   17.60
  -5   2   3  208.38   21.50
   3  -5   2  200.98   13.20
  -5  -2  -3  216.48   13.90
   2   5   3  222.58   24.20
  -3   2  -5  190.38   22.50
   3   5  -2  233.28   21.30
  -2   5  -3  176.38   22.50
   5   2  -3  209.28   17.00
  -5   3  -2  207.48   13.30
  -3  -2   5  244.88   20.20
  -3  -5  -2  220.98   13.60
   5  -3  -2  203.98   11.10
   2  -3   5  218.48   12.60
  -3   5   2  214.68   23.90
   3   5  -2  198.58   22.00
   5  -2   3  221.78   17.50
   2   3  -5  238.08   19.40
   2  -5   3  218.58    8.20
  -2   5   3  224.28   24.20
   5  -3   2  224.38    9.60
   3  -2   5  216.18   29.40
   3  -2   5  207.18   15.60
  -5   2  -3  203.58   12.70
   2  -3  -5  229.98   11.70
  -3   5  -2  208.98   22.10
   3   5   2  223.38   22.20
  -5  -2   3  213.48   15.50
  -3  -2  -5  223.78   12.80
   2   3   5  224.08   16.90
  -2  -5  -3  212.88   29.90
  -3  -5   2  221.78   15.10
  -2  -5  -3  220.28    8.20
  -5   3   2  236.08   22.90
  -3   2   5  208.78   22.90
  -5  -3  -2  213.68   15.50
   2  -5   3  213.68   13.40
   2   5  -3  238.78   20.00
   5  -3   2  220.18   18.80
  -5  -3  -2  228.28   11.70
   2   5  -3  200.28   23.80
   3   2  -5  205.08   31.00
   5  -3   2  226.78   16.70
  -5   2  -3  237.98   18.20
  -2  -3   5  240.38   21.90
  -2   5   3  227.18   13.50
   3   5   2  194.68   22.40
   5  -2  -3  207.38   12.60
  -2  -5  -3  213.18   13.60
   2  -3  -5  222.68   21.30
   3   2  -5  209.78   18.00
  -3   2   5  219.78   15.90
  -2   3  -5  226.18   18.80
   3   5   2  236.98   19.80
  -5   3   2  207.58   14.60
  -2  -3   5  232.08   15.60
   5   2   3  212.58   17.90
  -3   2   5  221.68   14.70
  -3   5  -2  212.98   14.00
  -5  -3  -2  212.68   18.30
  -3   3   5  188.28   15.70
   3  -3   5  167.58   15.50
  -5  -3   3  155.38   14.60
  -3  -5  -3  171.28   14.50
   5  -3   3  181.58   17.10
  -3  -3   5  181.08   15.50
   5  -3   3  196.48   18.00
   5   3  -3  152.98   17.70
  -3   5   3  184.78   24.90
  -3  -5  -3  174.38   23.30
  -3   3   5  208.88   23.90
  -5   3   3  169.98   23.10
  -3  -3  -5  161.48   10.90
  -5   3  -3  173.18   13.30
   5   3   3  178.78   18.20
   3   5   3  169.28   22.50
   5  -3  -3  179.98   11.20
   5  -3   3  176.08    9.00
   3  -5   3  184.78    8.10
   3  -3  -5  174.38   11.70
  -3   3   5  153.08   14.00
  -3   5  -3  172.58   14.60
   3  -5   3  229.68   22.20
   3   3  -5  190.88   20.00
   3   5   3  175.48   18.80
   3   3   5  163.48   17.10
   3   5  -3  147.79   21.30
  -5   3   3  189.08   15.50
  -3  -5   3  169.68   15.30
  -5   3  -3  180.48   20.20
   3  -5  -3  182.48    9.70
  -3  -5  -3  194.18    8.00
  -3   3  -5  184.18   19.50
  -3   5  -3  175.28   20.70
  -5  -3  -3  182.48   11.90
  -4   0  -5  294.67   16.70
   0   5  -4  274.27   26.00
   0  -4  -5  291.07   11.60
   5  -4   0  270.77   11.20
   5   4   0  266.57   22.60
   0  -4  -5  327.17   21.10
   4   0   5  303.47   18.00
   0   4  -5  294.77   24.00
   0   5   4  281.07   26.10
   0   4  -5  271.27   20.50
   0   4   5  261.87   26.70
   0   4   5  298.17   18.10
   4   0  -5  282.37   22.50
   4  -5   0  277.17   10.30
   0   5  -4  290.97   22.20
  -5   4   0  277.97   24.60
   4   5   0  300.47   23.60
  -4   5   0  264.57   24.60
   0  -5  -4  300.77   17.80
   0  -4   5  253.27   26.50
  -4   0   5  291.47   17.50
   0  -5   4  274.27   16.00
   0  -5   4  329.47   32.90
   0   5   4  273.07   15.30
  -5   0  -4  291.67   16.60
   0  -4   5  282.87   15.60
   0   4   5  294.57   14.40
   5   0   4  295.37   19.20
   5   4   0  285.47   24.10
  -5  -4   0  286.07   15.50
   0  -5  -4  288.87   10.40
   5   0  -4  271.17   15.40
   4   5   0  254.77   24.90
  -5  -4   0  240.08   18.80
  -5  -4   0  241.98   22.50
  -5   0   4  300.27   18.10
   0  -4   5  301.67   17.10
   4   5   0  314.57   23.90
   0   5   4  279.77   17.70
   5   1  -4  241.38   15.60
   4  -1  -5  248.18   14.80
  -1   5  -4  234.08   21.10
  -1   4   5  246.38   26.40
   1  -4   5  238.58   14.50
   1  -5  -4  241.28   10.30
   1   5   4  262.17   18.70
   4  -5   1  252.87    9.80
   1  -4   5  260.47   16.30
   1  -4   5  253.17   29.10
  -4  -5  -1  245.68   23.50
   1  -5  -4  227.28   17.50
  -1   4   5  259.07   17.40
   5   4   1  255.87   23.10
   4   1   5  234.68   17.60
   1   5   4  262.37   23.80
  -5  -1  -4  236.78   14.80
  -5  -4   1  265.67   17.40
  -4  -1   5  247.78   17.50
  -5   1   4  221.08   20.40
   1   4  -5  256.87   23.00
  -1  -5   4  247.28   15.30
  -1   5  -4  238.08   24.70
  -1   4   5  241.68   14.10
  -4   5   1  250.97   25.10
   4   5  -1  228.68   23.60
  -4   1  -5  242.88   17.20
  -5   4  -1  284.67   19.90
   1   5   4  230.88   15.20
  -5   4  -1  254.67   24.10
   5   4   1  255.67   21.40
   1   4  -5  237.98   19.90
   5  -4  -1  245.18   10.90
  -4  -5  -1  222.78   15.90
  -1  -4   5  239.58   24.60
  -4  -5   1  241.28   16.60
   4  -5  -1  247.78   10.50
   4  -1   5  244.88   17.40
  -1   4  -5  240.28   21.60
   1   4   5  223.58   24.60
   5   1   4  250.37   18.50
   5  -4   1  230.58   12.50
  -1   4  -5  293.27   24.30
  -5  -4  -1  225.98   17.70
   1  -5   4  253.67   15.50
   1  -4  -5  252.47   11.40
   1   5  -4  217.88   23.70
   1   4   5  248.08   18.20
   4   5   1  224.58   22.60
  -1   5   4  244.48   25.30
  -4   1   5  214.08   19.50
   1  -5   4  236.28   31.40
   4   5   1  266.57   23.70
  -4   5  -1  224.38   23.80
   4   1  -5  253.17   17.20
  -5   4   1  237.38   24.00
  -4  -1  -5  262.87   14.80
  -1   5   4  255.87   14.60
   1   5  -4  243.58   21.80
   4   5   1  265.17   23.90
   1  -4  -5  251.97   21.10
  -1  -4   5  248.38   15.80
  -1  -5  -4  248.98   16.50
   5   4  -1  236.38   22.00
  -5  -4  -1  250.47   22.50
  -5   1  -4  228.48   16.80
  -1  -5  -4  243.38    9.50
   5  -1  -4  234.78   13.70
  -5  -1   4  249.08   17.00
  -1  -4   5  215.58   17.70
  -5  -4  -1  247.08   11.60
   1  -5   4  239.18   18.80
  -4  -5  -2  238.38   25.20
   2  -4   5  239.28   16.80
  -4   2  -5  232.38   18.60
   4  -5   2  236.68    9.80
   2  -4   5  242.08    8.70
   2   4  -5  249.08   23.50
   2   5   4  262.57   20.30
   5  -2   4  239.18   18.80
  -4  -2   5  248.58   17.40
   4   5  -2  213.78   23.70
  -4  -5  -2  246.98   16.00
   5   2  -4  228.38   18.20
  -2   4   5  232.78   14.70
   2  -4   5  257.17   32.70
  -4   5   2  244.08   26.20
  -5  -2  -4  255.67   14.20
  -5  -4   2  246.18   17.90
  -2   5  -4  244.18   22.60
  -2   4   5  247.68   27.10
  -5   2   4  243.48   18.20
   4  -2  -5  272.27   14.60
   2  -4   5  256.37   15.50
   5  -4  -2  227.68   11.20
   4   2   5  246.28   19.00
   2  -5  -4  256.17   15.80
  -2  -5   4  252.27   16.50
   5   4   2  229.88   24.10
  -5   4  -2  234.28   22.30
  -5   4  -2  225.28   15.20
   5   4   2  250.27   21.20
  -2   4   5  225.88   18.00
   2   5   4  227.98   24.60
  -5  -4  -2  254.77   12.30
  -2   5   4  243.28   26.70
   2  -5   4  286.37   21.50
  -5  -4  -2  244.38   23.10
   2   4   5  224.18   23.20
   4   5   2  245.18   24.40
   4   2  -5  233.68   19.20
   4   5   2  287.87   38.40
   5  -2  -4  230.68   13.50
  -5  -2   4  240.08   17.10
   4  -5  -2  251.77   11.00
  -2  -4   5  258.17   17.60
   2  -4  -5  237.08   11.80
  -5  -4  -2  225.88   17.20
  -4  -2  -5  231.38   13.50
  -5   2  -4  233.58   18.50
  -4   2   5  221.98   26.00
  -4   5  -2  233.98   23.90
   2  -4  -5  212.18   22.00
  -2  -5  -4  255.47    9.60
   2  -5   4  223.78   19.00
   2  -5   4  252.87    9.00
   2   5  -4  260.27   24.70
   4   5   2  274.57   23.90
   4  -2   5  228.18   18.70
  -2   4  -5  216.48   21.30
   5  -4   2  248.78   10.50
   5   2   4  211.98   18.50
  -5   4   2  219.38   25.50
   5   4  -2  233.88   21.90
  -4   2   5  252.37   21.90
   2  -5   4  172.48   28.30
  -3   4   5  177.58   27.10
  -5   3   4  219.28   18.10
   3  -4   5  201.18    9.40
   3   4  -5  203.98   22.30
  -5  -3  -4  196.88   12.70
   4  -5   3  200.88    9.50
   4   5  -3  171.88   23.70
  -4   5   3  203.08   26.50
   5   3  -4  184.48   20.10
   3  -4   5  185.48   16.80
   3   5   4  196.78   21.80
  -3   4   5  187.68   18.10
  -5  -4   3  196.08   17.00
   5   4   3  177.58   20.90
  -5   4  -3  190.18   15.70
  -3  -5   4  175.88   16.70
  -5   4  -3  156.28   21.00
   5  -3   4  188.78   19.90
   4   3   5  175.48   17.90
  -4  -3   5  211.88   17.60
  -4   3  -5  192.48   19.00
   3   5   4  196.88   23.70
   3  -5  -4  193.08   10.90
   5  -4  -3  186.58   11.10
  -3   5  -4  158.98   21.40
   4  -3  -5  183.18   12.90
   5  -3  -4  186.38   12.50
   3   5  -4  176.58   23.30
   4   3  -5  189.88   20.80
  -3   4  -5  169.78   21.90
   4   5   3  169.88   24.40
   4  -3   5  212.48   30.40
  -4  -5   3  222.08   17.30
   5  -4   3  185.78    9.70
  -5   4   3  188.98   26.20
  -4  -3  -5  191.68   12.40
   5  -4   3  190.38   19.20
  -4   3   5  182.88   26.10
  -5  -4  -3  185.48   12.10
   3   4   5  193.18   19.10
  -5  -3   4  184.48   17.20
   3  -4  -5  191.48   12.30
  -5   3  -4  191.48   20.40
  -3  -4   5  197.18   16.90
   4  -5  -3  175.68   10.40
  -3   5   4  209.78   26.10
   5   3   4  199.48   19.00
   4   5   3  186.58   22.40
   3  -5   4  179.18   13.30
  -4   5  -3  189.08   23.00
  -4   3   5  176.88   18.10
   5   4  -3  149.19   21.40
  -5  -4   4  155.58   18.40
  -5   4  -4  166.58   21.90
   4   4   5  165.38   21.00
  -5   4   4  127.19   24.90
  -4  -4  -5  160.78   12.00
  -4   4   5  160.28   20.30
   4  -5  -4  172.58   11.30
   4  -5   4  159.28    9.60
   4  -4  -5  167.58   12.50
   4   4  -5  163.98   23.60
   4   5  -4  124.99   19.50
   5  -4  -4  159.28   12.00
   5  -4   4  154.78   11.60
   5   4  -4  166.48   22.70
   5  -4   4  207.38   26.60
   5   4   4  175.78   20.40
  -5  -4  -4  164.18   12.30
  -4   5   4  115.49   23.40
  -4  -5   4  164.78   18.80
  -4  -4   5  154.38   18.40
  -4   4  -5  169.98   22.90
  -4   4   5  168.08   28.10
  -4   5  -4  172.28   22.80
   4   5   4  202.68   22.40
   5   0  -5  141.39   14.10
   0  -5  -5  160.28   10.10
   0   5  -5  166.18   23.10
  -5   0   5  131.69   16.90
   0  -5   5  135.99   15.80
   5  -5   0  149.88    9.40
   0   5   5  163.48   19.50
   0   5  -5  177.18   35.80
   0   5   5  161.98   25.90
   5   5   0  128.19   20.10
  -5   5   0  137.29   21.70
   5   0   5  134.99   16.50
   5   5   0  184.78   22.30
  -5   0  -5  150.48   14.30
   5  -1   5  145.69   17.30
  -5   1   5  147.59   17.20
   1  -5   5  137.59   15.90
   1   5   5  145.19   20.20
   5   5  -1  100.99   17.80
  -5   5  -1  158.88   23.90
  -5   5   1  164.98   24.60
  -1   5  -5  152.28   21.20
  -1   5   5  144.09   24.40
   1   5  -5  135.49   21.40
   1   5   5  126.89   22.00
   5   5   1  117.59   28.90
   5  -1  -5  111.59   12.40
   5   1  -5  133.79   15.10
  -5   1  -5  143.59   15.80
   5   5   1  157.58   19.90
  -5  -1  -5  130.19   12.70
   1  -5  -5  150.28   10.50
   5  -5   1  136.49    8.90
   5  -5  -1  146.69    9.70
   5   1   5  116.69   16.20
   1  -5  -5  153.18   20.20
   1   5  -5  172.08   22.80
  -5  -5   1  138.29   15.70
  -5  -1   5  152.98   16.00
   5   2  -5  134.79   17.80
   5   5  -2  170.78   23.30
   5   5   2  154.78   24.80
   5  -2   5  163.28   18.70
  -5  -5   2  138.49   17.40
   2   5  -5  145.19   21.20
   5   2   5  140.99   17.20
   5   5   2  156.28   23.10
   5  -5  -2  137.29    9.80
   5  -5   2  134.99    9.00
  -5  -2  -5  129.19   12.80
   2  -5  -5  140.59   11.00
   2  -5   5  144.19    7.90
  -2   5   5  160.78   27.10
   2  -5   5  141.29   16.90
   2   5   5  154.58   21.50
  -5  -5  -2  125.79   11.10
   2   5   5  169.58   24.60
  -5   2  -5  117.19   16.90
   5  -2  -5  134.49   12.50
  -5   5   2  111.59   21.00
  -5   2   5  144.69   17.90
  -5  -2   5  146.29   16.30
  -5   5  -2  129.09   21.20
  -2  -5   5  134.49   16.70
  -2   5  -5  147.19   22.50
  -3  -5   5  130.59   18.30
  -5  -3   5  114.79   16.60
   5  -3   5  148.69   20.90
  -5   3  -5  135.59   19.70
  -5  -5   3  121.89   15.80
   5  -5   3  122.89    9.00
  -5   3   5  151.68   19.80
   3  -5  -5  121.79   11.30
   3  -5   5  137.59    8.50
   3   5  -5  150.68   22.50
  -5   5   3  118.39   24.70
  -3   5  -5  164.58   23.60
  -3   5   5  140.49   26.20
   5   3  -5   95.19   15.30
   5   5  -3  152.68   23.00
  -5  -5  -3  126.99   11.50
  -5  -3  -5  128.09   12.80
   5   5   3  159.18   22.40
   3   5   5  160.68   20.20
  -5   5  -3  140.69   23.20
   5   3   5  137.59   18.40
   5  -5  -3  122.29   10.30
   5  -3  -5  119.29   12.90
   5  -4   5   95.59   18.70
   5   5   4  105.19   19.70
   4   5   5  144.19   20.80
   4  -5  -5  101.49   12.00
   4   5  -5   96.59   20.00
   5  -5  -4  104.59   11.00
   5   4   5   74.59   14.80
  -5  -5  -4  126.49   12.20
  -5  -4  -5  111.59   12.30
  -5   4  -5   71.99   17.90
  -5   4   5  105.99   28.70
  -5   5  -4   85.29   17.40
   5  -5   4   93.39    9.10
   5  -4  -5  105.99   12.40
  -4  -5   5   98.29   15.00
  -4   5   5  102.19   27.80
  -5  -5   4  113.79   17.20
  -5  -4   5  118.19   16.30
  -5   5   4  107.69   25.60
  -4  -5  -5  109.49   11.10
   5   4  -5   53.69   15.90
   5   5  -4   86.59   19.60
  -4   5  -5  137.99   23.10
  -5   5  -5   72.09   19.00
  -5  -5   5   77.79   16.20
   5  -5  -5   83.59   10.90
   5   5   5   97.39   20.10
   5   5  -5   65.79   19.40
  -5  -5  -5   93.19   12.60
  -5   5   5   97.49   29.20
   6   0   0  857.31   36.20
   6   0   0  897.51   32.40
  -6   0   0  882.81   29.80
   0   0   6  760.72   28.30
   0   0   6  893.21   27.70
   0  -6   0  870.91   19.60
   0   0  -6  871.01   25.40
   6   0   0  863.11   24.10
   0   6   0  869.51   35.90
   0   6   0  873.81   27.90
  -6   0   0  871.81   28.70
   0   0  -6  883.91   26.40
   1   0  -6  721.13   38.30
   6   1   0  745.03   37.40
   0   6  -1  716.13   32.00
   0   6   1  744.03   33.80
  -6   1   0  722.83   28.60
   6   0   1  734.93   33.30
   6  -1   0  665.13   32.40
  -1   0   6  717.23   26.70
   1   0  -6  723.13   23.30
   6  -1   0  736.33   21.20
   6   1   0  745.33   23.30
   0  -1   6  687.63   27.90
   0   1   6  697.23   19.90
   6   0  -1  667.43   33.20
   0  -6  -1  696.63   23.80
   0   6   1  664.93   24.10
  -6   0  -1  722.93   26.30
   0  -6  -1  717.93   17.10
  -6   0  -1  697.53   25.00
  -1   6   0  721.13   36.10
   0  -1  -6  718.93   22.90
   0   1  -6  733.43   25.40
   1   6   0  706.23   31.90
   6   1   0  720.43   30.60
  -1   0  -6  666.53   23.80
   6   0   1  729.13   21.10
  -6   0   1  713.53   27.00
  -1  -6   0  729.33   43.00
   0  -1  -6  669.33   32.40
  -6  -1   0  747.03   27.60
  -6   1   0  720.93   26.30
   0   1  -6  754.82   26.00
   1   6   0  692.13   33.70
   0  -1   6  762.72   32.20
   0   1   6  742.03   25.90
   6   0   1  690.53   28.80
   6   0  -1  699.93   21.70
   1   0  -6  729.13   23.00
   6  -1   0  705.53   29.00
  -6   1  -1  558.84   24.90
  -6   1   1  578.64   22.70
  -1  -6   1  602.24   21.40
  -1  -1   6  591.64   23.30
   1   1   6  494.35   26.20
   6  -1   1  586.44   26.70
  -1   1   6  599.14   21.40
   1  -1  -6  627.94   33.90
   1   1  -6  558.94   39.90
   6  -1   1  600.24   29.80
   6   1  -1  582.64   35.00
  -6   1   1  566.44   24.00
  -1  -6  -1  555.24   21.20
  -1  -1   6  589.74   27.70
  -6  -1  -1  588.94   21.60
  -6  -1  -1  593.34   24.30
  -6   1  -1  596.54   23.20
   6   1   1  566.34   35.40
   1  -6   1  581.14   15.30
   1  -1  -6  591.74   19.70
   1   1  -6  618.64   23.70
   6  -1  -1  612.34   19.70
   1   6  -1  553.74   32.30
  -1   1  -6  575.64   23.50
  -1   6  -1  557.54   31.30
  -6   1   1  591.04   26.90
   1  -1  -6  597.24   20.00
   1   1  -6  612.44   22.20
   1   6  -1  588.34   29.20
   1   6   1  585.44   30.80
   6   1  -1  596.64   21.00
  -1   6   1  582.04   32.10
   6  -1   1  587.14   18.40
  -1  -1  -6  579.74   20.70
   6   1   1  595.54   21.00
  -6  -2   0  605.94   26.40
   2  -6   0  630.04   15.90
  -6   0  -2  625.84   23.30
   6   2   0  686.73   43.70
  -2   0   6  626.44   27.60
  -2   6   0  641.64   32.70
  -2   0   6  618.54   22.90
   6   0   2  637.04   20.10
  -6   0  -2  649.34   24.10
   6   0  -2  645.94   20.90
   2   0  -6  658.73   21.30
   0   6   2  632.14   33.00
   0   6  -2  656.53   31.00
   0   6   2  617.84   22.90
   2   0  -6  622.84   39.70
   6  -2   0  633.74   30.90
   2   0   6  635.74   24.20
   6  -2   0  630.44   28.00
   6   2   0  622.64   27.90
   0  -2   6  642.94   31.70
   0  -2  -6  636.34   20.50
   6   2   0  661.13   24.90
   2   6   0  635.64   31.60
  -6   2   0  627.34   28.90
  -2   0  -6  607.44   23.50
   2   0  -6  611.14   22.80
   6   0   2  619.04   33.40
   0  -2  -6  556.14   38.50
  -2  -6   0  629.34   21.80
   0  -2   6  618.14   24.10
   6  -2   0  629.84   19.10
   0   2  -6  644.54   25.60
   0   2  -6  669.33   28.40
   0  -2   6  621.64   21.80
   0  -6  -2  659.73   16.20
   0   6  -2  614.34   32.00
   0  -6  -2  649.54   25.80
   1   2  -6  555.44   22.90
   2   6  -1  549.25   29.00
   2  -1  -6  537.75   18.70
  -6   2  -1  563.74   27.10
   6   1  -2  520.65   20.40
   2   6  -1  543.45   30.90
  -6  -2   1  588.04   35.00
  -2   1  -6  505.75   23.30
  -1   6  -2  535.65   29.00
   1  -6  -2  524.25   17.30
  -2  -1   6  576.54   28.60
  -6  -1  -2  527.35   20.70
   6  -2  -1  527.75   17.80
   2  -1  -6  487.35   34.60
   2  -1  -6  563.04   20.80
   6   2   1  554.34   23.30
   6   2   1  595.94   43.50
   6  -1   2  583.14   27.00
   6   2   1  533.35   26.40
  -2  -1   6  509.65   20.80
  -2   6   1  541.65   31.70
   1   6   2  556.94   30.60
  -6   2  -1  553.44   21.80
  -2  -6  -1  531.45   37.90
   2  -6   1  544.55   14.30
  -6   1   2  532.35   22.40
  -1   2   6  499.75   19.00
   6  -1   2  539.55   17.60
  -6  -1  -2  510.45   22.60
   6  -1   2  544.35   29.40
   1   2  -6  518.65   24.40
   2   1   6  532.15   22.10
  -1  -2  -6  532.25   19.20
   1  -2   6  495.45   44.40
   1  -2   6  524.45   22.00
  -1  -2   6  613.64   24.70
   2   6   1  572.44   30.50
  -1  -6  -2  534.25   21.10
   1  -6   2  532.55   14.20
   2  -6  -1  538.05   14.60
  -6   1  -2  527.25   23.50
  -2  -6   1  549.35   20.40
  -1  -2   6  527.65   29.20
  -1   6   2  503.65   29.70
   1  -2  -6  562.04   32.70
   1   6  -2  560.74   31.70
  -6   2   1  561.14   22.40
   2   6   1  541.85   31.30
   1  -2  -6  549.05   19.00
  -6  -1   2  539.15   22.60
   1   6  -2  549.95   28.90
   6  -2   1  540.35   26.90
   6  -1  -2  561.24   19.20
   2   1  -6  522.55   41.00
  -2   1   6  541.25   22.40
  -1  -6  -2  549.95   14.40
   2   1  -6  555.04   23.50
  -6   2   1  580.84   29.20
   6   1   2  607.74   39.30
  -6  -2  -1  553.64   19.70
   6  -2   1  544.35   17.30
   6   2  -1  583.54   26.00
  -2   1   6  544.25   23.60
  -1  -2   6  547.05   21.70
   6   1   2  550.74   26.00
   1   2   6  535.65   22.50
   6  -2   1  554.64   28.20
  -1   2  -6  572.14   25.40
   2  -1   6  534.45   22.40
  -6   1  -2  532.45   21.10
   6   1   2  591.24   21.60
   2   1  -6  559.24   23.30
  -2   6  -1  532.75   29.60
  -6  -2  -1  533.25   24.40
  -1   2  -6  592.94   30.60
  -2   2  -6  456.75   24.10
   6   2   2  487.35   25.00
   2   6  -2  439.56   28.70
  -2   6   2  452.25   29.20
  -2  -6  -2  446.46   38.80
   2  -2   6  459.25   21.60
  -2  -2   6  499.35   28.80
   2   6   2  555.44   38.70
   6  -2   2  501.35   25.70
   2   2  -6  387.26   44.70
   2   6  -2  469.25   27.60
  -2   6  -2  449.06   27.80
   6   2  -2  466.55   21.50
   6   2   2  475.95   25.70
  -6  -2   2  473.85   21.90
  -6   2   2  466.65   21.70
  -2  -6   2  465.45   19.90
  -2   2   6  462.05   20.70
   2  -2  -6  466.25   32.30
   2   2   6  446.56   21.50
   6  -2   2  463.55   27.30
  -6  -2  -2  463.95   22.60
  -6   2  -2  433.96   20.10
  -2  -6  -2  460.95   20.50
  -2  -6  -2  470.45   13.20
   2  -6  -2  474.55   14.00
   2  -6   2  473.75   13.20
   2  -2  -6  486.55   18.90
   2   2  -6  475.75   24.40
  -6   2   2  485.15   29.50
   6  -2  -2  470.65   17.40
   6  -2   2  477.05   16.00
   6   2   2  439.06   47.20
  -2   2   6  468.95   21.30
   2   6   2  459.75   29.30
  -6  -2  -2  467.35   18.70
  -2  -2  -6  468.65   18.10
  -2  -2   6  479.65   20.50
   3   6   0  415.26   28.30
  -6   0  -3  353.26   27.60
   3   0   6  406.96   20.40
   0   3  -6  352.56   25.50
   0   6   3  385.96   27.10
   6   0  -3  384.56   17.30
   0  -3   6  386.16   30.10
  -3   0   6  393.86   19.30
   6   3   0  393.96   24.50
  -6  -3   0  380.56   23.80
  -3   0  -6  380.06   19.30
  -6   3   0  399.46   20.10
   0  -6  -3  405.76   12.40
  -3   6   0  326.17   26.50
   0   3  -6  403.66   21.90
  -6   3   0  380.06   26.40
   6   3   0  392.36   23.80
   0  -3   6  388.06   18.70
   3   0  -6  386.86   20.00
  -6   0   3  385.76   20.10
  -3  -6   0  366.06   20.00
   0  -3   6  386.46   19.50
   0   3   6  401.36   21.20
   6   0   3  401.86   23.40
   3   0  -6  278.17   42.70
   6  -3   0  386.96   14.40
   3   6   0  369.26   28.40
  -3   0   6  385.16   24.50
   0   6   3  401.96   19.20
   3  -6   0  385.66   12.20
   0   6  -3  396.56   26.70
   0   6  -3  397.66   28.30
   3  -6   1  345.27   11.30
  -3   6   1  334.67   27.50
  -1  -6   3  321.47   17.10
  -1  -3  -6  339.37   14.70
   3   6  -1  316.67   26.20
   6   3   1  327.17   23.70
   6   3   1  375.86   52.29
   3   6  -1  372.16   26.10
   1   6   3  333.17   27.20
  -3   1  -6  333.97   19.60
   6  -1   3  355.56   22.90
   3  -1  -6  324.07   17.60
   6  -3  -1  353.16   14.40
   1   3  -6  325.57   21.10
  -1   6  -3  364.36   26.20
   1  -6  -3  327.67   11.60
   1   3  -6  339.77   24.80
   3   1   6  364.46   19.60
  -1   3   6  306.57   29.50
  -1   3   6  337.07   19.80
   6   3   1  354.36   23.40
  -3  -1   6  315.57   18.40
  -6   1   3  339.47   20.30
   1  -3   6  344.57   19.50
   6   1  -3  326.27   17.30
  -6   3  -1  317.07   28.00
  -1  -6  -3  343.47   11.20
   6   1   3  350.26   22.40
  -6   1  -3  336.77   20.20
   6  -1  -3  322.57   15.30
  -3   1   6  347.47   18.90
  -3   6  -1  325.37   26.20
   3  -6  -1  343.67   11.70
  -3   1   6  324.97   22.20
  -1   3  -6  330.77   22.30
  -1  -6  -3  310.07   18.00
   1  -3  -6  342.87   15.90
  -6  -3  -1  328.77   22.50
   1   3   6  332.27   19.60
  -1  -3   6  354.76   18.50
   1   6  -3  330.37   27.60
  -6   3   1  344.07   19.60
   6  -3   1  347.67   23.70
   6   3  -1  331.27   22.30
  -1   6   3  331.77   28.00
  -3  -1  -6  312.67   16.30
  -6  -3  -1  347.17   16.00
   3  -1   6  353.76   19.50
  -6   3   1  365.86   26.70
   1  -3  -6  392.56   44.20
   3   6   1  322.47   24.70
   3   6   1  350.76   26.60
  -1  -3   6  331.07   28.50
  -6  -1   3  332.57   18.50
  -1  -3   6  313.77   18.40
  -3  -6   1  338.87   19.30
  -1   3  -6  310.27   26.30
   1   6  -3  354.26   25.70
   3   6   1  279.57   31.90
   6  -2   3  307.27   23.50
  -2   3   6  293.47   29.40
   3  -6   2  317.37   10.90
   2   3  -6  311.47   24.10
   3   2   6  320.07   19.60
   2  -6  -3  303.87   11.40
  -2   6  -3  280.57   23.90
   2   6   3  285.67   25.80
  -6  -3   2  330.07   19.40
  -6  -2  -3  322.77   16.70
  -3  -6  -2  340.37   33.50
   6   3   2  292.67   22.90
  -2  -6   3  322.77   18.30
  -6   3  -2  292.17   17.50
  -6   2   3  304.57   33.40
  -3   2  -6  310.17   21.30
  -2   3   6  243.28   16.50
  -3  -2   6  304.17   19.20
   2   6   3  335.87   26.70
  -2  -3  -6  303.97   14.50
  -3   6   2  299.87   28.10
   6  -3  -2  307.67   14.10
  -6   3  -2  303.87   23.60
   2  -3   6  299.87   19.20
   3   6  -2  331.97   27.30
   6   2  -3  294.27   19.30
  -2   3   6  321.57   20.50
  -2  -3   6  300.17   17.40
  -2  -6  -3  276.27   18.50
   3   6   2  273.07   25.30
   6  -3   2  318.07   12.90
   3  -2   6  288.87   18.80
   6  -3   2  320.67   24.00
   6  -2  -3  324.87   15.30
   3   2  -6  310.27   22.80
   3   6   2  320.37   26.30
  -6   2  -3  292.67   21.60
  -6   3   2  305.77   28.10
  -3  -2  -6  296.37   15.20
   2   6  -3  317.37   25.60
   2  -3  -6  327.57   32.80
  -3   2   6  299.37   18.70
   2   6  -3  318.17   26.70
  -3  -6   2  319.67   19.00
   6   2   3  291.97   22.10
   6   3  -2  302.57   21.10
  -2   6   3  320.57   28.80
  -6  -2   3  283.87   17.60
   2  -6   3  302.37   10.30
  -6   3   2  310.07   20.50
  -2   3  -6  318.47   22.60
   2  -3  -6  299.27   15.70
  -6  -3  -2  296.27   15.40
  -3   6  -2  301.27   26.40
   2   3   6  291.87   19.60
  -2  -6  -3  305.37   10.90
  -2  -6  -3  361.16   40.80
   3  -6  -2  291.17   11.20
  -6  -3  -3  215.28   14.70
  -3  -3   6  196.28   18.20
   3  -3   6  214.88   19.00
   3   3   6  231.48   18.80
  -3  -6  -3  211.18    9.70
  -3  -6   3  224.98   19.30
   6   3  -3  226.68   20.30
   6  -3   3  221.98   11.80
  -3   3   6  240.58   36.90
   3  -6   3  205.38    9.30
  -3   6   3  196.48   26.40
   6   3   3  211.98   21.00
  -3   3   6  224.98   18.30
   3   6   3  223.68   25.80
  -3   3  -6  190.08   20.80
   3   6  -3  205.58   26.50
  -3   6  -3  185.78   23.40
  -6   3   3  233.78   20.00
  -6   3  -3  194.88   21.60
   6  -3  -3  215.38   13.10
  -6  -3   3  241.78   17.50
   3   6   3  247.28   27.10
   6  -3   3  216.78   24.10
   3   3  -6  212.08   23.30
   3  -3  -6  215.68   15.10
   3  -6  -3  224.28   11.20
  -3  -3  -6  227.98   13.50
  -4   6   0  258.97   27.00
  -6   0  -4  272.27   17.80
  -6   4   0  259.37   25.60
  -6   0   4  272.47   19.90
   0  -4   6  283.07   18.50
  -4   0   6  287.77   19.80
   4   6   0  301.27   28.30
   0   6  -4  291.47   26.00
   4   0   6  262.37   18.80
   4   0  -6  303.77   18.70
   6  -4   0  291.77   12.50
   6   4   0  265.07   25.40
   6   0   4  258.77   20.80
   0   4   6  284.87   28.60
   0   6  -4  278.97   27.70
   0   6   4  292.27   28.00
   4  -6   0  281.27   10.80
   4   6   0  265.87   28.00
   6   0  -4  285.37   16.50
   0   4   6  291.97   20.30
   6   4   0  279.97   24.00
  -4   0  -6  267.37   17.60
   6  -4  -1  265.57   12.50
   4   1   6  259.57   18.90
  -1   4   6  286.67   21.20
  -6  -4   1  273.27   18.90
  -6  -1  -4  245.08   16.40
   4  -1  -6  276.27   17.00
   6   1  -4  257.37   17.10
  -4   6   1  247.18   26.60
  -4   1  -6  264.17   18.60
  -1   6  -4  281.97   24.60
   1   4  -6  216.68   25.40
   1  -4   6  261.87   18.80
  -1   4   6  233.68   28.50
   1   6   4  252.67   26.20
   1  -6  -4  272.77   11.90
   4   6  -1  256.27   27.90
   1   4  -6  228.78   23.80
  -6   4  -1  276.57   25.40
  -6   1   4  277.87   20.90
   6   4   1  239.08   23.10
  -4  -1   6  252.97   18.70
  -1  -6   4  253.57   18.30
   4  -6   1  263.87   10.70
   6  -1   4  260.27   21.60
  -6   1  -4  260.97   18.60
  -4  -6   1  257.77   20.50
   1   6  -4  263.87   27.10
   6  -4   1  273.07   12.00
  -1  -6  -4  268.87   11.40
   4   1  -6  255.27   20.30
   4  -1   6  286.47   19.40
  -4  -1  -6  260.17   16.10
  -4   1   6  257.97   19.60
  -1  -4   6  237.08   18.40
  -4   6  -1  248.88   26.90
  -6  -1   4  259.17   19.60
  -1   6   4  260.77   28.30
   4  -6  -1  275.17   11.30
   1   6  -4  264.87   25.60
   1   4   6  265.67   20.60
   6   1   4  264.67   20.50
   4   6   1  265.37   28.80
   1   4   6  267.37   28.40
   1  -4  -6  281.37   15.10
   4   6   1  283.97   27.00
  -6   4   1  258.67   27.70
   6   4  -1  275.27   25.10
  -1   4  -6  280.97   28.70
   6  -1  -4  253.07   14.90
  -1   4  -6  272.87   23.00
   6   4   2  233.88   22.70
  -6  -4   2  242.88   18.90
  -6   4  -2  220.08   23.80
  -6  -2  -4  214.38   15.60
   6  -2   4  222.38   22.80
   4   6  -2  184.88   26.60
   4   2   6  232.58   19.20
   4  -2  -6  225.38   15.50
  -2   6  -4  218.08   24.40
   2  -6  -4  220.28   11.80
   6   2  -4  207.78   18.70
   2   6   4  221.98   25.30
  -4   2  -6  216.18   19.40
  -2   4   6  208.88   19.80
  -4   6   2  220.58   28.30
   6  -4  -2  222.38   12.40
   2   6   4  187.38   26.40
  -2   4   6  226.18   29.70
   2   4  -6  230.58   25.60
  -4  -2   6  221.48   18.60
   4  -6   2  221.38   10.10
  -6   2   4  222.78   20.30
   2  -4   6  229.28   19.30
  -4  -6   2  232.38   20.00
  -6  -2   4  207.48   18.30
   2  -6   4  223.68    9.40
  -6  -4  -2  193.98   22.20
   6  -4   2  221.38   11.40
   6  -2  -4  231.98   14.50
   2  -4  -6  240.48   15.10
   2   6  -4  196.38   25.40
   4   6   2  247.98   27.10
   4   6   2  217.28   31.10
  -4   2   6  223.38   19.20
   4  -2   6  224.98   19.20
  -2  -4   6  209.08   17.50
  -4  -2  -6  222.78   14.20
   4  -6  -2  233.88   11.30
  -2  -6  -4  217.38   10.90
   4   6   2  201.98   26.50
  -2   6   4  198.48   26.70
   4   2  -6  209.58   21.70
  -6   2  -4  228.88   19.90
  -4   6  -2  173.28   23.60
  -2   4  -6  208.58   23.60
   6   2   4  211.88   19.60
  -6   4   2  195.78   28.50
   2   4   6  231.48   20.70
   6   4  -2  222.38   23.60
  -6   3   4  163.18   19.20
  -6  -3  -4  154.08   14.10
  -4  -6  -3  175.48   10.30
  -3  -6   4  169.28   19.50
  -3   6  -4  158.18   24.60
  -6  -4   3  158.88   17.30
  -4   6   3  140.39   26.40
  -3   4   6  129.69   26.10
  -3   4   6  168.08   21.90
   6  -3   4  216.88   25.10
   4  -6   3  161.38    9.60
   3   6   4  178.68   24.80
  -6   4  -3  150.18   21.50
   3  -4   6  168.08   19.90
   3   6   4  172.58   22.70
  -4  -3   6  171.18   18.20
   3  -6  -4  166.28   11.00
   4   6  -3  142.59   22.50
   3   4  -6  151.98   21.20
   4  -3  -6  174.68   15.00
   4   3   6  142.69   18.40
   6  -4  -3  159.28   12.10
  -4   3  -6  149.88   20.60
   6   3  -4  176.18   20.60
  -3  -4  -6  158.28   11.70
   6   4   3  167.58   22.50
   4   6   3  188.78   27.60
   3   4   6  146.69   21.20
   4   3  -6  168.08   23.80
   3  -6   4  159.58    9.00
  -3  -4   6  129.59   18.30
   3   6  -4  203.08   26.80
   4  -6  -3  154.38   10.10
   4  -3   6  171.98   20.10
  -6  -3   4  151.58   17.80
  -6  -4  -3  170.38   14.60
   4   6   3  159.78   22.40
  -4   3   6  176.88   20.70
   6   3   4  165.58   20.50
   6  -4   3  157.18   10.80
  -3   6   4  167.68   26.40
  -3   4  -6  153.98   22.90
  -4   6  -3  166.88   25.40
  -6   4   3  175.88   28.70
   6   4  -3  168.58   23.10
  -6   3  -4  177.58   21.10
  -4  -6   3  146.09   21.10
  -4  -3  -6  161.18   12.30
   3  -4  -6  162.78   14.40
   6  -3  -4  161.88   13.60
  -4   4   6  129.79   18.10
   4   6  -4   97.09   21.00
  -4   4   6  133.59   29.70
  -4   6  -4   94.89   20.20
  -6  -4   4  102.19   15.10
  -4  -4   6  149.49   18.00
   4  -6  -4  116.79   11.00
   4   6   4  129.39   22.00
   6   4   4   99.09   17.30
   4   4  -6  148.29   23.60
  -4   6   4  135.79   27.80
  -4  -4  -6  125.89   12.30
  -4   4  -6  140.99   24.10
   4  -6   4  119.69    9.60
  -6  -4  -4  127.49   14.00
   4  -4  -6  124.29   14.50
   6  -4  -4  122.89   12.30
   6   4  -4  122.79   20.50
   4  -4   6  134.29   18.40
   4   4   6   93.19   16.30
  -6   4  -4  138.89   21.50
  -4  -6   4  137.49   18.60
   5   6   0  165.28   26.40
  -6   0   5  164.78   19.40
   0   5  -6  162.78   23.90
   0  -5   6  148.59   19.70
   5   0  -6  140.09   16.20
   6  -5   0  157.48   10.40
  -5   6   0   90.09   19.80
   5  -6   0  159.78   10.20
  -5   0   6  156.58   18.50
   6   0   5  154.78   20.20
  -5   0  -6  147.09   15.50
  -5  -6   0  153.28   18.60
   0   6   5  111.79   20.80
  -6   5   0  126.49   21.20
  -6   0  -5  141.59   15.40
   0  -6  -5  163.78   12.30
   0   6  -5  128.49   21.20
   5   0   6  158.28   19.20
   0   6  -5  191.68   25.80
   6   5   0  129.99   21.90
   0   5   6   97.19   19.30
   0   5  -6  218.58   29.30
   0   5   6  165.28   22.10
   6   0  -5  139.99   14.40
  -6  -1  -5  139.39   14.20
   5  -1  -6  124.59   14.90
  -1  -6   5  167.88   20.30
   6   5   1  161.48   26.00
   1   5  -6  138.49   22.70
   6   1  -5  133.59   16.30
   1  -5   6  133.79   20.00
   6  -5  -1  139.69   10.50
  -5  -1   6  126.79   17.80
   1   6   5  187.18   27.10
  -1   6  -5  168.08   24.50
  -5   1  -6  124.19   16.60
  -1   5   6  124.79   23.50
  -6   1   5  148.29   20.60
  -6  -5   1  156.38   18.20
   5  -6   1  133.79    9.50
  -6   5  -1  145.19   23.80
   6  -1   5  173.48   21.60
   5   6  -1  189.28   27.20
   1  -6  -5  150.08   11.60
   6   5   1  164.98   23.80
  -5   6   1  150.68   25.10
  -1   5   6  146.39   21.80
  -5  -1  -6  124.99   13.70
   6   1   5  134.19   18.40
   1   6  -5  124.59   22.10
   5  -1   6  166.68   19.40
  -6   1  -5  152.78   16.70
  -5   6  -1  140.69   24.50
  -1   5  -6  185.08   25.20
  -6  -1   5  157.38   18.20
   1   6  -5  121.89   22.20
   6  -5   1  143.09   10.40
   1  -5  -6  165.78   14.60
  -1  -5   6  146.89   19.50
  -5   1   6  124.59   16.10
   1   5   6  105.89   19.90
  -1   6   5  153.58   25.50
   5   6   1  128.39   23.60
  -6   5   1  140.59   24.90
   1   5   6  146.19   18.90
  -5  -6   1  134.69   20.20
   6   5  -1  138.59   23.30
   6  -1  -5  124.69   13.60
   5  -6  -1  138.49   10.00
   5   1  -6  135.19   18.10
   5   6   1  199.78   24.40
  -6   2   5  146.99   18.50
  -6   5  -2   97.99   19.80
  -5   2  -6  113.49   17.10
   2  -6  -5  124.39   11.90
   5   6  -2  104.09   20.60
   6   2  -5  131.59   16.70
  -5   6   2   80.49   21.50
  -6  -5   2  159.28   19.00
   2   6   5  135.09   21.00
  -6  -2  -5  125.89   13.60
   6  -5  -2  112.09   10.40
   5  -2  -6  131.89   14.20
   6  -2   5  157.88   21.00
   5  -6   2  118.29    9.30
  -2  -6   5  132.19   19.40
   2  -5   6  143.69   18.10
  -2   5   6   95.09   26.00
   5   2   6  128.79   17.40
   6   5   2   98.69   18.10
  -2   6  -5  165.68   24.80
  -5  -2   6  146.69   18.00
   2   5  -6  155.68   24.30
   2   6   5  164.48   25.40
   5   6   2   98.69   25.20
  -5   6  -2   76.49   18.90
  -2   6   5  135.49   26.10
   6   2   5  129.69   19.10
   5   2  -6  118.49   16.90
  -2   5  -6   83.69   18.40
   5  -2   6  126.29   16.90
   2  -5  -6  127.59   13.90
   2   6  -5  135.89   21.70
   5   6   2  109.09   20.80
  -6  -5  -2  107.19   13.50
   6   5  -2  119.59   21.30
  -6   2  -5  120.79   17.70
  -5  -6   2  166.88   20.50
   2   5   6  168.38   22.10
  -6   5   2  110.79   24.20
   6  -2  -5  135.39   13.20
  -2  -5   6   85.89   13.80
  -6  -2   5  128.09   18.90
   5  -6  -2  118.99   10.10
  -5   2   6  138.09   17.30
   6  -5   2  121.49   10.20
  -5  -2  -6  129.79   13.70
   2  -6   5  134.59    8.50
  -3   5   6   46.40   23.10
  -6  -3  -5  104.79   15.00
   5   6  -3   80.89   22.60
  -5   6   3   70.99   22.30
   3   6   5  132.99   22.80
   6  -3   5   92.59   18.60
  -6   3   5  132.69   20.40
   6  -5  -3   97.19   11.40
  -5  -6  -3  104.19   11.70
  -5  -3   6  101.89   15.60
   3  -6  -5  104.49   11.80
   5  -6   3  112.69    9.50
  -5   3  -6  134.29   21.20
  -3   6  -5   85.09   19.30
  -6  -5   3  113.19   17.10
   3   6   5   98.69   23.70
   3   5  -6  125.19   24.30
   6   3  -5  139.29   20.30
   5   3   6   88.39   15.30
  -3  -6   5   67.49   14.70
   6   5   3  133.69   21.70
  -3  -5  -6  105.99   11.10
  -6   5  -3  104.29   19.60
   5  -3  -6  110.89   13.40
   5   3  -6   76.89   16.90
  -3   6   5  158.58   35.30
  -6   3  -5  130.59   19.50
  -5   3   6  120.49   18.30
   3  -5  -6  123.99   13.70
   3   6  -5   81.79   19.60
  -5  -3  -6  105.89   12.80
   6  -5   3  102.19   10.50
   6   3   5  130.69   18.70
  -6  -5  -3   98.99   13.80
   5   6   3  128.99   22.80
  -6  -3   5   78.59   13.90
  -3   5  -6   87.89   19.90
   3  -6   5  106.79    9.00
   5  -6  -3  100.49   10.20
   5  -3   6  127.79   19.30
  -6   5   3   76.89   24.60
  -3  -5   6   76.49   13.40
   3   5   6  142.09   19.70
   6  -3  -5  101.49   13.30
  -5  -6   3   71.89   16.00
  -5   6  -3  105.89   22.10
   6   5  -3   97.29   21.00
   4   5  -6   43.70   19.40
  -5   6   4   59.99   24.00
   5   4   6   81.49   18.10
  -5  -6  -4   84.29   11.20
  -5  -4   6   87.69   17.30
  -4  -6   5   74.69   17.30
  -5   4  -6   54.49   16.40
   4  -6  -5  107.79   11.70
  -4   6  -5  114.09   24.00
  -4  -5  -6   77.59   11.40
   6   4  -5   55.29   16.90
   5  -6   4   61.19    7.80
   4   6   5   99.29   23.40
   5  -4  -6   63.89   10.70
  -6  -5   4   77.19   17.50
   6   5   4   89.69   21.70
  -6   5  -4   39.10   16.00
  -6  -4  -5   90.39   13.30
   6  -5  -4   56.29    8.60
  -4   5   6   55.69   27.90
   5   6  -4   78.99   24.70
  -4   5  -6   86.59   21.90
  -4   6   5   98.89   26.30
  -6  -5  -4  102.39   14.10
  -4  -6  -5   94.99   11.50
   5  -6  -4   52.09    8.20
  -6   5   4   70.59   27.70
   5   4  -6  100.69   22.40
   5  -4   6  108.99   21.80
   6   5  -4   94.39   21.90
  -6   4  -5  114.79   20.70
   4   6  -5  118.09   26.20
  -4  -5   6   93.29   17.80
   4   5   6   91.59   19.40
  -5   6  -4   67.79   21.90
  -5  -4  -6   97.99   13.60
   5   6   4  100.19   22.70
   6  -4  -5   87.59   12.30
  -5  -6   4   73.79   17.00
   6   4   5   77.39   18.00
  -6  -4   5   46.30   13.90
   4  -5  -6   78.59   11.30
  -6   6   0   61.79   19.20
   0   6  -6  107.79   22.70
  -6   0   6  124.09   17.60
   6   0   6  149.59   19.40
  -6  -6   0  120.89   16.80
   0   6  -6   94.19   24.70
   6  -6   0  113.69   10.10
   6   0  -6   70.29   11.60
   6   6   0   89.19   26.00
  -6   0  -6  100.79   14.70
   0   6   6   76.59   21.20
   0  -6   6   93.59   17.60
   1  -6   6  108.09    8.60
   6  -6   1   98.49    9.40
   6  -1  -6  114.49   14.60
   1   6  -6  103.49   23.70
   6   6  -1   93.39   23.00
   6   6   1   62.49   24.90
  -6  -1   6   70.89   14.30
  -6   1   6  114.69   17.40
  -6  -1  -6   99.59   13.70
  -6   1  -6   82.09   14.30
  -6   6  -1  109.89   23.60
  -6   6   1  105.29   24.80
   1   6   6   43.30   17.40
   6  -6  -1  102.79   10.30
  -1  -6   6   98.39   17.90
   6  -1   6   64.59   14.60
   6   1   6  100.49   16.00
   6   6   1  108.99   22.10
  -1   6  -6  161.08   26.60
  -1   6   6   60.49   20.90
  -6  -6   1  116.89   17.70
   1  -6  -6  152.98   19.60
   6   1  -6   88.19   13.80
  -2   6   6   76.89   22.90
   2   6   6  126.19   24.60
  -6   6   2   90.69   25.30
   2   6   6   78.79   20.20
  -2  -6   6  103.59   18.40
   6   2  -6   54.59   14.30
   2  -6  -6   97.79   12.20
   2  -6   6   87.49    9.30
   2   6  -6  115.89   24.90
   6  -6  -2   87.39   10.10
   6  -6   2   80.39    9.90
   6  -2  -6   81.19   11.80
  -6  -6   2   68.49   15.60
   6   6  -2  124.29   26.00
  -6   2   6  100.49   18.40
  -6  -6  -2  117.09   15.70
  -6  -2  -6   90.79   13.20
  -6   2  -6  102.89   18.10
  -6   6  -2   82.59   20.90
   6   6   2  115.89   22.70
  -2   6  -6   69.89   19.60
   6  -2   6   83.59   16.90
   6   2   6   48.00   12.50
  -6  -2   6   58.19   13.70
  -6  -3  -6   68.09   12.90
  -6   3  -6   65.29   18.10
  -6  -6  -3   59.99   12.10
  -6   6   3   58.19   25.50
  -3   6  -6   82.49   23.40
  -3   6   6   53.19   24.10
   6  -3  -6   83.89   12.00
   6   3  -6   58.89   16.80
   6   6  -3   56.99   22.60
  -6  -6   3   72.29   15.80
  -6   6  -3   25.10   15.20
   3  -6  -6   92.89   12.60
   3   6  -6  107.29   24.10
   6  -6  -3   75.49   10.80
  -3  -6   6   74.49   16.10
   3   6   6   55.99   21.20
   6  -3   6   68.89   19.10
   6   3   6   50.69   14.20
  -6  -3   6   48.90   14.10
  -6   3   6   69.79   20.20
   6  -6   3   72.99   10.40
   6   6   3   56.49   22.60
   7   0   0   93.99   11.90
   0  -7   0   90.59    7.00
   0   0  -7   63.99   11.10
   7   0   0   86.49   15.00
   0   0   7  102.09   14.00
   0   7   0  119.19   21.40
   0  -1   7   78.19   12.20
  -7   0   1   85.09   12.20
  -7   0  -1   76.59   13.40
   7   0   1   95.59   17.40
   0  -7  -1   80.79    7.20
   1   7   0   67.59   17.60
  -1   0  -7   95.09   14.30
  -7   0  -1  101.79   18.60
  -1   7   0   86.79   20.50
   0  -1  -7   82.69   12.50
   0   1  -7   97.39   15.10
   1   0  -7   85.59   12.70
   7   0  -1   91.59   12.00
   7   0   1   96.49   11.90
   7   1   0   77.19   11.50
  -1   0   7   68.99   11.40
   1   0   7   93.59   13.40
   7  -1   0   65.59   14.40
   7   1   0   78.39   14.80
   7  -1   0   82.99   10.50
   0  -7   1   73.69    6.50
   0   7  -1   83.79   19.20
   0   7   1   67.79   17.80
   1  -7   0   84.99    6.90
   1   0  -7  125.39   22.10
   0   1   7   91.09   13.40
   7  -1   1   65.19   14.60
  -1   7  -1   55.59   16.40
  -1   7   1   58.09   18.00
   1   7  -1   52.19   15.10
   7  -1  -1   79.69   10.20
   7   1  -1   79.19   11.20
  -7   1   1   95.59   13.20
  -7  -1  -1   71.79   13.80
   7   1   1   75.19   15.30
   1   1   7   83.09   12.70
   1   7   1   68.79   19.40
  -1   1  -7   90.49   14.80
  -1  -7  -1   74.89    6.90
   1  -7  -1   75.79    7.10
   1  -7   1   75.39    6.70
   1   1  -7   85.29   15.10
  -1  -1   7   64.89   10.40
   7   1   1  119.39   29.10
   1  -1   7   74.69   12.20
   7   1   1   91.89   12.20
  -1  -1  -7   74.59   11.70
  -1   1   7   74.89   12.00
  -7  -1   1   93.79   12.80
  -7   1  -1   53.29   13.90
   1   1  -7   99.39   14.10
   1   7  -1   62.29   17.50
   0   2   7   94.09   13.40
   7  -2   0   91.99   11.10
   7   2   0  102.69   13.90
   2   7   0   92.99   20.90
   7   0  -2   95.29   12.60
   7   0   2   96.59   18.90
   2   7   0   63.99   18.30
  -2   7   0  116.79   21.60
   0  -2   7   71.49   11.50
   0   2  -7  101.59   15.80
   7   0   2   89.79   15.40
  -7   0   2   79.99   12.50
   2  -7   0   96.39    7.50
   2   0  -7  119.09   15.70
   0  -2  -7   84.19   11.70
   0   7   2   56.69   17.40
  -2   0   7  109.69   15.00
   2   0   7  101.69   13.00
   7   2   0  114.79   17.70
   0  -7  -2   99.09    7.60
  -7   2   0   94.89   18.80
  -2   0  -7   98.99   14.80
   0   7  -2  113.49   21.10
  -7  -2   1  105.39   13.20
   2   1   7   90.49   13.10
   1  -2   7   87.89   12.90
   1   7   2  105.29   21.80
   2  -1  -7   79.69   11.80
   1   2  -7  102.99   18.30
  -2   1  -7  104.09   16.30
  -7  -1  -2   65.49   12.70
  -1   2   7   99.39   14.20
  -2  -1   7   84.39   12.90
   1  -7  -2   92.79    7.80
   2   7  -1   80.19   20.10
   1   2  -7   76.69   14.50
   2  -1  -7   85.49   12.90
   7  -1   2   88.79   16.20
   7  -2  -1   87.39   11.40
   7   1  -2  103.09   13.00
  -7   2  -1   90.19   17.50
   7   2   1   95.49   18.70
  -2   7   1  114.69   22.90
  -1   7  -2  121.29   22.00
  -1  -2  -7   92.89   12.20
   7  -1   2   93.69   11.80
   2  -7   1   82.79    7.20
   2   7  -1   91.99   20.80
  -7   1   2   91.09   13.30
   1  -7   2   93.79    7.30
   1   2   7  105.39   15.50
  -2  -1  -7   88.79   12.90
  -1   2  -7  117.59   17.30
  -1  -7  -2   92.69    7.50
  -7  -1   2  116.39   15.10
   2  -7  -1   87.29    7.50
   1   7  -2   94.69   20.30
   7   1   2   86.19   15.90
  -2   1   7   93.99   13.50
  -7   2   1  112.89   14.80
   2   1  -7  125.89   17.60
   2   7   1  112.09   22.00
   2  -1   7   59.09   10.80
   7   2  -1   77.19   12.60
   7  -2   1   89.69   17.10
   1   7  -2   49.99   15.10
  -2   7  -1   96.39   20.10
   7  -1  -2   87.09   11.20
   1  -2  -7   90.89   11.70
   7  -2   1   95.19   11.10
  -1  -2   7  117.89   14.60
  -7   1  -2  115.89   17.30
  -1   7   2   84.29   21.20
   7  -2   2  110.39   11.80
  -2   7  -2   63.59   16.10
   2   7  -2   97.29   20.70
   2   7   2   93.59   22.40
   7  -2  -2   92.49   11.70
  -7  -2   2   84.49   12.40
   7   2  -2  118.69   15.00
  -2   2  -7  107.59   17.20
  -2  -7  -2   99.19    8.00
   2  -7  -2   99.19    8.10
   2  -2  -7   94.49   12.20
   2  -2  -7  107.39   13.60
   2   2  -7   77.09   16.30
   2   7  -2   97.69   22.40
  -2  -2  -7   90.79   12.30
   7   2   2  109.79   17.00
   2   2   7  103.79   14.80
  -7  -2  -2  105.69   14.70
  -7   2  -2  120.89   19.40
  -2   7   2   76.89   20.90
   2  -7   2   98.19    7.50
  -7   2   2  118.59   16.70
  -2   2   7   83.59   13.30
   7  -2   2  105.69   19.40
   2  -2   7  108.69   16.20
   7  -3   0   82.39   10.50
   0  -3   7   64.29   12.20
  -7   0   3   84.89   13.50
   0   3   7   69.69   12.70
   0   3  -7   65.09   14.90
   3   0   7   63.39   11.80
   7   3   0   50.89   14.30
  -7   3   0   84.79   20.10
  -3   0  -7   94.89   14.60
   0   7  -3   45.30   16.40
   0  -7  -3   87.79    8.20
   0  -3  -7   82.69   11.60
   3   7   0   92.19   21.80
   3   7   0  108.89   22.30
   0   3  -7  105.69   36.30
  -7   0  -3   75.29   13.50
  -3   7   0   58.69   17.50
   7   0  -3   56.69    8.70
  -3   0   7   72.59   12.30
   7   3   0   90.19   15.60
   3  -7   0   88.99    7.60
  -7   3   0  109.39   15.80
   7   0   3  101.19   17.70
   0   7   3   73.09   19.00
   3   0  -7   78.19   14.20
   3  -7   1   85.49    7.50
   7   1  -3   81.69   11.40
   1  -3   7  100.09   14.50
   1   3  -7   77.89   20.20
   1  -7  -3   91.49    8.70
   3   7  -1  107.19   23.30
   3  -1  -7   94.69   14.00
   7   3   1   84.19   17.80
  -1   3   7   85.59   14.40
   3   7  -1   99.69   23.10
  -7  -1  -3   60.99   11.80
  -1   7  -3   60.89   16.80
   7   3   1   61.79   13.80
  -3   1  -7   78.99   15.20
  -1  -3  -7   82.49   11.50
  -7   3  -1   94.59   19.70
  -7  -3   1   88.29   12.80
  -3   7   1   61.29   18.30
   1   7   3   63.79   18.80
   1   3  -7   90.59   26.50
   7  -1   3  118.39   20.10
  -7   1   3   79.19   13.80
   7  -3  -1   76.79   10.70
   3   1   7  105.69   14.80
   7   3  -1   88.29   16.10
  -3   7  -1   55.49   16.70
   7  -1  -3   77.89   11.30
   3  -7  -1   92.89    8.30
  -3  -1  -7   81.09   12.70
  -7   3   1  130.39   19.70
  -1  -3   7   84.29   13.30
  -3   1   7   95.49   14.30
   3  -1   7  114.69   15.20
  -1  -7  -3   96.29    8.30
   7  -3   1  144.49   22.90
   7  -3   1   88.79   10.70
  -7  -1   3   55.59   11.00
  -1   7   3   90.79   22.40
   1   3   7   80.79   12.60
   3   1  -7  104.39   17.70
   1   7  -3   63.69   18.10
   1   7  -3   76.09   19.30
   1  -7   3   90.39    7.50
   1  -3  -7   81.19   11.50
  -7   1  -3  109.09   16.80
  -1   3  -7   89.59   17.50
   3   7   1  111.19   22.70
   7   1   3   83.79   16.00
   3   7   1   78.49   21.20
  -2   7  -3  111.79   22.00
   2   3  -7   96.19   20.50
  -7  -3   2   66.49   12.00
   2  -7  -3   85.69    8.40
   7  -3  -2   77.19   11.10
   3  -7   2   90.29    7.50
   3   7  -2   71.39   19.30
  -7   3  -2  114.29   20.30
  -7   2   3  107.49   16.90
   7  -2   3  141.19   21.30
   7   2  -3   67.29   12.10
  -3  -2   7  106.09   15.10
   3  -2  -7   89.39   12.70
  -3   7   2   70.29   20.70
  -7  -2  -3   75.79   12.20
   7   3   2  101.09   17.90
  -3   2  -7   55.99   13.50
   2  -3   7   96.39   15.40
   3   2   7   65.89   11.80
  -3  -7  -2   82.99    8.30
   2   7   3   90.29   20.70
  -2   3   7   83.59   14.90
  -2  -3  -7   98.99   11.80
   7   3  -2   64.19   13.50
   7  -2  -3   87.59   11.30
   2  -7   3   91.79    7.50
   7  -3   2   84.69   10.90
  -2  -7  -3   88.19    8.50
  -7  -2   3  109.79   14.70
  -7  -3  -2   93.29   14.20
   3  -7  -2   88.79    8.20
   7  -3   2  104.39   20.20
   2   7  -3  117.79   28.40
   2  -3  -7  109.69   14.80
   3   2  -7  117.69   20.10
   3   7   2   73.89   20.50
  -7   2  -3  113.39   18.40
  -3   7  -2   78.19   19.40
  -3   2   7   99.59   15.80
  -7   3   2  102.89   18.00
  -2   3  -7   57.59   15.30
  -3  -2  -7  100.99   12.00
   3  -2   7   80.79   13.10
   2   7  -3   94.59   22.00
  -2   7   3   81.19   21.80
   7   2   3  113.19   18.50
   2   3   7   79.89   13.40
  -2  -3   7   95.79   13.50
   3   7   3   73.09   20.90
  -7  -3  -3   47.60   11.20
   3  -3   7  102.69   16.50
   3   3   7   80.59   14.00
   7  -3   3   84.99   20.30
  -7   3  -3  101.29   19.70
   3  -7   3   91.09    8.10
   3  -3  -7   70.09   12.60
   3   3  -7   88.99   19.30
   7   3   3   51.59   14.50
   3   7  -3   64.09   18.90
  -3   7  -3   98.39   23.40
  -3   3  -7   87.39   18.50
  -3  -3  -7   73.09   11.60
  -3  -7  -3   80.39    9.60
  -3  -3   7   81.69   13.50
  -3   3   7   87.49   15.90
   3  -7  -3   78.89    9.30
  -3   7   3   67.39   21.10
  -7  -3   3   66.49   11.50
  -7   3   3  117.09   22.10
   7   3  -3   50.59   12.90
   7  -3  -3   64.59    9.40
   4   7   0   78.29   21.30
   0  -7  -4   92.09    9.50
   4   0  -7   84.39   14.60
   7  -4   0   89.49   10.80
  -4  -7   0  116.19   17.60
   0   7   4   58.59   19.40
  -4   0  -7  114.59   15.90
   0   7  -4  109.09   21.50
   0   4   7  120.39   16.50
   4   0   7  106.19   15.30
  -7   0  -4  115.59   16.20
  -4   7   0   89.79   21.20
  -7   4   0   55.19   20.40
  -7   0   4   92.39   16.50
   4  -7   0   91.09    8.00
   7   4   0  152.68   22.80
   7   0   4  110.89   18.70
   7   0  -4   99.79   12.90
  -4   0   7   58.89   11.80
   0   4  -7  122.69   26.10
   0  -4   7   84.89   14.20
   0   4  -7   94.39   19.40
  -1  -4  -7   80.49   11.40
   4   7  -1   80.09   20.00
   7  -4  -1   87.29   11.00
   7   1  -4   55.59   10.20
   1   4  -7   40.40   19.00
   1  -4   7  109.09   16.40
   7   4   1   87.99   21.60
  -4   7   1   79.09   22.90
   4  -1  -7  111.49   15.30
  -1   7  -4   93.09   20.50
   1   7   4  127.19   23.60
   7  -1   4   59.59   15.70
  -1   4   7  105.29   16.60
  -7   1   4   87.39   16.00
   1  -7  -4   91.49   10.10
  -7  -4   1   97.99   13.50
  -4  -1   7  101.69   14.70
  -4   1  -7  126.89   17.50
   7   4   1   99.89   19.50
   4   1   7   87.39   14.60
  -7   4  -1  102.89   20.30
  -7  -1  -4   61.49   11.70
   4  -7   1   91.89    8.20
  -1   4  -7  122.59   22.20
   1   7  -4  101.59   24.30
   4  -7  -1   87.19    9.00
  -1   7   4   64.89   20.00
  -7   4   1  105.19   25.40
   1   7  -4   99.89   23.70
   4   7   1  121.19   26.00
  -1  -7  -4   90.99   10.10
   7  -1  -4   65.29    9.30
   7   4  -1  117.09   20.60
   7  -4   1   85.99   10.90
  -4   7  -1   85.49   21.30
   4   7   1   88.69   24.70
  -1  -4   7   77.29   13.60
   7   1   4   98.59   17.60
  -7   1  -4   94.39   15.80
   4  -1   7   79.79   13.90
  -4  -7   1  123.99   18.50
   4   1  -7   97.09   17.60
   1   4   7   95.49   16.00
  -4  -1  -7  100.29   14.10
  -7  -1   4   98.89   16.30
   1  -7   4   87.39    7.60
  -4   1   7  102.99   16.00
   4   7  -2   69.59   20.80
  -7   2   4   96.79   17.60
   7   2  -4  102.79   15.60
  -2  -4  -7   73.89   10.80
   7  -2   4  114.29   21.80
  -2   4   7  101.39   17.50
  -7   4  -2   44.20   15.90
   4  -7   2   88.49    8.40
  -4   2  -7   54.79   13.70
  -4  -2   7   81.19   14.70
  -4   7   2   43.20   20.40
   2  -7  -4   67.99    8.30
   4  -2  -7   95.89   13.80
  -7  -2  -4   71.99   11.70
   4   2   7   93.39   15.70
   7   4   2  114.59   19.60
   2   4  -7   84.19   22.10
   2   7   4   64.99   19.10
   2  -4   7   82.49   15.10
  -7  -4   2   98.99   15.30
  -2   4   7   88.69   26.90
  -2   7  -4   40.60   17.70
   4   7   2   84.39   23.70
   4   7   2   38.40   19.90
  -4   7  -2  100.49   22.90
  -2   7   4   66.29   19.60
   7   4  -2   93.79   19.20
   7  -2  -4   56.89    8.90
  -2  -7  -4   91.09   10.40
  -7   4   2   52.69   25.80
   4   2  -7   67.99   16.70
  -4   2   7   84.79   15.50
  -4  -2  -7   77.99   12.00
   4  -2   7   74.39   14.00
  -7   2  -4   84.09   16.50
  -4  -7   2   98.39   18.80
   2  -7   4   78.29    7.80
   7  -4   2   87.79   11.50
   4  -7  -2   86.09    9.50
   2   7  -4   40.00   18.20
  -2   4  -7   54.39   16.70
  -7  -2   4  120.89   16.30
  -2  -4   7  103.09   16.10
   2   4   7   93.99   15.80
  -7  -3  -4   83.49   13.30
  -3  -4  -7   70.69   10.50
   3  -4   7   91.89   17.70
   7  -3   4   81.39   21.60
  -3  -7   4   92.39   18.10
   4   3   7   70.99   15.10
   3  -7  -4   71.89    9.90
   7   4   3   48.60   15.40
   3   7   4   64.39   19.70
  -3   7  -4   53.29   18.20
   3   4  -7   98.29   22.20
  -7  -4   3   64.89   14.00
  -4   7   3   76.29   23.80
   7  -4  -3   89.69   11.30
  -4   3  -7   90.89   18.70
   7   3  -4   48.30   13.30
  -3   4   7   69.09   17.20
  -4  -3   7   48.70   12.40
  -3   4   7   77.59   27.10
   4   7  -3   46.60   21.20
  -7   3   4   46.80   18.80
   4  -7   3   63.09    8.60
  -7   4  -3   63.79   17.80
   4  -3  -7   78.89   12.80
  -4   3   7   84.39   16.60
   7   4  -3   67.89   16.80
   3   4   7   82.09   17.30
  -7  -3   4   69.09   13.40
   3  -7   4   61.09    8.30
  -3   4  -7   72.89   20.20
  -3  -4   7   48.30   12.10
  -3   7   4   56.09   20.10
  -7  -4  -3   73.39   13.70
   3   7  -4   77.39   23.40
   4   7   3   40.40   19.20
  -4  -7   3   65.39   17.20
   4   7   3   62.49   25.30
   4   3  -7  103.59   20.90
   4  -3   7   57.89   14.40
   7  -3  -4   82.19   10.90
  -7   3  -4   34.00   13.80
   4  -7  -3   75.09    8.90
   3  -4  -7   93.99   14.10
  -4  -3  -7   43.50    8.80
   7   3   4   80.29   18.40
  -4   7  -3   69.79   22.60
   4  -4  -7   71.49   12.80
   7   4  -4   55.59   17.50
  -4  -7   4   36.70   18.10
   7  -4  -4   90.79   12.30
  -4   7   4   50.09   22.90
  -7  -4   4   31.20   12.90
   4   7   4   56.39   25.40
  -4  -4   7   26.60   12.10
  -4   4   7   56.99   20.40
   4  -4   7   78.19   18.60
   7   4   4   76.79   19.00
   4   4  -7   49.80   19.00
   4   7  -4   64.79   22.30
   4  -7   4   75.79    8.70
  -4   4  -7   61.89   20.80
  -4  -4  -7   47.80    9.80
  -7   4  -4   41.00   15.40
  -4   7  -4   44.50   20.20
  -7  -4  -4   53.49   13.90
   4   7   4   20.30   19.00
   4  -7  -4   79.99   10.20
   4   4   7   60.39   17.10
   0   5  -7   93.09   23.20
   5   7   0   60.29   24.30
  -7   0   5   77.19   16.30
  -5  -7   0   89.19   17.60
   0   7   5   58.39   19.20
  -5   0  -7   53.99   12.40
   0   5  -7   99.19   26.60
   0  -7  -5   66.49   10.30
   5   0  -7  106.89   16.60
   7  -5   0   82.99   10.00
   0  -5   7   56.99   15.30
   0   5   7  101.19   19.10
   7   0   5   51.29   14.40
   0   7  -5   84.49   23.60
   7   0  -5   38.50    9.40
   5   0   7   95.09   17.10
  -5   0   7   56.89   14.20
  -7   0  -5   78.79   14.30
  -5   7   0   69.39   21.00
  -7   5   0   54.99   19.70
   0   5   7   64.69   23.00
   7   5   0   74.29   23.20
   5  -7   0   65.89    9.00
  -5   1  -7   52.29   13.10
  -1   5   7   53.99   21.80
   7  -1   5   58.89   15.30
  -7   5  -1   32.00   17.00
   1  -5   7   49.50   15.40
   7  -5  -1   71.99    9.60
  -5   7   1   47.70   18.90
  -7  -1  -5   74.89   13.40
   7   5   1   63.59   26.30
  -1   7  -5   96.19   23.70
  -7  -5   1   72.49   14.20
  -5  -1   7   80.79   15.70
  -7   1   5   66.49   16.30
   7   1  -5   78.79   13.80
   1   7   5   40.10   18.50
  -1   5   7   69.09   17.70
   5  -1  -7   66.89   12.70
   1  -7  -5   62.19    9.80
   5   7  -1   60.29   23.20
   7   5   1   67.69   18.60
   5  -7   1   62.69    8.70
   1   5  -7   38.80   22.00
   5   1   7   26.30   10.60
   5  -1   7   95.99   17.70
   1   5   7   83.09   18.00
   7  -5   1   47.50    7.50
  -5  -7   1   74.99   18.20
   5  -7  -1   41.20    6.40
   7   5  -1   36.10   17.90
   1  -7   5   67.89    7.90
   7   1   5   58.39   15.90
  -5   7  -1   75.69   22.20
  -7   5   1   56.49   23.60
  -5   1   7   48.10   14.30
  -7  -1   5   64.29   15.70
   5   7   1   97.89   28.60
   7  -1  -5   68.19   11.60
  -1  -5   7   70.49   15.60
   1   7  -5   56.19   20.50
  -7   1  -5   58.99   14.10
   5   1  -7   93.69   17.50
  -1   7   5   57.09   20.90
  -1   5  -7   44.80   18.50
  -5  -1  -7   42.50   10.40
   2   7   5   32.00   17.90
   2  -5   7   20.60   15.20
   5  -2  -7   55.89   12.20
  -7  -5   2   63.99   14.40
   5   2   7   68.09   15.60
  -7   5  -2   56.39   18.70
   7  -5  -2   63.89    9.90
  -5   2  -7   71.89   16.50
   2  -7  -5   59.09    9.50
  -2  -5  -7   59.59   10.10
  -5   7   2   59.39   24.00
  -7  -2  -5   36.10   10.10
   5   7  -2   61.09   23.50
   2   5  -7   70.59   22.60
  -2   5   7   28.80   21.20
   5  -7   2   41.10    6.50
  -7   2   5   72.09   18.20
   7  -2   5   89.69   20.40
   7   2  -5   57.19   14.40
   7   5   2   37.20   18.00
  -2   7  -5   99.39   24.80
  -5  -2   7   67.59   15.70
  -5  -7   2   47.00   17.70
  -7   5   2   58.89   26.20
  -7   2  -5   75.49   17.10
   5  -7  -2   37.80    6.30
   5   2  -7   77.69   19.70
   7  -2  -5   33.10    8.40
  -5  -2  -7   68.29   12.90
  -5   7  -2   77.29   22.50
   7   5  -2   21.90   17.10
  -2   7   5   68.79   23.50
  -2   5  -7   48.70   18.90
  -5   2   7   66.79   16.00
   5  -2   7   68.49   16.20
   2   7  -5   56.99   22.30
   2   5   7   88.59   18.70
  -7  -2   5   70.49   16.00
   5   7   2   70.59   22.50
   7  -5   2   57.89    8.80
  -2  -5   7   77.59   17.00
   7   2   5   74.99   17.60
   2  -7   5   57.49    8.10
  -5  -3   7   43.90   14.40
  -7   3   5   32.20   20.60
   7   5   3   55.39   18.80
   5   7  -3   67.29   24.10
  -7  -5   3   68.99   16.40
   7   3  -5   58.59   14.90
   3  -7  -5   53.79    9.60
   3   5  -7   54.59   22.80
  -3  -7   5   38.40   20.90
  -7   5  -3   54.89   18.30
  -3   5   7   -8.60   23.20
  -5   3  -7   52.79   16.00
   3   7   5   62.99   21.90
   5   3   7   51.79   15.50
   7  -5  -3   45.90    8.40
  -7  -3  -5   25.50    9.30
  -5   7   3   37.80   22.30
   5  -3  -7   74.59   12.70
   7  -3   5   54.99   21.10
  -3  -5  -7   49.70    9.40
   5  -7   3   56.59    7.60
  -3   7  -5   72.99   21.10
  -3   7   5   46.60   21.40
   3   5   7   80.39   19.90
   5  -7  -3   78.99   10.00
   3   7  -5   43.60   20.00
   5  -3   7   69.49   17.60
   7   5  -3   54.89   18.80
  -5   7  -3   73.99   24.00
  -3  -5   7   16.80   13.00
   5   3  -7   62.19   20.20
   5   7   3   69.29   25.10
   7  -3  -5   31.90    9.00
  -3   5  -7   11.50   16.50
  -5  -7   3   82.79   19.50
  -7   3  -5   29.50   13.90
  -7  -3   5   71.29   16.00
  -5   3   7   41.80   18.00
  -7  -5  -3   23.60   18.10
   3  -7   5   41.80    6.80
   3  -5  -7   60.69   13.00
  -5  -3  -7   44.30   11.00
   7   3   5   39.30   15.10
   7  -5   3   46.30    9.80
   0   0   8  253.87   18.90
   0   8   0  235.08   27.50
   8   0   0  246.78   16.90
   0  -8   0  268.97   10.80
   0   0  -8  252.97   20.20
   8   0  -1  240.58   16.20
  -1   8   0  216.18   27.40
   8   0   1  225.58   24.50
   1  -8   0  245.08   10.80
   1   0  -8  233.28   19.70
   0  -1   8  232.28   19.20
   0   1   8  215.28   19.10
  -1  -8   0  224.88   10.60
   0   8  -1  239.98   28.60
   0  -1  -8  224.98   18.00
   0   1  -8  210.08   20.40
   1   8   0  265.57   28.90
   8  -1   0  219.18   15.30
  -1   0   8  236.88   19.80
   1   0   8  238.08   19.10
   0   8   1  199.38   27.90
   8   0   1  246.38   17.50
  -8   0   1  240.28   19.50
   0  -8  -1  228.38   10.30
   0  -8   1  235.68   10.40
  -1   0  -8  241.48   19.70
   8   1   0  233.98   18.40
  -1  -8  -1  211.38   10.20
  -1   1   8  190.08   19.40
   8  -1  -1  197.18   14.90
  -1   8  -1  201.78   26.70
  -8  -1   1  209.98   18.60
  -8   1   1  197.98   19.40
   1   1   8  204.98   18.70
   8  -1   1  220.98   24.50
   8   1   1  219.78   23.30
  -1  -8   1  211.98    9.70
  -1   8   1  206.58   27.20
   1  -8  -1  205.18   10.30
   1  -8   1  212.98    9.80
   1  -1  -8  239.68   18.80
   1   8  -1  198.28   27.50
   8   1   1  227.18   19.80
  -1   1  -8  208.48   20.90
   8  -1   1  224.68   15.60
  -8   1  -1  208.68   27.30
  -1  -1  -8  208.18   18.10
   8   1  -1  213.68   17.20
   1  -1   8  227.18   19.50
   8   2   0  187.38   20.10
   8   0   2  186.98   25.10
   0   8  -2  172.08   26.20
   0  -8   2  194.28    9.70
   0  -2   8  183.98   19.20
   0   2   8  197.78   19.80
  -2   0  -8  181.08   20.00
   0  -2  -8  184.78   16.50
   0   8   2  205.08   29.20
  -8   0   2  197.88   20.20
   8   0  -2  187.78   15.70
   2  -8   0  193.28    9.80
   0  -8  -2  197.18   10.50
  -2   8   0  220.58   27.60
   8  -2   0  184.68   13.90
  -8   2   0  202.18   21.20
  -2   0   8  188.68   18.60
   2   0   8  216.18   18.30
  -8   0  -2  168.48   22.90
   2   8   0  203.58   28.70
   0   2  -8  155.28   21.80
   8   1  -2  179.68   16.70
   8   2   1  149.79   21.90
  -1   2   8  183.38   20.10
  -2   8   1  210.88   30.00
  -8   1   2  203.38   21.00
   8   2   1  190.38   23.20
   2   8  -1  226.78   31.00
  -2   1  -8  178.88   20.70
  -1   8  -2  116.89   21.30
   1  -8  -2  174.48   10.20
  -8   2  -1  175.68   27.30
  -2  -8  -1  178.18   10.30
   2   1   8  158.38   17.50
   2  -8   1  177.08    9.60
   2   8  -1  193.88   27.10
  -1  -2  -8  172.78   16.60
  -8  -2   1  171.68   17.40
  -2  -1   8  174.68   17.90
   1   8   2  211.58   29.50
   8  -2  -1  168.88   13.60
   1  -2   8  168.88   19.00
   8  -1   2  242.68   27.10
  -2   8  -1  114.99   21.00
   1   8  -2  111.49   22.70
  -1  -2   8  200.88   18.90
   2  -8  -1  184.38   10.00
   2   8   1  190.18   28.30
   1   2   8  169.98   18.90
   8  -2   1  202.28   25.20
  -1   8   2  132.89   24.40
  -8   2   1  200.08   21.70
   1  -8   2  166.38    9.30
  -2   1   8  184.28   19.70
   8  -2   1  190.48   14.90
   8   2  -1  177.78   19.20
   1  -2  -8  171.08   16.30
   2  -1   8  161.88   18.00
  -8   1  -2  160.88   22.00
  -1  -8  -2  176.18   10.30
  -8  -1   2  188.88   18.50
  -1   2  -8  162.08   21.50
   8  -1  -2  178.28   14.40
  -2  -1  -8  167.48   17.40
   8   1   2  168.78   23.50
   8   2  -2  134.79   18.00
  -2  -8  -2  140.69   10.00
   2  -2  -8  150.08   16.70
   8   2   2  105.29   17.00
   2   8  -2  174.48   29.30
  -2   2   8  150.28   20.90
   2  -8  -2  135.39    9.70
   2  -2   8  127.09   18.30
  -2   8  -2  169.68   27.00
   2   2   8  148.19   18.90
  -8  -2   2  172.68   17.80
   2   8   2   99.69   21.60
   8  -2   2  185.18   24.30
  -8   2   2  174.08   20.00
  -2  -2   8  126.29   18.40
  -8   2  -2   94.79   19.20
  -2  -2  -8  141.79   15.30
  -2   2  -8  143.59   21.60
   2   2  -8  127.79   23.20
   2   8  -2  141.99   25.20
  -2   8   2   73.59   19.90
   2  -8   2  139.49    9.20
   8   0   3  186.38   23.40
   0  -3  -8  130.19   14.50
   3   8   0   80.89   21.50
   3   0  -8  169.98   23.10
  -3   8   0  111.39   23.00
   3   0   8  136.49   18.80
   0   8  -3  113.79   23.00
   0   8   3  168.28   27.40
  -8   0  -3  104.99   17.50
  -8   0   3  140.79   20.30
   0  -3   8  142.59   19.00
   0   3   8  150.88   19.90
   8  -3   0  137.49   13.30
   8   3   0  164.38   22.20
   3  -8   0  135.59    9.70
   0   3  -8  115.79   21.90
  -3   0  -8  150.68   18.10
  -3   0   8  153.18   19.60
   0  -8   3  134.19    8.70
   0  -8  -3  136.99   10.30
   8   0  -3  128.89   14.40
  -8   3   0  147.29   28.20
   3   8   0  161.78   29.30
   8  -3  -1  120.49   12.70
  -8   1   3  146.09   18.50
  -3   1  -8  133.29   19.20
  -1   3   8  132.99   17.60
  -3   8   1   95.99   22.60
   3   1   8  123.29   18.40
  -1   8  -3   75.19   19.60
   1   8   3  144.69   27.00
   3   8  -1   95.79   22.60
   3  -1  -8  139.69   21.10
  -8   3  -1  127.89   24.30
  -3  -1   8  131.49   18.70
  -1  -3  -8  134.19   14.40
  -8  -3   1  122.79   16.70
  -8  -1  -3  130.29   20.20
   8   1  -3  119.79   15.60
   1  -8  -3  120.79    9.90
   1  -3   8  154.78   20.90
   8   3   1  140.79   19.90
   8  -1   3  151.88   22.80
   3  -8   1  139.09    9.40
   8  -1  -3  113.19   14.40
   8  -3   1  141.29   13.70
  -8   1  -3  144.49   21.40
  -3   1   8   94.69   14.60
   1   3   8  129.29   17.40
   8   1   3  157.88   21.50
   8   3  -1  105.69   16.70
  -3  -1  -8  123.19   16.10
   3   1  -8   87.89   20.50
  -1  -3   8  144.59   18.50
  -1  -8  -3  122.59   10.20
   3  -8  -1  118.09    9.80
   1  -3  -8  109.09   14.80
  -1   8   3  136.59   24.50
   1   8  -3  146.39   27.30
   3   8   1  163.28   27.30
  -8  -1   3  129.09   18.20
  -3   8  -1   83.99   20.80
   1  -8   3  133.29    8.70
  -1   3  -8  138.99   21.50
  -8   2   3  131.79   20.60
   8   2  -3   58.99   12.30
  -8   3  -2   69.49   17.90
   2   8   3   48.70   18.90
  -2  -3  -8  105.09   13.70
  -3   8   2   82.69   22.50
  -3  -8  -2  118.19    9.80
  -8  -2  -3   83.79   16.80
  -3  -2   8   96.79   15.00
   2  -8  -3  112.19    9.90
   8  -3  -2   91.39   12.60
   3  -8   2  109.69    9.10
  -3   2  -8   63.89   15.50
   8  -2   3  134.99   23.00
  -2   3   8  106.79   17.60
  -2   8  -3  147.89   25.60
   2   3  -8  110.59   25.20
  -8  -3   2   78.39   12.90
   2  -3   8   91.49   15.40
   8   3   2  127.09   21.10
   3   8  -2  107.19   27.10
   3   2   8  126.29   16.80
  -2  -3   8   84.09   14.20
   3   2  -8   85.79   22.50
  -8  -2   3   84.29   13.30
   2   8  -3   64.39   19.00
  -3  -2  -8  121.69   14.80
   3   8   2   80.49   20.60
   3  -8  -2  113.29    9.50
   8  -3   2   92.69   22.90
   2   3   8   87.29   15.50
  -2   3  -8  150.98   23.10
  -3   2   8  115.09   17.50
   3  -2   8  154.18   19.20
  -8   2  -3   94.49   17.90
   8   2   3  126.09   19.00
  -2   8   3   91.29   24.00
  -3   8  -2   61.99   19.70
  -2  -8  -3  109.79   10.50
   2  -3  -8  104.69   14.50
   2  -8   3  108.59    8.60
   8  -2  -3   97.59   13.20
   8   3  -2   80.59   16.50
   8  -3   2  134.89   14.80
  -3   8   3   71.79   24.50
   3   8   3  102.89   26.30
  -3   8  -3   91.69   23.70
   3   3  -8   60.49   22.90
   3  -3   8   84.89   16.40
   3  -8   3   80.49    8.90
  -8   3  -3   52.59   15.90
   3   8  -3   63.39   21.10
   8  -3  -3   79.09   11.00
   8   3  -3   88.59   17.90
   8  -3   3   91.99   25.40
   3  -8  -3   73.39   10.50
  -3   3   8   90.29   18.00
  -3   3  -8   54.29   16.90
  -8  -3   3   78.29   13.90
  -3  -3   8   57.59   12.60
   8   3   3   99.39   20.00
  -3  -8  -3   82.69   10.80
  -3  -3  -8   97.69   13.30
   3   3   8   92.89   16.80
  -8   0  -4   54.89   13.90
   4   0   8   60.19   12.80
  -4   0  -8   79.59   14.30
   0  -8   4   88.59    8.40
  -4   8   0   54.69   20.50
   8   4   0  141.49   24.90
   8   0  -4   74.69   11.00
   0   4   8  116.59   19.30
   8   0   4   55.99   16.90
   0  -4   8  119.99   18.60
   4   8   0  107.39   27.60
  -8   4   0   63.39   24.30
   0  -8  -4  102.89   10.50
   0   8  -4  137.09   26.80
   4   0  -8  130.79   21.00
   0   8   4   51.39   19.10
   4  -8   0  100.79    9.40
   8  -4   0   91.89   12.20
   0  -4  -8   89.49   13.80
  -4   0   8  110.39   16.80
  -8   0   4  109.59   18.00
   8  -4  -1   51.39    8.80
  -8   1   4   82.89   18.40
  -1   8  -4   70.69   22.70
   1   8   4   98.49   23.70
   4   8  -1   64.69   23.20
   4  -8   1   89.49    8.90
   1  -8  -4   80.49   11.10
  -4   1  -8   71.29   15.70
  -8  -4   1  128.29   17.20
  -1  -4  -8   96.09   13.30
   1  -4   8   65.19   15.30
  -1   4   8   91.19   17.50
   4   1   8   76.89   13.50
   8   4   1  126.19   21.00
  -8   4  -1   61.89   20.30
   4  -1  -8   58.09   16.10
  -8  -1  -4   68.89   15.50
   8   1  -4  131.89   16.50
  -4   8   1   69.09   21.20
   8  -1   4  116.09   22.30
  -4  -1   8   96.69   16.20
  -1   4  -8   71.29   22.60
   1  -4  -8   78.29   12.40
   4   8   1   53.59   26.60
   8  -4   1   95.39   12.80
   1   8  -4   77.49   27.80
  -1   8   4   92.39   24.30
  -4  -1  -8   73.39   13.10
   1   4   8  103.99   18.90
   8   4  -1   96.29   21.20
  -8  -1   4   89.89   16.90
   8   1   4   85.39   17.90
  -1  -8  -4   91.29   11.90
   4  -8  -1   81.09    9.50
  -4   8  -1   87.49   22.80
   1   8  -4   70.39   21.60
  -1  -4   8   98.49   17.40
  -8   1  -4   46.50   15.00
  -4   1   8   71.49   16.00
   8  -1  -4  112.49   14.40
   4   1  -8  136.89   22.60
   1  -8   4   91.39    8.20
   4  -1   8   71.49   14.30
   0   9   0    1.50   17.70
   0   0  -9   17.00   14.60
   0   0   9   36.60   12.60
   0  -9   0   16.30    5.30
   9   0   0   13.70   10.70
  -9   0   0   35.60   12.80
  -9   1   0   41.70   13.40
  -9   0   1   33.40   12.90
  -9  -1   0   28.60   11.80
   1  -9   0   29.70    6.50
   9   0  -1   37.80   10.90
   0   1  -9   22.50   16.70
   1   9   0   49.60   23.60
   0  -9  -1   29.00    6.40
   0  -9   1   29.00    6.20
   9  -1   0   29.90   10.10
  -1   0  -9   37.80   15.20
   0   9  -1   58.49   22.70
   0   9   1   11.40   18.10
   0   1   9   23.70   13.50
   9   0   1   31.20   15.10
   0  -1  -9   25.90   14.10
  -1   0   9   17.30   11.30
   1   0   9   18.40   11.00
   9   1   0   36.70   13.70
  -1  -9   0   14.00    5.30
  -1   9   0   30.20   19.40
   0  -1   9    7.50   10.50
  -9  -1   1   17.80   12.80
   1  -1   9   30.00   12.60
   1   9  -1   14.10   21.60
  -1   9  -1   30.10   19.10
  -1  -1  -9   20.80   13.40
  -1   1  -9   20.20   15.00
   9  -1   1   38.30   11.90
  -1   9   1   27.60   18.10
   1  -1  -9   25.20   14.80
  -1  -1   9   22.60   11.70
   1   9   1   20.50   20.20
   9  -1  -1   42.70   11.10
  -1  -9  -1   34.40    6.90
  -1  -9   1   33.60    6.30
   1  -9  -1   24.70    6.60
   1  -9   1   34.90    6.80
   9   1   1   29.00   16.20
   1   1   9   26.70   12.80
   9   1  -1   18.80   11.60
  -1   1   9   46.40   13.60
  -9   1   1   44.50   15.50

_computing_structure_solution     'SHELXT 2014/4 (Sheldrick, 2014)'
;
_shelx_hkl_checksum              56284
loop_
_space_group_symop_operation_xyz
'x, y, z'
'-x, -y, z'
'-x, y, -z'
'x, -y, -z'
'z, x, y'
'z, -x, -y'
'-z, -x, y'
'-z, x, -y'
'y, z, x'
'-y, z, -x'
'y, -z, -x'
'-y, -z, x'
'y, x, -z'
'-y, -x, -z'
'y, -x, z'
'-y, x, z'
'x, z, -y'
'-x, z, y'
'-x, -z, -y'
'x, -z, y'
'z, y, -x'
'z, -y, x'
'-z, y, x'
'-z, -y, -x'
'-x, -y, -z'
'x, y, -z'
'x, -y, z'
'-x, y, z'
'-z, -x, -y'
'-z, x, y'
'z, x, -y'
'z, -x, y'
'-y, -z, -x'
'y, -z, x'
'-y, z, x'
'y, z, -x'
'-y, -x, z'
'y, x, z'
'-y, x, -z'
'y, -x, -z'
'-x, -z, y'
'x, -z, -y'
'x, z, y'
'-x, z, -y'
'-z, -y, x'
'-z, y, -x'
'z, -y, -x'
'z, y, x'
loop_
_atom_site_label
_atom_site_type_symbol
_atom_site_fract_x
_atom_site_fract_y
_atom_site_fract_z
_atom_site_U_iso_or_equiv
_atom_site_adp_type
_atom_site_occupancy
_atom_site_site_symmetry_order
_atom_site_calc_flag
_atom_site_refinement_flags_posn
_atom_site_refinement_flags_adp
_atom_site_refinement_flags_occupancy
_atom_site_disorder_assembly
_atom_site_disorder_group
Pb01 Pb 0.5000 0.5000 0.5000 0.02551(17) Uani 1 48 d S T P . .
Br02 Br 0.0000 0.5000 0.5000 0.0983(7) Uani 1 16 d S T P . .
C1 C 0.0000 -0.120(5) 0.0000 0.030(12) Uiso 0.0417 8 d DS . P . 1
N1 N 0.0000 -0.120(5) 0.0000 0.030(12) Uiso 0.0417 8 d S . P . 1
C2 C 0.085(3) 0.0000 -0.085(3) 0.05(2) Uiso 0.0416 4 d DS . P . 2
N2 N 0.085(3) 0.0000 -0.085(3) 0.05(2) Uiso 0.0416 4 d S . P . 2
C3 C 0.069(3) 0.069(3) 0.069(3) 0.04(2) Uiso 0.0313 6 d DS . P A 3
N3 N 0.069(3) 0.069(3) 0.069(3) 0.04(2) Uiso 0.0313 6 d S . P B 3
loop_
_atom_site_aniso_label
_atom_site_aniso_U_11
_atom_site_aniso_U_22
_atom_site_aniso_U_33
_atom_site_aniso_U_23
_atom_site_aniso_U_13
_atom_site_aniso_U_12
Pb01 0.02551(17) 0.02551(17) 0.02551(17) 0.000 0.000 0.000
Br02 0.0222(5) 0.1364(11) 0.1364(11) 0.000 0.000 0.000
loop_
_atom_type_symbol
_atom_type_description
_atom_type_scat_dispersion_real
_atom_type_scat_dispersion_imag
_atom_type_scat_source
C C 0.0034 0.0017 'International Tables Vol C Tables 4.2.6.8 and 6.1.1.4'
H H 0.0000 0.0000 'International Tables Vol C Tables 4.2.6.8 and 6.1.1.4'
N N 0.0066 0.0034 'International Tables Vol C Tables 4.2.6.8 and 6.1.1.4'
Br Br -0.2713 2.4705 'International Tables Vol C Tables 4.2.6.8 and 6.1.1.4'
Pb Pb -3.4194 10.2008 'International Tables Vol C Tables 4.2.6.8 and 6.1.1.4'
loop_
_geom_angle_atom_site_label_1
_geom_angle_atom_site_label_2
_geom_angle_atom_site_label_3
_geom_angle
_geom_angle_site_symmetry_1
_geom_angle_site_symmetry_3
Br02 Pb01 Br02 90.0 9_556 .
Br02 Pb01 Br02 90.0 9_556 1_655
Br02 Pb01 Br02 180.0 . 1_655
Br02 Pb01 Br02 90.0 9_556 5
Br02 Pb01 Br02 90.0 . 5
Br02 Pb01 Br02 90.0 1_655 5
Br02 Pb01 Br02 90.0 9_556 5_565
Br02 Pb01 Br02 90.0 . 5_565
Br02 Pb01 Br02 90.0 1_655 5_565
Br02 Pb01 Br02 180.0 5 5_565
Br02 Pb01 Br02 180.0 9_556 9
Br02 Pb01 Br02 90.0 . 9
Br02 Pb01 Br02 90.0 1_655 9
Br02 Pb01 Br02 90.0 5 9
Br02 Pb01 Br02 90.0 5_565 9
Pb01 Br02 Pb01 180.0 1_455 .
N1 C1 N1 60.001(1) 33 29
N1 C1 C1 0.0 33 33
N1 C1 C1 60.0 29 33
N1 C1 C1 60.0 33 29
N1 C1 C1 0.0 29 29
C1 C1 C1 60.001(1) 33 29
N1 C1 N1 90.001(1) 33 9
N1 C1 N1 60.001(1) 29 9
C1 C1 N1 90.001(1) 33 9
C1 C1 N1 60.001(1) 29 9
N1 C1 C1 90.0 33 9
N1 C1 C1 60.0 29 9
C1 C1 C1 90.001(1) 33 9
C1 C1 C1 60.001(1) 29 9
N1 C1 C1 0.0 9 9
N1 C1 C1 60.0 33 5
N1 C1 C1 90.0 29 5
C1 C1 C1 60.0 33 5
C1 C1 C1 90.001(1) 29 5
N1 C1 C1 60.0 9 5
C1 C1 C1 60.001(3) 9 5
N1 C1 N1 60.0 33 5
N1 C1 N1 90.001(1) 29 5
C1 C1 N1 60.0 33 5
C1 C1 N1 90.001(1) 29 5
N1 C1 N1 60.001(3) 9 5
C1 C1 N1 60.001(3) 9 5
C1 C1 N1 0(2) 5 5
N1 C1 N1 45.001(1) 33 25
N1 C1 N1 45.001(1) 29 25
C1 C1 N1 45.001(1) 33 25
C1 C1 N1 45.001(1) 29 25
N1 C1 N1 45.001(1) 9 25
C1 C1 N1 45.001(1) 9 25
C1 C1 N1 45.001(1) 5 25
N1 C1 N1 45.001(1) 5 25
N1 C1 C1 45.0 33 25
N1 C1 C1 45.0 29 25
C1 C1 C1 45.001(1) 33 25
C1 C1 C1 45.001(1) 29 25
N1 C1 C1 45.0 9 25
C1 C1 C1 45.001(1) 9 25
C1 C1 C1 45.001(1) 5 25
N1 C1 C1 45.0 5 25
N1 C1 C1 0.0 25 25
N2 C2 N2 120.003(5) 10 30
N2 C2 C2 0.0 10 10
N2 C2 C2 120.0 30 10
N2 C2 C2 120.0 10 30
N2 C2 C2 0.0 30 30
C2 C2 C2 120.003(5) 10 30
N2 C2 N2 90.002(3) 10 33
N2 C2 N2 60.001(4) 30 33
C2 C2 N2 90.002(3) 10 33
C2 C2 N2 60.001(4) 30 33
N2 C2 N2 60.001(4) 10 29
N2 C2 N2 90.002(4) 30 29
C2 C2 N2 60.001(4) 10 29
C2 C2 N2 90.002(4) 30 29
N2 C2 N2 120.003(3) 33 29
N2 C2 C2 60.0 10 29
N2 C2 C2 90.0 30 29
C2 C2 C2 60.001(4) 10 29
C2 C2 C2 90.002(4) 30 29
N2 C2 C2 120.0 33 29
N2 C2 C2 0.0 29 29
N2 C2 C2 90.0 10 33
N2 C2 C2 60.0 30 33
C2 C2 C2 90.002(3) 10 33
C2 C2 C2 60.001(4) 30 33
N2 C2 C2 0.0 33 33
N2 C2 C2 120.0 29 33
C2 C2 C2 120.003(3) 29 33
N2 C2 N2 90.002(1) 10 26
N2 C2 N2 45.001(2) 30 26
C2 C2 N2 90.002(1) 10 26
C2 C2 N2 45.001(2) 30 26
N2 C2 N2 90.002(2) 33 26
N2 C2 N2 45.001(2) 29 26
C2 C2 N2 45.001(2) 29 26
C2 C2 N2 90.002(2) 33 26
N2 C2 N2 45.001(1) 10 2
N2 C2 N2 90.0 30 2
C2 C2 N2 45.001(1) 10 2
C2 C2 N2 90.0 30 2
N2 C2 N2 45.001(2) 33 2
N2 C2 N2 90.002(1) 29 2
C2 C2 N2 90.002(1) 29 2
C2 C2 N2 45.001(2) 33 2
N2 C2 N2 90.002(2) 26 2
N2 C2 C2 90.0 10 26
N2 C2 C2 45.0 30 26
C2 C2 C2 90.002(1) 10 26
C2 C2 C2 45.001(2) 30 26
N2 C2 C2 90.0 33 26
N2 C2 C2 45.0 29 26
C2 C2 C2 45.001(2) 29 26
C2 C2 C2 90.002(2) 33 26
N2 C2 C2 0.0 26 26
N2 C2 C2 90.0 2 26
N2 C2 C2 45.0 10 2
N2 C2 C2 90.0 30 2
C2 C2 C2 45.001(1) 10 2
C2 C2 C2 90.0 30 2
N2 C2 C2 45.0 33 2
N2 C2 C2 90.0 29 2
C2 C2 C2 90.002(1) 29 2
C2 C2 C2 45.001(2) 33 2
N2 C2 C2 90.0 26 2
N2 C2 C2 0.0 2 2
C2 C2 C2 90.002(2) 26 2
N3 C3 N3 90.001(1) 28 27
N3 C3 N3 90.001(2) 28 26
N3 C3 N3 90.001(2) 27 26
N3 C3 C3 0.0 28 28
N3 C3 C3 90.0 27 28
N3 C3 C3 90.0 26 28
N3 C3 C3 90.0 28 26
N3 C3 C3 90.0 27 26
N3 C3 C3 0.0 26 26
C3 C3 C3 90.001(2) 28 26
N3 C3 C3 90.0 28 27
N3 C3 C3 0.0 27 27
N3 C3 C3 90.0 26 27
C3 C3 C3 90.001(1) 28 27
C3 C3 C3 90.001(2) 26 27
N3 C3 N3 90.001(3) 28 4
N3 C3 N3 45.0 27 4
N3 C3 N3 45.000(1) 26 4
C3 C3 N3 90.001(3) 28 4
C3 C3 N3 45.000(1) 26 4
C3 C3 N3 45.0 27 4
N3 C3 C3 90.0 28 4
N3 C3 C3 45.0 27 4
N3 C3 C3 45.0 26 4
C3 C3 C3 90.001(3) 28 4
C3 C3 C3 45.000(1) 26 4
C3 C3 C3 45.0 27 4
N3 C3 C3 0.0 4 4
N3 C3 C3 45.0 28 3
N3 C3 C3 90.0 27 3
N3 C3 C3 45.0 26 3
C3 C3 C3 45.0 28 3
C3 C3 C3 45.0 26 3
C3 C3 C3 90.001(3) 27 3
N3 C3 C3 60.0 4 3
C3 C3 C3 60.000(2) 4 3
N3 C3 N3 45.0 28 2
N3 C3 N3 45.0 27 2
N3 C3 N3 90.001(4) 26 2
C3 C3 N3 45.0 28 2
C3 C3 N3 90.001(4) 26 2
C3 C3 N3 45.0 27 2
N3 C3 N3 60.000(1) 4 2
C3 C3 N3 60.000(1) 4 2
C3 C3 N3 60.000(1) 3 2
N3 C3 C3 45.0 28 2
N3 C3 C3 45.0 27 2
N3 C3 C3 90.0 26 2
C3 C3 C3 45.0 28 2
C3 C3 C3 90.001(4) 26 2
C3 C3 C3 45.0 27 2
N3 C3 C3 60.0 4 2
C3 C3 C3 60.000(1) 4 2
C3 C3 C3 60.000(1) 3 2
N3 C3 C3 0.0 2 2
N3 C3 N3 45.0 28 3
N3 C3 N3 90.001(3) 27 3
N3 C3 N3 45.0 26 3
C3 C3 N3 45.0 28 3
C3 C3 N3 45.0 26 3
C3 C3 N3 90.001(3) 27 3
N3 C3 N3 60.000(2) 4 3
C3 C3 N3 60.000(2) 4 3
C3 C3 N3 0.0(7) 3 3
N3 C3 N3 60.000(1) 2 3
C3 C3 N3 60.000(1) 2 3
loop_
_geom_bond_atom_site_label_1
_geom_bond_atom_site_label_2
_geom_bond_distance
_geom_bond_site_symmetry_2
Pb01 Br02 2.9664(7) 9_556
Pb01 Br02 2.9664(7) .
Pb01 Br02 2.9664(7) 1_655
Pb01 Br02 2.9664(7) 5
Pb01 Br02 2.9664(7) 5_565
Pb01 Br02 2.9664(7) 9
Br02 Pb01 2.9664(7) 1_455
C1 N1 1.01(4) 33
C1 N1 1.01(4) 29
C1 C1 1.01(4) 33
C1 C1 1.01(4) 29
C1 N1 1.01(4) 9
C1 C1 1.01(4) 9
C1 C1 1.01(4) 5
C1 N1 1.01(4) 5
C1 N1 1.43(6) 25
C1 C1 1.43(6) 25
C2 N2 0.71(3) 10
C2 N2 0.71(3) 30
C2 C2 0.71(3) 10
C2 C2 0.71(3) 30
C2 N2 0.71(3) 33
C2 N2 0.71(3) 29
C2 C2 0.71(3) 29
C2 C2 0.71(3) 33
C2 N2 1.01(4) 26
C2 N2 1.01(4) 2
C2 C2 1.01(4) 26
C2 C2 1.01(4) 2
C3 N3 0.82(4) 28
C3 N3 0.82(4) 27
C3 N3 0.82(4) 26
C3 C3 0.82(4) 28
C3 C3 0.82(4) 26
C3 C3 0.82(4) 27
C3 N3 1.16(5) 4
C3 C3 1.16(5) 4
C3 C3 1.16(5) 3
C3 N3 1.16(5) 2
C3 C3 1.16(5) 2
C3 N3 1.16(5) 3
