#------------------------------------------------------------------------------
#$Date: 2019-11-10 20:00:03 +0200 (Sun, 10 Nov 2019) $
#$Revision: 226115 $
#$URL: file:///home/coder/svn-repositories/cod/cif/4/51/61/4516101.cif $
#------------------------------------------------------------------------------
#
# This file is available in the Crystallography Open Database (COD),
# http://www.crystallography.net/
#
# All data on this site have been placed in the public domain by the
# contributors.
#
data_4516101
loop_
_publ_author_name
'Du, Cui-Xia'
'Qi, Fei-Yan'
'Chen, Juan'
'Baiyin, Menghe'
_publ_section_title
;
 Two Mercury Antimony Chalcogenides
 Cs<sub>2</sub>HgSb<sub>4</sub>S<sub>8</sub> and
 Cs<sub>2</sub>Hg<sub>2</sub>Sb<sub>2</sub>Se<sub>6</sub> with Cesium
 Cations as Counterions.
;
_journal_issue                   11
_journal_name_full               'ACS omega'
_journal_page_first              15168
_journal_page_last               15173
_journal_paper_doi               10.1021/acsomega.8b02059
_journal_volume                  3
_journal_year                    2018
_chemical_formula_moiety         'Cs2 Hg S8 Sb4'
_chemical_formula_sum            'C0 H0 Cs2 Hg N0 O0 S8 Sb4'
_chemical_formula_weight         1209.89
_space_group_crystal_system      triclinic
_space_group_IT_number           2
_space_group_name_Hall           '-P 1'
_space_group_name_H-M_alt        'P -1'
_audit_creation_date             2018-09-18
_audit_creation_method
;
Olex2 1.2
(compiled 2018.05.29 svn.r3508 for OlexSys, GUI svn.r5506)
;
_cell_angle_alpha                99.51(2)
_cell_angle_beta                 92.06(2)
_cell_angle_gamma                92.10(2)
_cell_formula_units_Z            2
_cell_length_a                   7.3196(19)
_cell_length_b                   10.6224(6)
_cell_length_c                   11.7739(14)
_cell_measurement_reflns_used    1334
_cell_measurement_temperature    296(2)
_cell_measurement_theta_max      26.51
_cell_measurement_theta_min      2.39
_cell_volume                     901.4(3)
_computing_cell_refinement       'SAINT v7.60A (Bruker, 2009)'
_computing_data_collection       'Bruker SMART'
_computing_data_reduction        'SAINT v7.60A (Bruker, 2009)'
_computing_molecular_graphics    'Olex2 (Dolomanov et al., 2009)'
_computing_publication_material  'Olex2 (Dolomanov et al., 2009)'
_computing_structure_refinement  'ShelXL (Sheldrick, 2015)'
_computing_structure_solution    'Bruker SHELXTL'
_diffrn_ambient_temperature      296.15
_diffrn_measured_fraction_theta_full 0.978
_diffrn_measured_fraction_theta_max 0.978
_diffrn_measurement_device_type  'CCD area detector'
_diffrn_measurement_method       'phi and omega scans'
_diffrn_radiation_monochromator  graphite
_diffrn_radiation_type           MoK\a
_diffrn_radiation_wavelength     0.71073
_diffrn_reflns_av_R_equivalents  0.0447
_diffrn_reflns_av_unetI/netI     0.0936
_diffrn_reflns_Laue_measured_fraction_full 0.978
_diffrn_reflns_Laue_measured_fraction_max 0.978
_diffrn_reflns_limit_h_max       8
_diffrn_reflns_limit_h_min       -8
_diffrn_reflns_limit_k_max       12
_diffrn_reflns_limit_k_min       -11
_diffrn_reflns_limit_l_max       13
_diffrn_reflns_limit_l_min       -13
_diffrn_reflns_number            4390
_diffrn_reflns_point_group_measured_fraction_full 0.978
_diffrn_reflns_point_group_measured_fraction_max 0.978
_diffrn_reflns_theta_full        24.999
_diffrn_reflns_theta_max         24.999
_diffrn_reflns_theta_min         1.946
_exptl_absorpt_coefficient_mu    19.279
_exptl_absorpt_correction_T_max  0.1134
_exptl_absorpt_correction_T_min  0.0714
_exptl_absorpt_correction_type   none
_exptl_absorpt_process_details   SADABS
_exptl_crystal_colour            yellow
_exptl_crystal_colour_primary    yellow
_exptl_crystal_density_diffrn    4.457
_exptl_crystal_density_method    'not measured'
_exptl_crystal_description       block
_exptl_crystal_F_000             1044
_exptl_crystal_size_max          0.29
_exptl_crystal_size_mid          0.25
_exptl_crystal_size_min          0.2
_refine_diff_density_max         3.019
_refine_diff_density_min         -3.049
_refine_diff_density_rms         0.494
_refine_ls_extinction_method     none
_refine_ls_goodness_of_fit_ref   1.046
_refine_ls_hydrogen_treatment    undef
_refine_ls_matrix_type           full
_refine_ls_number_parameters     136
_refine_ls_number_reflns         3103
_refine_ls_number_restraints     0
_refine_ls_restrained_S_all      1.046
_refine_ls_R_factor_all          0.0860
_refine_ls_R_factor_gt           0.0626
_refine_ls_shift/su_max          0.000
_refine_ls_shift/su_mean         0.000
_refine_ls_structure_factor_coef Fsqd
_refine_ls_weighting_details
'w=1/[\s^2^(Fo^2^)+(0.0883P)^2^] where P=(Fo^2^+2Fc^2^)/3'
_refine_ls_weighting_scheme      calc
_refine_ls_wR_factor_gt          0.1594
_refine_ls_wR_factor_ref         0.1731
_reflns_Friedel_coverage         0.000
_reflns_number_gt                2228
_reflns_number_total             3103
_reflns_threshold_expression     'I > 2\s(I)'
_cod_data_source_file            ao8b02059_si_003.cif
_cod_data_source_block           a
_cod_database_code               4516101
_shelx_shelxl_version_number     2014/7
_shelx_space_group_comment
;
The symmetry employed for this shelxl refinement is uniquely defined
by the following loop, which should always be used as a source of
symmetry information in preference to the above space-group names.
They are only intended as comments.
;
_shelx_estimated_absorpt_t_max   0.113
_shelx_estimated_absorpt_t_min   0.071
_olex2_refinement_description
;
;
_shelx_res_file
;
    a.res created by SHELXL-2014/7

TITL A in P-1
CELL 0.71073 7.3196 10.6224 11.7739 99.506 92.062 92.099
ZERR 2 0.0019 0.0006 0.0014 0.02 0.021 0.022
LATT 1
SFAC C H N O S Sb Hg Cs
UNIT 0 0 0 0 16 8 2 4

L.S. 20
PLAN  20
SIZE 0.29 0.25 0.2
TEMP 23
BOND
fmap 2
acta
OMIT 0 50
OMIT 0 0 1
OMIT -1 -1 1
OMIT -5 -1 1
REM <olex2.extras>
REM <HklSrc "%.\\A.hkl">
REM </olex2.extras>

WGHT    0.088300
FVAR       0.07001
HG1   7    0.194286    0.166357    0.275348    11.00000    0.02688    0.04218 =
         0.03727    0.00531    0.00365    0.00897
SB1   6   -0.103658    0.169712   -0.057640    11.00000    0.01908    0.02486 =
         0.03326    0.00841    0.00414    0.00285
SB2   6    0.208528    0.462774   -0.108747    11.00000    0.03420    0.02777 =
         0.03242    0.01139    0.00617    0.00561
SB3   6    0.403042    0.175711    0.004341    11.00000    0.02120    0.03161 =
         0.03001    0.01241   -0.00233    0.00262
SB4   6   -0.289990    0.257114    0.276291    11.00000    0.02426    0.02980 =
         0.02246    0.00833    0.00073    0.00473
CS1   8   -0.257681    0.468877    0.617260    11.00000    0.03996    0.03942 =
         0.03535    0.00347   -0.00894    0.01179
CS2   8   -0.272987   -0.105608    0.379741    11.00000    0.06480    0.05827 =
         0.03904    0.02394    0.00779   -0.00237
S1    5   -0.255709    0.491497    0.304802    11.00000    0.04558    0.03327 =
         0.03080    0.01783    0.00767    0.00326
S2    5   -0.043367    0.224546    0.408957    11.00000    0.02546    0.05643 =
         0.03110    0.01196    0.00170    0.01645
S3    5    0.486204    0.245346    0.413500    11.00000    0.01956    0.04202 =
         0.03435    0.01436    0.00288   -0.00353
S4    5    0.318820   -0.039074    0.193967    11.00000    0.01699    0.02666 =
         0.06720    0.00249   -0.00624    0.00517
S5    5    0.206780    0.317184    0.118193    11.00000    0.03779    0.03273 =
         0.02706    0.00646    0.00215    0.00701
S6    5   -0.026894    0.309528   -0.197706    11.00000    0.03817    0.03836 =
         0.03338    0.02250    0.00069    0.00546
S7    5    0.464916    0.323813   -0.130733    11.00000    0.02590    0.03710 =
         0.03564    0.01980    0.00436    0.00459
S8    5    0.158865    0.037836   -0.106995    11.00000    0.02350    0.02095 =
         0.03105    0.00696    0.00227    0.00251
HKLF 4

REM  A in P-1
REM R1 =  0.0626 for    2228 Fo > 4sig(Fo)  and  0.0860 for all    3103 data
REM    136 parameters refined using      0 restraints

END

WGHT      0.0896      0.0000

REM Highest difference peak  3.019,  deepest hole -3.049,  1-sigma level  0.494
Q1    1   0.3474  0.1624  0.2722  11.00000  0.05    3.02
Q2    1   0.2726  0.2498  0.2942  11.00000  0.05    2.89
Q3    1   0.1067  0.0856  0.2665  11.00000  0.05    2.61
Q4    1   0.4825  0.2589  0.0231  11.00000  0.05    2.43
Q5    1  -0.0181  0.2533 -0.0403  11.00000  0.05    2.30
Q6    1   0.2988  0.5328 -0.0992  11.00000  0.05    2.11
Q7    1   0.0931  0.2611  0.2820  11.00000  0.05    2.00
Q8    1  -0.1659  0.5523  0.6225  11.00000  0.05    2.00
Q9    1   0.2602  0.1866  0.0155  11.00000  0.05    1.98
Q10   1   0.1019  0.1371  0.1533  11.00000  0.05    1.96
Q11   1   0.4715  0.2455  0.2778  11.00000  0.05    1.95
Q12   1  -0.3700  0.1796  0.2641  11.00000  0.05    1.91
Q13   1  -0.1726  0.5311  0.7223  11.00000  0.05    1.88
Q14   1  -0.1898 -0.0744  0.5014  11.00000  0.05    1.85
Q15   1  -0.1565  0.2626  0.2630  11.00000  0.05    1.83
Q16   1   0.4902  0.2009  0.1167  11.00000  0.05    1.80
Q17   1  -0.3483 -0.1831  0.3614  11.00000  0.05    1.79
Q18   1  -0.2078  0.3300  0.2785  11.00000  0.05    1.77
Q19   1  -0.1805  0.0874 -0.0881  11.00000  0.05    1.75
Q20   1   0.3508  0.4575 -0.1202  11.00000  0.05    1.75
;
_shelx_res_checksum              35029
_shelx_hkl_file
;
   1   0   0    9.03    0.65
   2   0   0  568.14   28.23
   3   0   0   39.23    2.57
  -5   0   0    3.86    1.11
  -6   0   0   19.39    2.64
  -6   0   0   21.79    2.36
  -7   0   0   -0.38    0.93
  -7   0   0    1.16    1.40
  -8   0   0    2.92    1.59
  -9   0   0    2.38    1.90
  -9   1   0   12.00    2.90
  -8   1   0    8.02    2.25
  -7   1   0   18.53    2.84
  -6   1   0   99.48    6.32
  -6   1   0  103.33    6.67
  -5   1   0    7.71    1.52
  -5   1   0    7.96    1.45
  -4   1   0  774.52   37.47
  -4   1   0  720.24   37.25
  -3   1   0    9.58    1.03
  -3   1   0   11.10    1.39
  -2   1   0    1.89    0.52
  -2   1   0    2.44    0.57
   0   1   0   12.33    0.75
   1   1   0   51.15    2.87
   2   1   0   53.05    3.18
   3   1   0   11.73    1.25
   4   1   0   74.52    4.65
  -6  -1   0   39.64    3.54
  -7  -1   0    4.01    1.78
  -8  -1   0    0.86    1.44
  -9  -1   0   -0.50    1.60
  -9   2   0    2.50    1.93
  -8   2   0   60.46    5.33
  -7   2   0    0.51    1.16
  -6   2   0    8.60    1.94
  -5   2   0    5.48    1.37
  -4   2   0    1.63    0.83
  -4   2   0    0.16    0.67
  -3   2   0   73.41    4.52
  -3   2   0   73.51    4.18
  -2   2   0  324.18   16.38
  -1   2   0  200.50   10.22
   0   2   0   54.09    3.00
   0   2   0   57.24    3.23
   1   2   0  139.39    7.21
   1   2   0  133.19    7.47
   2   2   0   33.93    2.33
   3   2   0   51.95    3.46
   4   2   0   92.90    5.71
   5   2   0    0.36    0.89
  -7  -2   0    6.09    2.16
  -8  -2   0   12.13    2.92
  -9  -2   0    5.26    2.36
  -9   3   0    2.22    2.14
  -8   3   0    6.57    2.27
  -7   3   0   26.82    3.60
  -6   3   0   44.52    3.99
  -5   3   0   27.06    2.77
  -4   3   0   10.09    1.60
  -4   3   0   13.61    1.85
  -3   3   0    6.20    1.17
  -2   3   0  258.20   13.34
  -1   3   0   38.63    2.54
   0   3   0  776.95   38.03
   0   3   0  768.40   38.20
   1   3   0  194.11   10.40
   1   3   0  184.37    9.88
   2   3   0  119.64    6.63
   2   3   0  116.10    7.13
   3   3   0  157.81    8.82
   4   3   0   13.39    1.97
   5   3   0   56.17    4.20
   6   3   0   52.16    4.26
  -7  -3   0    4.61    2.06
  -8  -3   0    7.28    2.71
  -9  -3   0    3.82    2.68
  -9   4   0   11.88    3.19
  -8   4   0    0.52    1.53
  -7   4   0   10.39    2.50
  -6   4   0  102.52    7.15
  -5   4   0    0.94    0.97
  -4   4   0  297.33   15.97
  -3   4   0   28.76    2.48
  -2   4   0    0.96    0.60
  -1   4   0   25.11    1.65
  -1   4   0   29.15    2.12
   0   4   0   22.24    1.63
   0   4   0   24.07    2.02
   1   4   0    3.93    0.84
   1   4   0    5.34    1.35
   2   4   0   57.80    3.74
   2   4   0   57.00    4.65
   3   4   0    8.73    1.50
   4   4   0   14.41    2.13
   5   4   0   31.96    3.03
   6   4   0   78.17    5.73
  -8  -4   0    7.61    2.89
  -9  -4   0   22.18    4.32
  -9   5   0   10.18    3.07
  -8   5   0   52.01    5.29
  -7   5   0   17.50    3.21
  -6   5   0    0.48    0.96
  -5   5   0    0.17    0.92
  -4   5   0  120.76    7.54
  -3   5   0   22.01    2.22
  -2   5   0  275.17   14.48
  -1   5   0  102.31    6.08
  -1   5   0  104.29    5.59
   0   5   0    8.97    1.17
   0   5   0   10.79    1.63
   1   5   0  141.46    9.04
   1   5   0  150.68    8.11
   2   5   0    0.07    1.26
   2   5   0   -0.11    0.55
   3   5   0   92.35    7.14
   3   5   0   98.00    6.00
   4   5   0   93.88    6.15
   5   5   0   33.99    3.25
   6   5   0    2.52    1.64
  -8  -5   0    7.76    2.94
  -9   6   0   16.74    3.85
  -8   6   0    9.85    2.93
  -7   6   0   43.60    4.61
  -6   6   0   26.63    3.62
  -5   6   0   95.99    6.79
  -4   6   0   13.96    2.21
  -3   6   0   71.67    4.92
  -2   6   0   12.35    1.73
  -2   6   0   10.95    1.04
  -1   6   0    8.09    1.08
  -1   6   0    5.68    1.30
   0   6   0  174.99    9.84
   0   6   0  162.84    9.05
   1   6   0   34.31    2.55
   1   6   0   28.48    3.38
   2   6   0    3.50    2.19
   2   6   0    6.09    1.32
   3   6   0   75.77    7.05
   3   6   0   83.32    5.37
   4   6   0   32.86    3.10
   5   6   0   50.35    4.23
   6   6   0   -0.71    1.21
  -8  -6   0   12.70    3.53
  -8   7   0    0.53    2.00
  -7   7   0   23.84    3.86
  -6   7   0   72.00    5.99
  -5   7   0    0.96    1.19
  -4   7   0  177.26   10.54
  -3   7   0   11.78    1.91
  -2   7   0    2.95    1.08
  -1   7   0   41.50    3.53
  -1   7   0   49.02    3.08
   0   7   0   13.39    1.53
   0   7   0   19.03    2.61
   1   7   0   14.31    1.64
   1   7   0   13.90    2.94
   2   7   0    1.91    2.25
   2   7   0    1.78    1.02
   3   7   0    1.59    1.16
   3   7   0   -0.44    2.44
   4   7   0   59.90    4.63
   5   7   0   13.96    2.66
   6   7   0   25.93    3.73
  -8   8   0   18.44    3.77
  -7   8   0   10.94    2.85
  -6   8   0   17.63    3.11
  -5   8   0   31.22    3.47
  -4   8   0   -0.34    0.97
  -3   8   0   11.82    2.02
  -2   8   0   11.25    1.98
  -1   8   0    2.82    1.00
  -1   8   0    4.65    1.42
   0   8   0   25.42    3.29
   0   8   0   23.10    2.14
   1   8   0    6.86    1.46
   1   8   0    6.63    2.50
   2   8   0    6.32    3.07
   2   8   0    4.86    1.44
   3   8   0   22.10    2.82
   3   8   0   13.69    4.73
   4   8   0   70.53    5.27
   5   8   0   21.81    3.34
   6   8   0    6.78    2.47
  -7   9   0    3.97    2.22
  -6   9   0   11.10    2.71
  -5   9   0   12.51    2.52
  -4   9   0    2.62    1.40
  -3   9   0   25.43    2.81
  -2   9   0   37.37    3.48
  -1   9   0   26.96    2.95
   0   9   0   32.18    2.71
   0   9   0   32.39    3.68
   1   9   0    9.76    3.04
   1   9   0    9.05    1.74
   2   9   0    7.26    3.98
   2   9   0   19.11    2.54
   3   9   0    0.12    1.21
   3   9   0    0.61    3.48
   4   9   0   51.75    4.39
   5   9   0    1.09    1.71
   6   9   0    2.81    2.29
  -7  10   0    5.34    2.33
  -6  10   0   52.39    5.11
  -5  10   0    3.33    1.72
  -4  10   0   19.54    2.98
  -3  10   0    2.99    1.52
  -2  10   0   22.82    3.08
  -1  10   0    1.39    1.43
   0  10   0   34.19    4.04
   1  10   0    0.84    2.32
   1  10   0    0.36    1.11
   2  10   0    0.94    3.48
   2  10   0    2.90    1.53
   3  10   0    0.91    4.22
   3  10   0   10.18    2.22
   4  10   0   12.11    5.81
   4  10   0   24.37    3.44
   5  10   0   -0.69    1.71
  -6  11   0   25.00    3.96
  -5  11   0   -0.18    1.32
  -4  11   0    6.94    2.13
  -3  11   0   -0.22    1.09
  -2  11   0    3.08    1.58
  -1  11   0   -0.11    1.41
   0  11   0   32.00    4.62
   1  11   0   -1.35    2.46
   2  11   0   18.69    2.93
   2  11   0   16.03    5.29
   3  11   0    1.70    1.63
   3  11   0    1.16    4.78
   4  11   0   11.13    2.65
   4  11   0    1.59    5.79
   5  11   0    2.41    2.10
  -5  12   0    0.24    1.52
  -4  12   0    3.32    1.88
  -3  12   0   -1.14    1.27
  -2  12   0    1.50    1.77
  -1  12   0    1.39    1.76
   0  12   0   10.96    3.23
   1  12   0    1.91    3.17
   2  12   0    4.19    4.44
   3  12   0   -3.45    4.74
   3  12   0   -1.05    1.56
   4  12   0    3.23    6.41
   4  12   0    2.81    2.05
  -4  13   0    2.80    2.00
  -3  13   0    3.97    1.95
  -2  13   0    3.79    2.10
  -1  13   0    0.62    1.92
   0  13   0    4.74    2.97
   1  13   0    1.93    3.06
   2  13   0   -0.77    4.52
   3  13   0    1.33    5.86
  -2  14   0    2.12    2.18
  -1  14   0    3.43    2.70
   1  14   0    4.36    4.03
   1  14  -1    5.18    4.09
   0  14  -1    5.54    3.38
  -1  14  -1    4.43    2.72
  -2  14  -1    2.16    2.07
   3  13  -1    1.12    2.04
   3  13  -1   -2.75    5.33
   2  13  -1    2.01    4.81
   1  13  -1    5.00    3.81
   0  13  -1    2.88    2.68
  -1  13  -1    1.17    2.09
  -2  13  -1   21.25    3.60
  -3  13  -1    1.41    1.82
  -4  13  -1    0.63    1.78
   4  12  -1   -0.56    6.25
   4  12  -1   17.85    3.41
   3  12  -1   -4.00    5.13
   3  12  -1    1.04    1.84
   2  12  -1   39.23    3.92
   2  12  -1   36.75    7.62
   1  12  -1    8.70    3.79
   0  12  -1    4.40    2.67
  -1  12  -1    5.79    2.26
  -2  12  -1   13.72    2.74
  -3  12  -1    6.55    2.11
  -4  12  -1    8.22    2.50
  -5  12  -1    2.32    1.78
   5  11  -1   -0.35    1.95
   4  11  -1   31.26    3.48
   4  11  -1    2.14    5.70
   3  11  -1    0.07    5.01
   3  11  -1    1.58    1.70
   2  11  -1   19.32    2.90
   2  11  -1   16.00    5.42
   1  11  -1    4.96    3.01
   1  11  -1    3.86    1.70
   0  11  -1   17.91    3.61
  -1  11  -1    3.26    1.83
  -2  11  -1   63.69    5.23
  -3  11  -1    2.49    1.60
  -4  11  -1   12.06    2.55
  -5  11  -1    0.32    1.50
  -6  11  -1    4.29    2.12
   6  10  -1    0.45    2.19
   5  10  -1    0.21    1.76
   4  10  -1    0.27    4.48
   4  10  -1    1.07    1.70
   3  10  -1    0.91    1.47
   3  10  -1   -0.37    4.21
   2  10  -1    6.45    4.13
   2  10  -1    5.54    1.72
   1  10  -1    1.36    2.56
   1  10  -1    1.98    1.33
   0  10  -1   17.82    3.34
  -1  10  -1    2.11    1.47
  -2  10  -1   53.82    4.56
  -3  10  -1   11.61    2.29
  -4  10  -1    1.25    1.31
  -5  10  -1    5.66    2.00
  -6  10  -1   10.93    2.75
  -7  10  -1    0.97    1.95
   6   9  -1    3.26    2.29
   5   9  -1    1.03    1.83
   4   9  -1    9.83    4.71
   3   9  -1   23.39    2.59
   3   9  -1   10.09    4.97
   2   9  -1   29.02    2.78
   2   9  -1   16.43    4.82
   1   9  -1  100.45    7.89
   1   9  -1   83.79    5.73
   0   9  -1   23.11    2.35
   0   9  -1   26.74    3.58
  -1   9  -1   49.57    4.19
  -2   9  -1   32.36    3.23
  -3   9  -1   15.73    2.47
  -4   9  -1   -0.53    1.02
  -5   9  -1    0.65    1.36
  -6   9  -1   41.34    4.50
  -7   9  -1    3.15    2.11
  -8   9  -1   14.47    3.58
   7   8  -1    2.50    2.35
   6   8  -1    6.48    2.46
   5   8  -1   11.97    2.69
   4   8  -1    4.31    3.26
   4   8  -1   11.24    2.34
   3   8  -1   -0.15    1.07
   3   8  -1    0.19    3.13
   2   8  -1   13.78    2.12
   2   8  -1    6.81    3.24
   1   8  -1    5.30    1.34
   1   8  -1    3.28    2.15
   0   8  -1    3.06    1.53
   0   8  -1    2.50    1.03
  -1   8  -1   17.27    2.43
  -1   8  -1   13.98    1.58
  -2   8  -1  151.04    9.00
  -3   8  -1   17.81    2.49
  -4   8  -1   63.00    5.01
  -5   8  -1    8.08    2.10
  -6   8  -1    0.70    1.42
  -7   8  -1    0.29    1.59
  -8   8  -1    5.03    2.65
   7   7  -1    0.49    1.90
   6   7  -1    1.64    1.79
   5   7  -1    1.32    1.43
   4   7  -1    3.78    1.54
   3   7  -1    2.17    1.18
   3   7  -1    0.06    2.39
   2   7  -1   61.85    4.36
   1   7  -1   13.46    1.58
   1   7  -1    6.86    2.34
   0   7  -1    5.29    1.55
   0   7  -1    3.32    1.00
  -1   7  -1   52.20    3.36
  -1   7  -1   49.70    3.88
  -2   7  -1   61.45    3.68
  -2   7  -1   57.85    4.25
  -3   7  -1   70.73    5.03
  -4   7  -1   34.12    3.34
  -5   7  -1   83.77    6.36
  -6   7  -1    0.19    1.27
  -7   7  -1   36.01    4.72
  -8   7  -1    2.62    2.13
   7   6  -1   -0.14    1.69
   6   6  -1    9.06    2.47
   5   6  -1    4.93    1.81
   4   6  -1    1.41    1.11
   3   6  -1  101.37    6.05
   3   6  -1   76.96    7.12
   2   6  -1   26.34    4.19
   2   6  -1   29.26    2.53
   1   6  -1  228.34   12.03
   1   6  -1  217.71   13.12
   0   6  -1  290.73   15.35
   0   6  -1  279.69   14.80
  -1   6  -1  257.20   13.83
  -1   6  -1  260.77   13.40
  -2   6  -1   22.47    2.19
  -3   6  -1   93.62    6.07
  -4   6  -1    7.56    1.80
  -5   6  -1    2.26    1.41
  -6   6  -1   55.61    4.99
  -7   6  -1    2.39    1.91
  -8   6  -1   13.39    3.24
  -9   6  -1   16.26    3.90
   7   5  -1   46.40    4.41
   6   5  -1   38.03    3.72
   5   5  -1  117.01    7.58
   4   5  -1   32.73    2.99
   3   5  -1  110.12    6.72
   2   5  -1   13.14    1.52
   2   5  -1    7.57    2.20
   1   5  -1   40.03    2.77
   1   5  -1   37.38    3.51
   0   5  -1    8.92    1.18
   0   5  -1    8.93    1.49
  -1   5  -1   16.71    1.38
  -1   5  -1   17.28    1.69
  -2   5  -1  179.38    9.70
  -2   5  -1  200.38   10.39
  -3   5  -1   86.25    5.61
  -4   5  -1    0.85    0.83
  -5   5  -1  113.93    7.57
  -6   5  -1   45.64    4.33
  -7   5  -1   30.98    3.72
  -8   5  -1   19.79    3.66
  -9   5  -1    1.77    1.86
  -9  -4   1   14.71    3.62
   7   4  -1   10.18    2.60
   6   4  -1    0.01    1.22
   5   4  -1   19.24    2.74
   4   4  -1    0.99    1.00
   3   4  -1    1.32    0.81
  -3  -4   1    1.27    0.52
   2   4  -1  301.35   15.76
   1   4  -1    0.60    0.76
   1   4  -1    0.99    0.55
   0   4  -1   69.64    3.99
   0   4  -1   69.58    4.35
  -1   4  -1    4.25    0.88
  -1   4  -1    4.41    0.69
  -2   4  -1   66.55    4.15
  -2   4  -1   61.58    3.59
  -3   4  -1   11.52    1.68
  -4   4  -1    0.46    0.69
  -4   4  -1    1.67    1.22
  -5   4  -1   42.05    3.76
  -6   4  -1   23.97    3.32
  -7   4  -1   20.46    3.29
  -8   4  -1    5.56    2.34
  -9   4  -1    0.79    1.93
  -8  -3   1    9.24    2.55
   6   3  -1   14.08    2.46
   5   3  -1   18.20    2.19
   4   3  -1  149.71    8.66
   3   3  -1    0.52    0.69
  -3  -3   1    0.54    0.49
   2   3  -1   11.11    1.23
   2   3  -1   11.78    1.67
   1   3  -1   14.72    1.29
   1   3  -1   14.91    1.63
   0   3  -1  359.53   18.04
  -1   3  -1   91.18    4.96
  -1   3  -1   83.97    4.67
  -2   3  -1  229.86   11.45
  -2   3  -1  206.31   11.11
  -3   3  -1   14.41    1.63
  -3   3  -1   14.56    1.63
  -4   3  -1   34.78    3.01
  -4   3  -1   37.47    2.91
  -5   3  -1    1.43    1.07
  -5   3  -1   -1.03    1.22
  -6   3  -1   35.36    3.50
  -7   3  -1    0.43    1.20
  -8   3  -1    8.08    2.36
  -9   3  -1    2.39    1.98
  -8  -2   1   34.08    3.91
  -8  -2   1   44.87    4.26
   6   2  -1    0.43    1.17
   5   2  -1  191.08   10.80
   4   2  -1  268.53   14.36
   3   2  -1  357.33   18.46
   2   2  -1   11.57    1.18
  -2  -2   1   11.49    0.93
   1   2  -1  194.74   10.04
   0   2  -1    2.41    0.43
  -1   2  -1   14.12    1.18
  -1   2  -1   17.98    1.28
  -2   2  -1    4.27    1.01
  -2   2  -1    2.27    0.62
  -3   2  -1    5.49    1.06
  -3   2  -1    3.79    1.10
  -4   2  -1   69.44    4.64
  -4   2  -1   70.27    4.44
  -5   2  -1   24.75    2.53
  -5   2  -1   24.98    2.40
  -6   2  -1  312.43   16.98
  -6   2  -1  319.53   17.29
  -7   2  -1   17.08    2.77
  -8   2  -1   28.58    3.90
  -9   2  -1   -0.69    1.54
  -9  -1   1   24.08    3.80
  -8  -1   1   66.15    5.52
  -7  -1   1   14.84    2.51
   5   1  -1    0.09    0.70
   4   1  -1   -0.05    0.51
   3   1  -1    2.45    0.71
   2   1  -1   41.28    2.60
   1   1  -1    3.63    0.53
   0   1  -1  139.05    7.09
  -1   1  -1   10.93    1.06
  -2   1  -1  324.48   16.21
  -2   1  -1  317.37   16.27
  -3   1  -1    1.12    0.68
  -3   1  -1    1.71    0.69
  -4   1  -1    2.61    0.96
  -4   1  -1    2.99    1.00
  -5   1  -1   22.16    2.30
  -5   1  -1   18.91    2.11
  -6   1  -1   -0.22    0.85
  -6   1  -1   -0.52    1.14
  -7   1  -1    0.71    1.18
  -8   1  -1   25.89    3.65
  -9   1  -1    0.86    1.50
  -9   0   1    1.41    1.67
  -8   0   1   15.19    2.77
  -7   0   1   -0.94    0.93
  -6   0   1   19.18    2.58
  -5   0   1    6.86    1.42
   4   0  -1  358.82   18.44
  -4   0   1  359.52   18.45
   3   0  -1   10.27    1.08
   2   0  -1  283.16   13.95
  -2   0   1  267.86   13.79
   1   0  -1    7.71    0.59
   1   0  -1    7.66    0.59
   0   0  -1    0.17    0.16
  -1   0  -1    3.25    0.56
  -2   0  -1    1.10    0.53
  -3   0  -1   79.99    4.75
  -4   0  -1   31.27    2.53
  -5   0  -1   64.01    4.38
  -6   0  -1   48.95    3.94
  -7   0  -1    7.94    2.03
  -7   0  -1    5.87    2.02
  -8   0  -1    5.03    2.04
  -9   0  -1   15.86    3.26
  -9   1   1    5.68    2.43
  -8   1   1   49.34    4.61
  -7   1   1   50.48    4.37
  -6   1   1    1.84    1.10
  -6   1   1    1.57    1.20
  -5   1   1   57.16    4.08
  -4   1   1  264.85   13.92
   3  -1  -1   59.86    3.41
  -3   1   1   60.12    3.71
   2  -1  -1   57.00    3.09
  -2   1   1   58.22    3.35
   0  -1  -1   36.99    2.08
  -1  -1  -1   21.63    1.64
   1   1   1   24.43    1.71
  -3  -1  -1    3.87    0.98
  -4  -1  -1    4.80    1.26
  -5  -1  -1   22.35    2.40
  -6  -1  -1  173.41   10.31
  -7  -1  -1    0.44    1.54
  -8  -1  -1   32.26    3.61
  -8  -1  -1   16.73    3.42
  -9  -1  -1   15.03    3.25
  -9   2   1    1.28    1.85
  -8   2   1   56.73    5.20
  -7   2   1    0.05    1.13
  -6   2   1    1.64    1.16
  -5   2   1   41.82    3.42
  -5   2   1   42.54    2.93
  -4   2   1   60.63    3.53
  -4   2   1   56.68    4.00
  -3   2   1   83.20    4.97
  -2   2   1  280.95   14.26
  -1   2   1  156.70    8.10
   0   2   1  100.76    5.55
   0   2   1  102.65    5.31
   1   2   1  131.56    7.03
   1   2   1  134.54    7.48
   2   2   1  342.78   17.52
   3   2   1    2.79    0.86
  -5  -2  -1   41.43    3.63
  -6  -2  -1   38.59    3.77
  -7  -2  -1    2.94    2.00
  -8  -2  -1   43.83    4.54
  -9  -2  -1    0.89    1.81
  -9   3   1    3.02    2.17
  -8   3   1   10.48    2.75
  -7   3   1    4.67    1.81
  -6   3   1   16.44    2.57
  -5   3   1   25.41    2.63
  -4   3   1  334.23   17.53
  -3   3   1   11.57    1.39
  -2   3   1  392.06   19.79
  -1   3   1   67.87    3.98
   0   3   1  211.73   11.28
   0   3   1  218.14   10.99
   1   3   1   19.77    1.56
   1   3   1   20.22    2.06
   2   3   1  221.49   11.74
   2   3   1  222.68   12.42
   3   3   1   15.58    1.64
   4   3   1  153.90    8.88
  -6  -3  -1    5.31    2.10
  -7  -3  -1   12.79    2.96
  -8  -3  -1    1.92    2.12
  -9  -3  -1   10.50    3.37
  -9   4   1    8.41    2.86
  -8   4   1   97.36    7.55
  -7   4   1    5.55    1.95
  -6   4   1    1.49    1.24
  -5   4   1   20.28    2.65
  -4   4   1   26.07    2.50
  -3   4   1   11.31    1.62
  -2   4   1    0.14    0.47
  -1   4   1  102.28    5.26
  -1   4   1   96.48    5.73
   0   4   1    4.71    0.78
   0   4   1    4.65    1.08
   1   4   1  175.50    9.36
   1   4   1  175.09   10.16
   2   4   1   69.24    4.37
   2   4   1   69.98    5.40
   3   4   1   56.27    3.89
   4   4   1    8.09    1.64
   5   4   1   55.29    4.32
  -6  -4  -1  144.39    9.63
  -7  -4  -1    1.43    1.95
  -8  -4  -1    3.31    2.50
  -9  -4  -1    9.04    3.56
  -9   5   1    6.37    2.70
  -8   5   1   10.66    2.87
  -7   5   1    2.59    1.75
  -6   5   1   14.01    2.63
  -5   5   1   78.45    5.68
  -4   5   1    3.23    1.19
  -3   5   1  195.11   10.79
  -2   5   1    1.18    0.66
  -1   5   1  263.93   14.14
  -1   5   1  271.70   13.62
   0   5   1  168.19    9.40
   0   5   1  160.91    8.70
   1   5   1  185.60   11.17
   1   5   1  191.52   10.16
   2   5   1  327.44   17.14
   2   5   1  326.43   18.71
   3   5   1   14.51    1.98
   3   5   1   10.91    2.84
   4   5   1    1.60    1.03
   5   5   1   25.62    2.79
  -7  -5  -1    5.16    2.22
  -8  -5  -1    7.55    3.22
  -9   6   1   15.05    3.65
  -8   6   1   16.96    3.51
  -7   6   1   19.72    3.42
  -6   6   1    0.54    1.14
  -5   6   1   24.84    2.91
  -4   6   1   50.09    3.99
  -3   6   1    0.08    0.66
  -2   6   1   47.40    3.48
  -1   6   1   41.18    3.19
  -1   6   1   39.27    2.56
   0   6   1   35.79    3.24
   0   6   1   39.30    2.65
   1   6   1   96.85    5.88
   1   6   1  106.67    7.25
   2   6   1   15.08    3.37
   2   6   1   13.09    1.86
   3   6   1    2.32    2.55
   3   6   1    0.30    0.88
   4   6   1   58.89    4.44
   5   6   1    6.03    1.87
  -7  -6  -1    0.68    2.32
  -8  -6  -1   11.87    3.71
  -8   7   1   16.17    3.64
  -7   7   1    9.62    2.77
  -6   7   1    1.92    1.56
  -5   7   1    9.87    2.15
  -4   7   1   37.45    3.39
  -3   7   1    0.26    0.73
  -2   7   1    2.05    0.97
  -1   7   1   83.78    5.74
  -1   7   1   92.47    5.14
   0   7   1   61.07    3.98
   0   7   1   66.71    4.95
   1   7   1   72.31    6.09
   1   7   1   77.36    4.83
   2   7   1    8.22    1.63
   2   7   1    8.45    3.04
   3   7   1   37.89    6.13
   3   7   1   48.33    3.71
   4   7   1   58.66    4.52
   5   7   1   67.45    5.22
  -7  -7  -1    6.15    2.86
  -8   8   1    2.97    2.30
  -7   8   1    0.51    1.49
  -6   8   1    2.86    1.67
  -5   8   1   46.94    4.21
  -4   8   1   30.34    3.07
  -3   8   1   75.15    5.31
  -2   8   1    6.81    1.63
  -1   8   1   87.91    5.98
   0   8   1  259.43   14.90
   0   8   1  257.02   13.73
   1   8   1  131.01    7.90
   1   8   1  146.44    9.87
   2   8   1  135.37   10.69
   2   8   1  132.13    7.97
   3   8   1    1.75    1.16
   3   8   1    0.32    3.08
   4   8   1    2.96    3.71
   4   8   1    1.21    1.37
   5   8   1    1.26    1.68
  -7  -8  -1    2.41    2.36
  -7   9   1   29.08    4.31
  -6   9   1    1.31    1.47
  -5   9   1   37.02    3.74
  -4   9   1   42.52    3.89
  -3   9   1   46.54    4.02
  -2   9   1   17.36    2.52
  -1   9   1    0.54    1.12
   0   9   1   25.13    3.66
   1   9   1    1.46    1.91
   1   9   1    0.44    0.96
   2   9   1    5.74    1.65
   2   9   1    9.14    3.95
   3   9   1   -2.40    3.27
   3   9   1    0.33    1.16
   4   9   1    0.06    1.27
   4   9   1    0.73    4.19
   5   9   1    8.84    2.40
  -7  10   1    1.99    1.94
  -6  10   1   -0.39    1.44
  -5  10   1    0.81    1.34
  -4  10   1    8.18    2.15
  -3  10   1    8.04    1.99
  -2  10   1   14.20    2.45
  -1  10   1   17.77    2.92
   0  10   1    1.84    1.88
   1  10   1    2.63    2.43
   1  10   1    1.58    1.20
   2  10   1   11.43    2.19
   2  10   1    8.59    4.12
   3  10   1    4.18    1.72
   3  10   1    2.08    4.42
   4  10   1    2.11    1.74
   4  10   1    0.90    4.89
   5  10   1    3.61    2.03
  -6  11   1   -0.02    1.71
  -5  11   1    5.09    2.11
  -4  11   1    0.02    1.41
  -3  11   1    0.99    1.37
  -2  11   1    1.06    1.43
  -1  11   1    4.56    1.98
   0  11   1   59.47    5.78
   1  11   1    5.20    3.18
   2  11   1   53.39    4.34
   2  11   1   47.01    7.85
   3  11   1    1.84    1.65
   3  11   1   -0.69    4.41
   4  11   1    1.66    1.82
   4  11   1    3.41    5.27
  -5  12   1    7.86    2.52
  -3  12   1    4.08    1.81
  -2  12   1   14.18    2.87
  -1  12   1   -0.21    1.65
   0  12   1   -0.45    2.07
   1  12   1   -1.60    2.44
   2  12   1    4.22    4.03
   3  12   1    2.74    1.99
   3  12   1    0.25    5.14
   4  12   1    0.07    1.81
   4  12   1   -1.41    5.69
  -4  13   1    0.13    1.47
  -3  13   1    3.63    1.79
  -2  13   1   -0.77    1.40
  -1  13   1    6.71    2.68
   0  13   1    1.30    2.31
   1  13   1    0.88    2.96
   2  13   1   10.17    5.26
   3  13   1    5.06    6.20
  -1  14   1   -0.75    2.04
   0  14   1    3.87    2.93
   1  14  -2    5.86    4.33
   0  14  -2    2.86    3.21
  -1  14  -2   15.25    3.85
  -2  14  -2    9.41    2.93
   3  13  -2   23.28    3.97
   2  13  -2    4.24    5.01
   1  13  -2    7.18    4.03
   0  13  -2   -0.14    2.50
  -1  13  -2    2.11    2.17
  -2  13  -2   25.88    3.92
  -3  13  -2    0.77    1.78
  -4  13  -2    4.04    2.22
   4  12  -2    1.37    2.16
   3  12  -2   -4.06    5.12
   3  12  -2    0.49    1.79
   2  12  -2   62.17    9.49
   2  12  -2   58.42    4.97
   1  12  -2    4.70    3.37
   0  12  -2   -0.46    2.10
  -1  12  -2   14.55    3.13
  -2  12  -2    1.56    1.65
  -3  12  -2    6.15    2.21
  -4  12  -2    6.47    2.23
  -5  12  -2    2.67    2.08
   5  11  -2    5.15    2.67
   4  11  -2    5.08    2.35
   3  11  -2    0.27    4.83
   3  11  -2    9.40    2.44
   2  11  -2   14.92    2.77
   2  11  -2   18.67    5.65
   1  11  -2   17.88    2.87
   1  11  -2   24.39    4.97
   0  11  -2   34.15    4.79
  -1  11  -2    8.09    2.22
  -2  11  -2   16.60    2.82
  -3  11  -2    2.77    1.77
  -4  11  -2   11.13    2.55
  -5  11  -2    2.71    1.81
  -6  11  -2    0.82    1.74
   6  10  -2    2.52    2.49
   5  10  -2    9.90    2.88
   4  10  -2    3.95    1.97
   4  10  -2   -0.12    3.70
   3  10  -2   15.16    2.69
   3  10  -2   -1.61    3.82
   2  10  -2   88.36    8.85
   2  10  -2   77.05    5.69
   1  10  -2   20.93    2.94
   1  10  -2   28.57    5.04
   0  10  -2   16.00    2.38
   0  10  -2   13.40    2.97
  -1  10  -2    4.25    1.70
  -2  10  -2    0.72    1.24
  -3  10  -2    1.39    1.34
  -4  10  -2    2.79    1.57
  -5  10  -2    5.13    2.03
  -6  10  -2    0.86    1.74
  -7  10  -2   -0.11    1.77
   6   9  -2   16.10    3.43
   5   9  -2    0.25    1.68
   4   9  -2    2.38    3.59
   4   9  -2    6.20    2.01
   3   9  -2    1.78    1.49
   3   9  -2    0.49    3.29
   2   9  -2   13.66    4.41
   1   9  -2    2.99    2.50
   1   9  -2    4.87    1.54
   0   9  -2    1.59    1.59
   0   9  -2    3.08    1.29
  -1   9  -2   17.36    2.65
  -1   9  -2   18.44    2.05
  -2   9  -2   10.19    2.05
  -3   9  -2    0.97    1.10
  -4   9  -2   60.74    5.02
  -5   9  -2    1.31    1.60
  -6   9  -2    9.46    2.70
  -7   9  -2    0.62    1.88
   7   8  -2   11.00    3.19
   6   8  -2   31.94    3.73
   5   8  -2   29.59    3.33
   4   8  -2    1.17    2.81
   4   8  -2    1.72    1.45
   1   8  -2   41.95    3.36
   1   8  -2   45.69    4.78
   0   8  -2  106.61    6.52
   0   8  -2  110.18    7.33
  -1   8  -2   17.73    1.88
  -1   8  -2   21.91    2.74
  -2   8  -2    0.42    0.92
  -3   8  -2    1.54    1.15
  -4   8  -2   33.39    3.46
  -5   8  -2   41.86    4.28
  -6   8  -2   16.90    3.28
  -7   8  -2   61.52    6.09
  -8   8  -2   -0.55    1.78
   7   7  -2    5.38    2.47
   6   7  -2   32.80    3.74
   5   7  -2   11.01    2.41
   4   7  -2    0.95    1.35
   3   7  -2    2.02    2.42
   3   7  -2    0.92    1.21
   1   7  -2    2.75    1.00
   1   7  -2    2.12    1.76
   0   7  -2   88.37    6.02
   0   7  -2   90.01    5.45
  -1   7  -2   81.73    5.53
  -1   7  -2   87.86    5.15
  -2   7  -2    7.20    1.23
  -2   7  -2    8.25    1.60
  -3   7  -2   83.96    5.76
  -4   7  -2    2.64    1.35
  -5   7  -2   10.54    2.42
  -6   7  -2    0.70    1.50
  -7   7  -2    2.74    1.92
  -8   7  -2   31.22    4.83
   8   6  -2    0.26    2.24
   7   6  -2   -0.13    1.80
   6   6  -2   16.50    3.11
   5   6  -2    4.51    1.79
   4   6  -2   20.17    2.79
   3   6  -2   52.16    5.09
   3   6  -2   51.89    4.00
   2   6  -2   95.50    5.95
   0   6  -2    4.17    1.02
   0   6  -2    2.48    1.09
  -1   6  -2    3.45    0.84
  -1   6  -2    2.50    0.95
  -2   6  -2    5.06    1.03
  -2   6  -2    3.45    1.17
  -3   6  -2    2.91    1.18
  -4   6  -2   76.34    5.56
  -5   6  -2    0.44    1.06
  -6   6  -2   15.15    2.92
  -7   6  -2   13.52    3.04
  -8   6  -2    8.59    2.70
  -9   6  -2    0.72    1.94
   8   5  -2   10.41    3.00
   7   5  -2    0.42    1.76
   6   5  -2   18.15    3.08
   5   5  -2   10.57    2.30
   4   5  -2   24.96    2.60
   3   5  -2  179.19   10.30
   3   5  -2  184.75   10.84
   2   5  -2    1.67    0.88
   2   5  -2    2.07    1.57
   1   5  -2  161.97    8.17
   1   5  -2  124.67    8.68
   0   5  -2    6.31    1.06
  -1   5  -2  164.85    8.81
  -1   5  -2  166.17    9.07
  -2   5  -2  142.72    8.40
  -2   5  -2  152.38    8.03
  -3   5  -2   33.20    2.95
  -3   5  -2   35.88    2.50
  -4   5  -2   16.44    2.38
  -5   5  -2   35.49    3.55
  -6   5  -2   77.66    6.14
  -7   5  -2   65.63    5.80
  -8   5  -2   14.89    3.30
  -9   5  -2   13.18    3.55
  -9  -4   2    7.56    2.73
   8   4  -2    4.43    2.33
   7   4  -2   54.65    4.75
   6   4  -2   10.93    2.40
   5   4  -2   35.93    3.28
   4   4  -2    0.98    1.01
  -4  -4   2    0.30    0.61
   3   4  -2   11.05    1.73
  -3  -4   2    8.92    1.16
   2   4  -2  194.78   11.36
   2   4  -2  214.03   11.04
  -2  -4   2  199.52   10.33
   1   4  -2   78.16    4.63
   0   4  -2    6.59    0.96
   0   4  -2    3.85    0.93
  -1   4  -2  593.20   29.50
  -2   4  -2  111.69    6.38
  -2   4  -2  106.55    6.01
  -3   4  -2  445.95   22.94
  -3   4  -2  445.30   22.79
  -4   4  -2    3.65    1.53
  -4   4  -2    0.67    0.73
  -5   4  -2  112.04    7.40
  -6   4  -2    1.95    1.48
  -7   4  -2   49.99    4.76
  -8   4  -2   39.88    4.49
  -9   4  -2    4.66    2.47
   7   3  -2    4.38    1.86
   6   3  -2   35.24    3.45
  -6  -3   2   38.86    3.13
   5   3  -2    2.00    1.23
  -5  -3   2    0.75    0.89
   4   3  -2   74.44    4.95
  -4  -3   2   73.53    4.36
   3   3  -2  176.88    9.75
  -3  -3   2  174.83    8.98
   2   3  -2  197.29   10.07
   2   3  -2  182.93   10.10
  -2  -3   2  185.95    9.52
   1   3  -2  112.09    6.26
   1   3  -2  110.34    6.47
  -1  -3   2  118.92    6.05
   0   3  -2   13.90    1.24
   0   3  -2   14.99    1.21
  -1   3  -2   94.28    5.32
  -1   3  -2   97.02    5.31
  -2   3  -2   55.21    3.72
  -2   3  -2   61.65    3.78
  -3   3  -2   91.69    5.69
  -3   3  -2   97.60    5.81
  -4   3  -2  195.13   10.83
  -4   3  -2  192.84   10.95
  -5   3  -2   19.95    2.68
  -5   3  -2   21.96    2.59
  -6   3  -2    2.47    1.33
  -7   3  -2    8.15    2.14
  -8   3  -2   16.04    3.12
  -9   3  -2    0.64    1.78
  -7  -2   2   37.18    3.71
  -7  -2   2   47.07    3.91
   6   2  -2    8.14    1.96
   5   2  -2    7.43    1.70
  -5  -2   2    7.33    1.44
   4   2  -2   80.96    5.27
  -4  -2   2   87.25    5.00
   3   2  -2   10.87    1.53
  -3  -2   2    9.89    1.09
   2   2  -2   17.07    1.47
  -2  -2   2   16.49    1.28
   1   2  -2   49.25    2.97
  -1  -2   2   49.57    3.00
   0   2  -2   13.84    1.17
  -1   2  -2   10.33    1.47
  -2   2  -2  272.82   14.50
  -2   2  -2  286.31   14.35
  -3   2  -2    4.04    1.29
  -3   2  -2    4.74    1.07
  -4   2  -2  159.31    9.07
  -4   2  -2  159.97    9.19
  -5   2  -2   13.74    2.35
  -5   2  -2   20.91    2.30
  -6   2  -2    9.18    2.27
  -6   2  -2   12.21    2.26
  -7   2  -2   11.40    2.35
  -8   2  -2    4.32    1.85
  -9   2  -2    1.37    1.74
  -8  -1   2   12.33    2.56
  -7  -1   2    8.85    2.02
   6   1  -2   12.58    2.10
  -6  -1   2    8.96    1.81
   5   1  -2    4.00    1.35
   4   1  -2   21.04    1.97
   3   1  -2    1.00    0.65
  -3  -1   2    2.01    0.69
   1   1  -2  100.16    5.59
  -1  -1   2  110.95    5.50
   0   1  -2   98.41    5.32
  -1   1  -2  334.49   17.04
  -2   1  -2  229.81   12.09
  -3   1  -2  246.97   13.07
  -4   1  -2    1.68    1.05
  -5   1  -2   18.54    2.20
  -6   1  -2   47.69    4.00
  -6   1  -2   45.11    3.98
  -7   1  -2   13.75    2.90
  -7   1  -2   24.01    3.27
  -8   1  -2   88.64    6.84
  -9   1  -2   -0.19    1.55
  -8   0   2   55.14    4.92
  -7   0   2    7.04    1.85
   6   0  -2  112.22    6.88
  -6   0   2  115.07    7.13
   5   0  -2    2.42    1.04
  -5   0   2    2.35    0.96
   4   0  -2   12.10    1.41
  -4   0   2   12.23    1.40
   3   0  -2   32.97    2.29
  -3   0   2   32.57    2.24
   2   0  -2  140.98    7.41
  -2   0   2  146.86    7.40
  -2   0   2  137.76    7.25
  -1   0   2   25.91    1.64
   0   0  -2   15.84    1.40
  -1   0  -2    4.12    1.09
  -2   0  -2  263.36   13.70
  -3   0  -2   29.46    2.38
  -4   0  -2  394.74   20.55
  -5   0  -2    0.41    1.12
  -6   0  -2    7.81    2.12
  -7   0  -2    2.33    1.99
  -8   0  -2    8.47    2.36
  -9   0  -2    0.62    1.74
  -8   1   2   34.54    3.85
  -7   1   2   19.76    2.91
  -6   1   2   43.97    3.67
   5  -1  -2   19.64    1.86
  -5   1   2   22.66    2.23
   4  -1  -2   11.13    1.38
  -4   1   2   11.50    1.57
   3  -1  -2   65.93    3.72
  -3   1   2   64.85    3.94
   2  -1  -2   23.46    1.49
  -2   1   2   23.96    1.65
  -1   1   2  279.46   13.73
   0  -1  -2  103.72    5.63
  -1  -1  -2  147.39    7.74
   1   1   2  140.63    7.75
  -2  -1  -2  735.60   36.81
  -3  -1  -2   36.34    2.75
  -4  -1  -2  106.03    6.47
  -5  -1  -2  133.71    8.12
  -6  -1  -2    7.94    2.23
  -7  -1  -2   29.24    3.46
  -8  -1  -2    5.20    2.86
  -9  -1  -2    0.32    1.73
  -9   2   2    4.22    2.25
  -8   2   2    1.84    1.59
  -7   2   2    4.98    1.74
  -6   2   2    0.20    0.99
  -5   2   2    2.44    1.06
  -4   2   2   11.90    1.66
  -3   2   2   14.24    1.43
  -2   2   2  723.35   35.55
   1  -2  -2  122.49    6.26
  -1   2   2  115.69    6.32
   0  -2  -2   16.76    1.37
   0   2   2   14.22    1.36
  -1  -2  -2  633.86   32.49
   1   2   2  667.17   32.57
  -2  -2  -2  108.30    6.28
  -3  -2  -2  139.67    8.09
  -4  -2  -2    0.69    0.92
  -5  -2  -2    6.59    1.92
  -6  -2  -2   34.37    3.49
  -7  -2  -2   -0.63    1.72
  -8  -2  -2   16.93    3.78
  -9  -2  -2   -0.02    3.17
  -9   3   2    2.27    2.10
  -8   3   2   69.32    5.95
  -7   3   2   18.17    3.02
  -6   3   2  299.74   16.55
  -5   3   2  131.13    7.97
  -4   3   2   53.31    3.80
  -3   3   2  446.08   22.61
  -2   3   2   11.44    1.23
  -1   3   2   74.06    4.38
   0  -3  -2  135.46    7.19
   0   3   2  131.67    6.77
   0   3   2  135.95    7.52
  -1  -3  -2    9.97    1.41
   1   3   2    9.42    1.64
  -2  -3  -2   89.68    5.45
   2   3   2   86.13    5.96
  -3  -3  -2   16.52    2.27
  -4  -3  -2   40.87    3.49
  -5  -3  -2   74.37    5.55
  -6  -3  -2   -1.32    1.54
  -7  -3  -2   49.56    4.81
  -8  -3  -2    6.37    2.88
  -9  -3  -2    3.96    3.42
  -9   4   2   21.53    4.06
  -8   4   2    2.94    2.00
  -7   4   2   42.25    4.23
  -6   4   2   26.34    3.01
  -5   4   2    0.17    0.86
  -4   4   2   17.23    1.99
  -3   4   2    1.42    0.74
  -2   4   2  171.94    9.28
   1  -4  -2   12.17    1.15
  -1   4   2   13.03    1.41
   0  -4  -2   77.74    4.54
   0   4   2   75.18    4.92
   0   4   2   77.86    4.11
   1   4   2    3.08    1.26
   1   4   2    3.60    0.86
   2   4   2   14.47    2.57
   2   4   2   11.81    1.43
  -4  -4  -2    0.49    1.16
  -5  -4  -2   38.20    3.81
  -6  -4  -2    8.15    2.53
  -7  -4  -2   35.90    4.19
  -8  -4  -2    7.53    3.20
  -9   5   2   17.99    3.81
  -8   5   2   18.75    3.48
  -7   5   2   16.45    3.01
  -6   5   2    6.43    1.89
  -5   5   2    0.36    0.90
  -4   5   2    1.72    0.94
  -3   5   2    0.96    0.70
  -2   5   2  101.55    6.03
   1  -5  -2   42.18    2.80
  -1   5   2   49.63    3.36
   0   5   2   25.37    1.71
   0   5   2   26.05    1.96
   0   5   2   24.35    2.45
   1   5   2  125.07    6.94
   1   5   2  118.74    7.92
   2   5   2   33.46    4.18
   2   5   2   22.81    2.17
   3   5   2   25.56    2.43
   3   5   2   24.60    3.97
  -5  -5  -2    2.10    1.64
  -6  -5  -2    2.23    2.08
  -7  -5  -2    1.85    2.27
  -8  -5  -2   10.44    3.65
  -9   6   2    6.68    2.90
  -8   6   2    8.38    2.72
  -7   6   2   25.21    3.76
  -6   6   2   59.64    5.02
  -5   6   2  175.91   10.50
  -4   6   2    8.18    1.68
  -3   6   2  226.83   12.37
  -2   6   2    0.06    0.55
   1  -6  -2   54.37    3.59
  -1   6   2   64.58    4.22
   0   6   2   44.79    2.78
   0   6   2   48.55    3.94
   0   6   2   50.13    3.19
   1   6   2    1.85    0.80
   1   6   2    2.27    1.46
   2   6   2    1.25    0.85
   2   6   2    1.47    1.90
   3   6   2    2.72    1.17
   3   6   2    1.87    2.22
  -5  -6  -2   30.57    3.58
  -6  -6  -2   37.17    4.92
  -7  -6  -2   60.17    5.91
  -8   7   2    4.64    2.34
  -7   7   2   18.26    3.31
  -6   7   2    0.69    1.29
  -5   7   2    0.35    1.00
  -4   7   2   13.90    2.16
  -3   7   2    4.28    1.26
  -2   7   2   21.30    2.28
  -1   7   2    7.92    1.58
   0   7   2   14.63    1.61
   0   7   2   16.13    2.56
   1   7   2   47.54    3.48
   1   7   2   53.56    4.87
   2   7   2   30.92    4.99
   2   7   2   33.55    2.84
   3   7   2   41.47    6.44
   3   7   2   49.55    3.82
   4   7   2   10.34    2.15
  -5  -7  -2    1.91    1.85
  -6  -7  -2    6.55    2.57
  -7  -7  -2    2.87    2.56
  -8   8   2   11.24    2.92
  -7   8   2   -1.96    1.46
  -6   8   2    0.81    1.35
  -5   8   2    1.59    1.28
  -4   8   2   17.11    2.44
  -3   8   2   12.19    2.09
  -2   8   2   98.06    6.42
  -1   8   2   10.34    2.03
   0   8   2    1.29    1.01
   0   8   2    1.97    1.41
   1   8   2   10.16    2.82
   1   8   2    9.25    1.67
   2   8   2   17.76    2.38
   2   8   2   16.75    4.12
   3   8   2    0.30    2.92
   3   8   2    0.47    1.08
   4   8   2    1.47    3.70
  -5  -8  -2    7.55    2.52
  -6  -8  -2   12.56    3.34
  -7   9   2   -0.37    1.51
  -6   9   2   19.35    3.13
  -5   9   2    6.69    1.96
  -4   9   2   24.31    2.82
  -3   9   2   48.37    4.14
  -2   9   2   44.93    3.84
  -1   9   2    7.29    1.98
   0   9   2   16.86    3.07
   1   9   2    1.95    1.16
   1   9   2    1.52    2.08
   2   9   2   35.41    3.15
   2   9   2   32.23    5.66
   3   9   2    0.79    1.20
   3   9   2   -1.22    3.37
   4   9   2    5.54    4.33
  -5  -9  -2    5.29    2.49
  -6  -9  -2   32.00    5.02
  -7  10   2   12.46    2.96
  -6  10   2    6.00    2.19
  -5  10   2    0.25    1.21
  -4  10   2   -0.12    1.28
  -3  10   2    1.17    1.20
  -2  10   2   20.08    2.93
  -1  10   2    5.87    1.93
   0  10   2   -1.04    1.42
   1  10   2   64.92    6.52
   2  10   2   45.16    3.90
   2  10   2   50.78    7.53
   3  10   2   26.88    2.93
   3  10   2   12.60    5.20
  -4 -10  -2   14.62    3.03
   4  10   2    6.41    5.17
  -5 -10  -2    3.96    2.39
  -6  11   2    2.55    1.92
  -5  11   2    0.92    1.53
  -4  11   2    8.62    2.27
  -3  11   2   10.28    2.25
  -2  11   2   34.00    3.70
  -1  11   2    1.43    1.70
   0  11   2    1.15    1.91
   1  11   2   -1.36    2.21
   2  11   2    4.76    3.94
  -3 -11  -2    6.74    2.27
   3  11   2    9.85    4.83
  -4 -11  -2    7.08    2.77
   4  11   2    2.49    5.39
  -5  12   2   -0.91    1.53
  -4  12   2    6.36    2.14
  -3  12   2   -0.19    1.38
  -2  12   2    7.93    2.31
  -1  12   2   11.82    2.94
   0  12   2    0.15    1.99
   1  12   2   12.03    3.95
   2  12   2    4.85    4.09
   3  12   2    6.30    5.18
  -4 -12  -2   14.20    3.57
   4  12   2    3.69    6.16
  -3  13   2    5.00    2.18
  -2  13   2    3.78    2.24
  -1  13   2    6.10    2.60
   0  13   2    5.68    2.97
   1  13   2    4.61    3.45
   2  13   2    4.86    4.51
   0  14  -3    6.45    3.66
  -1  14  -3    0.97    2.52
  -2  14  -3   -0.11    1.93
   3  13  -3    0.61    1.98
   2  13  -3   15.01    3.23
   1  13  -3    1.42    3.51
   0  13  -3   27.83    5.01
  -1  13  -3   -0.01    2.01
  -2  13  -3    3.04    2.02
  -3  13  -3   -0.10    1.72
  -4  13  -3   12.14    3.05
   4  12  -3    4.29    2.43
   3  12  -3   -0.25    1.78
   2  12  -3    0.29    1.71
   1  12  -3    0.51    1.64
   1  12  -3   -0.71    2.99
   0  12  -3    8.07    3.03
  -1  12  -3    0.27    1.85
  -2  12  -3   10.66    2.57
  -3  12  -3    7.50    2.36
  -4  12  -3   15.65    3.14
  -5  12  -3    7.45    2.63
   5  11  -3   -0.37    2.23
   4  11  -3    6.28    2.52
   3  11  -3   11.06    2.66
   2  11  -3    2.75    3.59
   2  11  -3    0.08    1.50
   1  11  -3    2.39    2.96
   1  11  -3    0.64    1.55
   0  11  -3   52.79    5.32
  -1  11  -3    1.40    1.63
  -2  11  -3    0.94    1.46
  -3  11  -3    1.90    1.59
  -4  11  -3    8.48    2.31
  -5  11  -3    0.42    1.62
  -6  11  -3   -0.26    1.82
   6  10  -3   14.54    3.64
   5  10  -3    3.91    2.38
   4  10  -3   35.57    3.80
   3  10  -3   -0.50    1.41
   3  10  -3   -2.12    3.66
   2  10  -3   25.99    2.87
   2  10  -3   10.18    4.17
   1  10  -3    0.51    2.57
   1  10  -3    3.31    1.55
   0  10  -3   90.24    6.88
   0  10  -3   82.87    5.82
  -1  10  -3   13.69    2.58
  -2  10  -3   28.78    3.19
  -3  10  -3   25.92    3.04
  -4  10  -3   96.80    7.08
  -5  10  -3   11.78    2.82
  -6  10  -3   56.47    5.77
  -7  10  -3   16.14    3.77
   6   9  -3   26.27    4.25
   5   9  -3   20.75    3.49
   4   9  -3   27.48    3.20
   3   9  -3    2.34    1.58
   3   9  -3   -0.07    3.22
   2   9  -3    7.36    3.75
   1   9  -3    1.57    2.05
   1   9  -3    4.68    1.56
   0   9  -3  148.19    9.82
   0   9  -3  159.77    9.16
  -1   9  -3   18.82    2.16
  -1   9  -3   18.35    2.77
  -2   9  -3   43.62    3.80
  -3   9  -3   41.04    3.76
  -4   9  -3    9.11    2.30
  -5   9  -3   18.07    3.23
  -6   9  -3    0.96    1.73
  -7   9  -3    1.50    2.02
   7   8  -3    6.18    2.81
   6   8  -3   10.44    2.94
   5   8  -3    1.90    1.93
   4   8  -3  121.14    8.06
   3   8  -3    3.29    1.59
   3   8  -3    2.21    2.77
   1   8  -3   12.78    2.16
   1   8  -3   12.13    3.06
   0   8  -3    0.46    1.07
   0   8  -3    0.98    1.05
  -1   8  -3    2.58    1.27
  -1   8  -3    5.82    1.38
  -2   8  -3   36.24    3.26
  -2   8  -3   37.15    2.89
  -3   8  -3   39.16    3.64
  -4   8  -3   53.25    4.68
  -5   8  -3    6.19    2.21
  -6   8  -3    6.03    2.44
  -7   8  -3    3.91    2.36
  -8   8  -3    6.01    2.97
   7   7  -3    6.82    2.73
   6   7  -3   20.52    3.50
   5   7  -3    2.99    1.86
   4   7  -3   16.19    2.78
   3   7  -3   46.30    5.18
   3   7  -3   53.44    4.14
   2   7  -3   24.71    2.51
   1   7  -3   18.22    2.01
   1   7  -3   21.00    3.39
  -1   7  -3   28.68    2.63
  -1   7  -3   27.87    2.36
  -2   7  -3    7.69    1.66
  -2   7  -3   11.17    1.63
  -3   7  -3  124.77    7.91
  -4   7  -3   42.05    4.00
  -5   7  -3   48.47    4.65
  -6   7  -3   33.02    4.34
  -7   7  -3   49.27    5.27
  -8   7  -3    2.21    2.24
   8   6  -3    1.88    2.44
   7   6  -3   34.21    3.95
   6   6  -3   46.25    4.34
   5   6  -3   16.26    2.90
   4   6  -3   47.86    4.05
   3   6  -3   13.01    2.74
   3   6  -3   14.24    2.30
   2   6  -3    5.47    2.14
   1   6  -3   55.95    3.78
   1   6  -3   49.86    4.54
   0   6  -3  190.77   10.71
   0   6  -3  206.92   11.17
  -1   6  -3   36.67    2.88
  -1   6  -3   35.40    2.65
  -2   6  -3  109.18    6.31
  -2   6  -3  109.37    6.72
  -3   6  -3   76.81    4.88
  -3   6  -3   77.61    5.42
  -4   6  -3   31.14    3.22
  -5   6  -3   23.10    3.32
  -6   6  -3    8.66    2.36
  -7   6  -3   11.54    2.89
  -8   6  -3   -0.35    1.77
  -9   6  -3    8.20    3.13
   8   5  -3   -0.78    1.91
   7   5  -3   35.44    3.95
   6   5  -3    5.81    2.19
   5   5  -3   47.67    4.08
   4   5  -3   91.79    6.17
   3   5  -3   73.23    4.93
  -3  -5   3   70.51    4.43
   2   5  -3  115.78    6.77
   2   5  -3   94.48    7.15
  -2  -5   3  123.41    6.20
   1   5  -3   78.81    6.25
   1   5  -3  117.30    6.06
   0   5  -3    7.88    1.28
   0   5  -3    6.52    1.27
  -1   5  -3   30.14    2.15
  -1   5  -3   22.30    2.14
  -2   5  -3  286.47   14.60
  -2   5  -3  265.53   14.62
  -3   5  -3   49.98    3.48
  -3   5  -3   47.98    3.80
  -4   5  -3   57.51    4.78
  -4   5  -3   69.77    4.59
  -5   5  -3   13.23    2.46
  -6   5  -3    3.08    1.61
  -7   5  -3    5.05    2.16
  -8   5  -3   21.90    3.94
  -9   5  -3    7.63    2.92
   8   4  -3    6.99    2.61
   7   4  -3    3.58    1.97
   6   4  -3    5.66    2.00
   5   4  -3   12.39    2.36
   4   4  -3    5.18    1.58
  -4  -4   3    4.59    1.08
   3   4  -3   79.85    5.30
  -3  -4   3   84.68    4.85
   2   4  -3  254.01   13.84
   2   4  -3  267.82   13.87
  -2  -4   3  260.56   13.35
   1   4  -3  188.46    9.26
   1   4  -3  147.16    9.34
   0   4  -3   99.33    5.82
   0   4  -3  107.35    5.86
  -2   4  -3    1.42    0.83
  -2   4  -3    1.89    0.84
  -3   4  -3   -0.29    1.16
  -3   4  -3    0.04    0.62
  -4   4  -3  114.07    7.27
  -4   4  -3  113.79    7.28
  -5   4  -3    0.89    1.07
  -5   4  -3    1.65    1.86
  -6   4  -3    0.18    1.13
  -7   4  -3    8.77    2.41
  -8   4  -3   24.20    4.00
  -9   4  -3   20.04    4.03
   8   3  -3    3.97    2.25
   7   3  -3   33.96    3.52
   6   3  -3  190.81   11.63
  -6  -3   3  207.47   10.97
   5   3  -3   40.93    3.54
  -5  -3   3   44.02    3.14
   4   3  -3  237.94   13.01
  -4  -3   3  233.99   12.15
   3   3  -3    1.96    0.96
  -3  -3   3    1.62    0.64
   2   3  -3   87.26    5.29
  -2  -3   3   91.21    5.09
   1   3  -3    6.60    1.06
  -1  -3   3    5.20    1.05
   0   3  -3  997.76   48.69
   0   3  -3 1000.00   49.67
  -1   3  -3   10.14    1.07
  -1   3  -3    7.74    1.25
  -2   3  -3    0.73    0.61
  -2   3  -3    1.07    1.09
  -3   3  -3  116.83    7.06
  -3   3  -3  114.92    6.90
  -4   3  -3   84.63    5.54
  -4   3  -3   78.83    5.50
  -5   3  -3   25.28    3.06
  -5   3  -3   24.26    2.71
  -6   3  -3   41.79    3.96
  -7   3  -3    8.78    2.29
  -8   3  -3    0.98    1.44
  -9   3  -3   14.56    3.40
   7   2  -3    1.54    1.61
  -7  -2   3    0.61    1.38
   6   2  -3   -0.32    1.03
  -6  -2   3    0.40    0.92
  -6  -2   3    0.09    1.07
   5   2  -3    8.07    1.80
  -5  -2   3    9.08    1.62
   4   2  -3  100.43    6.19
  -4  -2   3  100.50    5.78
   3   2  -3  104.93    6.12
  -3  -2   3  102.35    5.71
   2   2  -3  130.55    7.18
  -2  -2   3  128.48    6.86
   1   2  -3  514.52   24.98
  -1  -2   3  476.54   24.44
   0   2  -3  372.93   19.03
  -1   2  -3  141.82    7.72
  -1   2  -3  130.78    7.15
  -2   2  -3   -0.20    1.06
  -2   2  -3    0.74    0.58
  -3   2  -3    5.30    1.64
  -3   2  -3    4.84    1.16
  -4   2  -3   16.23    2.44
  -4   2  -3   17.71    2.31
  -5   2  -3    6.74    1.98
  -5   2  -3    7.24    1.69
  -6   2  -3    9.38    2.12
  -6   2  -3    7.50    2.27
  -7   2  -3    1.68    1.41
  -8   2  -3   24.04    3.75
  -9   2  -3   14.80    3.29
  -8  -1   3   20.44    3.40
  -7  -1   3    7.90    1.96
  -7  -1   3    8.07    2.24
   6   1  -3    8.85    1.98
  -6  -1   3    6.93    1.60
  -6  -1   3    8.38    1.94
   5   1  -3   21.40    2.22
  -5  -1   3   22.55    2.24
  -5  -1   3   21.15    2.10
   4   1  -3    1.74    1.01
  -4  -1   3    2.80    0.97
  -4  -1   3    4.00    0.93
   3   1  -3   49.36    3.27
  -3  -1   3   48.42    2.95
  -3  -1   3   49.00    3.16
   1   1  -3  199.63   10.84
  -1  -1   3  215.72   10.61
   0   1  -3  147.41    7.83
   0  -1   3  139.15    7.79
  -1   1  -3   77.78    4.79
  -2   1  -3   90.70    5.51
  -3   1  -3   31.17    2.75
  -4   1  -3   44.37    3.53
  -5   1  -3   53.80    4.21
  -6   1  -3   19.31    2.80
  -6   1  -3   14.41    2.75
  -7   1  -3    5.15    2.44
  -7   1  -3    3.92    1.73
  -8   1  -3   32.09    4.22
  -9   1  -3   -0.09    1.54
  -9   0   3    0.37    2.30
  -8   0   3    5.17    2.29
  -7   0   3   26.71    2.97
  -6   0   3  271.06   14.77
   5   0  -3    1.32    1.06
  -5   0   3    0.95    0.83
   4   0  -3  126.76    7.10
  -4   0   3  125.35    6.98
  -4   0   3  122.67    7.12
   3   0  -3   42.76    2.81
  -3   0   3   41.91    2.66
  -3   0   3   42.40    2.92
   2   0  -3  202.22   10.47
  -2   0   3  201.41   10.29
   1   0  -3   62.36    3.69
  -1   0   3   60.09    3.52
   0   0  -3  293.90   15.21
   0   0   3  292.55   15.01
  -1   0  -3    3.76    1.22
  -2   0  -3   10.42    1.65
  -3   0  -3    6.89    1.54
  -4   0  -3  117.37    7.15
  -5   0  -3    2.84    1.55
  -6   0  -3    4.78    2.11
  -7   0  -3   89.88    6.67
  -8   0  -3   -4.08    1.96
  -8   0  -3    0.19    1.42
  -9   0  -3   15.51    3.50
  -9   1   3    1.15    2.44
  -7   1   3    0.64    1.15
  -6   1   3   21.71    2.78
   5  -1  -3    0.56    0.84
  -5   1   3    0.17    0.69
   4  -1  -3   41.89    2.86
  -4   1   3   46.53    3.14
   3  -1  -3    8.96    0.99
  -3   1   3    8.68    1.37
  -3   1   3    8.89    1.13
   2  -1  -3  213.71   11.08
  -2   1   3  220.73   10.99
  -2   1   3  216.00   11.08
  -1   1   3   15.16    1.26
  -1   1   3   14.52    1.13
   0   1   3  537.25   26.60
  -1  -1  -3  106.21    6.12
  -2  -1  -3  104.42    6.17
  -3  -1  -3  264.66   14.22
  -4  -1  -3   20.39    2.63
  -5  -1  -3   16.65    2.67
  -6  -1  -3   48.55    4.35
  -7  -1  -3    0.05    1.72
  -8  -1  -3    2.67    2.92
  -9  -1  -3    6.50    2.64
  -8   2   3   11.29    2.70
  -7   2   3    0.05    1.13
  -6   2   3   40.78    3.58
  -5   2   3   14.40    2.01
  -4   2   3   19.52    1.90
  -3   2   3   71.11    4.31
  -2   2   3   84.92    4.85
  -2   2   3   82.85    4.69
   1  -2  -3  185.70    9.87
  -1   2   3  187.01    9.70
  -1   2   3  189.68    9.54
   0  -2  -3   26.24    2.13
   0   2   3   24.68    2.00
   0   2   3   24.47    1.90
   1   2   3    1.49    0.76
  -2  -2  -3    2.51    1.02
  -3  -2  -3    0.86    0.98
  -4  -2  -3   93.08    6.10
  -5  -2  -3   24.66    2.84
  -6  -2  -3   34.00    3.71
  -7  -2  -3   -0.36    2.06
  -8  -2  -3   -0.41    2.56
  -9  -2  -3   -2.80    2.98
  -8   3   3    1.22    1.69
  -7   3   3   17.79    2.92
  -6   3   3   58.80    4.64
  -5   3   3    0.14    0.75
  -4   3   3    0.92    0.72
  -3   3   3  164.55    8.94
  -2   3   3    2.04    0.75
  -2   3   3    1.76    0.65
   1  -3  -3   88.24    5.02
  -1   3   3   89.74    5.13
   0  -3  -3  115.24    6.36
   0   3   3  108.09    5.98
   0   3   3  114.50    6.56
  -1  -3  -3   11.85    1.63
   1   3   3   13.58    2.04
  -2  -3  -3    0.28    0.77
   2   3   3    1.31    1.07
  -3  -3  -3   30.56    2.72
  -4  -3  -3   64.88    4.77
  -5  -3  -3    5.45    1.85
  -6  -3  -3    5.60    2.33
  -7  -3  -3   78.50    6.49
  -8  -3  -3   -1.63    2.65
  -9  -3  -3   16.68    4.79
  -8   4   3    8.95    2.60
  -7   4   3   33.02    4.07
  -6   4   3   38.18    3.65
  -5   4   3    4.70    1.40
  -4   4   3  101.20    6.21
  -3   4   3   10.54    1.47
  -2   4   3   46.43    3.18
   0  -4  -3  235.96   12.12
   0   4   3  223.28   12.39
   0   4   3  227.31   11.51
  -1  -4  -3  156.07    7.86
   1   4   3  116.98    7.56
  -2  -4  -3   61.96    4.32
   2   4   3   63.08    5.18
  -3  -4  -3  381.06   20.28
  -4  -4  -3   34.67    3.34
  -5  -4  -3  112.76    7.65
  -6  -4  -3   26.98    4.03
  -7  -4  -3   20.95    4.04
  -8  -4  -3    2.83    3.24
  -9   5   3    1.03    2.00
  -8   5   3   17.24    3.35
  -7   5   3    1.03    1.38
  -6   5   3   54.00    4.57
  -5   5   3    5.80    1.53
  -4   5   3   44.74    3.49
  -3   5   3   85.69    5.33
  -2   5   3    1.74    0.85
   1  -5  -3  147.05    8.10
  -1   5   3  150.26    8.51
  -1   5   3  152.42    7.94
   0  -5  -3   12.45    1.70
   0   5   3   13.29    1.99
   0   5   3   10.35    1.15
   1   5   3   54.23    4.39
   1   5   3   45.62    3.60
  -2  -5  -3   12.95    2.10
   2   5   3   11.46    2.74
  -3  -5  -3   25.10    2.73
   3   5   3   27.51    4.16
  -4  -5  -3   27.43    3.55
  -5  -5  -3   31.11    3.53
  -6  -5  -3    7.31    2.63
  -7  -5  -3    9.79    3.21
  -8  -5  -3    5.70    3.47
  -8   6   3    1.06    1.79
  -7   6   3   49.60    4.71
  -6   6   3    3.89    1.59
  -5   6   3   37.84    3.45
  -4   6   3   32.18    2.89
  -3   6   3    1.07    0.85
  -2   6   3   35.53    2.95
   1  -6  -3    4.30    1.33
  -1   6   3    6.56    1.14
  -1   6   3    6.82    1.46
   0  -6  -3   16.30    1.75
   0   6   3   15.69    1.47
   0   6   3   15.89    2.38
  -1  -6  -3    1.27    1.09
   1   6   3    1.19    1.32
  -2  -6  -3   52.42    4.09
   2   6   3   57.60    5.55
  -3  -6  -3   27.42    2.98
   3   6   3   30.17    4.89
  -4  -6  -3  123.09    8.24
  -5  -6  -3    8.38    2.46
  -6  -6  -3    2.09    1.85
  -7  -6  -3   32.81    5.00
  -8   7   3    6.64    2.52
  -7   7   3   15.42    3.01
  -6   7   3    0.09    1.18
  -5   7   3    3.85    1.34
  -4   7   3    1.52    1.04
  -3   7   3   18.33    2.35
  -2   7   3   39.30    3.36
  -2   7   3   45.67    3.17
  -1   7   3    2.88    0.92
  -1   7   3    5.79    1.53
   0  -7  -3   76.50    5.00
   0   7   3   80.68    5.81
  -1  -7  -3   36.75    3.15
   1   7   3   36.43    4.07
  -2  -7  -3   12.47    2.27
   2   7   3    8.02    2.83
  -3  -7  -3  207.54   12.41
   3   7   3  218.29   14.91
  -4  -7  -3   16.85    3.11
  -5  -7  -3   36.72    4.71
  -6  -7  -3    2.39    2.04
  -7  -7  -3   16.05    3.91
  -8   8   3    1.12    2.04
  -7   8   3   13.49    2.78
  -6   8   3   44.83    4.23
  -5   8   3    0.58    1.04
  -4   8   3   21.04    2.48
  -3   8   3   42.71    3.66
  -2   8   3    3.82    1.30
  -1   8   3  109.47    7.24
   0   8   3    4.45    1.77
  -1  -8  -3    8.88    1.99
   1   8   3    8.72    2.68
  -2  -8  -3    9.42    2.11
   2   8   3    7.48    3.18
  -3  -8  -3    9.73    2.38
   3   8   3    9.12    3.98
  -4  -8  -3   16.64    3.11
   4   8   3   16.18    5.15
  -5  -8  -3   17.40    3.43
  -6  -8  -3    0.93    2.17
  -7   9   3   26.67    3.80
  -6   9   3    7.95    2.25
  -5   9   3   20.06    2.96
  -4   9   3    0.22    1.03
  -3   9   3    0.88    1.12
  -2   9   3   16.69    2.58
  -1   9   3   10.03    2.31
   0   9   3   -0.58    1.26
   1   9   3   26.13    4.29
  -2  -9  -3   26.45    3.02
   2   9   3   28.03    5.33
  -3  -9  -3    5.54    2.11
   3   9   3    4.95    3.83
  -4  -9  -3   44.63    4.38
   4   9   3   25.02    6.53
  -5  -9  -3    5.11    2.65
  -6  -9  -3    4.04    2.66
  -6  10   3    5.65    2.13
  -5  10   3    0.53    1.34
  -4  10   3    8.79    2.12
  -3  10   3    1.02    1.15
  -2  10   3   51.94    4.54
  -1  10   3    2.62    1.74
   0  10   3   63.43    5.83
   1  10   3   16.80    3.91
  -2 -10  -3    3.60    1.59
   2  10   3    1.85    3.07
  -3 -10  -3   21.16    3.49
   3  10   3    9.26    4.29
  -4 -10  -3    3.62    2.16
   4  10   3    2.94    4.41
  -5 -10  -3    2.09    2.45
  -6  11   3   37.71    4.33
  -5  11   3    2.04    1.72
  -4  11   3   37.85    3.89
  -3  11   3    8.77    2.26
  -2  11   3   -0.26    1.28
  -1  11   3   10.45    2.71
   0  11   3    4.10    2.35
   1  11   3    2.07    2.62
   2  11   3    0.23    3.07
   3  11   3    1.00    4.06
  -4 -11  -3   16.88    3.64
   4  11   3    8.21    5.69
  -4  12   3    0.14    1.61
  -3  12   3    0.75    1.65
  -2  12   3    1.55    1.81
  -1  12   3   11.12    2.92
   0  12   3   12.33    3.34
   1  12   3    6.38    3.45
   2  12   3    0.15    3.37
   3  12   3   -1.81    3.83
  -3  13   3    0.13    1.67
  -2  13   3    6.51    2.41
  -1  13   3   -1.74    1.88
   0  13   3    8.12    3.24
   1  13   3    1.67    3.09
   2  13   3   -4.23    3.30
  -1  14  -4    1.78    2.55
  -2  14  -4    0.57    2.03
   3  13  -4    0.16    2.15
   2  13  -4    0.12    2.07
  -1  13  -4    0.72    2.14
  -2  13  -4    0.41    1.88
  -3  13  -4    0.83    1.93
  -4  13  -4    6.36    2.69
   4  12  -4    2.71    2.53
   3  12  -4    3.98    2.38
   2  12  -4    4.42    2.24
   1  12  -4    8.57    2.53
   0  12  -4   54.82    5.79
  -1  12  -4   11.97    2.94
  -2  12  -4   54.54    5.05
  -3  12  -4   -0.11    1.68
  -4  12  -4    1.34    1.81
  -5  12  -4    5.75    2.42
   5  11  -4    5.80    2.85
   4  11  -4   34.22    4.64
   3  11  -4    1.95    1.94
   2  11  -4   53.66    4.75
   1  11  -4    7.68    3.57
   1  11  -4    5.44    2.06
   0  11  -4    2.01    2.10
   0  11  -4    4.47    2.00
  -1  11  -4   12.39    2.67
  -2  11  -4    3.89    1.95
  -3  11  -4    4.50    1.94
  -4  11  -4   -0.44    1.33
  -5  11  -4   -0.58    1.59
  -6  11  -4   13.91    3.44
   5  10  -4    2.09    2.19
   4  10  -4   31.99    4.38
   3  10  -4    6.52    2.29
   2  10  -4    1.69    1.49
   1  10  -4   61.53    6.07
   1  10  -4   47.87    4.31
   0  10  -4    1.23    1.55
   0  10  -4    3.21    1.64
  -1  10  -4    9.99    2.17
  -1  10  -4   10.63    2.39
  -2  10  -4   43.89    4.04
  -3  10  -4   -0.69    1.13
  -4  10  -4   -0.08    1.25
  -5  10  -4    2.83    1.97
  -6  10  -4    0.54    2.01
  -7  10  -4    0.61    2.17
   6   9  -4   -0.41    2.10
   5   9  -4   25.91    4.13
   4   9  -4    2.41    1.98
   3   9  -4    3.69    1.92
   2   9  -4    5.52    1.84
   2   9  -4    0.42    2.92
   1   9  -4    0.52    1.19
   1   9  -4   -0.18    2.13
   0   9  -4  130.00    7.13
   0   9  -4   83.27    7.01
  -1   9  -4    1.78    1.37
  -1   9  -4    1.89    1.28
  -2   9  -4   48.69    4.10
  -3   9  -4   20.67    2.95
  -4   9  -4    7.74    2.23
  -5   9  -4   30.21    4.30
  -6   9  -4    0.18    1.84
  -7   9  -4    0.77    2.19
   7   8  -4   -0.48    2.32
   6   8  -4    5.15    2.37
   5   8  -4   -0.87    1.60
   4   8  -4   73.37    5.73
   3   8  -4    3.02    1.66
   2   8  -4    7.93    3.03
   1   8  -4   93.11    6.98
   1   8  -4   74.99    5.45
   0   8  -4    0.55    1.19
   0   8  -4    0.24    1.07
  -1   8  -4   70.26    5.05
  -1   8  -4   70.51    4.77
  -2   8  -4    8.67    1.70
  -2   8  -4    8.57    1.81
  -3   8  -4    0.33    1.12
  -4   8  -4    2.25    1.60
  -5   8  -4    1.77    1.68
  -6   8  -4   41.91    4.82
  -7   8  -4    0.93    1.91
  -8   8  -4   33.14    5.37
   7   7  -4    1.54    2.32
   6   7  -4   19.85    3.59
   5   7  -4    4.73    2.10
   4   7  -4    0.20    1.34
   3   7  -4    7.02    1.92
   2   7  -4   50.41    3.96
   1   7  -4   56.67    4.18
   1   7  -4   59.99    5.17
   0   7  -4   14.19    2.31
   0   7  -4   16.30    2.14
  -2   7  -4   77.41    4.99
  -2   7  -4   80.65    5.42
  -3   7  -4   20.57    2.81
  -3   7  -4   19.00    2.20
  -4   7  -4   56.15    4.84
  -5   7  -4   95.06    7.22
  -6   7  -4    3.40    1.98
  -7   7  -4   16.19    3.63
  -8   7  -4   15.44    3.90
   8   6  -4    6.08    3.01
   7   6  -4   10.09    3.00
   6   6  -4   18.93    3.33
   5   6  -4   13.98    2.86
   4   6  -4    7.48    2.09
   3   6  -4   -0.12    1.06
   3   6  -4    0.76    1.37
   2   6  -4    5.68    1.97
   2   6  -4   13.50    2.03
   1   6  -4    1.03    0.95
   1   6  -4    1.23    1.38
   0   6  -4   14.72    1.71
   0   6  -4   15.66    2.14
  -1   6  -4   15.72    1.68
  -1   6  -4   12.50    1.80
  -2   6  -4   23.85    2.29
  -2   6  -4   21.50    2.33
  -3   6  -4   31.21    3.00
  -3   6  -4   26.62    2.64
  -4   6  -4   34.62    3.50
  -4   6  -4   34.47    3.16
  -5   6  -4   98.07    7.22
  -6   6  -4   31.26    4.29
  -7   6  -4    1.92    1.91
  -8   6  -4    0.93    1.94
   8   5  -4    3.01    2.48
   7   5  -4   14.07    3.17
   6   5  -4    4.12    1.94
   5   5  -4   27.26    3.64
   4   5  -4   28.10    2.89
   3   5  -4    8.63    1.81
  -3  -5   4    6.66    1.47
   2   5  -4   12.31    1.83
   2   5  -4    6.61    1.67
  -2  -5   4    7.25    1.33
   1   5  -4   85.92    5.73
   0   5  -4  213.84   11.19
   0   5  -4  203.34   11.26
  -1   5  -4  297.33   15.51
  -1   5  -4  297.39   15.73
  -2   5  -4  177.50    9.65
  -2   5  -4  164.30    9.58
  -3   5  -4   11.09    1.92
  -3   5  -4    7.76    1.71
  -4   5  -4   45.05    4.01
  -4   5  -4   45.79    4.06
  -5   5  -4    9.83    2.32
  -6   5  -4  126.13    8.83
  -7   5  -4    0.80    1.45
  -8   5  -4    2.72    2.15
  -9   5  -4   34.71    5.40
   8   4  -4   21.63    3.91
   7   4  -4   15.90    3.19
   6   4  -4   -0.41    1.52
   5   4  -4  111.47    7.39
  -5  -4   4  112.20    6.61
   4   4  -4   14.64    2.36
  -4  -4   4   11.26    1.71
   3   4  -4  149.45    8.64
  -3  -4   4  145.45    8.15
   2   4  -4    6.47    1.18
   2   4  -4    6.82    1.39
  -2  -4   4    8.07    1.45
   1   4  -4   10.92    1.56
   1   4  -4    4.07    1.19
  -1  -4   4    7.99    1.33
   0   4  -4    1.93    0.92
   0   4  -4    2.82    0.79
  -1   4  -4    1.62    0.67
  -1   4  -4    2.12    0.97
  -2   4  -4   56.75    4.01
  -2   4  -4   58.09    3.95
  -3   4  -4   50.84    3.85
  -3   4  -4   48.12    4.08
  -4   4  -4   11.17    2.64
  -4   4  -4    6.90    1.71
  -5   4  -4  194.13   11.90
  -5   4  -4  207.33   12.18
  -6   4  -4   24.30    3.47
  -7   4  -4   15.94    3.07
  -8   4  -4   10.91    2.90
  -9   4  -4    7.45    2.73
   7   3  -4    3.72    2.00
   6   3  -4    1.35    1.61
  -6  -3   4    2.14    1.26
   5   3  -4   20.98    2.57
  -5  -3   4   24.79    2.29
   4   3  -4   12.43    2.11
  -4  -3   4   10.35    1.56
   3   3  -4    1.57    1.03
  -3  -3   4    0.58    0.64
   2   3  -4   32.40    2.55
  -2  -3   4   33.23    2.63
   1   3  -4    8.75    1.33
  -1  -3   4    4.28    1.12
   0   3  -4   32.92    2.19
   0   3  -4   35.25    2.66
  -1   3  -4   41.55    3.07
  -1   3  -4   41.18    2.75
  -2   3  -4    3.85    1.03
  -2   3  -4    4.82    1.76
  -3   3  -4   85.84    5.89
  -3   3  -4   86.46    5.56
  -4   3  -4  117.69    7.78
  -4   3  -4  127.37    7.72
  -5   3  -4   69.00    5.28
  -5   3  -4   71.98    5.53
  -6   3  -4   29.58    3.69
  -6   3  -4   24.41    3.89
  -7   3  -4   -0.33    1.22
  -8   3  -4   10.35    2.80
  -9   3  -4    0.71    1.88
   7   2  -4   23.74    3.40
  -7  -2   4   18.71    2.83
   6   2  -4   20.35    2.88
  -6  -2   4   14.95    2.27
   4   2  -4  151.91    8.72
  -4  -2   4  151.12    8.06
  -4  -2   4  146.07    8.21
   3   2  -4   37.65    2.89
  -3  -2   4   37.58    2.69
   2   2  -4    2.52    0.85
  -2  -2   4    1.85    0.74
   1   2  -4  211.20   10.96
  -1  -2   4  193.87   10.85
   0   2  -4  436.67   21.89
   0  -2   4  414.92   21.40
  -1   2  -4   47.44    2.97
  -1   2  -4   42.61    3.49
  -2   2  -4  264.82   14.39
  -3   2  -4   14.94    2.48
  -4   2  -4  174.99   10.49
  -4   2  -4  185.15   10.50
  -5   2  -4    0.27    0.88
  -5   2  -4    0.64    1.62
  -6   2  -4  203.07   12.06
  -6   2  -4  194.86   11.93
  -7   2  -4    4.20    1.80
  -7   2  -4    1.18    2.24
  -8   2  -4   29.08    4.14
  -9   2  -4   12.58    3.26
  -8  -1   4   37.67    3.90
  -7  -1   4    9.09    2.19
   6   1  -4   20.00    2.44
  -6  -1   4   22.57    2.49
   5   1  -4  251.94   14.18
  -5  -1   4  261.84   13.83
  -5  -1   4  268.69   13.77
   4   1  -4  149.62    8.44
  -4  -1   4  146.19    7.90
  -4  -1   4  145.63    8.13
   3   1  -4  120.62    6.89
  -3  -1   4  123.29    6.31
  -3  -1   4  116.46    6.66
  -1  -1   4   40.11    2.91
   0   1  -4  245.24   12.36
   0  -1   4  212.40   12.17
  -1   1  -4  139.54    8.07
  -2   1  -4  295.46   15.81
  -3   1  -4   23.32    2.55
  -4   1  -4    3.28    1.63
  -5   1  -4   30.63    3.29
  -6   1  -4   13.60    2.93
  -7   1  -4    0.24    1.31
  -7   1  -4    0.43    2.10
  -8   1  -4    2.69    1.82
  -9   1  -4    5.26    2.42
  -9   0   4   11.65    3.22
  -8   0   4   37.98    4.07
  -7   0   4   -0.11    1.36
  -6   0   4   16.96    2.27
  -6   0   4    9.46    2.12
   5   0  -4    3.43    1.35
  -5   0   4    5.19    1.45
  -5   0   4    3.13    1.02
   4   0  -4  164.64    9.04
  -4   0   4  165.57    8.76
  -4   0   4  158.38    8.97
   3   0  -4   87.42    5.17
  -3   0   4   88.13    5.20
  -3   0   4   89.80    4.86
   2   0  -4  212.44   10.92
  -2   0   4  200.78   10.65
   1   0  -4    8.28    1.36
  -1   0   4    8.56    1.24
   0   0  -4   19.91    2.21
   0   0   4   21.10    2.18
  -1   0  -4    5.44    1.58
  -2   0  -4    8.41    1.83
  -3   0  -4   20.57    2.33
  -4   0  -4   35.71    3.29
  -5   0  -4   35.49    3.50
  -6   0  -4    0.14    1.70
  -7   0  -4    7.45    2.77
  -8   0  -4   -4.12    1.98
  -8   0  -4    1.98    1.71
  -9   0  -4    0.24    1.82
  -9   1   4   -0.44    2.21
  -8   1   4    1.24    1.89
  -7   1   4   46.83    4.27
  -6   1   4   25.34    2.63
  -6   1   4   21.94    3.06
  -5   1   4    4.05    1.42
  -5   1   4    4.94    1.20
   4  -1  -4  133.84    7.34
  -4   1   4  128.42    7.57
  -4   1   4  133.59    7.35
   3  -1  -4   11.07    1.14
  -3   1   4   12.97    1.66
  -3   1   4    9.83    1.11
  -2   1   4   63.71    3.91
  -2   1   4   64.75    3.61
   1  -1  -4   58.94    3.98
  -1   1   4   59.26    3.64
  -1   1   4   61.28    3.45
   0   1   4   60.56    4.24
   0   1   4   65.46    3.94
  -1  -1  -4   18.46    2.10
  -2  -1  -4   16.54    2.28
  -3  -1  -4  102.46    6.48
  -4  -1  -4   48.34    3.95
  -5  -1  -4    1.86    1.60
  -6  -1  -4  133.76    8.83
  -7  -1  -4    0.50    2.12
  -8  -1  -4   -0.44    2.73
  -9  -1  -4   15.80    3.57
  -9   2   4    1.93    2.57
  -8   2   4   26.94    4.12
  -7   2   4   13.96    2.75
  -7   2   4   12.06    2.40
  -6   2   4   14.36    2.56
  -6   2   4   19.43    2.57
  -5   2   4  109.12    6.36
  -5   2   4   95.19    6.39
  -4   2   4  169.18    9.59
  -4   2   4  175.59    9.45
  -3   2   4   43.44    3.08
  -3   2   4   39.91    2.75
   2  -2  -4  176.10   11.07
  -2   2   4  229.16   11.01
  -2   2   4  227.95   10.91
   1  -2  -4    4.42    1.46
  -1   2   4    0.76    0.49
  -1   2   4    0.06    0.41
   0  -2  -4  327.42   17.05
   0   2   4  321.98   16.69
   0   2   4  332.73   16.87
  -1  -2  -4   36.54    3.05
   1   2   4   41.41    3.22
  -2  -2  -4  493.91   25.51
  -3  -2  -4    1.58    1.19
  -4  -2  -4   -0.03    1.23
  -5  -2  -4   42.48    3.99
  -6  -2  -4   10.98    2.91
  -7  -2  -4    9.23    3.26
  -8  -2  -4   -2.24    2.56
  -9  -2  -4   14.86    4.63
  -9   3   4    8.09    3.28
  -8   3   4   16.68    3.42
  -7   3   4    1.24    1.30
  -6   3   4   34.31    3.31
  -5   3   4   14.47    2.02
  -4   3   4   91.93    5.61
  -4   3   4   93.14    5.83
  -3   3   4    1.30    0.60
  -3   3   4    1.48    0.87
   2  -3  -4  207.92   11.61
  -2   3   4  224.21   11.55
  -2   3   4  229.38   11.49
   1  -3  -4   19.13    2.02
  -1   3   4   18.63    1.73
   0  -3  -4   13.87    2.01
   0   3   4   11.95    1.59
   0   3   4    9.82    1.58
  -1  -3  -4   82.01    5.37
   1   3   4   89.06    5.85
  -2  -3  -4    0.51    1.15
   2   3   4    1.73    1.21
  -3  -3  -4  118.19    7.38
  -4  -3  -4   21.11    2.58
  -5  -3  -4   60.88    5.06
  -6  -3  -4   -0.58    1.97
  -7  -3  -4    4.32    2.89
  -8  -3  -4   -2.35    2.45
  -9   4   4    1.70    2.69
  -8   4   4    8.44    2.90
  -7   4   4   13.79    2.60
  -6   4   4    6.78    1.76
  -5   4   4   22.06    2.34
  -4   4   4   33.77    2.96
  -4   4   4   34.01    2.76
  -3   4   4   63.05    4.12
  -3   4   4   66.24    4.32
  -2   4   4    5.61    1.15
  -2   4   4    7.14    1.27
   1  -4  -4  588.45   29.62
  -1   4   4  601.20   28.71
  -1   4   4  571.89   29.47
   0  -4  -4   57.29    3.92
   0   4   4   55.73    3.68
   0   4   4   55.42    4.07
  -1  -4  -4  184.67   11.05
   1   4   4  205.13   11.31
   1   4   4  217.61   11.92
  -2  -4  -4   18.23    2.22
   2   4   4   26.35    3.50
  -3  -4  -4    0.73    1.13
  -4  -4  -4    2.30    1.48
  -5  -4  -4    3.25    2.07
  -6  -4  -4   -0.66    1.97
  -7  -4  -4    5.71    3.00
  -8  -4  -4    0.65    3.32
  -9   5   4   10.45    3.58
  -8   5   4    8.44    3.05
  -8   5   4   10.98    2.72
  -7   5   4   52.38    4.66
  -6   5   4    3.99    1.45
  -5   5   4  219.10   12.26
  -4   5   4  110.51    6.67
  -4   5   4  105.88    6.55
  -3   5   4   32.59    2.75
  -3   5   4   32.73    2.70
  -2   5   4   12.97    1.77
   1  -5  -4   21.69    2.25
  -1   5   4   23.40    1.93
  -1   5   4   22.93    2.24
   0  -5  -4  127.87    7.30
   0   5   4  121.97    7.67
   0   5   4  121.04    6.83
  -1  -5  -4   -0.73    0.73
   1   5   4    0.49    1.16
  -2  -5  -4   61.65    4.56
   2   5   4   64.83    5.60
  -3  -5  -4   53.31    4.30
   3   5   4   56.90    5.44
  -4  -5  -4    0.97    1.52
  -5  -5  -4   35.46    3.88
  -6  -5  -4    6.79    2.72
  -7  -5  -4   -1.74    2.36
  -8   6   4   10.65    3.11
  -8   6   4   11.23    2.77
  -7   6   4   -0.69    1.27
  -6   6   4    0.48    1.10
  -5   6   4   19.46    2.55
  -4   6   4   19.04    2.24
  -4   6   4   18.27    2.11
  -3   6   4    1.30    0.90
  -3   6   4    1.53    1.06
  -2   6   4   24.10    2.16
  -2   6   4   22.28    2.23
  -1   6   4   94.05    5.97
  -1   6   4   88.41    5.25
   0  -6  -4   33.24    2.94
   0   6   4   32.91    3.23
  -1  -6  -4   44.64    3.58
   1   6   4   46.63    4.42
  -2  -6  -4    1.65    1.38
   2   6   4    1.40    1.72
  -3  -6  -4   10.66    2.34
   3   6   4   11.48    3.32
  -4  -6  -4    0.42    1.56
  -5  -6  -4   18.84    3.38
  -6  -6  -4    0.13    2.08
  -7  -6  -4    1.37    2.61
  -8   7   4    9.06    3.19
  -8   7   4    4.73    2.25
  -7   7   4    4.38    1.82
  -6   7   4   10.13    2.15
  -5   7   4    2.22    1.20
  -4   7   4    3.01    1.19
  -4   7   4    3.32    1.44
  -3   7   4   16.54    2.28
  -2   7   4   22.12    2.15
  -2   7   4   23.03    2.40
  -1   7   4  124.12    7.83
   0  -7  -4   19.59    2.36
   0   7   4   18.48    2.82
  -1  -7  -4   42.96    3.58
   1   7   4   41.73    4.37
  -2  -7  -4    1.52    1.36
   2   7   4    0.13    1.93
  -3  -7  -4    4.94    2.05
   3   7   4    9.29    3.57
  -4  -7  -4    1.55    1.72
  -5  -7  -4   19.23    3.54
  -6  -7  -4   -0.15    1.90
  -7   8   4   19.58    3.26
  -7   8   4   22.26    3.82
  -6   8   4   14.99    2.62
  -5   8   4   46.38    4.02
  -5   8   4   42.44    3.90
  -4   8   4   36.52    3.24
  -4   8   4   31.62    3.19
  -3   8   4    1.51    1.06
  -3   8   4   -0.23    0.98
  -2   8   4   -0.32    0.93
  -1   8   4    0.34    1.09
   0   8   4    7.29    2.13
  -1  -8  -4    4.02    1.71
   1   8   4    4.93    2.32
  -2  -8  -4   -0.47    1.38
   2   8   4    0.98    2.35
  -3  -8  -4    1.12    1.54
   3   8   4    1.96    2.79
  -4  -8  -4   24.34    3.67
  -5  -8  -4   19.53    3.66
  -6  -8  -4   23.58    4.45
  -7   9   4    0.77    1.70
  -7   9   4   -1.78    2.03
  -6   9   4   -0.14    1.89
  -6   9   4    0.40    1.41
  -5   9   4    2.42    1.82
  -5   9   4    2.94    1.55
  -4   9   4    2.26    1.48
  -4   9   4    2.88    1.41
  -3   9   4    3.43    1.42
  -2   9   4    5.72    1.74
  -1   9   4    5.53    1.83
   0   9   4   95.85    7.30
   1   9   4   15.95    3.57
  -3  -9  -4    4.99    2.17
   3   9   4    4.98    3.63
  -4  -9  -4   12.38    3.02
   4   9   4    9.74    4.63
  -5  -9  -4    7.92    2.90
  -6  10   4    3.30    2.33
  -6  10   4    1.22    1.60
  -5  10   4    5.56    1.98
  -4  10   4   20.05    2.97
  -3  10   4    2.91    1.54
  -2  10   4    1.78    1.51
  -1  10   4   10.30    2.54
   0  10   4    1.24    1.82
   1  10   4    0.18    2.14
   2  10   4    0.88    2.65
  -3 -10  -4   -1.12    1.90
   3  10   4    2.25    3.62
  -4 -10  -4    1.36    2.32
   4  10   4    4.27    4.68
  -5 -10  -4    5.06    2.69
  -5  11   4    7.22    2.24
  -4  11   4    5.47    2.04
  -3  11   4    0.60    1.35
  -2  11   4    0.18    1.53
  -1  11   4    1.92    1.81
   0  11   4    2.97    2.18
   1  11   4    0.48    2.41
   2  11   4   -1.60    2.71
   3  11   4    2.93    3.97
  -4 -11  -4    9.17    3.22
   4  11   4    6.87    5.15
  -4  12   4    2.77    1.92
  -3  12   4    0.21    1.61
  -2  12   4    1.31    1.77
  -1  12   4    3.91    2.31
   0  12   4   22.16    4.25
   1  12   4   -0.43    2.47
   2  12   4   12.15    4.58
   3  12   4    9.60    5.23
  -2  13   4    5.60    2.40
  -1  13   4    4.81    2.64
   0  13   4    3.67    2.68
   2  13  -5    0.75    2.31
  -2  13  -5   10.53    2.90
  -3  13  -5    6.05    2.61
  -4  13  -5   16.51    3.58
   4  12  -5    4.25    2.77
   3  12  -5    2.38    2.31
   2  12  -5   18.96    3.64
   1  12  -5   12.31    3.00
  -1  12  -5    0.39    1.79
  -2  12  -5    2.40    1.95
  -3  12  -5    5.45    2.33
  -4  12  -5    1.43    1.94
  -5  12  -5   13.16    3.35
   4  11  -5    5.17    2.75
   3  11  -5    4.01    2.30
   2  11  -5    6.49    2.33
   1  11  -5    5.35    2.20
   0  11  -5    0.66    1.69
  -1  11  -5   26.88    3.68
  -2  11  -5    0.24    1.57
  -3  11  -5    0.59    1.49
  -4  11  -5    6.21    2.33
  -5  11  -5    4.09    2.30
  -6  11  -5   15.64    3.75
   5  10  -5    1.42    2.40
   4  10  -5    5.68    2.57
   3  10  -5   11.97    2.78
   2  10  -5   26.65    3.80
   1  10  -5    9.82    2.40
   0  10  -5   11.56    2.85
   0  10  -5   16.02    2.70
  -1  10  -5    1.48    1.37
  -1  10  -5   10.92    2.24
  -2  10  -5   39.43    3.79
  -3  10  -5   15.92    2.83
  -4  10  -5   39.01    4.27
  -5  10  -5    8.91    2.89
  -6  10  -5   12.51    3.46
  -7  10  -5    2.75    2.78
   6   9  -5   -0.58    2.31
   5   9  -5    7.18    2.91
   4   9  -5    3.00    2.19
   3   9  -5   22.80    3.57
   2   9  -5   96.36    6.75
   1   9  -5   25.72    2.92
   0   9  -5   43.88    3.78
   0   9  -5   45.34    4.17
  -1   9  -5    8.15    1.93
  -1   9  -5    4.79    1.70
  -2   9  -5    6.05    1.76
  -2   9  -5    7.65    1.87
  -3   9  -5    8.29    2.14
  -4   9  -5   31.28    3.68
  -5   9  -5   28.61    4.34
  -6   9  -5    0.96    2.17
  -7   9  -5    2.31    2.72
   7   8  -5   -0.04    2.44
   6   8  -5   16.44    3.65
   5   8  -5    1.64    2.05
   4   8  -5    5.08    2.15
   3   8  -5   57.53    4.81
   2   8  -5    5.10    1.79
   1   8  -5   13.88    3.33
   1   8  -5   21.37    2.82
   0   8  -5   10.46    2.21
   0   8  -5    8.52    1.96
  -1   8  -5   45.44    3.66
  -1   8  -5   46.25    3.78
  -2   8  -5    4.96    1.62
  -2   8  -5    2.44    1.26
  -3   8  -5   27.67    3.10
  -4   8  -5    3.92    1.93
  -5   8  -5   67.98    6.11
  -6   8  -5   21.70    4.06
  -7   8  -5   56.32    6.14
  -8   8  -5    8.25    3.39
   7   7  -5    5.12    2.81
   6   7  -5    6.47    2.68
   5   7  -5   68.97    5.72
   4   7  -5    0.41    1.56
   3   7  -5  145.28    9.10
   2   7  -5   53.97    4.27
   1   7  -5  135.79    9.02
   1   7  -5  142.90    8.46
   0   7  -5   19.62    2.67
   0   7  -5   21.14    2.66
  -1   7  -5  289.36   15.36
  -1   7  -5  283.51   15.43
  -2   7  -5   32.29    3.10
  -2   7  -5   37.97    3.18
  -3   7  -5  100.73    6.55
  -3   7  -5   96.45    6.80
  -4   7  -5   13.49    2.65
  -5   7  -5   17.69    3.30
  -6   7  -5    0.36    1.43
  -7   7  -5   30.82    4.85
  -8   7  -5    4.95    2.71
   8   6  -5    0.36    2.69
   7   6  -5   13.98    3.43
   6   6  -5   32.70    4.45
   5   6  -5    4.75    2.09
   4   6  -5    3.58    1.88
   3   6  -5   83.98    5.87
  -3  -6   5   83.82    5.34
   2   6  -5   87.18    5.84
   1   6  -5    4.91    1.40
   1   6  -5    1.71    1.45
   0   6  -5   60.17    4.27
   0   6  -5   62.76    4.29
  -1   6  -5   59.17    4.25
  -1   6  -5   60.06    4.17
  -2   6  -5   13.76    2.21
  -2   6  -5    5.00    1.39
  -3   6  -5   15.22    2.38
  -3   6  -5   12.67    2.27
  -4   6  -5   79.89    6.25
  -4   6  -5   91.36    6.16
  -5   6  -5   20.45    3.39
  -6   6  -5    6.51    2.38
  -7   6  -5    4.99    2.52
  -8   6  -5    0.22    1.83
   8   5  -5   -0.47    2.43
   7   5  -5   10.60    3.03
   6   5  -5    0.82    1.81
   5   5  -5   20.64    3.27
   4   5  -5   23.29    2.78
  -4  -5   5   23.81    2.60
   3   5  -5   30.91    3.03
  -3  -5   5   36.10    3.08
   2   5  -5   23.21    2.43
   2   5  -5   27.10    2.32
  -2  -5   5   22.66    2.32
   1   5  -5    7.07    1.63
   0   5  -5   18.45    1.82
   0   5  -5   18.97    1.97
  -1   5  -5   80.11    5.17
  -1   5  -5   88.07    5.55
  -2   5  -5    1.00    1.03
  -2   5  -5    0.11    0.63
  -3   5  -5    0.61    1.13
  -3   5  -5    0.83    1.00
  -4   5  -5    1.60    1.23
  -4   5  -5    2.29    1.87
  -5   5  -5   29.46    3.80
  -5   5  -5   19.47    4.13
  -6   5  -5   38.90    4.32
  -7   5  -5   41.02    4.70
  -8   5  -5    3.72    2.40
   7   4  -5    4.24    2.47
   6   4  -5    1.97    1.80
   5   4  -5   89.87    6.48
  -5  -4   5   95.67    5.89
   4   4  -5   27.79    2.91
  -4  -4   5   24.85    2.55
   3   4  -5  163.31    9.58
  -3  -4   5  164.42    9.26
   2   4  -5   29.62    2.69
  -2  -4   5   31.55    2.77
   1   4  -5  182.40   10.24
  -1  -4   5  185.66   10.13
   0   4  -5   28.14    2.52
   0   4  -5   27.30    2.08
  -1   4  -5  324.80   17.18
  -1   4  -5  348.91   17.88
  -3   4  -5  232.53   14.11
  -3   4  -5  261.82   13.76
  -4   4  -5    9.55    2.03
  -4   4  -5    8.45    2.79
  -5   4  -5    3.71    1.63
  -5   4  -5    4.72    2.79
  -6   4  -5    2.05    1.57
  -7   4  -5    0.77    1.60
  -8   4  -5    0.01    1.69
  -9   4  -5    0.86    1.78
   7   3  -5    3.63    2.05
  -7  -3   5   15.60    2.50
   6   3  -5    2.42    1.72
  -6  -3   5    0.11    1.00
   5   3  -5   20.79    3.00
  -5  -3   5   23.39    2.34
   4   3  -5    6.07    1.73
  -4  -3   5    5.76    1.34
   3   3  -5   88.21    5.66
  -3  -3   5   85.42    5.35
   2   3  -5  185.79   10.06
  -2  -3   5  170.47    9.86
   1   3  -5   46.51    3.33
  -1  -3   5   41.37    3.38
   0   3  -5    2.24    1.07
   0   3  -5    0.70    0.43
  -1   3  -5  141.72    7.91
  -1   3  -5  151.27    8.58
  -2   3  -5    5.59    2.07
  -3   3  -5    9.69    2.55
  -3   3  -5    7.75    1.63
  -4   3  -5   -0.39    1.80
  -4   3  -5    1.64    1.17
  -5   3  -5    3.91    1.63
  -5   3  -5    5.31    2.36
  -6   3  -5   49.44    4.97
  -6   3  -5   50.77    4.65
  -7   3  -5   26.55    3.89
  -8   3  -5   20.09    3.66
  -9   3  -5    0.85    1.97
  -8  -2   5    6.87    2.23
  -7  -2   5   48.38    4.09
   6   2  -5    7.07    2.20
  -6  -2   5    9.55    1.93
   5   2  -5   16.23    2.52
  -5  -2   5   18.87    2.08
   4   2  -5   20.74    2.28
   3   2  -5    4.95    1.33
  -3  -2   5    3.01    0.96
   2   2  -5  158.43    8.83
  -2  -2   5  152.24    8.57
   1   2  -5   79.26    5.04
  -1  -2   5   73.85    5.04
   0   2  -5   18.23    2.27
   0  -2   5   18.02    2.35
  -1   2  -5   21.65    2.62
  -2   2  -5  281.92   15.53
  -3   2  -5   34.11    3.41
  -4   2  -5   19.62    3.11
  -5   2  -5   14.88    2.51
  -5   2  -5   10.74    2.78
  -6   2  -5    2.00    2.21
  -6   2  -5    2.31    1.57
  -7   2  -5   21.53    3.44
  -7   2  -5    7.95    3.12
  -8   2  -5    7.10    2.47
  -9   2  -5   -0.25    1.56
  -9  -1   5    7.76    2.79
  -8  -1   5   32.72    3.58
  -7  -1   5   13.42    2.43
  -6  -1   5   36.64    3.29
   5   1  -5   14.25    2.37
  -5  -1   5   17.13    2.27
   4   1  -5   10.02    1.79
  -4  -1   5   13.05    1.78
   3   1  -5   10.15    1.67
  -3  -1   5   12.17    1.60
  -3  -1   5    8.53    0.84
  -2  -1   5    9.84    1.43
   0   1  -5  196.67   10.84
   0  -1   5  189.02   10.83
  -1   1  -5  251.49   13.87
  -2   1  -5  428.96   22.58
  -3   1  -5   54.27    4.34
  -4   1  -5   95.22    6.55
  -5   1  -5    8.38    2.46
  -6   1  -5    8.96    2.76
  -7   1  -5    1.69    2.45
  -7   1  -5   10.97    2.59
  -8   1  -5    1.88    1.84
  -8   1  -5   -2.50    2.42
  -9   1  -5    2.54    2.28
  -9   0   5   18.57    3.69
  -8   0   5    0.41    1.70
  -7   0   5   13.61    2.63
  -6   0   5    9.88    2.10
   5   0  -5   22.83    2.36
  -5   0   5   20.41    2.27
   4   0  -5   33.62    2.71
  -4   0   5   33.77    2.32
  -4   0   5   28.42    2.60
   3   0  -5  210.42   11.67
  -3   0   5  222.65   10.99
  -3   0   5  216.23   11.45
   2   0  -5  220.54   12.98
  -2   0   5  263.37   12.64
   1   0  -5    1.29    0.65
  -1   0   5    2.95    0.94
   0   0  -5    1.99    1.72
   0   0   5    2.24    1.15
  -1   0  -5  175.60   10.05
  -2   0  -5    2.15    1.52
  -3   0  -5   46.10    3.92
  -4   0  -5   30.22    3.25
  -5   0  -5    2.41    1.90
  -6   0  -5   41.60    4.34
  -7   0  -5    4.74    2.66
  -8   0  -5   43.95    5.18
  -9   0  -5    0.26    1.79
  -9   1   5    2.38    2.45
  -8   1   5   31.60    4.25
  -7   1   5   70.33    5.47
  -6   1   5  117.25    7.47
  -5   1   5   -0.08    0.70
  -5   1   5    0.99    0.93
   4  -1  -5   -0.61    0.87
  -4   1   5    0.78    0.73
  -4   1   5    1.21    0.65
   3  -1  -5    9.45    1.48
  -3   1   5    7.37    1.01
  -3   1   5    7.52    1.36
   2  -1  -5    4.54    1.38
  -2   1   5    4.81    1.03
  -2   1   5    3.12    0.67
   1  -1  -5   69.80    4.83
  -1   1   5   71.10    4.46
  -1   1   5   71.07    4.10
   0  -1  -5   20.12    2.43
   0   1   5   21.90    1.94
   0   1   5   22.02    2.43
   1   1   5   35.91    3.34
  -2  -1  -5  154.33    9.13
  -3  -1  -5    1.77    1.45
  -4  -1  -5   88.97    6.20
  -5  -1  -5    8.20    2.51
  -6  -1  -5    6.34    2.57
  -7  -1  -5   13.06    3.48
  -8  -1  -5   -0.38    2.81
  -9  -1  -5    6.87    3.83
  -9   2   5    8.67    3.17
  -8   2   5   32.97    4.39
  -7   2   5    0.88    1.61
  -6   2   5   21.17    3.01
  -5   2   5   48.95    3.54
  -5   2   5   48.26    3.84
  -4   2   5   16.79    2.15
  -4   2   5   13.97    1.52
   3  -2  -5    4.29    1.12
  -3   2   5    4.36    0.86
  -3   2   5    3.45    1.04
   2  -2  -5   87.87    5.88
  -2   2   5  104.46    5.74
  -2   2   5   98.39    5.43
   1  -2  -5   18.49    2.66
  -1   2   5   15.79    1.55
  -1   2   5   18.38    1.73
   0  -2  -5    0.12    1.08
   0   2   5    0.48    0.70
   0   2   5    0.08    0.79
  -1  -2  -5    6.39    1.89
   1   2   5    5.60    1.80
   1   2   5    6.77    1.51
  -2  -2  -5   22.89    2.61
  -3  -2  -5   25.34    2.85
  -4  -2  -5    7.78    2.22
  -5  -2  -5  177.62   10.97
  -6  -2  -5    0.36    2.14
  -7  -2  -5   19.95    4.30
  -8  -2  -5    0.58    2.89
  -9   3   5   46.85    5.17
  -8   3   5    0.71    1.88
  -7   3   5    9.74    2.51
  -6   3   5   21.78    3.08
  -6   3   5   22.60    2.50
  -5   3   5   10.37    1.67
  -5   3   5   12.66    2.20
  -4   3   5   21.56    1.92
  -4   3   5   18.14    2.15
  -3   3   5    4.06    1.14
  -3   3   5    2.42    0.77
   2  -3  -5   39.02    3.20
  -2   3   5   44.41    3.07
  -2   3   5   41.96    2.88
   1  -3  -5   73.73    4.59
  -1   3   5   70.29    4.23
  -1   3   5   52.21    3.90
   0  -3  -5    3.76    1.58
   0   3   5    1.90    1.16
   0   3   5    1.91    1.00
  -1  -3  -5  346.37   17.76
   1   3   5  297.24   17.69
   1   3   5  348.47   17.95
  -2  -3  -5   19.82    2.83
   2   3   5   23.12    3.06
  -3  -3  -5   25.35    2.87
  -4  -3  -5    7.98    2.32
  -5  -3  -5    3.60    2.14
  -6  -3  -5   33.99    4.77
  -7  -3  -5    7.53    3.34
  -8  -3  -5   24.58    5.32
  -9   4   5    0.22    2.37
  -8   4   5   26.87    4.19
  -7   4   5    4.19    2.12
  -6   4   5   62.64    4.67
  -6   4   5   63.68    5.00
  -5   4   5   63.00    4.80
  -5   4   5   68.11    4.56
  -4   4   5    0.78    0.74
  -4   4   5    0.74    1.04
  -3   4   5  124.47    7.17
  -3   4   5  125.95    7.28
   2  -4  -5   10.12    2.16
  -2   4   5   12.89    1.49
  -2   4   5   14.99    1.84
   1  -4  -5    2.67    1.51
  -1   4   5    3.39    1.07
  -1   4   5    2.97    0.94
   0  -4  -5   -0.28    1.40
   0   4   5    2.26    1.08
   0   4   5    1.37    1.08
  -1  -4  -5   15.50    2.56
   1   4   5   12.01    2.69
   1   4   5   15.59    2.59
  -2  -4  -5   21.21    2.63
   2   4   5   30.97    3.82
  -3  -4  -5    2.18    1.64
  -4  -4  -5   33.39    3.61
  -5  -4  -5   32.78    3.82
  -6  -4  -5   -2.48    1.87
  -7  -4  -5   32.40    5.39
  -8  -4  -5   -1.22    3.39
  -8   5   5   13.42    3.30
  -7   5   5    0.62    1.60
  -7   5   5   -0.83    1.14
  -6   5   5   -0.50    1.31
  -6   5   5    0.71    1.01
  -5   5   5   30.04    2.77
  -5   5   5   31.16    3.11
  -4   5   5    8.97    1.83
  -4   5   5    8.06    1.50
  -3   5   5    7.99    1.50
  -3   5   5   10.24    1.75
  -2   5   5   31.08    2.54
   1  -5  -5   17.98    2.51
  -1   5   5   15.58    1.74
  -1   5   5   17.74    2.26
   0  -5  -5   23.65    2.58
   0   5   5   20.45    2.29
   0   5   5   22.29    2.51
   1   5   5   20.34    3.12
  -2  -5  -5    0.09    1.38
   2   5   5    0.57    1.33
  -3  -5  -5    1.02    1.66
  -4  -5  -5    3.21    2.08
  -5  -5  -5   64.34    5.57
  -6  -5  -5    6.35    2.90
  -7  -5  -5   13.06    4.14
  -8   6   5    0.94    2.13
  -7   6   5    7.57    2.53
  -7   6   5    8.19    2.10
  -6   6   5    2.40    1.24
  -6   6   5   -0.07    1.47
  -5   6   5    1.27    1.35
  -5   6   5    1.35    1.04
  -4   6   5   17.54    2.50
  -4   6   5   19.36    2.18
  -3   6   5   35.50    3.01
  -3   6   5   35.82    2.98
  -2   6   5   15.50    2.00
  -2   6   5   14.09    2.04
  -1   6   5   24.03    2.55
  -1   6   5   21.37    2.09
   0  -6  -5    2.07    1.60
   0   6   5    2.41    1.41
  -1  -6  -5  130.17    8.19
   1   6   5  136.68    9.14
  -2  -6  -5   26.57    3.03
   2   6   5   29.69    4.49
  -3  -6  -5   36.60    3.70
   3   6   5   35.91    5.25
  -4  -6  -5   15.28    3.11
  -5  -6  -5    7.46    2.73
  -6  -6  -5   30.66    4.88
  -7  -6  -5   21.72    4.97
  -8   7   5    9.69    3.15
  -7   7   5    0.24    1.37
  -7   7   5    0.41    1.92
  -6   7   5    3.32    1.51
  -6   7   5    3.25    1.92
  -5   7   5   62.76    4.78
  -5   7   5   64.63    4.89
  -4   7   5    3.64    1.54
  -4   7   5    2.59    1.19
  -3   7   5   97.93    6.08
  -2   7   5    5.85    1.42
  -2   7   5    4.60    1.49
  -1   7   5   72.98    5.38
   0   7   5    6.59    2.02
  -1  -7  -5   70.45    5.12
   1   7   5   61.47    5.72
  -2  -7  -5   19.32    3.09
   2   7   5   19.56    4.07
  -3  -7  -5   34.79    3.66
   3   7   5   31.92    5.27
  -4  -7  -5    1.10    1.95
  -5  -7  -5    8.78    2.97
  -6  -7  -5    4.15    2.99
  -7   8   5   18.02    3.09
  -7   8   5   23.72    3.89
  -6   8   5    0.25    1.68
  -6   8   5    1.20    1.37
  -5   8   5    1.06    1.50
  -5   8   5    1.25    1.39
  -4   8   5    1.34    1.36
  -4   8   5    0.92    1.10
  -3   8   5   13.96    2.24
  -3   8   5   19.28    2.46
  -2   8   5    7.04    1.80
  -1   8   5    2.97    1.59
   0   8   5    1.74    1.48
  -1  -8  -5   16.33    2.98
   1   8   5   15.05    3.29
  -2  -8  -5    6.14    2.25
   2   8   5    2.54    2.50
  -3  -8  -5    9.58    2.65
   3   8   5    7.09    3.36
  -4  -8  -5   -1.17    1.78
  -5  -8  -5   20.69    4.08
  -6  -8  -5    1.55    2.82
  -6   9   5    1.25    1.55
  -6   9   5    1.92    1.94
  -5   9   5    0.24    1.27
  -5   9   5    0.00    1.51
  -4   9   5   10.72    2.12
  -3   9   5    2.07    1.39
  -2   9   5   13.57    2.57
  -1   9   5    8.63    2.23
   0   9   5    1.65    1.66
   1   9   5   60.22    6.12
  -2  -9  -5    0.47    1.63
   2   9   5   10.69    3.60
  -3  -9  -5   -0.46    1.91
   3   9   5    0.07    2.92
  -4  -9  -5    2.92    2.43
  -5  -9  -5    0.86    2.65
  -6  10   5   -0.90    1.87
  -6  10   5    0.47    1.69
  -5  10   5   19.73    3.09
  -4  10   5    5.83    1.92
  -3  10   5   38.19    3.83
  -2  10   5   20.95    3.27
  -1  10   5    2.60    1.90
   0  10   5   14.05    3.23
   1  10   5   -0.33    2.19
   2  10   5   17.22    4.58
  -3 -10  -5   15.13    3.50
   3  10   5   13.31    4.81
  -4 -10  -5   -0.12    2.45
  -5  11   5    0.52    1.53
  -4  11   5    3.44    1.83
  -3  11   5   -0.02    1.44
  -2  11   5    4.28    2.06
  -1  11   5    7.29    2.49
   0  11   5   -0.72    2.00
   1  11   5    2.27    2.74
   2  11   5    3.95    3.41
   3  11   5    0.27    3.63
  -3  12   5    1.40    1.92
  -2  12   5    7.73    2.57
  -1  12   5    5.28    2.52
   0  12   5    2.59    2.60
   1  12   5    6.98    3.67
   2  12   5   -0.42    3.07
   2  13  -6   22.03    4.03
   1  13  -6    2.99    2.60
  -3  13  -6    9.31    3.06
   3  12  -6    2.27    2.67
   2  12  -6    0.39    2.11
   1  12  -6    9.50    2.94
   0  12  -6   -0.67    2.09
  -3  12  -6    4.10    2.20
  -4  12  -6   13.70    3.24
  -5  12  -6   11.12    3.15
   4  11  -6    3.92    2.91
   3  11  -6    0.86    2.15
   2  11  -6    5.96    2.61
   1  11  -6   10.01    2.76
   0  11  -6    2.29    1.96
  -1  11  -6    6.94    2.40
  -2  11  -6    1.76    1.72
  -3  11  -6    3.42    2.04
  -4  11  -6   25.47    3.94
  -5  11  -6    1.66    2.29
  -6  11  -6    2.10    2.63
   5  10  -6    8.05    3.38
   4  10  -6    0.84    2.22
   3  10  -6    5.87    2.51
   2  10  -6   19.49    3.40
   1  10  -6    8.33    2.44
  -1  10  -6   25.90    3.00
  -1  10  -6   22.12    3.38
  -2  10  -6    0.83    1.41
  -3  10  -6   69.92    5.69
  -4  10  -6    6.14    2.45
  -5  10  -6    2.06    2.15
  -6  10  -6    3.14    2.65
   6   9  -6   42.38    5.86
   5   9  -6    1.94    2.38
   4   9  -6   71.15    6.03
   3   9  -6   19.41    3.50
   2   9  -6    2.92    1.90
   1   9  -6   28.77    3.70
   0   9  -6    1.03    1.47
  -1   9  -6   44.97    3.93
  -1   9  -6   43.69    3.94
  -2   9  -6    0.12    1.04
  -2   9  -6    0.59    1.48
  -3   9  -6   39.14    4.00
  -4   9  -6   35.70    4.11
  -5   9  -6    9.87    3.11
  -6   9  -6    0.50    2.19
  -7   9  -6   30.02    5.40
   7   8  -6   19.80    4.41
   6   8  -6    1.37    2.50
   5   8  -6    3.73    2.48
   4   8  -6    0.05    1.68
   3   8  -6   21.83    3.49
   2   8  -6    6.37    2.06
   1   8  -6    3.47    1.69
   0   8  -6   25.83    2.81
  -1   8  -6    1.65    1.38
  -1   8  -6    1.72    1.19
  -2   8  -6   12.37    2.23
  -2   8  -6    5.27    1.62
  -3   8  -6   46.11    4.34
  -3   8  -6   49.23    4.28
  -4   8  -6   11.59    2.77
  -5   8  -6    0.13    1.82
  -6   8  -6   10.29    3.17
  -7   8  -6   12.26    3.76
   7   7  -6   27.61    4.82
   6   7  -6    1.66    2.45
   5   7  -6    2.33    2.35
   4   7  -6   21.39    3.54
   3   7  -6    2.41    1.63
   2   7  -6   13.45    2.55
   1   7  -6   23.73    3.08
   0   7  -6    5.94    1.82
   0   7  -6    4.56    1.60
  -1   7  -6   42.31    3.52
  -1   7  -6   40.33    3.38
  -2   7  -6    6.00    1.94
  -2   7  -6    3.63    1.45
  -3   7  -6   65.86    5.24
  -3   7  -6   66.23    5.24
  -4   7  -6    1.21    1.51
  -4   7  -6    0.20    1.71
  -5   7  -6    0.74    1.72
  -6   7  -6    0.15    1.84
  -7   7  -6    5.82    2.92
  -8   7  -6    4.39    2.85
   8   6  -6    3.97    3.09
   7   6  -6    4.55    2.99
   6   6  -6   49.83    5.07
   5   6  -6    4.51    2.37
   4   6  -6   70.59    5.59
   3   6  -6  108.45    7.08
  -3  -6   6   99.24    6.46
   2   6  -6   -0.08    1.15
  -2  -6   6    0.85    1.09
   1   6  -6   56.52    4.29
   0   6  -6   43.99    3.58
   0   6  -6   47.34    3.50
  -1   6  -6   23.35    2.62
  -1   6  -6   25.99    2.46
  -2   6  -6    0.09    0.84
  -2   6  -6   -0.29    1.36
  -3   6  -6   23.74    3.30
  -3   6  -6   24.94    2.92
  -4   6  -6    0.91    1.76
  -4   6  -6    1.54    1.50
  -5   6  -6   15.73    3.33
  -6   6  -6    2.19    1.86
  -7   6  -6   91.70    7.96
  -8   6  -6    9.27    3.40
   8   5  -6    3.31    3.08
   7   5  -6   46.12    4.92
   6   5  -6    9.85    2.94
   5   5  -6   24.31    3.76
   4   5  -6    6.16    2.22
  -4  -5   6    5.51    1.79
   3   5  -6    2.34    1.55
  -3  -5   6    2.48    1.33
   2   5  -6   13.95    2.28
  -2  -5   6    7.46    1.70
   1   5  -6    7.13    1.63
   0   5  -6   26.98    2.28
   0   5  -6   27.10    2.68
  -1   5  -6   14.23    1.73
  -1   5  -6   19.04    2.70
  -2   5  -6    2.08    1.41
  -2   5  -6    0.66    0.87
  -3   5  -6  251.91   14.19
  -3   5  -6  252.20   14.41
  -4   5  -6   27.80    4.20
  -4   5  -6   21.26    3.21
  -5   5  -6  123.71    8.66
  -5   5  -6  120.93    9.21
  -6   5  -6    8.77    2.59
  -7   5  -6    0.53    1.88
  -8   5  -6    0.72    2.09
   7   4  -6   14.53    3.44
   6   4  -6    6.05    2.43
  -6  -4   6    7.37    1.91
   5   4  -6    7.35    2.30
  -5  -4   6    6.32    1.69
   4   4  -6    1.99    1.65
  -4  -4   6    0.68    1.07
   3   4  -6  110.29    7.13
  -3  -4   6  109.63    6.94
   2   4  -6   19.42    2.30
  -2  -4   6   22.18    2.44
   1   4  -6  368.11   19.31
  -1  -4   6  358.93   18.92
   0   4  -6    1.30    0.72
   0   4  -6    1.82    1.34
  -1   4  -6  131.11    7.76
  -1   4  -6  119.46    7.06
  -2   4  -6   20.93    2.95
  -2   4  -6   19.08    2.36
  -3   4  -6    6.73    2.49
  -3   4  -6    8.18    1.78
  -4   4  -6   49.59    4.36
  -4   4  -6   49.18    5.07
  -5   4  -6   32.63    4.11
  -5   4  -6   38.50    5.35
  -6   4  -6    3.81    1.89
  -6   4  -6    3.06    3.08
  -7   4  -6    4.54    2.33
  -8   4  -6   14.09    3.48
  -7  -3   6    8.00    2.17
   6   3  -6   15.93    3.10
  -6  -3   6   24.96    2.64
   5   3  -6    2.09    1.62
  -5  -3   6    0.18    0.97
   4   3  -6    0.49    1.26
  -4  -3   6    0.03    0.84
   3   3  -6   67.80    4.88
  -3  -3   6   68.14    4.69
   2   3  -6   22.97    2.45
  -2  -3   6   25.35    2.61
   1   3  -6  161.23    9.28
  -1  -3   6  151.39    9.11
   0   3  -6   22.16    1.72
   0   3  -6   27.34    2.56
  -1   3  -6   35.57    2.66
  -1   3  -6   34.72    3.20
  -2   3  -6    7.47    2.47
  -2   3  -6    6.49    1.45
  -3   3  -6   25.01    3.85
  -3   3  -6   16.31    2.48
  -4   3  -6    9.06    2.12
  -4   3  -6   11.75    3.19
  -5   3  -6    4.01    1.76
  -5   3  -6    6.36    3.02
  -6   3  -6    5.55    2.10
  -6   3  -6    8.28    3.08
  -7   3  -6   89.88    7.21
  -8   3  -6   33.02    4.77
  -9   3  -6   15.40    3.67
  -8  -2   6    1.50    1.77
  -7  -2   6   33.58    3.37
   6   2  -6   52.96    4.64
  -6  -2   6   54.12    4.24
   5   2  -6   16.24    2.71
  -5  -2   6   18.82    2.20
   3   2  -6   53.80    4.07
  -3  -2   6   52.50    3.81
   2   2  -6  140.21    8.00
  -2  -2   6  124.68    7.74
   1   2  -6   48.04    3.80
  -1  -2   6   43.27    3.68
   0   2  -6   83.99    5.62
   0  -2   6   83.53    5.78
  -1   2  -6   55.33    4.57
  -2   2  -6    1.05    1.88
  -3   2  -6  338.99   18.74
  -4   2  -6   74.31    5.83
  -5   2  -6   15.23    3.39
  -6   2  -6    7.79    3.05
  -6   2  -6    7.47    2.31
  -7   2  -6    3.16    1.89
  -7   2  -6    1.12    2.76
  -8   2  -6    7.13    2.61
  -9   2  -6    1.37    1.97
  -9  -1   6    1.15    2.04
  -8  -1   6    0.47    1.63
  -7  -1   6    7.32    2.01
  -6  -1   6    0.34    1.18
   5   1  -6    5.80    1.84
  -5  -1   6    7.60    1.66
   4   1  -6    7.91    1.72
  -4  -1   6   11.24    1.80
   3   1  -6   41.79    3.41
  -3  -1   6   43.43    3.26
   2   1  -6  133.50    8.65
  -2  -1   6  163.04    8.50
   1   1  -6  503.95   25.14
  -1  -1   6  455.51   24.43
   0   1  -6  227.37   12.61
   0  -1   6  219.06   12.59
  -1   1  -6   39.08    3.80
  -2   1  -6   23.18    3.32
  -3   1  -6   12.74    2.68
  -4   1  -6    0.93    1.74
  -5   1  -6   96.04    7.02
  -6   1  -6    1.45    2.33
  -7   1  -6   10.52    3.36
  -8   1  -6    8.79    3.55
  -8   1  -6   16.53    3.55
  -9   1  -6   -1.29    1.53
  -9   0   6   -0.32    2.02
  -8   0   6    3.19    1.88
  -7   0   6    0.77    1.41
  -6   0   6   44.05    3.81
  -5   0   6   24.52    2.58
   4   0  -6    1.24    1.11
  -4   0   6   -0.10    0.68
   3   0  -6   64.34    4.53
  -3   0   6   64.08    4.33
   2   0  -6   41.04    3.65
  -2   0   6   42.93    3.30
  -2   0   6   48.03    2.66
   1   0  -6    5.38    1.31
   0   0  -6  110.99    8.00
   0   0   6  148.45    8.27
  -1   0  -6  175.46   10.36
  -2   0  -6   74.96    5.45
  -3   0  -6   22.19    3.24
  -4   0  -6   98.34    6.93
  -5   0  -6   -0.80    1.89
  -6   0  -6    4.21    2.56
  -7   0  -6   11.18    3.38
  -8   0  -6   -1.87    2.61
  -9   0  -6    2.42    2.30
  -9   1   6    0.95    2.15
  -8   1   6    4.37    2.10
  -7   1   6   13.16    2.58
  -6   1   6   45.28    3.89
  -5   1   6   19.44    2.52
   4  -1  -6  106.37    6.34
  -4   1   6  101.84    6.41
   3  -1  -6  302.82   15.88
  -3   1   6  292.15   14.93
  -3   1   6  292.94   15.42
   2  -1  -6  178.88   11.32
  -2   1   6  206.56   10.27
  -2   1   6  208.16   10.77
   1  -1  -6   72.00    5.15
  -1   1   6   71.25    4.81
  -1   1   6   73.99    4.37
   0  -1  -6  250.79   14.05
   0   1   6  255.76   14.01
   0   1   6  251.76   13.36
  -1  -1  -6  111.46    6.85
   1   1   6   93.41    6.99
  -2  -1  -6   31.64    3.27
  -3  -1  -6  171.90   10.43
  -4  -1  -6    7.04    2.44
  -5  -1  -6   11.93    3.11
  -6  -1  -6    2.54    2.40
  -7  -1  -6    8.72    3.34
  -8  -1  -6    2.24    2.95
  -9   2   6   -0.37    2.20
  -8   2   6   13.88    3.00
  -7   2   6   22.15    3.36
  -6   2   6   52.00    4.33
  -5   2   6   12.03    2.15
  -4   2   6   11.27    1.31
  -4   2   6   15.10    2.12
   3  -2  -6   20.09    2.17
  -3   2   6   19.16    1.70
  -3   2   6   19.55    2.08
   2  -2  -6    6.44    1.82
  -2   2   6   10.84    1.36
  -2   2   6   12.29    1.76
   1  -2  -6   72.78    5.81
  -1   2   6   89.96    5.14
  -1   2   6   88.21    5.36
   0   2   6  134.06    8.10
   0   2   6  147.81    8.65
  -1  -2  -6    4.04    1.93
   1   2   6    4.96    1.37
  -2  -2  -6   38.15    3.65
  -3  -2  -6   14.61    2.87
  -4  -2  -6   39.24    3.91
  -5  -2  -6   35.60    3.98
  -6  -2  -6    3.32    2.49
  -7  -2  -6   -1.66    2.43
  -8  -2  -6    2.65    3.33
  -9   3   6    5.28    2.86
  -8   3   6    0.45    1.85
  -7   3   6   10.03    2.46
  -6   3   6    0.14    1.09
  -5   3   6   22.66    2.88
  -4   3   6    0.98    0.97
  -4   3   6    0.76    0.72
  -3   3   6    6.00    1.42
  -3   3   6    5.29    1.08
   2  -3  -6   24.97    2.63
  -2   3   6   19.53    2.09
  -2   3   6   21.99    1.97
   1  -3  -6    1.91    1.73
  -1   3   6    1.87    0.84
  -1   3   6    3.00    1.10
   0  -3  -6   22.36    2.71
   0   3   6   27.12    2.88
   0   3   6   23.61    2.50
  -1  -3  -6  105.39    7.11
   1   3   6  118.72    7.32
   1   3   6  106.26    7.65
  -2  -3  -6   13.86    2.71
  -3  -3  -6   11.24    2.60
  -4  -3  -6   50.41    4.63
  -5  -3  -6   -0.14    1.96
  -6  -3  -6    0.28    2.48
  -7  -3  -6   57.12    5.95
  -8  -3  -6   -1.23    3.10
  -8   4   6    0.51    1.94
  -7   4   6   27.39    3.75
  -6   4   6    4.66    1.71
  -5   4   6   18.64    2.65
  -5   4   6   14.70    1.98
  -4   4   6    8.74    1.50
  -4   4   6   13.34    2.09
  -3   4   6  144.64    8.27
  -3   4   6  142.11    8.07
  -2   4   6    4.76    1.25
  -2   4   6    7.42    1.46
   1  -4  -6  140.38    8.29
  -1   4   6  135.84    8.09
   0  -4  -6   45.35    3.83
   0   4   6   46.65    3.88
   0   4   6   40.29    3.61
  -1  -4  -6  137.07    8.80
   1   4   6  134.79    9.02
   1   4   6  165.09    9.75
  -2  -4  -6    1.92    1.81
   2   4   6    2.90    1.71
  -3  -4  -6  311.44   17.45
  -4  -4  -6    1.53    2.06
  -5  -4  -6   -2.10    1.85
  -6  -4  -6   -0.50    2.40
  -7  -4  -6   10.54    3.97
  -8   5   6   12.45    3.13
  -7   5   6   32.26    3.68
  -6   5   6   26.43    3.43
  -5   5   6   24.54    2.77
  -5   5   6   24.80    2.49
  -4   5   6   40.28    3.39
  -4   5   6   38.35    3.16
  -3   5   6   52.38    3.81
  -3   5   6   56.08    4.00
  -2   5   6    2.05    1.09
  -2   5   6    0.28    0.82
   1  -5  -6   99.01    6.39
  -1   5   6   99.99    6.47
  -1   5   6  103.01    6.14
   0  -5  -6    4.52    2.08
   0   5   6    4.56    1.80
   0   5   6    3.92    1.52
  -2  -5  -6    2.14    2.02
   2   5   6    3.90    2.09
  -3  -5  -6  112.86    7.75
  -4  -5  -6    0.05    1.80
  -5  -5  -6    6.91    2.83
  -6  -5  -6    0.24    2.54
  -7  -5  -6    4.70    3.67
  -8   6   6    2.04    2.34
  -7   6   6   16.58    3.14
  -6   6   6   -0.24    1.05
  -6   6   6    0.19    1.40
  -5   6   6    9.82    1.91
  -5   6   6   12.87    2.40
  -4   6   6    0.43    0.89
  -4   6   6    0.61    1.16
  -3   6   6   44.22    3.49
  -3   6   6   42.79    3.45
  -2   6   6   30.05    2.77
  -2   6   6   25.71    2.52
  -1   6   6   24.21    2.68
  -1   6   6   24.51    2.41
   0  -6  -6   12.84    2.68
   0   6   6    8.07    2.12
  -1  -6  -6   24.56    3.57
   1   6   6   28.38    4.02
  -2  -6  -6   19.13    3.27
   2   6   6   13.42    3.25
  -3  -6  -6    6.61    2.48
   3   6   6    3.89    2.43
  -4  -6  -6   10.70    3.02
  -5  -6  -6    0.94    2.38
  -6  -6  -6   -3.19    2.39
  -7   7   6   34.65    3.90
  -6   7   6   13.61    2.70
  -6   7   6   13.19    2.44
  -5   7   6    2.26    1.65
  -5   7   6    1.71    1.16
  -4   7   6    4.23    1.41
  -4   7   6    5.29    1.68
  -3   7   6   24.76    2.58
  -2   7   6    1.96    1.21
  -2   7   6    1.31    1.30
  -1   7   6    3.25    1.55
   0   7   6   -0.19    1.38
  -1  -7  -6   36.47    3.76
   1   7   6   29.14    4.37
  -2  -7  -6   25.15    3.78
   2   7   6   23.78    4.25
  -3  -7  -6   47.04    4.63
   3   7   6   48.77    5.67
  -4  -7  -6    8.61    2.94
  -5  -7  -6    0.04    2.29
  -6  -7  -6   -1.66    2.73
  -7   8   6   28.28    4.12
  -6   8   6    4.22    1.74
  -6   8   6    5.01    2.13
  -5   8   6    5.04    1.64
  -5   8   6    5.05    1.83
  -4   8   6    3.55    1.56
  -4   8   6    2.57    1.34
  -3   8   6   45.39    3.92
  -2   8   6    6.39    1.86
  -1   8   6   38.38    3.86
   0   8   6    0.86    1.59
   1   8   6   12.32    3.19
  -2  -8  -6   -2.08    1.80
   2   8   6    0.64    2.17
  -3  -8  -6    7.23    2.76
   3   8   6    9.58    3.69
  -4  -8  -6    3.41    2.55
  -5  -8  -6   -0.79    2.54
  -6   9   6    1.73    1.67
  -6   9   6    4.78    2.28
  -5   9   6    9.00    2.39
  -5   9   6   10.37    2.22
  -4   9   6    0.42    1.31
  -3   9   6    7.26    1.97
  -2   9   6    5.68    1.97
  -1   9   6   -0.81    1.39
   0   9   6    2.01    2.08
   1   9   6   -0.23    2.26
   2   9   6    7.16    3.20
  -3  -9  -6    7.28    3.07
   3   9   6    7.63    3.70
  -4  -9  -6    3.56    2.74
  -5  -9  -6    8.54    3.55
  -5  10   6    1.27    1.57
  -4  10   6    3.29    1.73
  -3  10   6   -0.29    1.41
  -2  10   6    5.06    1.99
  -1  10   6   14.08    3.08
   0  10   6    1.09    2.05
   1  10   6    5.79    3.07
   2  10   6    1.96    2.90
   3  10   6    1.07    3.39
  -4 -10  -6    0.38    2.90
  -4  11   6    0.76    1.62
  -3  11   6    0.91    1.82
  -2  11   6   11.75    2.87
  -1  11   6    4.28    2.26
   0  11   6    6.52    2.90
   1  11   6    7.25    3.47
   2  11   6   -0.67    2.88
   3  11   6    5.94    3.90
  -2  12   6   -0.16    1.88
  -1  12   6    2.03    2.29
   0  12   6    1.55    2.63
   1  12   6   -0.91    2.73
   1  13  -7    5.04    3.04
   3  12  -7    0.86    2.44
   2  12  -7    4.28    2.81
   1  12  -7    3.32    2.63
   0  12  -7   11.95    3.30
  -4  12  -7    4.68    2.55
   4  11  -7    2.93    2.85
   3  11  -7   -1.37    2.33
   2  11  -7    5.33    2.70
   1  11  -7    9.66    2.87
   0  11  -7   44.12    4.47
  -1  11  -7   15.16    3.20
  -3  11  -7    4.84    2.18
  -4  11  -7   13.59    3.28
  -5  11  -7    8.94    3.34
   5  10  -7    1.35    2.60
   4  10  -7   21.73    4.26
   3  10  -7    2.27    2.40
   2  10  -7   15.10    3.14
   1  10  -7   14.84    3.20
   0  10  -7   19.55    3.42
  -1  10  -7    3.36    2.04
  -2  10  -7    9.84    2.59
  -3  10  -7   10.52    2.57
  -4  10  -7    7.72    2.65
  -5  10  -7    8.21    3.00
  -6  10  -7    5.07    3.33
   6   9  -7    1.66    3.02
   5   9  -7    2.92    2.79
   4   9  -7    1.14    2.41
   3   9  -7   33.79    4.61
   2   9  -7    0.74    1.84
   1   9  -7   78.61    6.02
   0   9  -7    1.69    1.78
  -1   9  -7    5.54    1.99
  -2   9  -7    4.15    2.02
  -2   9  -7    4.30    1.71
  -3   9  -7    1.55    1.64
  -4   9  -7    1.78    2.08
  -5   9  -7   20.02    4.10
  -6   9  -7    7.27    3.31
  -7   9  -7   14.63    4.50
   6   8  -7   -0.07    2.62
   5   8  -7   16.49    3.77
   4   8  -7    0.10    1.99
   3   8  -7    2.05    2.00
   2   8  -7   12.69    2.81
   1   8  -7    6.01    2.09
   0   8  -7   76.84    5.68
  -1   8  -7   24.87    3.36
  -2   8  -7   95.91    6.68
  -2   8  -7   99.16    6.84
  -3   8  -7   73.63    6.03
  -3   8  -7   85.78    6.29
  -4   8  -7   24.47    3.93
  -5   8  -7   43.83    5.09
  -6   8  -7   42.04    5.97
  -7   8  -7    1.04    2.67
   7   7  -7    1.32    2.94
   6   7  -7   -0.53    2.45
   5   7  -7    4.70    2.70
   4   7  -7   15.51    3.29
   3   7  -7    4.99    2.30
   2   7  -7   21.78    3.27
   1   7  -7  187.91   11.19
   0   7  -7   12.51    2.51
  -1   7  -7   76.87    5.27
  -2   7  -7   26.49    2.94
  -2   7  -7   28.43    3.22
  -3   7  -7    0.79    1.38
  -3   7  -7    4.73    2.26
  -4   7  -7    5.74    2.39
  -4   7  -7    5.54    2.26
  -5   7  -7   19.42    3.74
  -6   7  -7    2.28    2.33
  -7   7  -7    0.94    2.35
   8   6  -7   10.70    4.16
   7   6  -7    1.39    2.63
   6   6  -7    7.62    3.03
   5   6  -7   41.74    4.49
   4   6  -7   32.06    4.29
   3   6  -7   15.18    2.92
  -3  -6   7   14.44    2.45
   2   6  -7   42.29    3.89
  -2  -6   7   43.78    3.69
   1   6  -7   84.14    5.94
   0   6  -7   23.96    3.14
  -1   6  -7   19.66    2.92
  -1   6  -7   14.12    2.13
  -2   6  -7    1.55    1.26
  -2   6  -7    1.65    1.75
  -3   6  -7  120.39    8.16
  -4   6  -7   34.54    4.00
  -4   6  -7   30.49    4.14
  -5   6  -7  122.05    8.75
  -5   6  -7  108.52    8.55
  -6   6  -7    6.30    2.73
  -7   6  -7    0.61    2.29
  -8   6  -7    0.35    2.36
   7   5  -7   16.46    4.05
   6   5  -7    1.76    2.52
   5   5  -7   51.58    4.98
  -5  -5   7   52.67    4.60
   4   5  -7   -0.21    1.67
  -4  -5   7    1.19    1.57
   3   5  -7    0.91    1.60
  -3  -5   7   -0.57    1.17
   2   5  -7   22.37    2.68
  -2  -5   7   21.27    2.85
   1   5  -7   94.01    6.29
   0   5  -7  141.81    8.85
  -1   5  -7   17.78    2.84
  -1   5  -7   11.39    1.82
  -2   5  -7   97.75    6.46
  -2   5  -7  103.34    6.98
  -3   5  -7   37.99    3.64
  -4   5  -7   10.56    2.57
  -4   5  -7   17.09    3.67
  -5   5  -7   72.22    7.04
  -5   5  -7   78.45    6.46
  -6   5  -7    4.96    2.40
  -7   5  -7    0.60    1.92
  -8   5  -7    1.98    2.46
   7   4  -7    7.91    3.04
   6   4  -7   16.17    3.54
  -6  -4   7    8.66    2.18
   5   4  -7  138.02    9.34
  -5  -4   7  140.85    8.58
   4   4  -7   37.47    3.81
  -4  -4   7   36.94    3.52
   3   4  -7   11.13    2.37
  -3  -4   7    7.90    2.05
   2   4  -7   23.58    2.67
  -2  -4   7   19.68    2.72
   1   4  -7  103.55    6.83
  -1  -4   7  102.83    6.76
   0   4  -7    7.74    2.00
  -1   4  -7   54.81    4.33
  -1   4  -7   51.45    3.64
  -2   4  -7    0.75    1.01
  -2   4  -7   -0.72    1.53
  -3   4  -7   -1.22    1.92
  -3   4  -7    1.99    1.25
  -4   4  -7   21.10    3.20
  -4   4  -7   13.17    4.01
  -5   4  -7   42.27    5.84
  -5   4  -7   31.51    3.79
  -6   4  -7   10.96    2.90
  -6   4  -7   10.19    4.19
  -7   4  -7    2.48    2.10
  -8   4  -7    1.07    2.16
  -7  -3   7    7.59    2.11
   6   3  -7   -0.24    1.88
  -6  -3   7    5.75    1.83
   5   3  -7   82.30    6.34
  -5  -3   7   83.15    5.72
   4   3  -7    5.35    1.96
  -4  -3   7    6.19    1.66
   3   3  -7    0.90    1.43
  -3  -3   7    1.28    1.19
   2   3  -7   39.97    3.44
  -2  -3   7   35.47    3.38
   1   3  -7    1.47    1.31
  -1  -3   7    3.24    1.48
   0   3  -7   59.57    4.48
   0   3  -7   54.19    3.37
  -1   3  -7   22.89    3.18
  -1   3  -7   22.06    2.07
  -2   3  -7   30.02    4.11
  -2   3  -7   24.19    2.62
  -3   3  -7    2.97    1.38
  -3   3  -7    6.42    2.77
  -4   3  -7   91.18    6.79
  -4   3  -7   97.38    7.49
  -5   3  -7  103.75    7.68
  -5   3  -7  107.44    8.12
  -6   3  -7   15.26    3.13
  -6   3  -7   13.61    4.06
  -7   3  -7    0.91    1.68
  -7   3  -7   -0.47    3.10
  -8   3  -7    6.66    2.79
  -8  -2   7    2.19    1.94
  -7  -2   7   30.06    3.30
  -6  -2   7    0.10    1.12
   5   2  -7    2.83    1.93
  -5  -2   7    4.23    1.50
  -4  -2   7   15.84    2.30
   3   2  -7    5.89    1.88
  -3  -2   7    4.32    1.46
   2   2  -7   26.58    2.80
   2   2  -7   26.64    2.80
  -2  -2   7   24.34    2.73
   1   2  -7    8.97    2.17
  -1  -2   7    5.59    1.66
   0   2  -7  199.23   11.74
   0  -2   7  206.09   11.85
  -1   2  -7   55.15    4.71
  -2   2  -7   34.17    3.94
  -3   2  -7   67.47    5.69
  -4   2  -7    3.61    2.56
  -5   2  -7    3.76    2.67
  -6   2  -7    0.74    2.63
  -6   2  -7    0.34    1.54
  -7   2  -7   10.11    2.92
  -7   2  -7    5.14    3.21
  -8   2  -7   11.52    3.22
  -9  -1   7    4.86    2.64
  -8  -1   7   24.25    3.74
  -7  -1   7    3.42    1.72
  -6  -1   7   71.00    5.29
   5   1  -7   65.22    5.23
  -5  -1   7   70.37    4.98
   4   1  -7  159.94    9.96
  -4  -1   7  170.19    9.55
   3   1  -7   61.43    4.68
  -3  -1   7   55.64    4.17
   2   1  -7   55.28    4.59
  -2  -1   7   57.53    4.28
   1   1  -7   21.97    2.99
  -1  -1   7   21.20    2.90
   0   1  -7   10.18    2.34
   0  -1   7   10.87    2.37
  -1   1  -7   29.74    4.09
  -2   1  -7   27.20    3.94
  -3   1  -7   69.96    5.65
  -4   1  -7  108.58    7.74
  -5   1  -7    0.51    2.15
  -6   1  -7   15.32    3.64
  -7   1  -7   -0.30    2.54
  -8   1  -7    4.48    2.51
  -8   1  -7    1.56    3.12
  -9   0   7   10.08    3.02
  -8   0   7    9.34    2.47
  -7   0   7   -0.25    1.35
  -6   0   7   -0.55    1.07
  -5   0   7   48.63    4.01
   4   0  -7   17.76    2.90
  -4   0   7   21.20    2.32
   3   0  -7    1.49    1.46
  -3   0   7    0.97    0.91
   2   0  -7    7.35    2.14
  -2   0   7    6.19    1.55
   1   0  -7    4.97    1.59
  -1   0   7    1.29    0.72
  -1   0   7    2.52    1.29
   0   0  -7   69.43    5.79
   0   0   7   86.94    5.99
  -1   0  -7  102.73    7.12
  -2   0  -7   11.87    2.71
  -3   0  -7   32.59    3.71
  -4   0  -7    5.62    2.57
  -5   0  -7   38.21    4.32
  -6   0  -7    4.60    2.76
  -7   0  -7   -1.80    2.27
  -8   0  -7    2.32    3.11
  -9   1   7    0.69    2.14
  -8   1   7    6.09    2.31
  -7   1   7   28.64    3.73
  -6   1   7    2.67    1.44
  -5   1   7   21.23    2.51
  -4   1   7   17.56    2.44
   3  -1  -7    5.81    1.89
  -3   1   7    4.45    1.31
   2  -1  -7    4.55    1.94
  -2   1   7    6.23    1.06
  -2   1   7    3.87    1.31
   1  -1  -7  138.15    8.28
  -1   1   7  129.05    7.27
  -1   1   7  119.72    7.81
   0  -1  -7   37.69    3.84
   0   1   7   33.07    2.80
   0   1   7   34.89    3.58
  -1  -1  -7   37.30    3.92
   1   1   7   49.29    4.67
  -2  -1  -7    0.34    1.79
  -3  -1  -7   34.37    3.72
  -4  -1  -7    7.46    2.54
  -5  -1  -7    3.29    2.66
  -6  -1  -7   -0.56    2.40
  -7  -1  -7    2.21    2.92
  -8  -1  -7   -1.79    2.97
  -8   2   7    2.05    1.96
  -7   2   7    0.95    1.33
  -6   2   7   25.97    2.99
  -5   2   7   24.36    2.72
  -4   2   7  181.73   10.37
  -3   2   7    3.64    1.28
   2  -2  -7   73.85    5.75
  -2   2   7   81.07    5.31
  -2   2   7   85.55    4.91
   1  -2  -7  135.46    8.81
  -1   2   7  132.74    8.17
  -1   2   7  140.98    7.85
   0   2   7   52.42    4.02
   0   2   7   58.32    4.74
  -1  -2  -7    3.51    2.07
   1   2   7    0.65    1.53
  -2  -2  -7    0.76    2.00
  -3  -2  -7   46.97    4.53
  -4  -2  -7   24.34    3.94
  -5  -2  -7   17.49    3.71
  -6  -2  -7   14.08    3.63
  -7  -2  -7   10.60    3.85
  -8   3   7   29.88    4.19
  -7   3   7   10.11    2.44
  -6   3   7    7.35    1.96
  -5   3   7   55.74    4.43
  -4   3   7    3.52    1.37
  -3   3   7   10.68    1.88
  -3   3   7    9.20    1.42
   2  -3  -7   31.66    3.24
  -2   3   7   25.72    2.58
  -2   3   7   26.58    2.37
   1  -3  -7   18.17    3.16
  -1   3   7   20.42    2.30
  -1   3   7   17.01    2.02
   0  -3  -7  190.98   11.25
   0   3   7  191.97   11.03
  -1  -3  -7    5.10    2.41
   1   3   7    6.89    1.83
   1   3   7    7.84    2.79
  -2  -3  -7   67.83    5.49
  -3  -3  -7   46.98    4.59
  -4  -3  -7   31.36    3.81
  -5  -3  -7   49.03    5.01
  -6  -3  -7    0.17    2.42
  -7  -3  -7   -2.25    2.70
  -8   4   7    0.46    1.92
  -7   4   7   38.65    3.94
  -6   4   7    1.01    1.40
  -5   4   7   24.53    2.76
  -4   4   7   29.97    2.62
  -4   4   7   32.78    3.08
  -3   4   7   19.90    2.04
  -3   4   7   21.31    2.66
  -2   4   7   12.01    1.81
  -2   4   7   10.39    1.87
   1  -4  -7   97.54    6.52
  -1   4   7   89.50    5.99
   0  -4  -7   10.71    2.70
   0   4   7   12.32    2.56
   0   4   7   15.30    2.49
  -1  -4  -7   37.97    3.97
   1   4   7   49.56    4.85
   1   4   7   36.16    3.75
  -2  -4  -7   13.23    3.13
   2   4   7   14.13    2.83
  -3  -4  -7   20.70    3.67
  -4  -4  -7    8.64    2.97
  -5  -4  -7   -0.24    2.35
  -6  -4  -7    2.52    2.82
  -7  -4  -7    7.03    3.67
  -8   5   7    1.27    2.01
  -7   5   7   -0.05    1.47
  -6   5   7   -1.49    1.18
  -5   5   7   -0.11    1.17
  -4   5   7    5.94    1.74
  -4   5   7    5.56    1.37
  -3   5   7   28.90    2.90
  -3   5   7   30.47    2.74
  -2   5   7    6.39    1.55
  -2   5   7    6.42    1.57
  -1   5   7  140.06    8.11
  -1   5   7  130.54    8.27
   0  -5  -7    5.57    2.49
   0   5   7    7.55    2.28
   0   5   7    7.55    2.04
  -1  -5  -7    0.50    1.62
   1   5   7    4.68    1.93
  -2  -5  -7   19.21    3.55
   2   5   7   24.71    3.82
  -3  -5  -7   17.79    3.46
  -4  -5  -7    4.49    2.66
  -5  -5  -7   -0.52    2.38
  -6  -5  -7   -2.07    2.50
  -7   6   7   19.36    3.31
  -6   6   7    6.31    2.03
  -5   6   7   30.22    3.16
  -4   6   7   17.77    2.60
  -4   6   7   15.21    2.25
  -3   6   7    2.47    1.26
  -3   6   7    4.64    1.55
  -2   6   7   28.45    2.79
  -1   6   7   23.67    2.65
  -1   6   7   21.36    2.95
   0   6   7   47.44    4.44
  -1  -6  -7    0.59    2.24
   1   6   7    0.54    1.58
  -2  -6  -7   22.06    3.75
   2   6   7   25.66    4.12
  -3  -6  -7   52.82    5.08
  -4  -6  -7   -0.65    2.29
  -5  -6  -7   59.20    5.89
  -6  -6  -7   -0.89    2.71
  -7   7   7    3.85    2.08
  -6   7   7    0.84    1.52
  -5   7   7    7.61    1.98
  -5   7   7    4.33    1.51
  -4   7   7    0.92    1.32
  -4   7   7    2.56    1.35
  -3   7   7    2.76    1.41
  -3   7   7    1.67    1.25
  -2   7   7    0.23    1.15
  -1   7   7  103.39    7.20
   0   7   7    0.91    1.67
  -1  -7  -7   74.90    5.84
   1   7   7   63.64    6.08
  -2  -7  -7   -0.93    2.18
   2   7   7   -0.67    1.95
  -3  -7  -7   -0.05    2.42
   3   7   7    0.12    2.24
  -4  -7  -7    3.47    2.72
  -5  -7  -7   -2.67    2.37
  -6   8   7    0.32    1.70
  -5   8   7   15.09    2.57
  -5   8   7   19.55    2.96
  -4   8   7    2.07    1.46
  -4   8   7    3.95    1.65
  -3   8   7   -0.15    1.37
  -2   8   7    9.33    2.16
  -1   8   7   25.03    3.56
   0   8   7   39.21    4.40
   1   8   7    2.08    2.32
  -2  -8  -7   18.63    3.82
   2   8   7   22.77    4.50
  -3  -8  -7   -3.26    2.16
   3   8   7    0.63    2.45
  -4  -8  -7   13.28    3.64
  -5  -8  -7    7.66    3.63
  -6   9   7    5.00    2.17
  -5   9   7   11.05    2.38
  -4   9   7   14.50    2.66
  -3   9   7    0.92    1.37
  -2   9   7   39.84    4.08
  -1   9   7   -0.21    1.64
   0   9   7   17.40    3.54
   1   9   7    1.08    2.33
   2   9   7    9.84    3.40
  -3  -9  -7   14.72    3.92
   3   9   7   11.12    3.94
  -4  -9  -7   -2.18    2.69
  -4  10   7    6.41    2.12
  -3  10   7   -1.05    1.46
  -2  10   7    4.21    2.08
  -1  10   7   12.13    2.97
   0  10   7    1.59    2.29
   1  10   7    7.91    3.32
   2  10   7    1.24    3.08
   3  10   7    3.02    3.45
  -3  11   7   -1.39    1.59
  -2  11   7    0.00    1.92
  -1  11   7    1.01    2.10
   0  11   7    7.56    3.10
   1  11   7    1.78    2.92
   2  11   7    4.68    3.44
   1  13  -8    2.09    2.89
   2  12  -8    3.67    3.06
   1  12  -8   32.91    4.98
   0  12  -8    1.71    2.48
   3  11  -8   14.74    3.94
   2  11  -8    2.15    2.71
   1  11  -8    4.83    2.68
   0  11  -8    2.00    2.23
  -1  11  -8    7.75    2.83
  -5  11  -8    0.22    2.72
   4  10  -8    0.31    2.58
   3  10  -8   29.96    4.79
   2  10  -8    6.08    2.71
   1  10  -8    0.68    2.07
   0  10  -8   14.20    3.21
  -1  10  -8    0.02    1.96
  -2  10  -8   33.85    4.56
  -4  10  -8    9.99    3.05
  -5  10  -8    8.50    3.37
  -6  10  -8    1.39    3.10
   5   9  -8   10.29    3.81
   4   9  -8   37.57    5.33
   3   9  -8    3.91    2.64
   2   9  -8   73.54    6.06
   1   9  -8    1.03    1.97
   0   9  -8   55.17    4.87
  -1   9  -8    2.85    1.99
  -2   9  -8   -0.19    1.76
  -4   9  -8    0.20    2.03
  -5   9  -8   86.06    7.90
  -6   9  -8    8.18    3.69
   6   8  -8    2.95    3.28
   5   8  -8    3.63    2.99
   4   8  -8    0.35    2.26
   3   8  -8   -0.35    2.05
   2   8  -8   17.65    3.26
   1   8  -8   17.17    3.14
   0   8  -8    5.64    2.18
  -1   8  -8   77.99    5.90
  -2   8  -8    8.14    2.57
  -3   8  -8    3.83    2.08
  -3   8  -8    2.82    2.42
  -4   8  -8    0.77    1.92
  -5   8  -8   16.72    3.89
  -6   8  -8    0.38    2.54
  -7   8  -8    2.52    3.02
   7   7  -8    3.81    3.58
   6   7  -8    1.35    3.04
   5   7  -8   69.46    6.47
   4   7  -8    5.92    2.74
   3   7  -8   83.74    6.59
   2   7  -8   17.34    3.16
   1   7  -8    3.12    1.94
   0   7  -8    8.46    2.37
  -1   7  -8   16.51    3.14
  -2   7  -8   15.38    3.26
  -3   7  -8    1.42    1.59
  -3   7  -8    3.66    2.43
  -4   7  -8    9.19    2.82
  -4   7  -8   11.54    3.32
  -5   7  -8   46.98    5.93
  -6   7  -8    7.98    3.33
  -7   7  -8    6.92    3.43
   7   6  -8    2.00    3.26
   6   6  -8    8.90    3.50
   5   6  -8   34.67    5.04
   4   6  -8    4.84    2.60
  -4  -6   8    2.79    1.87
   3   6  -8   46.37    4.50
  -3  -6   8   46.56    4.16
   2   6  -8   27.51    3.78
  -2  -6   8   25.07    2.97
   1   6  -8   23.94    2.91
   0   6  -8    0.73    1.57
  -1   6  -8  199.16   12.12
  -2   6  -8    0.78    1.30
  -2   6  -8    1.83    1.87
  -3   6  -8   10.95    2.62
  -3   6  -8   15.94    3.29
  -4   6  -8    1.91    2.31
  -4   6  -8    1.90    1.84
  -5   6  -8   28.64    4.58
  -5   6  -8   22.38    4.35
  -6   6  -8    9.67    3.32
  -7   6  -8    9.72    3.56
   7   5  -8    0.12    3.12
   6   5  -8    1.64    2.86
   5   5  -8    1.42    2.44
  -5  -5   8    1.23    1.85
   4   5  -8    2.13    2.10
  -4  -5   8    0.60    1.50
   3   5  -8   17.86    3.25
  -3  -5   8   17.68    2.83
   2   5  -8   15.71    2.95
  -2  -5   8   15.88    2.69
   1   5  -8   36.40    3.55
   0   5  -8    0.75    1.51
  -1   5  -8  117.71    8.03
  -2   5  -8   24.26    2.72
  -2   5  -8   24.84    3.74
  -3   5  -8    1.42    1.44
  -3   5  -8    3.02    2.26
  -4   5  -8    0.71    2.43
  -4   5  -8    1.83    1.68
  -5   5  -8    6.61    2.55
  -5   5  -8    9.94    3.84
  -6   5  -8    6.08    2.78
  -6   5  -8   14.42    4.72
  -7   5  -8   25.95    4.72
  -8   5  -8    2.98    2.90
   6   4  -8    4.00    2.99
  -6  -4   8    2.42    1.70
   5   4  -8   44.61    4.84
  -5  -4   8   50.02    4.41
   4   4  -8   59.06    5.26
  -4  -4   8   58.86    4.91
   3   4  -8   79.82    6.19
  -3  -4   8   80.95    5.91
   2   4  -8   29.95    3.21
  -2  -4   8   27.82    3.10
   1   4  -8    3.80    1.85
  -1  -4   8    1.96    1.37
   0   4  -8   36.78    3.75
  -1   4  -8   21.28    3.28
  -2   4  -8    1.34    1.26
  -2   4  -8    0.63    1.86
  -3   4  -8   15.05    3.64
  -3   4  -8   17.29    2.80
  -4   4  -8   20.36    3.26
  -4   4  -8    8.91    3.93
  -5   4  -8   22.48    3.77
  -5   4  -8   23.13    5.14
  -6   4  -8   14.03    3.31
  -6   4  -8   20.40    5.06
  -7   4  -8   46.08    5.30
  -8   4  -8   20.04    4.34
  -7  -3   8   15.45    2.99
   6   3  -8    0.27    2.33
  -6  -3   8    1.51    1.51
   5   3  -8    6.44    2.72
  -5  -3   8    8.27    2.06
   4   3  -8    1.77    1.92
  -4  -3   8    2.67    1.55
   3   3  -8    1.29    1.66
  -3  -3   8    0.58    1.21
   2   3  -8    9.68    2.29
  -2  -3   8    7.74    2.00
   1   3  -8   65.98    5.38
  -1  -3   8   71.03    5.32
   0   3  -8  113.63    7.61
  -1   3  -8  344.00   17.71
  -1   3  -8  334.12   18.88
  -2   3  -8   73.84    6.24
  -2   3  -8   82.04    5.62
  -3   3  -8  116.95    8.87
  -4   3  -8   93.75    7.18
  -4   3  -8  103.62    8.10
  -5   3  -8    4.13    2.08
  -5   3  -8    5.49    3.32
  -6   3  -8   23.12    4.66
  -6   3  -8   14.92    3.28
  -7   3  -8   -0.13    1.80
  -7   3  -8    0.52    3.44
  -8   3  -8    2.97    2.52
  -8  -2   8   -0.80    1.78
  -7  -2   8    3.37    1.94
  -6  -2   8    4.34    1.77
   5   2  -8    9.59    2.67
  -5  -2   8   12.45    2.33
   4   2  -8    0.90    1.56
  -4  -2   8    8.47    1.94
   3   2  -8   80.47    6.13
  -3  -2   8   79.63    5.71
   2   2  -8   17.00    3.04
  -2  -2   8   16.33    2.70
   1   2  -8    5.63    2.09
  -1  -2   8    2.14    1.39
   0   2  -8   48.57    4.31
   0  -2   8   50.36    4.56
  -1   2  -8   80.00    6.21
  -2   2  -8   20.81    4.12
  -3   2  -8    0.98    2.67
  -4   2  -8    0.37    2.60
  -5   2  -8   -0.38    2.61
  -6   2  -8    0.37    2.86
  -6   2  -8    0.03    1.59
  -7   2  -8   21.81    3.95
  -7   2  -8   20.77    4.90
  -8   2  -8    0.81    1.96
  -8   2  -8    2.80    3.61
  -8  -1   8    0.53    1.83
  -7  -1   8   18.20    3.09
  -6  -1   8    0.95    1.34
  -5  -1   8    0.29    1.13
   4   1  -8    8.43    2.47
  -4  -1   8    7.51    1.85
   3   1  -8    0.69    1.53
  -3  -1   8    2.14    1.23
   2   1  -8    6.66    2.45
  -2  -1   8    7.09    1.91
   1   1  -8   98.12    6.72
  -1  -1   8   90.49    6.50
   0   1  -8   84.08    6.03
   0  -1   8   74.53    5.98
  -1   1  -8   30.20    4.46
  -2   1  -8    5.63    2.84
  -3   1  -8    5.15    2.78
  -4   1  -8   -1.64    2.21
  -5   1  -8   12.61    3.48
  -6   1  -8    6.53    3.35
  -7   1  -8   -2.98    2.72
  -8   1  -8    7.42    2.89
  -8   1  -8    0.86    3.44
  -8   0   8   18.72    3.48
  -7   0   8    1.95    1.74
  -6   0   8   13.39    2.57
  -5   0   8   13.67    2.39
   4   0  -8   16.35    3.17
  -4   0   8   18.08    2.61
   3   0  -8   -0.09    1.68
  -3   0   8    4.02    1.49
   2   0  -8    9.90    2.64
  -2   0   8    8.03    1.93
   1   0  -8    3.98    1.74
  -1   0   8    3.40    1.53
   0   0  -8  158.53   10.39
   0   0   8  170.41   10.37
  -1   0  -8  129.81    8.89
  -2   0  -8  226.44   13.60
  -3   0  -8    0.74    2.22
  -4   0  -8  149.30   10.03
  -5   0  -8   20.50    4.12
  -6   0  -8   11.88    3.61
  -7   0  -8   -0.82    2.80
  -8   1   8    4.86    2.35
  -7   1   8    1.73    1.70
  -6   1   8    1.12    1.25
  -5   1   8    3.45    1.60
  -4   1   8   47.88    3.98
   3  -1  -8   66.31    5.53
  -3   1   8   67.61    4.88
   2  -1  -8   61.48    5.34
  -2   1   8   69.91    4.93
   1  -1  -8   13.29    2.40
  -1   1   8   20.96    2.97
   0  -1  -8  121.04    9.23
   0   1   8  169.05    9.56
  -1  -1  -8   74.28    5.98
  -2  -1  -8   11.09    3.08
  -3  -1  -8    7.42    2.94
  -4  -1  -8    0.61    2.26
  -5  -1  -8    1.06    2.53
  -6  -1  -8    2.88    2.74
  -7  -1  -8    0.81    3.05
  -8   2   8   35.12    4.10
  -7   2   8    6.15    2.11
  -6   2   8   29.44    3.29
  -5   2   8   10.79    2.27
  -4   2   8   38.21    3.54
  -3   2   8    1.73    1.22
   2  -2  -8    2.82    1.91
  -2   2   8    2.38    1.29
   1  -2  -8  228.76   12.78
  -1   2   8  203.46   11.57
  -1   2   8  202.75   12.08
   0  -2  -8   -0.35    2.15
   0   2   8    1.08    1.58
   0   2   8    1.91    1.22
  -1  -2  -8   50.38    4.73
  -2  -2  -8    0.64    2.24
  -3  -2  -8    7.49    2.97
  -4  -2  -8    1.65    2.45
  -5  -2  -8   19.96    4.19
  -6  -2  -8   -0.27    2.57
  -7  -2  -8    5.49    3.71
  -8   3   8    5.62    2.45
  -7   3   8    1.20    1.70
  -6   3   8   16.72    2.82
  -5   3   8   86.18    6.10
  -4   3   8   21.15    2.89
  -3   3   8    3.94    1.49
  -2   3   8   -0.09    1.04
  -2   3   8   -0.03    0.91
   1  -3  -8   11.65    3.05
  -1   3   8    7.34    2.01
  -1   3   8    7.13    1.71
   0  -3  -8    1.40    2.03
   0   3   8    1.21    1.29
   0   3   8    0.70    1.59
  -1  -3  -8   46.96    4.68
   1   3   8   62.80    5.73
   1   3   8   51.02    4.39
  -2  -3  -8   19.42    3.75
  -3  -3  -8   -2.38    2.37
  -4  -3  -8   15.54    3.67
  -5  -3  -8   20.82    4.25
  -6  -3  -8    7.43    3.61
  -7  -3  -8   -1.06    3.27
  -8   4   8    4.27    2.31
  -7   4   8    3.00    1.94
  -6   4   8    1.21    1.55
  -5   4   8   35.00    3.50
  -4   4   8    2.64    1.52
  -3   4   8   74.57    5.29
  -2   4   8   21.23    2.83
  -2   4   8   20.53    2.28
   1  -4  -8    2.51    2.63
  -1   4   8    1.69    1.31
  -1   4   8    2.88    1.46
   0  -4  -8   21.81    3.73
   0   4   8   21.92    3.43
   0   4   8   17.24    2.85
  -1  -4  -8   39.67    4.35
   1   4   8   56.60    5.50
   1   4   8   38.66    4.02
  -2  -4  -8    4.93    2.73
  -3  -4  -8   -2.89    2.11
  -4  -4  -8   -1.21    2.28
  -5  -4  -8    1.93    2.68
  -6  -4  -8    0.01    2.72
  -7   5   8    3.88    1.90
  -6   5   8    5.65    2.02
  -5   5   8   25.63    3.33
  -4   5   8   24.35    2.81
  -3   5   8   12.58    2.08
  -3   5   8   10.54    2.19
  -2   5   8   11.74    2.12
  -2   5   8   15.39    2.40
  -1   5   8    5.77    1.75
  -1   5   8    6.38    2.00
   0  -5  -8   19.36    3.73
   0   5   8   35.62    3.85
   0   5   8   29.52    3.39
  -1  -5  -8   -0.15    2.01
   1   5   8    1.70    1.84
  -2  -5  -8    1.88    2.80
   2   5   8    5.73    2.41
  -3  -5  -8   -0.51    2.42
  -4  -5  -8    2.70    2.75
  -5  -5  -8   71.03    6.62
  -6  -5  -8    1.14    3.06
  -7   6   8    1.61    1.91
  -6   6   8    0.11    1.41
  -5   6   8   27.13    3.54
  -4   6   8    0.99    1.44
  -3   6   8   13.85    2.27
  -3   6   8   12.22    2.29
  -2   6   8    0.07    1.07
  -2   6   8    1.01    1.31
  -1   6   8   17.69    2.85
   0   6   8    0.51    1.73
  -1  -6  -8  100.08    7.32
   1   6   8   93.37    7.44
  -2  -6  -8   -0.84    2.40
   2   6   8    0.92    2.02
  -3  -6  -8   -0.08    2.45
  -4  -6  -8   -0.38    2.43
  -5  -6  -8   15.44    4.12
  -6   7   8    2.36    1.82
  -5   7   8   34.54    3.58
  -4   7   8    5.82    1.75
  -4   7   8    5.79    1.99
  -3   7   8   50.65    4.23
  -3   7   8   52.60    4.35
  -2   7   8   12.79    2.47
  -1   7   8    1.88    1.66
   0   7   8    1.39    2.02
   1   7   8   32.08    4.65
  -2  -7  -8    6.10    3.05
   2   7   8    5.38    2.78
  -3  -7  -8   -1.48    2.51
  -4  -7  -8   15.04    4.05
  -5  -7  -8   -0.43    2.97
  -6   8   8    3.75    2.11
  -5   8   8   16.63    2.94
  -4   8   8   -0.72    1.29
  -4   8   8   -0.83    1.35
  -3   8   8   24.48    3.34
  -2   8   8    5.67    2.09
  -1   8   8   -0.68    1.67
   0   8   8   12.63    3.25
   1   8   8   10.50    3.12
   2   8   8    3.88    2.73
  -3  -8  -8   -1.20    2.76
  -4  -8  -8   -2.04    2.81
  -4   9   8    0.82    1.61
  -3   9   8    0.29    1.53
  -2   9   8    0.83    1.69
  -1   9   8    1.09    2.09
   0   9   8    0.43    2.21
   1   9   8   13.22    3.74
   2   9   8    2.39    2.93
   3   9   8    0.57    2.78
  -4  -9  -8   -2.57    2.97
  -4  10   8    7.32    2.40
  -3  10   8    9.01    2.54
  -2  10   8    7.57    2.51
  -1  10   8    4.20    2.53
   0  10   8   -0.56    2.31
   1  10   8    1.55    2.98
   2  10   8    4.14    3.31
  -1  11   8    0.03    2.31
   0  11   8    6.40    3.35
   1  12  -9    6.80    3.25
  -1  12  -9   17.89    4.10
   3  11  -9    7.43    3.62
   2  11  -9    0.16    2.54
   1  11  -9    1.75    2.56
   0  11  -9   10.49    3.32
  -1  11  -9    5.28    2.80
   4  10  -9    0.20    2.96
   3  10  -9   10.04    3.44
   2  10  -9    5.89    2.95
   1  10  -9   15.90    3.61
   0  10  -9   -1.54    2.13
  -1  10  -9    6.28    2.87
  -2  10  -9    2.83    2.54
   5   9  -9    8.45    4.06
   4   9  -9   -1.05    2.71
   3   9  -9    2.88    2.72
   2   9  -9    3.38    2.62
   1   9  -9   12.53    3.15
   0   9  -9    3.70    2.30
  -1   9  -9   94.88    7.16
  -2   9  -9    9.78    2.88
  -3   9  -9  117.71    8.81
  -5   9  -9    1.77    3.00
  -6   9  -9    1.27    3.08
   6   8  -9   18.77    5.03
   5   8  -9   -0.28    3.04
   4   8  -9   19.60    4.24
   3   8  -9   33.45    4.86
   2   8  -9   17.62    3.65
   1   8  -9   19.68    3.48
   0   8  -9    0.13    1.95
  -1   8  -9    8.64    2.69
  -2   8  -9    3.20    2.51
  -3   8  -9   13.48    3.59
  -4   8  -9    5.55    3.25
  -5   8  -9   17.15    4.27
  -6   8  -9   11.22    4.14
   6   7  -9   -0.35    3.35
   5   7  -9    2.81    3.11
   4   7  -9    0.14    2.57
   3   7  -9   -0.22    2.03
  -3  -7   9    1.05    1.58
   2   7  -9   -0.03    1.84
   1   7  -9   40.66    4.18
   0   7  -9    3.35    2.04
  -1   7  -9   37.55    4.10
  -2   7  -9    8.55    3.10
  -3   7  -9   14.00    3.68
  -4   7  -9    3.76    2.69
  -4   7  -9    0.31    1.84
  -5   7  -9   26.24    4.85
  -6   7  -9    4.98    3.08
  -7   7  -9   37.61    6.32
   7   6  -9    5.78    4.07
   6   6  -9    1.53    3.23
   5   6  -9    0.34    2.81
   4   6  -9    0.99    2.31
  -4  -6   9    0.62    1.59
   3   6  -9    0.49    2.07
  -3  -6   9    0.72    1.62
   2   6  -9    7.86    2.57
  -2  -6   9    5.72    2.24
   1   6  -9   16.19    2.99
   0   6  -9   10.58    2.82
  -1   6  -9  193.60   12.19
  -2   6  -9    9.32    2.88
  -3   6  -9  167.44   11.19
  -3   6  -9  168.41   10.73
  -4   6  -9   10.98    2.95
  -4   6  -9   18.86    4.03
  -5   6  -9   21.54    4.40
  -5   6  -9   21.08    4.21
  -6   6  -9    8.83    3.53
  -7   6  -9   32.68    5.80
   6   5  -9   10.25    4.06
   5   5  -9    5.17    3.31
  -5  -5   9    5.88    2.38
   4   5  -9   10.52    3.27
  -4  -5   9    7.18    2.34
   3   5  -9  235.12   14.55
  -3  -5   9  244.37   13.83
   2   5  -9   28.29    3.96
  -2  -5   9   19.00    3.13
   1   5  -9  163.82   10.42
   0   5  -9    0.83    1.88
  -1   5  -9   20.13    3.57
  -2   5  -9   -0.48    1.88
  -3   5  -9   53.41    4.94
  -3   5  -9   58.17    5.53
  -4   5  -9    2.31    2.02
  -4   5  -9    1.75    2.62
  -5   5  -9    2.88    3.23
  -5   5  -9   -0.67    1.99
  -6   5  -9    4.26    3.90
  -6   5  -9   -1.67    1.98
  -7   5  -9   44.79    6.27
   6   4  -9    0.64    3.04
  -6  -4   9    1.68    1.97
   5   4  -9   42.55    5.06
  -5  -4   9   40.65    4.27
   4   4  -9    8.13    2.89
  -4  -4   9    9.60    2.55
   3   4  -9    5.01    2.49
  -3  -4   9    2.16    1.75
   2   4  -9    8.21    2.46
  -2  -4   9    8.64    2.19
   1   4  -9  119.06    8.37
  -1  -4   9  121.70    8.10
   0   4  -9    4.20    2.28
  -1   4  -9    3.16    2.15
  -2   4  -9    1.77    2.12
  -3   4  -9   25.87    4.54
  -3   4  -9   24.84    3.57
  -4   4  -9   17.31    4.58
  -4   4  -9   15.35    3.11
  -5   4  -9    8.20    4.17
  -5   4  -9    2.72    2.33
  -6   4  -9   10.05    3.11
  -6   4  -9    6.29    4.38
  -7   4  -9   12.70    5.33
  -7   4  -9   14.90    3.81
  -8  -3   9    2.07    2.19
  -7  -3   9    8.82    2.77
  -6  -3   9    3.48    2.01
   5   3  -9    7.34    3.09
  -5  -3   9    9.65    2.41
   4   3  -9   26.67    4.31
  -4  -3   9   25.51    3.61
   3   3  -9   43.19    4.60
  -3  -3   9   47.57    4.34
   2   3  -9   17.85    3.30
  -2  -3   9   19.64    3.05
   1   3  -9   34.35    3.89
  -1  -3   9   36.60    3.73
   0   3  -9   48.35    4.51
  -1   3  -9   40.06    4.14
  -2   3  -9    3.63    2.50
  -2   3  -9    0.59    1.37
  -3   3  -9   24.34    4.85
  -4   3  -9   10.28    4.04
  -4   3  -9    4.19    1.98
  -5   3  -9    1.92    3.16
  -5   3  -9    1.15    2.00
  -6   3  -9   26.03    5.34
  -6   3  -9   21.20    3.94
  -7   3  -9    3.89    2.53
  -7   3  -9    2.92    3.91
  -8  -2   9    6.13    2.60
  -7  -2   9    4.47    2.21
  -6  -2   9    8.40    2.30
   5   2  -9    6.90    3.00
  -5  -2   9    7.83    2.21
  -4  -2   9   25.21    3.39
   3   2  -9  242.64   14.32
  -3  -2   9  226.21   13.43
   2   2  -9    2.37    2.06
  -2  -2   9    1.80    1.42
   1   2  -9  109.93    8.09
  -1  -2   9  120.55    7.86
   0   2  -9   34.93    3.77
   0  -2   9   36.92    4.03
  -1   2  -9   22.77    3.90
  -2   2  -9   15.26    4.03
  -3   2  -9   57.36    5.93
  -4   2  -9   -1.31    2.95
  -5   2  -9   13.39    4.01
  -6   2  -9    4.23    2.34
  -6   2  -9    0.79    3.37
  -7   2  -9    5.97    3.87
  -7   2  -9    7.49    2.78
  -8   2  -9   -0.08    2.05
  -8  -1   9   -2.03    1.80
  -7  -1   9   56.69    5.09
  -6  -1   9    6.81    2.12
  -5  -1   9    0.93    1.37
   4   1  -9   57.19    5.61
  -4  -1   9   66.99    5.07
   3   1  -9    4.57    2.30
  -3  -1   9    6.45    2.03
   2   1  -9   24.91    4.09
  -2  -1   9   27.49    3.19
   1   1  -9   72.06    5.83
  -1  -1   9   70.86    5.57
   0   1  -9   25.89    3.91
   0  -1   9   24.94    3.79
  -1   1  -9   22.14    4.23
  -2   1  -9    5.19    3.22
  -3   1  -9   24.67    4.68
  -4   1  -9    6.02    3.30
  -5   1  -9   10.16    3.81
  -6   1  -9   31.53    5.38
  -7   1  -9   -0.06    3.08
  -8   0   9    0.84    2.02
  -7   0   9    4.64    2.08
  -6   0   9    8.93    2.31
  -5   0   9   45.88    4.14
  -4   0   9   27.51    3.09
   3   0  -9   -0.20    2.02
  -3   0   9    2.18    1.47
   2   0  -9   57.96    5.67
  -2   0   9   78.10    5.56
   1   0  -9   14.68    2.95
  -1   0   9   12.08    2.59
   0   0  -9  100.71    7.52
   0   0   9  103.71    7.45
  -1   0  -9   20.88    4.31
  -2   0  -9   48.98    5.17
  -3   0  -9    3.18    2.91
  -4   0  -9    7.13    3.25
  -5   0  -9   12.41    3.75
  -6   0  -9    0.68    2.94
  -7   0  -9   -3.98    2.88
  -8   1   9    7.42    2.65
  -7   1   9   -0.26    1.62
  -6   1   9   11.60    2.57
  -5   1   9    8.57    2.19
  -4   1   9    9.71    2.25
  -3   1   9  108.15    7.18
   2  -1  -9    3.15    2.30
  -2   1   9    2.85    1.62
  -1   1   9   23.97    3.45
   0  -1  -9   13.69    3.66
   0   1   9   17.12    3.27
  -1  -1  -9   19.54    4.28
  -2  -1  -9   29.09    4.67
  -3  -1  -9   14.18    3.73
  -4  -1  -9    0.37    2.74
  -5  -1  -9    6.33    3.09
  -6  -1  -9   -1.14    2.92
  -7  -1  -9    5.07    3.84
  -8   2   9    3.31    2.30
  -7   2   9   22.24    3.62
  -6   2   9    1.99    1.62
  -5   2   9    1.25    1.52
  -4   2   9   16.81    2.78
  -3   2   9   40.14    3.87
   2  -2  -9   32.21    3.84
  -2   2   9   28.96    3.29
   1  -2  -9    4.80    2.36
  -1   2   9    0.98    1.56
   0  -2  -9   13.21    3.80
   0   2   9   21.23    2.46
   0   2   9   26.78    3.81
  -1  -2  -9   96.96    7.53
   1   2   9  104.28    8.15
  -2  -2  -9    3.22    2.86
  -4  -2  -9    2.57    2.84
  -5  -2  -9   -2.27    2.55
  -6  -2  -9   10.63    3.83
  -8   3   9    7.50    2.75
  -7   3   9    1.80    1.86
  -6   3   9    2.77    1.70
  -5   3   9   15.91    2.82
  -4   3   9    1.83    1.41
  -3   3   9    4.95    1.81
  -2   3   9   12.35    2.49
   1  -3  -9    1.11    2.50
  -1   3   9    3.07    1.88
   0   3   9   72.65    5.60
   0   3   9   52.72    4.59
  -1  -3  -9   89.29    7.04
   1   3   9   92.99    7.70
  -2  -3  -9   81.39    6.79
  -3  -3  -9    3.01    2.86
  -4  -3  -9   12.19    3.63
  -5  -3  -9   -0.64    2.67
  -6  -3  -9    2.15    3.32
  -7   4   9    1.09    1.86
  -6   4   9    4.21    2.03
  -5   4   9    3.59    1.84
  -4   4   9   17.31    2.81
  -3   4   9  100.32    6.83
  -2   4   9    4.45    1.81
  -1   4   9    3.48    1.66
  -1   4   9    3.44    1.89
   0  -4  -9   -0.37    2.65
   0   4   9    0.58    1.37
   0   4   9    0.23    1.67
  -1  -4  -9    2.00    2.76
   1   4   9    6.79    2.18
   1   4   9    7.39    3.23
  -2  -4  -9    3.42    3.05
  -3  -4  -9    0.13    2.59
  -4  -4  -9   -1.88    2.50
  -5  -4  -9    3.95    3.24
  -6  -4  -9    0.48    3.18
  -7   5   9   40.69    4.32
  -6   5   9    0.68    1.62
  -5   5   9    1.51    1.69
  -4   5   9    0.35    1.44
  -3   5   9   16.67    2.74
  -2   5   9    1.95    1.65
  -1   5   9   21.56    3.23
   0   5   9    1.58    1.75
  -1  -5  -9   48.20    4.99
  -2  -5  -9   -0.31    2.60
  -3  -5  -9   80.28    6.93
  -4  -5  -9    3.25    2.96
  -5  -5  -9    3.50    3.23
  -6   6   9    0.57    1.73
  -5   6   9    0.87    1.75
  -4   6   9    1.59    1.69
  -3   6   9   33.26    3.52
  -2   6   9    1.24    1.45
  -2   6   9    0.75    1.53
  -1   6   9   17.24    3.08
   0   6   9    2.41    2.00
  -1  -6  -9    5.57    3.17
   1   6   9    6.64    2.65
  -2  -6  -9    5.53    3.23
   2   6   9    5.12    2.70
  -3  -6  -9    0.10    2.72
  -4  -6  -9   -1.73    2.88
  -5  -6  -9    0.59    3.24
  -6   7   9    0.99    1.94
  -5   7   9    3.13    2.00
  -4   7   9   -0.11    1.55
  -3   7   9    6.90    2.07
  -2   7   9   -0.49    1.55
  -1   7   9    3.48    2.01
   0   7   9   15.30    3.35
   1   7   9   11.77    3.28
  -2  -7  -9   -1.46    2.49
   2   7   9   -0.63    2.08
  -3  -7  -9   -0.77    2.90
  -4  -7  -9    3.78    3.36
  -5   8   9   -1.55    1.69
  -3   8   9    3.44    2.08
  -2   8   9    0.73    1.75
  -1   8   9    1.29    2.02
   0   8   9   17.52    3.62
   1   8   9   19.01    3.98
   2   8   9    9.86    3.43
  -3  -8  -9   16.31    4.45
  -4  -8  -9    9.64    4.15
  -2   9   9    1.31    1.98
  -1   9   9   22.19    4.07
   0   9   9   10.06    3.30
   1   9   9    1.52    2.64
   2   9   9    4.55    3.43
  -2  10   9   -1.12    1.97
  -1  10   9    4.04    2.73
   0  10   9    5.11    2.87
   1  10   9    4.48    3.22
   0  12 -10    5.64    3.42
  -1  12 -10    4.97    3.28
   2  11 -10   38.40    5.82
   1  11 -10    6.65    3.40
   0  11 -10   20.46    4.28
  -1  11 -10    5.61    3.15
  -2  11 -10    4.98    3.20
   3  10 -10    9.11    3.81
   2  10 -10   -0.41    2.61
   1  10 -10   35.85    5.25
   0  10 -10    2.51    2.65
  -1  10 -10    5.24    2.97
  -2  10 -10    8.26    3.18
   4   9 -10   -1.88    2.84
   3   9 -10    7.76    3.42
   2   9 -10    3.89    2.75
   1   9 -10   31.82    4.72
   0   9 -10    0.82    2.39
  -1   9 -10    4.54    2.60
  -2   9 -10    0.12    2.45
  -3   9 -10    4.28    3.29
   5   8 -10    4.73    3.86
   4   8 -10    3.70    3.36
   3   8 -10   32.87    5.22
   2   8 -10    9.28    3.14
   1   8 -10   16.06    3.58
   0   8 -10   28.38    4.30
  -1   8 -10   13.58    3.28
  -2   8 -10   21.68    4.24
  -3   8 -10   18.41    4.39
  -4   8 -10    3.83    3.56
  -6   8 -10    1.25    3.27
   6   7 -10   12.41    4.91
   5   7 -10    1.23    3.33
   4   7 -10    2.99    3.05
   3   7 -10    0.12    2.37
  -3  -7  10    1.77    1.91
   2   7 -10    5.45    2.67
   1   7 -10   19.28    3.60
   0   7 -10    6.42    2.50
  -1   7 -10    4.33    2.59
  -2   7 -10   19.12    4.08
  -3   7 -10   74.28    6.90
  -4   7 -10   29.65    5.27
  -5   7 -10   17.21    4.46
  -6   7 -10   -1.18    2.52
   6   6 -10   11.11    4.90
   5   6 -10   12.95    4.48
   4   6 -10    0.79    2.83
  -4  -6  10    2.61    2.10
   3   6 -10    6.37    3.10
  -3  -6  10    6.44    2.34
   2   6 -10   -0.16    2.18
   1   6 -10   87.56    6.77
   0   6 -10   -0.96    2.03
  -1   6 -10   32.17    4.78
  -2   6 -10    5.97    2.83
  -3   6 -10    3.02    2.74
  -4   6 -10    4.87    2.74
  -5   6 -10   50.66    5.81
  -6   6 -10    9.30    3.66
   6   5 -10    1.30    4.00
  -6  -5  10    2.72    2.60
   5   5 -10   21.27    4.82
  -5  -5  10   13.96    3.29
   4   5 -10    1.09    2.77
  -4  -5  10    1.89    1.98
   3   5 -10    5.62    2.84
  -3  -5  10    9.29    2.52
   2   5 -10    1.01    2.14
  -2  -5  10    0.74    1.65
   1   5 -10   31.31    4.42
   0   5 -10    9.03    2.89
  -1   5 -10    3.40    2.45
  -2   5 -10   48.85    5.08
  -3   5 -10   49.63    5.31
  -4   5 -10   10.53    3.50
  -4   5 -10    4.04    2.46
  -5   5 -10   13.31    4.07
  -5   5 -10   10.21    3.47
  -6   5 -10    8.46    4.16
  -6   5 -10    7.33    3.26
  -7   5 -10    6.60    3.37
  -7  -4  10    5.45    2.81
  -6  -4  10    1.42    2.21
   5   4 -10    3.68    3.51
  -5  -4  10    2.86    2.20
   4   4 -10    1.07    2.72
  -4  -4  10    2.15    2.05
   3   4 -10    0.74    2.56
  -3  -4  10    1.43    1.60
   2   4 -10   35.26    4.52
  -2  -4  10   20.69    3.51
   1   4 -10   23.74    4.10
  -1  -4  10   34.29    3.81
   0   4 -10   30.92    4.56
  -1   4 -10    3.69    2.40
  -2   4 -10   35.46    4.96
  -3   4 -10   84.96    7.30
  -4   4 -10   16.04    4.25
  -4   4 -10    1.14    1.79
  -5   4 -10   21.41    5.38
  -5   4 -10   25.08    4.37
  -6   4 -10    7.42    4.81
  -6   4 -10    8.21    3.18
  -7   4 -10    8.29    3.41
  -7   4 -10    9.30    5.39
  -7  -3  10    3.85    2.43
  -6  -3  10    3.60    2.17
   5   3 -10   55.03    6.38
  -5  -3  10   61.51    5.42
   4   3 -10    0.43    2.65
  -4  -3  10    3.34    1.94
   3   3 -10    1.31    2.40
  -3  -3  10    0.72    1.58
   2   3 -10    1.28    2.10
  -2  -3  10    0.76    1.58
   1   3 -10   65.76    5.77
  -1  -3  10   57.31    5.14
   0   3 -10    4.46    2.25
  -1   3 -10   10.91    2.98
  -2   3 -10   39.16    4.63
  -3   3 -10   49.05    5.79
  -4   3 -10    9.79    4.37
  -4   3 -10    5.55    2.36
  -5   3 -10   62.22    6.96
  -5   3 -10   62.76    6.10
  -6   3 -10   -1.02    3.39
  -6   3 -10   -0.48    1.98
  -7   3 -10    4.67    4.07
  -7   3 -10    7.50    3.12
  -7  -2  10    9.79    2.97
  -6  -2  10    1.14    1.83
  -5  -2  10   39.53    4.11
   4   2 -10    0.16    2.47
  -4  -2  10    0.84    1.55
   3   2 -10    1.42    2.21
  -3  -2  10    1.48    1.66
   2   2 -10   -0.68    2.17
  -2  -2  10    1.05    1.44
   1   2 -10   51.54    5.11
  -1  -2  10   48.84    4.62
   0   2 -10   18.27    3.51
   0  -2  10   18.50    3.57
  -1   2 -10   65.26    5.89
  -2   2 -10   52.97    5.77
  -3   2 -10    3.76    3.69
  -4   2 -10    3.41    3.47
  -5   2 -10    5.47    3.91
  -6   2 -10   17.53    3.82
  -6   2 -10   21.69    5.16
  -7   2 -10    4.15    4.13
  -7   2 -10    6.49    2.95
  -8  -1  10    8.65    3.00
  -7  -1  10    6.26    2.46
  -6  -1  10    2.25    1.92
  -5  -1  10    3.74    1.96
  -4  -1  10    0.97    1.56
   3   1 -10    3.24    2.48
  -3  -1  10   10.49    2.54
   2   1 -10    8.55    3.20
  -2  -1  10   21.60    3.34
   1   1 -10   11.80    3.13
  -1  -1  10    9.59    2.57
   0   1 -10   30.68    4.42
   0  -1  10   33.40    4.49
  -1   1 -10    7.17    3.28
  -2   1 -10   64.06    6.51
  -3   1 -10   88.22    7.71
  -4   1 -10   45.90    5.56
  -5   1 -10   17.40    4.60
  -6   1 -10    0.01    3.00
  -7   0  10    1.98    1.98
  -6   0  10   17.03    3.17
  -5   0  10   28.01    3.87
  -4   0  10   76.22    5.88
   3   0 -10    0.78    2.43
   3   0 -10    0.97    2.44
  -3   0  10    0.24    1.59
   1   0 -10   24.44    3.92
  -1   0  10   29.90    3.96
   0   0 -10   81.11    6.81
   0   0  10   94.07    6.99
  -1   0 -10   -1.17    3.00
  -2   0 -10    9.55    3.86
  -3   0 -10    0.83    3.12
  -4   0 -10    1.23    3.20
  -5   0 -10   15.24    4.33
  -6   0 -10   -0.52    3.24
  -7   1  10    4.85    2.33
  -6   1  10    4.38    2.02
  -5   1  10   12.67    2.67
  -4   1  10    2.45    1.71
  -3   1  10    0.05    1.47
   2  -1 -10    8.38    3.21
  -2   1  10   13.50    2.85
   1  -1 -10    8.68    2.64
  -1   1  10   18.06    3.15
   0  -1 -10    1.15    2.87
   0   1  10    0.36    1.80
  -1  -1 -10   66.66    6.42
  -2  -1 -10    4.70    3.37
  -3  -1 -10    0.18    3.05
  -4  -1 -10   -1.54    2.67
  -5  -1 -10   -2.13    2.90
  -6  -1 -10    1.54    3.32
  -7   2  10    5.52    2.42
  -6   2  10    3.57    1.97
  -5   2  10    2.54    1.77
  -4   2  10   -0.93    1.45
  -3   2  10    2.10    1.67
  -2   2  10   14.26    2.86
   1  -2 -10    7.94    2.89
  -1   2  10    6.61    2.37
   0  -2 -10    4.43    3.42
   0   2  10   12.44    3.12
  -1  -2 -10   30.05    5.16
  -2  -2 -10   81.26    7.10
  -3  -2 -10  126.49    9.38
  -4  -2 -10    1.08    2.90
  -5  -2 -10    2.52    3.20
  -6  -2 -10   -0.84    3.46
  -7   3  10    1.14    1.97
  -6   3  10   40.96    4.30
  -5   3  10    1.30    1.59
  -4   3  10   56.66    4.93
  -3   3  10   58.05    4.99
  -2   3  10  166.27   10.49
  -1   3  10  168.81   10.68
  -1  -3 -10    7.49    3.50
  -2  -3 -10   -0.02    2.74
  -3  -3 -10   -0.30    2.99
  -4  -3 -10   -1.25    2.70
  -5  -3 -10    3.00    3.36
  -7   4  10    8.88    2.85
  -6   4  10    9.33    2.60
  -5   4  10   32.46    3.67
  -4   4  10   -0.13    1.48
  -3   4  10    1.07    1.71
  -2   4  10    8.73    2.63
  -1   4  10    5.24    2.34
   0  -4 -10    4.87    3.26
   0   4  10    6.29    2.16
   0   4  10    0.89    1.92
  -1  -4 -10   -2.55    2.82
  -2  -4 -10   -1.38    2.76
  -3  -4 -10    7.52    3.40
  -4  -4 -10   -4.63    2.72
  -5  -4 -10    2.32    3.42
  -6   5  10    0.29    1.80
  -5   5  10    1.97    1.79
  -4   5  10   13.98    2.78
  -3   5  10    6.21    2.31
  -2   5  10    3.70    2.19
  -1   5  10   12.41    2.82
   0   5  10    4.46    2.14
  -1  -5 -10   -0.21    2.88
   1   5  10    4.45    2.25
  -2  -5 -10   -0.07    3.05
  -3  -5 -10    5.79    3.60
  -4  -5 -10   -0.38    2.98
  -5  -5 -10   -2.05    3.03
  -6   6  10    3.11    2.15
  -5   6  10    0.60    1.75
  -4   6  10    3.37    1.98
  -3   6  10   23.10    3.54
  -2   6  10   14.44    3.08
   0   6  10    3.05    2.22
   1   6  10   16.40    3.49
  -2  -6 -10   -1.77    3.03
  -3  -6 -10    2.35    3.33
  -4  -6 -10   -2.85    2.94
  -5   7  10   14.38    3.13
  -4   7  10   -0.13    1.72
  -1   7  10    3.06    2.25
   0   7  10    1.71    2.30
   1   7  10   -0.86    2.04
  -3  -7 -10   13.08    4.22
  -1   8  10   16.62    3.68
   0   8  10    7.28    2.97
   1   8  10    1.30    2.66
   2   8  10   11.14    3.64
  -1   9  10   12.24    3.51
   0   9  10    1.96    2.76
   1   9  10    0.13    2.82
   0  11 -11   -0.93    2.81
  -1  11 -11    2.28    3.12
  -2  11 -11    2.38    3.28
   2  10 -11    9.52    3.75
   1  10 -11    5.00    3.22
   0  10 -11    9.09    3.65
  -1  10 -11    7.15    3.27
  -2  10 -11    0.74    2.90
  -3  10 -11   10.35    4.00
   3   9 -11   13.89    4.26
   2   9 -11    2.72    3.08
   1   9 -11    2.21    2.72
   0   9 -11   21.88    4.40
  -1   9 -11    1.64    2.73
  -2   9 -11    9.54    3.55
  -3   9 -11    1.38    3.41
   4   8 -11   21.35    5.11
   3   8 -11    1.99    3.10
   2   8 -11   13.86    3.84
   1   8 -11    4.57    2.99
   0   8 -11   25.66    4.47
  -2   8 -11   33.51    5.56
  -3   8 -11    6.11    3.79
  -4   8 -11   -0.21    3.78
   5   7 -11    1.69    4.10
   4   7 -11    3.11    3.61
   3   7 -11    3.86    3.20
   2   7 -11    0.44    2.46
   1   7 -11   25.27    4.29
   0   7 -11    7.33    3.01
  -1   7 -11   23.46    4.47
  -2   7 -11    1.63    2.97
  -3   7 -11    2.84    3.28
  -4   7 -11   10.49    4.08
  -5   7 -11    2.85    3.29
   6   6 -11    1.02    4.58
   5   6 -11   47.87    7.57
  -5  -6  11   53.68    5.36
   4   6 -11    2.11    3.35
  -4  -6  11    1.22    2.20
   3   6 -11   44.57    6.18
  -3  -6  11   40.20    4.36
   2   6 -11   11.39    3.53
   1   6 -11    3.75    2.50
   0   6 -11   22.24    4.22
  -1   6 -11    5.83    3.08
  -2   6 -11    0.45    2.51
  -3   6 -11    8.37    3.24
  -4   6 -11   13.70    3.97
  -5   6 -11   53.24    6.29
  -6   6 -11   12.15    4.27
   6   5 -11   -0.19    4.62
  -6  -5  11   -1.82    2.48
   5   5 -11    6.13    4.41
  -5  -5  11    9.81    3.02
   4   5 -11    3.24    3.34
  -4  -5  11    3.37    2.21
   3   5 -11    5.33    3.14
  -3  -5  11    6.21    2.36
   2   5 -11    1.63    2.40
  -2  -5  11    0.31    1.76
   1   5 -11   22.34    4.22
   0   5 -11   23.36    4.31
  -1   5 -11  133.66    9.80
  -2   5 -11   37.35    4.53
  -3   5 -11   14.66    3.76
  -4   5 -11    4.27    3.01
  -5   5 -11    5.20    3.65
  -6   5 -11   10.18    4.29
  -6   5 -11    3.44    3.20
  -7  -4  11    0.42    2.69
  -6  -4  11   -0.59    2.27
   5   4 -11   -1.92    3.75
  -5  -4  11    1.09    2.20
   4   4 -11   -0.07    3.26
  -4  -4  11    5.25    2.47
   3   4 -11   11.38    3.63
  -3  -4  11    5.17    2.25
   2   4 -11   14.33    3.49
  -2  -4  11   15.88    3.04
   1   4 -11   20.53    4.26
  -1  -4  11   36.64    3.99
   0   4 -11    4.11    2.75
  -1   4 -11   46.27    4.92
  -2   4 -11   27.11    4.58
  -3   4 -11    5.72    3.08
  -4   4 -11   14.97    4.36
  -5   4 -11   16.58    5.07
  -5   4 -11   11.42    3.29
  -6   4 -11    5.00    4.57
  -6   4 -11    5.42    2.97
  -7  -3  11    1.77    2.58
  -6  -3  11    7.03    3.02
  -5  -3  11   29.22    4.46
   4   3 -11    6.71    3.88
  -4  -3  11    9.54    2.69
   3   3 -11   34.05    5.41
  -3  -3  11   25.17    3.86
   2   3 -11  128.08    9.32
  -2  -3  11  117.80    8.37
   1   3 -11    1.23    2.40
  -1  -3  11    6.13    2.31
   0   3 -11  127.24    9.22
  -1   3 -11   25.07    4.41
  -2   3 -11   22.86    4.32
  -3   3 -11    0.75    3.01
  -4   3 -11    9.69    4.26
  -5   3 -11   12.44    5.11
  -5   3 -11   10.47    3.17
  -6   3 -11    2.46    4.24
  -6   3 -11    0.62    2.36
  -7  -2  11   11.01    3.35
  -6  -2  11    8.48    2.96
  -5  -2  11    1.08    2.11
   4   2 -11   -0.39    2.79
  -4  -2  11    9.55    2.73
   3   2 -11    7.92    3.34
  -3  -2  11   12.39    2.89
   2   2 -11    6.06    3.13
  -2  -2  11    8.16    2.49
   1   2 -11   19.47    4.22
  -1  -2  11   20.83    3.53
   0   2 -11    1.09    2.31
  -1   2 -11  103.13    8.03
  -2   2 -11   22.81    4.65
  -3   2 -11    1.36    3.76
  -4   2 -11   24.85    5.67
  -5   2 -11    4.09    4.18
  -6   2 -11    4.14    2.73
  -6   2 -11    7.55    4.45
  -7  -1  11    4.71    2.62
  -6  -1  11   -0.58    1.97
  -5  -1  11    3.43    2.26
  -4  -1  11    2.00    2.03
   3   1 -11   -0.01    2.52
  -3  -1  11   14.81    3.07
   2   1 -11   10.18    3.54
  -2  -1  11   18.38    3.27
   1   1 -11   25.91    4.50
  -1  -1  11   35.13    3.94
   0   1 -11   15.63    3.50
   0  -1  11   14.98    3.42
  -1   1 -11    8.17    3.31
  -2   1 -11    5.57    4.01
  -3   1 -11    1.31    3.63
  -4   1 -11   18.30    4.81
  -5   1 -11    1.95    3.68
  -6   1 -11    2.87    3.95
  -7   0  11    3.30    2.37
  -6   0  11    6.02    2.65
  -5   0  11   13.70    3.10
  -4   0  11    0.47    1.80
  -3   0  11    0.12    1.71
   1   0 -11   18.74    3.80
  -1   0  11   22.54    3.70
   0   0 -11   82.09    6.93
   0   0  11   89.20    7.04
  -1   0 -11    1.61    3.37
  -2   0 -11   16.37    4.68
  -3   0 -11   -2.77    3.18
  -4   0 -11   -1.38    2.97
  -5   0 -11    5.50    4.13
  -7   1  11    0.29    1.99
  -6   1  11   55.66    5.34
  -5   1  11    0.77    1.81
  -4   1  11   13.38    3.01
  -3   1  11   10.71    2.81
   2  -1 -11    0.45    2.78
  -2   1  11    2.46    2.01
   1  -1 -11    2.43    2.35
  -1   1  11    2.37    2.08
   0  -1 -11    1.08    2.89
   0   1  11    3.32    2.48
  -1  -1 -11   10.15    4.46
  -2  -1 -11   11.92    4.31
  -3  -1 -11    5.04    3.77
  -4  -1 -11   27.60    5.29
  -5  -1 -11    5.87    3.78
  -7   2  11    1.41    2.17
  -6   2  11    3.64    2.24
  -5   2  11    1.89    2.06
  -4   2  11    2.82    2.03
  -3   2  11   -0.13    1.80
  -2   2  11    4.97    2.35
   1  -2 -11   30.48    4.82
  -1   2  11   31.46    4.37
   0  -2 -11   12.76    3.93
   0   2  11   18.49    3.78
  -1  -2 -11   13.44    4.57
  -2  -2 -11    4.69    3.69
  -3  -2 -11    1.08    3.37
  -4  -2 -11   -1.57    3.14
  -5  -2 -11    5.86    3.84
  -6   3  11    4.47    2.35
  -5   3  11   11.43    2.85
  -4   3  11    3.66    2.25
  -3   3  11    1.74    2.05
  -2   3  11    0.53    1.93
  -1   3  11   37.78    4.28
   0  -3 -11   -0.80    3.01
   0   3  11    0.52    2.08
  -1  -3 -11   -2.10    3.34
  -2  -3 -11   10.53    4.12
  -3  -3 -11    8.79    3.94
  -4  -3 -11   -0.44    3.10
  -5  -3 -11    3.28    3.67
  -6   4  11    8.36    2.69
  -5   4  11    7.94    2.57
  -4   4  11    1.33    2.02
  -3   4  11    0.64    1.93
  -2   4  11   -0.17    2.06
  -1   4  11   13.00    3.22
   0   4  11   -0.28    2.06
  -1  -4 -11   20.98    4.88
  -2  -4 -11    7.53    3.87
  -3  -4 -11    3.98    3.54
  -4  -4 -11    7.43    3.76
  -6   5  11   -0.10    1.87
  -5   5  11   14.48    3.15
  -4   5  11   -0.68    1.90
  -3   5  11   11.16    2.95
  -2   5  11   14.86    3.51
  -1   5  11   15.66    3.39
  -2  -5 -11    0.64    3.47
  -3  -5 -11    0.04    3.48
  -4  -5 -11   -1.42    3.37
  -5   6  11   20.54    3.65
  -4   6  11    5.01    2.50
  -3   6  11    9.87    2.97
   1   6  11    5.14    2.69
  -2  -6 -11    8.79    4.14
  -3  -6 -11    1.24    3.61
  -4   7  11   -0.12    2.27
   1   7  11   13.11    3.59
  -3  -7 -11    0.20    3.70
   0   8  11   13.42    3.89
   1   8  11    0.70    2.74
  -1  10 -12   38.87    6.10
   2   9 -12   -0.78    3.02
   1   9 -12   -0.71    2.78
   0   9 -12    9.00    3.72
  -1   9 -12   16.24    4.27
  -3   9 -12    8.67    4.38
   3   8 -12    9.65    4.19
   2   8 -12    5.70    3.47
   1   8 -12   -0.48    2.78
   0   8 -12    8.88    3.45
  -1   8 -12   38.95    5.89
  -2   8 -12    6.45    3.84
  -3   8 -12   15.52    4.83
  -4   8 -12    4.82    4.02
   4   7 -12   26.41    5.91
  -4  -7  12   20.23    3.99
   3   7 -12    9.13    4.07
   2   7 -12   16.08    4.28
   1   7 -12    6.66    3.00
   0   7 -12    0.12    2.58
  -1   7 -12    5.70    3.65
  -2   7 -12   -2.24    2.83
  -3   7 -12    2.12    3.44
  -4   7 -12    2.57    3.61
   5   6 -12    4.78    5.15
  -5  -6  12    6.92    3.07
   4   6 -12    4.87    3.91
  -4  -6  12    3.87    2.58
   3   6 -12   -1.96    2.79
  -3  -6  12    1.37    2.20
   2   6 -12    3.18    3.13
   1   6 -12    2.74    2.60
   0   6 -12   -0.79    2.62
  -1   6 -12   14.25    3.96
  -2   6 -12    4.95    3.35
  -3   6 -12   23.34    4.84
  -4   6 -12    5.23    3.31
  -5   6 -12    8.13    3.88
  -6  -5  12    1.62    2.79
   5   5 -12   12.88    5.64
  -5  -5  12   11.02    3.14
   4   5 -12    3.25    3.78
  -4  -5  12    2.15    2.19
   3   5 -12   62.93    6.77
  -3  -5  12   71.40    5.98
   2   5 -12    1.97    2.82
  -2  -5  12    2.89    2.26
   1   5 -12   18.99    4.40
   0   5 -12    2.33    2.82
  -1   5 -12    8.72    3.48
  -2   5 -12    1.77    2.62
  -3   5 -12   15.87    4.30
  -4   5 -12   50.00    5.97
  -5   5 -12    7.45    3.63
  -6  -4  12    2.32    2.74
   5   4 -12    1.40    4.82
  -5  -4  12   -0.06    2.22
   4   4 -12    9.81    4.56
  -4  -4  12    9.12    3.01
   3   4 -12   27.89    5.42
  -3  -4  12   21.32    3.75
   2   4 -12    0.52    2.52
  -2  -4  12    0.25    1.78
   1   4 -12   12.71    3.91
   0   4 -12   10.43    3.57
  -1   4 -12    1.77    2.66
  -2   4 -12   12.16    3.55
  -3   4 -12   27.25    5.09
  -4   4 -12    3.36    3.47
  -5   4 -12    6.09    3.92
  -6  -3  12    7.71    3.17
  -5  -3  12    1.36    2.43
   4   3 -12   12.86    4.99
  -4  -3  12   20.90    3.88
   3   3 -12   -1.12    3.05
  -3  -3  12    1.24    1.87
   2   3 -12    0.95    3.07
  -2  -3  12    0.88    1.80
   1   3 -12   16.70    4.25
  -1  -3  12   15.32    3.32
   0   3 -12    7.39    3.21
  -1   3 -12    4.59    2.79
  -2   3 -12    7.54    3.07
  -3   3 -12    1.63    3.18
  -4   3 -12    4.78    3.89
  -5   3 -12    8.14    4.66
  -6  -2  12   16.70    3.93
  -5  -2  12    1.23    2.28
  -4  -2  12   23.30    4.06
   3   2 -12   27.97    5.42
  -3  -2  12   25.35    3.98
   2   2 -12    4.26    3.20
  -2  -2  12    9.24    2.72
   1   2 -12   14.29    4.03
  -1  -2  12   19.49    3.67
   0   2 -12   10.24    3.26
  -1   2 -12   13.86    3.84
  -2   2 -12    2.12    2.98
  -3   2 -12    6.19    3.77
  -4   2 -12   32.89    6.31
  -5   2 -12    1.61    4.35
  -6   2 -12   13.13    3.87
  -6  -1  12    2.67    2.64
  -5  -1  12    4.47    2.59
  -4  -1  12    8.46    2.93
   2   1 -12    1.52    3.01
  -2  -1  12    4.90    2.29
   1   1 -12    8.09    3.29
  -1  -1  12   10.91    2.92
   0   1 -12   74.87    6.69
  -1   1 -12   20.54    4.24
  -2   1 -12   26.56    5.41
  -3   1 -12    9.34    4.46
  -4   1 -12    7.58    4.57
  -5   1 -12   -1.75    3.60
  -6   0  12   13.82    3.54
  -5   0  12    0.74    2.19
  -4   0  12   46.96    5.04
  -3   0  12    1.22    1.99
  -2   0  12   33.90    4.58
   1   0 -12   13.58    3.75
  -1   0  12   15.77    3.43
   0   0 -12   27.03    4.77
   0   0  12   41.46    4.64
  -1   0 -12    1.39    3.02
  -2   0 -12   25.54    5.60
  -3   0 -12    0.60    3.90
  -4   0 -12    1.83    3.48
  -5   0 -12    2.49    4.07
  -6   1  12    2.27    2.48
  -5   1  12    6.92    2.92
  -4   1  12    0.74    2.07
  -3   1  12    1.06    2.02
  -2   1  12    1.37    2.07
   1  -1 -12    6.43    2.91
  -1   1  12    7.26    2.70
   0  -1 -12   11.09    3.45
   0   1  12   27.71    4.43
  -1  -1 -12   10.28    4.35
  -2  -1 -12   17.59    5.16
  -3  -1 -12    6.41    4.07
  -4  -1 -12    1.53    3.84
  -6   2  12    8.37    2.95
  -5   2  12   11.94    3.16
  -4   2  12   14.37    3.44
  -3   2  12   34.62    4.85
  -2   2  12    0.79    2.08
  -1   2  12    8.60    2.83
   0  -2 -12   21.66    4.74
  -1  -2 -12    2.18    3.96
  -2  -2 -12    9.33    4.58
  -3  -2 -12    3.57    3.91
  -4  -2 -12    9.77    4.49
  -6   3  12   -0.19    2.27
  -5   3  12    2.17    2.32
  -4   3  12   12.88    3.38
  -3   3  12   -0.58    2.02
  -2   3  12   19.78    3.91
  -1   3  12   -1.08    2.02
   0  -3 -12    5.70    3.68
   0   3  12   16.00    3.94
  -1  -3 -12    8.89    4.58
  -2  -3 -12   36.47    6.41
  -3  -3 -12    1.88    3.98
  -4  -3 -12    0.33    3.95
  -5   4  12    0.28    2.27
  -4   4  12    0.58    2.26
  -3   4  12    1.27    2.24
  -2   4  12    7.89    3.07
  -1   4  12   11.81    3.34
  -1  -4 -12   57.00    6.53
  -2  -4 -12   -0.23    3.88
  -3  -4 -12    7.28    4.29
  -5   5  12   17.76    3.77
  -4   5  12    0.26    2.37
  -3   5  12   61.71    5.94
  -2   5  12    8.06    3.07
  -2  -5 -12    1.33    4.18
  -3  -5 -12    4.15    4.20
  -4   6  12    7.94    3.11
  -3   6  12    0.36    2.56
   1   8 -13   14.83    4.27
   0   8 -13   -0.18    3.06
  -1   8 -13    6.07    3.77
  -2   8 -13   15.08    5.00
  -4  -7  13    5.49    2.95
   3   7 -13   13.83    5.06
   2   7 -13   21.89    4.96
   1   7 -13   20.46    4.63
   0   7 -13   -1.49    2.96
  -1   7 -13   25.41    5.25
  -2   7 -13    2.74    3.64
  -3   7 -13   77.15    8.05
  -5  -6  13   -0.29    2.70
   4   6 -13   -0.40    3.98
  -4  -6  13   -0.56    2.32
   3   6 -13    7.61    4.28
  -3  -6  13    8.21    3.03
   2   6 -13   -0.91    2.91
   1   6 -13   38.28    5.77
   0   6 -13    2.58    3.16
  -1   6 -13    3.09    3.45
  -2   6 -13    5.87    3.75
  -3   6 -13    0.19    3.23
   5   5 -13    9.35    6.16
  -5  -5  13    7.85    3.24
   4   5 -13    9.84    4.97
  -4  -5  13    9.62    3.15
   3   5 -13    0.74    3.44
  -3  -5  13    1.27    2.26
   2   5 -13    6.47    3.62
   1   5 -13    5.93    3.57
   0   5 -13   10.09    3.90
  -1   5 -13    3.90    3.40
  -2   5 -13   16.64    4.48
  -3   5 -13    4.72    3.33
  -4   5 -13    5.55    3.55
  -5  -4  13    3.39    2.83
   4   4 -13    1.94    4.42
  -4  -4  13    5.14    2.68
   3   4 -13    4.84    3.83
  -3  -4  13    5.59    2.55
   2   4 -13    6.86    3.65
  -2  -4  13    5.30    2.65
   1   4 -13    8.06    3.83
   0   4 -13    9.12    3.89
  -1   4 -13   11.51    3.73
  -2   4 -13    2.82    3.17
  -3   4 -13   38.06    5.94
  -4   4 -13    9.40    3.78
  -5  -3  13   -0.45    2.47
  -4  -3  13   -0.36    2.01
   3   3 -13    3.40    3.47
  -3  -3  13    4.17    2.41
   2   3 -13    0.51    2.93
  -2  -3  13   -2.90    1.59
   1   3 -13   20.35    4.78
   0   3 -13    6.07    3.68
  -1   3 -13   12.54    3.58
  -2   3 -13   22.29    4.52
  -3   3 -13    0.87    3.14
  -4   3 -13    3.88    3.69
  -6  -2  13    2.15    3.06
  -5  -2  13   24.54    4.56
  -4  -2  13    5.50    2.77
   3   2 -13    7.36    3.96
  -3  -2  13   12.91    3.35
   2   2 -13    2.84    3.45
  -2  -2  13    5.24    2.62
   1   2 -13    2.17    3.07
  -1  -2  13    7.43    2.79
   0   2 -13   21.38    4.40
  -1   2 -13   15.59    3.95
  -2   2 -13   61.79    6.39
  -3   2 -13    4.86    3.78
  -4   2 -13    6.63    4.55
  -6  -1  13    1.16    2.82
  -5  -1  13    3.07    2.87
  -4  -1  13   20.81    4.09
  -3  -1  13    5.16    2.64
   2   1 -13   11.67    4.48
  -2  -1  13   39.22    4.26
   1   1 -13    2.31    3.03
  -1  -1  13    2.17    2.29
   0   1 -13    2.61    2.82
  -1   1 -13    2.32    2.85
  -2   1 -13   10.33    4.07
  -3   1 -13    5.79    4.36
  -4   1 -13    6.07    4.64
  -6   0  13   22.26    4.60
  -5   0  13   -0.35    2.52
  -4   0  13    0.45    2.28
  -3   0  13    3.74    2.64
  -2   0  13    8.21    2.98
   1   0 -13   13.03    3.83
  -1   0  13   19.54    3.73
   0   0 -13    6.32    3.17
  -1   0 -13    3.35    3.36
  -2   0 -13   13.94    4.87
  -3   0 -13    8.36    4.75
  -4   0 -13    1.55    4.22
  -5   1  13   13.85    3.80
  -4   1  13   14.57    3.79
  -3   1  13    0.88    2.32
  -2   1  13   48.54    5.07
   1  -1 -13    3.99    2.87
  -1   1  13    0.52    2.09
   0  -1 -13    7.15    3.42
   0   1  13    5.60    2.96
  -1  -1 -13    7.79    4.07
  -2  -1 -13   10.04    5.15
  -3  -1 -13   -2.12    3.81
  -5   2  13    0.03    2.55
  -4   2  13   20.16    4.21
  -3   2  13    0.59    2.27
  -2   2  13    8.18    3.05
  -1   2  13   -0.16    2.15
   0  -2 -13    7.07    3.76
   0   2  13    8.65    3.37
  -1  -2 -13    1.24    4.17
  -2  -2 -13    2.42    4.60
  -3  -2 -13    2.94    4.45
  -5   3  13    6.12    3.19
  -4   3  13    2.84    2.61
  -3   3  13    8.90    3.27
  -2   3  13    9.63    3.19
  -1   3  13    4.85    2.94
   0   3  13    9.06    3.51
  -1  -3 -13   12.58    5.36
  -2  -3 -13    0.35    4.38
  -3  -3 -13   16.73    5.38
  -4   4  13    0.85    2.59
  -3   4  13   13.02    3.68
  -2   4  13    9.73    3.42
  -1   4  13   24.92    4.48
  -2  -4 -13    4.07    4.48
  -3   5  13   -1.02    2.73
  -4  -6  14    0.70    2.51
   2   6 -14   16.05    5.01
   1   6 -14   18.36    4.74
   0   6 -14   10.00    4.31
  -1   6 -14    2.74    3.61
  -4  -5  14   -0.15    2.31
   3   5 -14   14.96    5.10
  -3  -5  14   11.10    3.38
   2   5 -14   19.56    5.10
   1   5 -14   12.08    4.45
   0   5 -14    0.88    3.74
  -1   5 -14    6.76    3.95
  -2   5 -14    0.16    3.15
   4   4 -14    0.90    4.65
  -4  -4  14    9.39    3.25
   3   4 -14   -1.21    3.62
  -3  -4  14    0.29    2.33
   2   4 -14   -0.99    3.14
  -2  -4  14    2.29    2.49
   1   4 -14   13.32    4.61
   0   4 -14    4.12    3.75
  -1   4 -14   23.05    5.13
  -2   4 -14    4.40    3.22
  -5  -3  14    1.84    2.87
  -4  -3  14    0.82    2.52
   3   3 -14    1.64    3.81
  -3  -3  14    0.66    2.46
   2   3 -14   12.62    4.35
  -2  -3  14    8.55    2.98
   1   3 -14    2.35    3.63
   0   3 -14    3.04    3.66
  -1   3 -14    4.67    3.47
  -2   3 -14   13.45    4.18
  -5  -2  14    6.57    3.31
  -4  -2  14   10.02    3.35
  -3  -2  14    0.11    2.16
   1   2 -14    2.09    3.51
  -1  -2  14    1.33    2.36
   0   2 -14   32.77    5.64
  -1   2 -14    8.03    3.56
  -2   2 -14    5.01    3.14
  -5  -1  14    5.56    3.45
  -4  -1  14   -0.30    2.48
  -3  -1  14    3.81    2.47
   2   1 -14    1.83    3.74
  -2  -1  14    3.88    2.66
   1   1 -14    4.40    3.91
  -1  -1  14    4.19    2.68
   0   1 -14    3.93    3.45
  -1   1 -14   10.47    3.78
  -2   1 -14    8.75    3.96
  -5   0  14    0.10    2.81
  -4   0  14   -1.79    2.34
  -3   0  14    0.61    2.51
  -2   0  14    4.06    2.75
   1   0 -14   10.48    3.87
  -1   0  14    5.24    2.91
   0   0 -14    9.65    3.65
  -1   0 -14    4.91    3.45
  -2   0 -14   11.36    4.49
  -4   1  14    1.26    2.72
  -3   1  14    2.01    2.68
  -2   1  14   30.18    4.87
  -1   1  14   13.56    3.62
   0  -1 -14   16.35    4.21
  -1  -1 -14    7.36    4.15
  -2  -1 -14    7.99    4.78
  -4   2  14    7.84    3.45
  -3   2  14    0.41    2.37
  -2   2  14   11.95    3.54
  -1   2  14    3.51    2.77
  -1  -2 -14    7.28    4.45
  -2  -2 -14    8.59    5.29
  -3   3  14    0.08    2.64
  -2   3  14    2.85    2.69
  -1   3  14    6.16    3.10
  -1  -3 -14    7.69    4.76
  -2   4  14    7.62    3.27
  -3  -4  15   26.73    4.60
   1   4 -15    7.41    4.69
  -3  -3  15    2.75    2.73
   2   3 -15    4.23    4.04
  -2  -3  15    1.05    2.56
   1   3 -15   -0.51    3.52
   0   3 -15    4.48    4.23
  -3  -2  15   -0.60    2.22
   2   2 -15    3.99    4.11
  -2  -2  15    3.72    2.85
   1   2 -15   -0.63    3.82
   0   2 -15    7.05    4.14
  -3  -1  15    7.58    3.25
  -2  -1  15    4.44    2.80
   1   1 -15    4.72    4.18
   0   1 -15   27.08    5.53
  -1   1 -15    8.72    3.98
  -3   0  15    0.33    2.62
  -2   0  15    2.55    2.72
  -1   0  15    0.08    2.58
   0   0 -15    7.83    4.00
  -1   0 -15    5.40    3.79
  -2   1  15    2.45    2.61
  -1   1  15    2.69    2.77
   0  -1 -15   10.90    4.21
  -2   2  15    7.50    3.40
  -1   2  15    4.65    2.93
   0   0   0    0.00    0.00
;
_shelx_hkl_checksum              2378
_olex2_submission_special_instructions 'No special instructions were received'
loop_
_space_group_symop_operation_xyz
'x, y, z'
'-x, -y, -z'
loop_
_atom_site_label
_atom_site_type_symbol
_atom_site_fract_x
_atom_site_fract_y
_atom_site_fract_z
_atom_site_U_iso_or_equiv
_atom_site_adp_type
_atom_site_occupancy
_atom_site_site_symmetry_order
_atom_site_calc_flag
Hg1 Hg 0.19429(12) 0.16636(9) 0.27535(9) 0.0353(3) Uani 1 1 d
Sb1 Sb -0.10366(19) 0.16971(13) -0.05764(14) 0.0252(4) Uani 1 1 d
Sb2 Sb 0.2085(2) 0.46277(14) -0.10875(14) 0.0305(4) Uani 1 1 d
Sb3 Sb 0.40304(19) 0.17571(14) 0.00434(14) 0.0268(4) Uani 1 1 d
Sb4 Sb -0.28999(19) 0.25711(14) 0.27629(13) 0.0250(4) Uani 1 1 d
Cs1 Cs -0.2577(2) 0.46888(15) 0.61726(14) 0.0386(4) Uani 1 1 d
Cs2 Cs -0.2730(3) -0.10561(18) 0.37974(16) 0.0522(5) Uani 1 1 d
S1 S -0.2557(9) 0.4915(6) 0.3048(5) 0.0349(15) Uani 1 1 d
S2 S -0.0434(8) 0.2245(6) 0.4090(6) 0.0368(15) Uani 1 1 d
S3 S 0.4862(7) 0.2453(6) 0.4135(5) 0.0311(14) Uani 1 1 d
S4 S 0.3188(8) -0.0391(6) 0.1940(6) 0.0376(16) Uani 1 1 d
S5 S 0.2068(8) 0.3172(6) 0.1182(5) 0.0322(14) Uani 1 1 d
S6 S -0.0269(8) 0.3095(6) -0.1977(6) 0.0347(15) Uani 1 1 d
S7 S 0.4649(8) 0.3238(6) -0.1307(5) 0.0312(14) Uani 1 1 d
S8 S 0.1589(7) 0.0378(5) -0.1070(5) 0.0248(12) Uani 1 1 d
loop_
_atom_site_aniso_label
_atom_site_aniso_U_11
_atom_site_aniso_U_22
_atom_site_aniso_U_33
_atom_site_aniso_U_23
_atom_site_aniso_U_13
_atom_site_aniso_U_12
Hg1 0.0269(5) 0.0422(6) 0.0373(6) 0.0053(4) 0.0037(4) 0.0090(4)
Sb1 0.0191(7) 0.0249(8) 0.0333(10) 0.0084(7) 0.0041(6) 0.0029(6)
Sb2 0.0342(9) 0.0278(8) 0.0324(10) 0.0114(7) 0.0062(7) 0.0056(7)
Sb3 0.0212(8) 0.0316(8) 0.0300(9) 0.0124(7) -0.0023(6) 0.0026(6)
Sb4 0.0243(8) 0.0298(8) 0.0225(9) 0.0083(6) 0.0007(6) 0.0047(6)
Cs1 0.0400(9) 0.0394(9) 0.0354(10) 0.0035(7) -0.0089(7) 0.0118(7)
Cs2 0.0648(12) 0.0583(11) 0.0390(11) 0.0239(9) 0.0078(9) -0.0024(9)
S1 0.046(4) 0.033(3) 0.031(4) 0.018(3) 0.008(3) 0.003(3)
S2 0.025(3) 0.056(4) 0.031(4) 0.012(3) 0.002(3) 0.016(3)
S3 0.020(3) 0.042(3) 0.034(4) 0.014(3) 0.003(2) -0.004(3)
S4 0.017(3) 0.027(3) 0.067(5) 0.002(3) -0.006(3) 0.005(2)
S5 0.038(3) 0.033(3) 0.027(3) 0.006(3) 0.002(3) 0.007(3)
S6 0.038(3) 0.038(3) 0.033(4) 0.023(3) 0.001(3) 0.005(3)
S7 0.026(3) 0.037(3) 0.036(4) 0.020(3) 0.004(3) 0.005(3)
S8 0.023(3) 0.021(3) 0.031(3) 0.007(2) 0.002(2) 0.003(2)
loop_
_atom_type_symbol
_atom_type_description
_atom_type_scat_dispersion_real
_atom_type_scat_dispersion_imag
_atom_type_scat_source
C C 0.0033 0.0016 'International Tables Vol C Tables 4.2.6.8 and 6.1.1.4'
H H 0.0000 0.0000 'International Tables Vol C Tables 4.2.6.8 and 6.1.1.4'
N N 0.0061 0.0033 'International Tables Vol C Tables 4.2.6.8 and 6.1.1.4'
O O 0.0106 0.0060 'International Tables Vol C Tables 4.2.6.8 and 6.1.1.4'
S S 0.1246 0.1234 'International Tables Vol C Tables 4.2.6.8 and 6.1.1.4'
Sb Sb -0.5866 1.5461 'International Tables Vol C Tables 4.2.6.8 and 6.1.1.4'
Hg Hg -2.3894 9.2266 'International Tables Vol C Tables 4.2.6.8 and 6.1.1.4'
Cs Cs -0.3680 2.1192 'International Tables Vol C Tables 4.2.6.8 and 6.1.1.4'
loop_
_geom_angle_atom_site_label_1
_geom_angle_atom_site_label_2
_geom_angle_atom_site_label_3
_geom_angle
_geom_angle_site_symmetry_1
_geom_angle_site_symmetry_3
Cs1 Hg1 Cs2 89.05(5) 2_566 2_556
S2 Hg1 Cs1 73.05(17) . 2_566
S2 Hg1 Cs2 61.36(15) . 2_556
S2 Hg1 S3 99.3(2) . .
S2 Hg1 S4 133.0(2) . .
S2 Hg1 S5 111.4(2) . .
S3 Hg1 Cs1 63.27(13) . 2_566
S3 Hg1 Cs2 54.24(13) . 2_556
S4 Hg1 Cs1 150.58(14) . 2_566
S4 Hg1 Cs2 93.54(18) . 2_556
S4 Hg1 S3 94.9(2) . .
S4 Hg1 S5 108.3(2) . .
S5 Hg1 Cs1 62.40(14) . 2_566
S5 Hg1 Cs2 150.79(14) . 2_556
S5 Hg1 S3 103.45(19) . .
S4 Sb1 S6 92.2(2) 2 .
S4 Sb1 S8 95.39(19) 2 .
S8 Sb1 S6 92.20(19) . .
S6 Sb2 S1 86.0(2) . 2_565
S6 Sb2 S7 98.0(2) . .
S7 Sb2 S1 88.7(2) . 2_565
S5 Sb3 Cs2 115.70(16) . 2
S5 Sb3 S7 94.1(2) . .
S5 Sb3 S8 96.8(2) . .
S7 Sb3 Cs2 53.19(16) . 2
S7 Sb3 S8 99.8(2) . .
S8 Sb3 Cs2 50.84(13) . 2
Cs2 Sb4 Cs1 95.25(5) . .
S1 Sb4 Cs1 60.54(15) . .
S1 Sb4 Cs2 154.93(16) . .
S2 Sb4 Cs1 59.99(15) . .
S2 Sb4 Cs2 62.69(17) . .
S2 Sb4 S1 96.8(2) . .
S3 Sb4 Cs1 55.68(16) 1_455 .
S3 Sb4 Cs2 71.70(15) 1_455 .
S3 Sb4 S1 96.8(2) 1_455 .
S3 Sb4 S2 92.9(2) 1_455 .
Hg1 Cs1 Sb4 130.44(5) 2_566 .
Hg1 Cs1 S2 36.06(9) 2_566 2_566
Hg1 Cs1 S7 105.90(10) 2_566 1_456
S1 Cs1 Hg1 85.61(10) 2_466 2_566
S1 Cs1 Hg1 95.38(10) . 2_566
S1 Cs1 Hg1 77.81(10) 2_566 2_566
S1 Cs1 Sb4 104.33(10) 2_566 .
S1 Cs1 Sb4 35.07(10) . .
S1 Cs1 Sb4 104.45(11) 2_466 .
S1 Cs1 S1 104.78(12) . 2_466
S1 Cs1 S1 100.25(14) . 2_566
S1 Cs1 S1 151.1(2) 2_466 2_566
S1 Cs1 S2 73.27(14) . 2_566
S1 Cs1 S2 56.09(13) 2_566 2_566
S1 Cs1 S2 118.34(13) 2_466 2_566
S1 Cs1 S7 145.19(14) . 1_456
S1 Cs1 S7 110.85(13) 2_566 1_456
S1 Cs1 S7 51.36(12) 2_466 1_456
S2 Cs1 Hg1 137.21(12) . 2_566
S2 Cs1 Sb4 34.45(10) . .
S2 Cs1 Sb4 103.97(10) 2_566 .
S2 Cs1 S1 74.73(14) . 2_566
S2 Cs1 S1 131.22(15) . 2_466
S2 Cs1 S1 58.81(14) . .
S2 Cs1 S2 101.19(14) . 2_566
S2 Cs1 S7 137.68(14) 2_566 1_456
S2 Cs1 S7 114.25(14) . 1_456
S3 Cs1 Hg1 141.26(11) 1_455 2_566
S3 Cs1 Hg1 41.57(10) 2_566 2_566
S3 Cs1 Sb4 33.58(9) 1_455 .
S3 Cs1 Sb4 103.09(11) 2_566 .
S3 Cs1 S1 59.51(14) 1_455 .
S3 Cs1 S1 73.96(14) 2_566 .
S3 Cs1 S1 58.93(13) 2_566 2_466
S3 Cs1 S1 131.81(14) 1_455 2_566
S3 Cs1 S1 116.24(14) 2_566 2_566
S3 Cs1 S1 74.64(14) 1_455 2_466
S3 Cs1 S2 132.72(14) 1_455 2_566
S3 Cs1 S2 132.78(15) 2_566 .
S3 Cs1 S2 57.23(13) 1_455 .
S3 Cs1 S2 61.89(12) 2_566 2_566
S3 Cs1 S3 100.28(14) 1_455 2_566
S3 Cs1 S5 152.22(14) 1_455 2_566
S3 Cs1 S7 104.31(12) 2_566 1_456
S3 Cs1 S7 87.46(14) 1_455 1_456
S5 Cs1 Hg1 41.42(10) 2_566 2_566
S5 Cs1 Sb4 171.59(11) 2_566 .
S5 Cs1 S1 136.76(14) 2_566 .
S5 Cs1 S1 78.62(15) 2_566 2_466
S5 Cs1 S1 73.26(14) 2_566 2_566
S5 Cs1 S2 146.66(15) 2_566 .
S5 Cs1 S2 67.88(14) 2_566 2_566
S5 Cs1 S3 71.55(14) 2_566 2_566
S5 Cs1 S7 69.80(14) 2_566 1_456
S6 Cs1 Hg1 109.37(12) 1_556 2_566
S6 Cs1 Sb4 111.25(12) 1_556 .
S6 Cs1 S1 111.43(14) 1_556 2_466
S6 Cs1 S1 54.41(14) 1_556 2_566
S6 Cs1 S1 137.06(14) 1_556 .
S6 Cs1 S2 107.11(15) 1_556 2_566
S6 Cs1 S2 79.81(15) 1_556 .
S6 Cs1 S3 108.81(16) 1_556 1_455
S6 Cs1 S3 145.64(16) 1_556 2_566
S6 Cs1 S5 74.20(15) 1_556 2_566
S6 Cs1 S7 60.28(13) 1_556 1_456
S7 Cs1 Sb4 118.31(10) 1_456 .
Hg1 Cs2 Sb3 161.67(5) 2_556 2
Hg1 Cs2 Cs2 69.25(5) 2_556 2_456
Sb3 Cs2 Cs2 116.57(7) 2 2_456
Sb4 Cs2 Hg1 124.88(6) . 2_556
Sb4 Cs2 Sb3 73.13(4) . 2
Sb4 Cs2 Cs2 76.95(5) . 2_456
S2 Cs2 Hg1 98.95(11) . 2_556
S2 Cs2 Hg1 34.54(9) 2_556 2_556
S2 Cs2 Sb3 98.90(11) . 2
S2 Cs2 Sb3 138.54(10) 2_556 2
S2 Cs2 Sb4 130.32(12) 2_556 .
S2 Cs2 Sb4 34.50(10) . .
S2 Cs2 Cs2 84.82(10) . 2_456
S2 Cs2 Cs2 103.14(10) 2_556 2_456
S2 Cs2 S2 95.87(14) 2_556 .
S2 Cs2 S3 51.44(11) . 1_455
S2 Cs2 S3 127.88(15) 2_556 1_455
S2 Cs2 S4 96.22(14) . 1_455
S2 Cs2 S4 165.60(15) 2_556 1_455
S3 Cs2 Hg1 38.83(11) 2_556 2_556
S3 Cs2 Hg1 103.61(10) 1_455 2_556
S3 Cs2 Sb3 90.78(10) 1_455 2
S3 Cs2 Sb3 127.56(12) 2_556 2
S3 Cs2 Sb4 32.63(8) 1_455 .
S3 Cs2 Sb4 134.30(11) 2_556 .
S3 Cs2 Cs2 57.41(10) 2_556 2_456
S3 Cs2 Cs2 44.40(8) 1_455 2_456
S3 Cs2 S2 65.08(14) 2_556 2_556
S3 Cs2 S2 128.64(15) 2_556 .
S3 Cs2 S3 101.81(13) 2_556 1_455
S3 Cs2 S4 101.09(15) 2_556 1_455
S3 Cs2 S6 115.50(14) 2_556 2
S3 Cs2 S7 97.09(15) 2_556 2
S3 Cs2 S8 160.25(16) 2_556 2
S4 Cs2 Hg1 134.98(11) 1_455 2_556
S4 Cs2 Sb3 46.32(10) 1_455 2
S4 Cs2 Sb4 61.86(10) 1_455 .
S4 Cs2 Cs2 70.27(11) 1_455 2_456
S4 Cs2 S3 56.50(13) 1_455 1_455
S6 Cs2 Hg1 108.89(11) 2 2_556
S6 Cs2 Sb3 62.49(11) 2 2
S6 Cs2 Sb4 110.17(10) 2 .
S6 Cs2 Cs2 171.23(12) 2 2_456
S6 Cs2 S2 76.42(14) 2 2_556
S6 Cs2 S2 103.95(14) 2 .
S6 Cs2 S3 142.25(13) 2 1_455
S6 Cs2 S4 108.06(15) 2 1_455
S7 Cs2 Hg1 129.09(10) 2 2_556
S7 Cs2 Sb3 32.83(9) 2 2
S7 Cs2 Sb4 103.84(10) 2 .
S7 Cs2 Cs2 113.74(11) 2 2_456
S7 Cs2 S2 131.71(14) 2 .
S7 Cs2 S2 119.96(14) 2 2_556
S7 Cs2 S3 111.42(13) 2 1_455
S7 Cs2 S4 55.33(13) 2 1_455
S7 Cs2 S6 60.28(14) 2 2
S8 Cs2 Hg1 158.40(11) 2 2_556
S8 Cs2 Sb3 32.77(10) 2 2
S8 Cs2 Sb4 54.47(9) 2 .
S8 Cs2 Cs2 125.42(11) 2 2_456
S8 Cs2 S2 126.04(13) 2 2_556
S8 Cs2 S2 69.53(13) 2 .
S8 Cs2 S3 83.79(12) 2 1_455
S8 Cs2 S4 65.98(14) 2 1_455
S8 Cs2 S6 59.13(13) 2 2
S8 Cs2 S7 63.42(13) 2 2
Sb2 S1 Cs1 111.0(2) 2_565 2_466
Sb2 S1 Cs1 169.3(3) 2_565 .
Sb2 S1 Cs1 91.82(18) 2_565 2_566
Sb4 S1 Sb2 103.6(2) . 2_565
Sb4 S1 Cs1 99.16(19) . 2_566
Sb4 S1 Cs1 84.39(16) . .
Sb4 S1 Cs1 92.61(18) . 2_466
Cs1 S1 Cs1 79.75(14) . 2_566
Cs1 S1 Cs1 151.1(2) 2_466 2_566
Cs1 S1 Cs1 75.22(12) . 2_466
Hg1 S2 Cs1 149.6(3) . .
Hg1 S2 Cs1 70.88(16) . 2_566
Hg1 S2 Cs2 96.6(2) . .
Hg1 S2 Cs2 84.10(16) . 2_556
Sb4 S2 Hg1 100.2(2) . .
Sb4 S2 Cs1 85.57(16) . .
Sb4 S2 Cs1 97.4(2) . 2_566
Sb4 S2 Cs2 166.6(3) . 2_556
Sb4 S2 Cs2 82.82(19) . .
Cs1 S2 Cs1 78.81(14) . 2_566
Cs1 S2 Cs2 113.78(16) . .
Cs1 S2 Cs2 97.15(16) . 2_556
Cs2 S2 Cs1 167.34(17) . 2_566
Cs2 S2 Cs1 95.97(15) 2_556 2_566
Cs2 S2 Cs2 84.12(14) 2_556 .
Hg1 S3 Cs1 75.16(14) . 2_566
Hg1 S3 Cs1 153.7(2) . 1_655
Hg1 S3 Cs2 86.93(15) . 2_556
Hg1 S3 Cs2 96.31(17) . 1_655
Sb4 S3 Hg1 100.4(2) 1_655 .
Sb4 S3 Cs1 98.23(19) 1_655 2_566
Sb4 S3 Cs1 90.74(18) 1_655 1_655
Sb4 S3 Cs2 153.5(2) 1_655 2_556
Sb4 S3 Cs2 75.67(15) 1_655 1_655
Cs1 S3 Cs1 79.72(14) 1_655 2_566
Cs1 S3 Cs2 109.58(15) 1_655 1_655
Cs1 S3 Cs2 168.66(19) 2_566 1_655
Cs2 S3 Cs1 108.32(15) 2_556 2_566
Cs2 S3 Cs1 93.64(16) 2_556 1_655
Cs2 S3 Cs2 78.19(13) 2_556 1_655
Hg1 S4 Cs2 109.7(2) . 1_655
Sb1 S4 Hg1 112.2(2) 2 .
Sb1 S4 Cs2 134.9(2) 2 1_655
Hg1 S5 Cs1 76.18(15) . 2_566
Sb3 S5 Hg1 91.09(19) . .
Sb3 S5 Cs1 135.2(2) . 2_566
Sb1 S6 Cs1 137.2(2) . 1_554
Sb1 S6 Cs2 100.19(18) . 2
Sb2 S6 Sb1 107.6(3) . .
Sb2 S6 Cs1 103.73(19) . 1_554
Sb2 S6 Cs2 96.42(18) . 2
Cs1 S6 Cs2 104.52(17) 1_554 2
Sb2 S7 Sb3 103.1(2) . .
Sb2 S7 Cs1 100.77(17) . 1_654
Sb2 S7 Cs2 96.5(2) . 2
Sb3 S7 Cs1 156.0(2) . 1_654
Sb3 S7 Cs2 93.99(18) . 2
Cs2 S7 Cs1 81.54(12) 2 1_654
Sb1 S8 Sb3 99.5(2) . .
Sb1 S8 Cs2 103.52(18) . 2
Sb3 S8 Cs2 96.39(17) . 2
loop_
_geom_bond_atom_site_label_1
_geom_bond_atom_site_label_2
_geom_bond_distance
_geom_bond_site_symmetry_2
Hg1 Cs1 3.8776(19) 2_566
Hg1 Cs2 4.238(2) 2_556
Hg1 S2 2.416(6) .
Hg1 S3 2.661(6) .
Hg1 S4 2.455(6) .
Hg1 S5 2.642(6) .
Sb1 S4 2.430(7) 2
Sb1 S6 2.461(6) .
Sb1 S8 2.450(5) .
Sb2 S1 2.470(6) 2_565
Sb2 S6 2.412(7) .
Sb2 S7 2.425(6) .
Sb3 Cs2 4.521(3) 2
Sb3 S5 2.398(6) .
Sb3 S7 2.457(6) .
Sb3 S8 2.462(6) .
Sb4 Cs1 4.259(2) .
Sb4 Cs2 4.233(2) .
Sb4 S1 2.459(6) .
Sb4 S2 2.417(6) .
Sb4 S3 2.356(6) 1_455
Cs1 Hg1 3.8775(19) 2_566
Cs1 S1 3.731(6) 2_466
Cs1 S1 3.827(7) 2_566
Cs1 S1 3.727(6) .
Cs1 S2 3.699(6) .
Cs1 S2 3.926(7) 2_566
Cs1 S3 3.583(6) 2_566
Cs1 S3 3.518(7) 1_455
Cs1 S5 3.539(6) 2_566
Cs1 S6 3.410(6) 1_556
Cs1 S7 4.125(6) 1_456
Cs2 Hg1 4.238(2) 2_556
Cs2 Sb3 4.521(3) 2
Cs2 Cs2 4.819(4) 2_456
Cs2 S2 3.791(7) .
Cs2 S2 3.740(7) 2_556
Cs2 S3 3.444(6) 2_556
Cs2 S3 4.148(6) 1_455
Cs2 S4 3.795(7) 1_455
Cs2 S6 3.641(6) 2
Cs2 S7 3.628(7) 2
Cs2 S8 3.527(6) 2
S1 Sb2 2.470(6) 2_565
S1 Cs1 3.731(6) 2_466
S1 Cs1 3.827(7) 2_566
S2 Cs1 3.926(7) 2_566
S2 Cs2 3.740(7) 2_556
S3 Sb4 2.356(6) 1_655
S3 Cs1 3.583(6) 2_566
S3 Cs1 3.518(7) 1_655
S3 Cs2 3.444(6) 2_556
S3 Cs2 4.148(6) 1_655
S4 Sb1 2.430(7) 2
S4 Cs2 3.795(7) 1_655
S5 Cs1 3.539(6) 2_566
S6 Cs1 3.410(6) 1_554
S6 Cs2 3.641(6) 2
S7 Cs1 4.125(6) 1_654
S7 Cs2 3.628(7) 2
S8 Cs2 3.527(6) 2
