#------------------------------------------------------------------------------
#$Date: 2019-11-24 22:38:09 +0200 (Sun, 24 Nov 2019) $
#$Revision: 239626 $
#$URL: file:///home/coder/svn-repositories/cod/cif/4/51/69/4516911.cif $
#------------------------------------------------------------------------------
#
# This file is available in the Crystallography Open Database (COD),
# http://www.crystallography.net/
#
# All data on this site have been placed in the public domain by the
# contributors.
#
data_4516911
loop_
_publ_author_name
'Oruganti, Madhavi'
'Nechipadappu, Sunil Kumar'
'Khade, Pavan A.'
'Trivedi, Darshak R.'
_publ_section_title
;
 Solid-State Versatility of the Molecular Salts/Cocrystals of
 2-Chloro-4-nitrobenzoic Acid: A Case Study on Halogen Bonds.
;
_journal_issue                   10
_journal_name_full               'ACS omega'
_journal_page_first              7146
_journal_page_last               7162
_journal_paper_doi               10.1021/acsomega.7b00878
_journal_volume                  2
_journal_year                    2017
_chemical_formula_sum            'C12 H10 Cl N3 O4'
_chemical_formula_weight         295.68
_space_group_crystal_system      triclinic
_space_group_IT_number           2
_space_group_name_Hall           '-P 1'
_space_group_name_H-M_alt        'P -1'
_atom_sites_solution_hydrogens   mixed
_audit_creation_method           SHELXL-2014/7
_cell_angle_alpha                98.910(2)
_cell_angle_beta                 95.465(2)
_cell_angle_gamma                105.836(2)
_cell_formula_units_Z            2
_cell_length_a                   5.9445(3)
_cell_length_b                   10.7390(5)
_cell_length_c                   10.9139(5)
_cell_measurement_reflns_used    2328
_cell_measurement_temperature    296(2)
_cell_measurement_theta_max      25.996
_cell_measurement_theta_min      1.909
_cell_volume                     655.22(5)
_computing_structure_refinement  'SHELXL-2014/7 (Sheldrick, 2014)'
_diffrn_ambient_temperature      296(2)
_diffrn_measured_fraction_theta_full 1.000
_diffrn_measured_fraction_theta_max 1.000
_diffrn_measurement_device_type  apexIIduo
_diffrn_radiation_type           MoK\a
_diffrn_radiation_wavelength     0.71073
_diffrn_reflns_av_R_equivalents  0.0179
_diffrn_reflns_av_unetI/netI     0.0122
_diffrn_reflns_Laue_measured_fraction_full 1.000
_diffrn_reflns_Laue_measured_fraction_max 1.000
_diffrn_reflns_limit_h_max       7
_diffrn_reflns_limit_h_min       -7
_diffrn_reflns_limit_k_max       13
_diffrn_reflns_limit_k_min       -13
_diffrn_reflns_limit_l_max       13
_diffrn_reflns_limit_l_min       -13
_diffrn_reflns_number            12405
_diffrn_reflns_point_group_measured_fraction_full 1.000
_diffrn_reflns_point_group_measured_fraction_max 1.000
_diffrn_reflns_theta_full        25.242
_diffrn_reflns_theta_max         25.996
_diffrn_reflns_theta_min         1.909
_exptl_absorpt_coefficient_mu    0.309
_exptl_crystal_density_diffrn    1.499
_exptl_crystal_description       block
_exptl_crystal_F_000             304
_refine_diff_density_max         0.205
_refine_diff_density_min         -0.258
_refine_diff_density_rms         0.035
_refine_ls_extinction_method     none
_refine_ls_goodness_of_fit_ref   0.951
_refine_ls_hydrogen_treatment    mixed
_refine_ls_matrix_type           full
_refine_ls_number_parameters     193
_refine_ls_number_reflns         2591
_refine_ls_number_restraints     46
_refine_ls_restrained_S_all      0.943
_refine_ls_R_factor_all          0.0363
_refine_ls_R_factor_gt           0.0326
_refine_ls_shift/su_max          0.000
_refine_ls_shift/su_mean         0.000
_refine_ls_structure_factor_coef Fsqd
_refine_ls_weighting_details
'w=1/[\s^2^(Fo^2^)+(0.1000P)^2^+0.0606P] where P=(Fo^2^+2Fc^2^)/3'
_refine_ls_weighting_scheme      calc
_refine_ls_wR_factor_gt          0.1155
_refine_ls_wR_factor_ref         0.1208
_reflns_Friedel_coverage         0.000
_reflns_number_gt                2328
_reflns_number_total             2591
_reflns_threshold_expression     'I > 2\s(I)'
_cod_data_source_file            ao7b00878_si_002.cif
_cod_data_source_block           CCDC_992132_2c4n.h
_cod_database_code               4516911
_shelx_shelxl_version_number     2014/7
_shelx_space_group_comment
;
The symmetry employed for this shelxl refinement is uniquely defined
by the following loop, which should always be used as a source of
symmetry information in preference to the above space-group names.
They are only intended as comments.
;
_shelx_res_file
;

    mo_NITK144_0m_a_a.res created by SHELXL-2014/7

TITL mo_NITK144_0m in P-1
CELL  0.71073   5.9445  10.7390  10.9139   98.910   95.465  105.836
ZERR    2.00   0.0003   0.0005   0.0005   0.002   0.002   0.002
LATT 1
SFAC C  H  N  O  Cl
UNIT 24  20  6  8  2
OMIT -3 52
L.S. 20
SHEL 999 0.8
ACTA
BOND
FMAP 2
PLAN 25
HTAB
EQIV $1 -x, -y+1, -z
HTAB C12 O2_$1
EQIV $2 -x+2, -y+1, -z+1
HTAB C9 O4_$2
HTAB N1 O2
HTAB N2 O1_$1
EQIV $3 x+1, y+1, z
HTAB N2 O1_$3
DELU
TEMP 23.000
WGHT    0.100000    0.060580
FVAR       0.91148
CL01  5    0.060710    0.397254    0.387761    11.00000    0.08332    0.05724 =
         0.05819    0.00101    0.01102    0.04151
O2    4    0.015867    0.321623    0.094877    11.00000    0.05230    0.03855 =
         0.06442    0.02138   -0.01593   -0.00107
O1    4   -0.170552    0.110242    0.074505    11.00000    0.05713    0.03680 =
         0.06510    0.00787   -0.01794   -0.00311
N1    3    0.405509    0.517642    0.146151    11.00000    0.04153    0.03536 =
         0.04447    0.00973    0.00097    0.00341
O4    4    0.675865    0.228288    0.621075    11.00000    0.07819    0.10303 =
         0.05022    0.00933   -0.01931    0.01951
N2    3    0.559655    0.846214    0.083236    11.00000    0.05555    0.03907 =
         0.07500    0.02071   -0.00683    0.00306
N3    3    0.659757    0.163611    0.516654    11.00000    0.04707    0.06736 =
         0.05820    0.02611   -0.00115    0.01061
C2    1    0.156733    0.199864    0.232366    11.00000    0.03875    0.02811 =
         0.03592    0.00778    0.00452    0.00449
O3    4    0.776996    0.089752    0.489217    11.00000    0.06835    0.10124 =
         0.09205    0.03817    0.00154    0.04381
C1    1   -0.014138    0.211728    0.125844    11.00000    0.03935    0.03221 =
         0.04048    0.00703    0.00152    0.00390
C11   1    0.580236    0.737949    0.124491    11.00000    0.04565    0.03484 =
         0.03784    0.00709    0.00445    0.00679
C12   1    0.386612    0.624997    0.105080    11.00000    0.03799    0.03872 =
         0.03788    0.00667    0.00066    0.00876
AFIX  43
H4    2    0.243048    0.625005    0.062968    11.00000   -1.20000
AFIX   0
C7    1    0.206385    0.279671    0.350729    11.00000    0.04462    0.03141 =
         0.03855    0.00530    0.00792    0.01114
C5    1    0.484411    0.175123    0.417303    11.00000    0.04171    0.04705 =
         0.04128    0.01617    0.00165    0.00872
C3    1    0.275784    0.105019    0.211276    11.00000    0.06101    0.03745 =
         0.03538    0.00250    0.00457    0.01752
AFIX  43
H10   2    0.242003    0.048454    0.133886    11.00000   -1.20000
AFIX   0
C6    1    0.367830    0.267556    0.444447    11.00000    0.05046    0.04145 =
         0.03338    0.00287    0.00308    0.00803
AFIX  43
H8    2    0.396545    0.320514    0.523559    11.00000   -1.20000
AFIX   0
C4    1    0.442641    0.092701    0.302180    11.00000    0.05892    0.04884 =
         0.04822    0.01200    0.00928    0.02753
AFIX  43
H9    2    0.524202    0.030720    0.286165    11.00000   -1.20000
AFIX   0
C8    1    0.605729    0.508729    0.205487    11.00000    0.05150    0.04731 =
         0.05756    0.02068    0.00038    0.01395
AFIX  43
H1    2    0.612785    0.430904    0.230785    11.00000   -1.20000
AFIX   0
C10   1    0.790110    0.730622    0.189259    11.00000    0.03906    0.04767 =
         0.05381    0.01202   -0.00080   -0.00090
AFIX  43
H3    2    0.923287    0.803690    0.205842    11.00000   -1.20000
AFIX   0
C9    1    0.801005    0.617157    0.228292    11.00000    0.04095    0.06131 =
         0.05837    0.02027   -0.00407    0.01173
AFIX  43
H2    2    0.941729    0.613435    0.270590    11.00000   -1.20000
AFIX   0
H5    2    0.272978    0.450483    0.136935    11.00000    0.07217
H6    2    0.439153    0.844638    0.045743    11.00000    0.05139
H7    2    0.672367    0.911953    0.092451    11.00000    0.05951
HKLF 4

REM  mo_NITK144_0m in P-1
REM R1 =  0.0326 for    2328 Fo > 4sig(Fo)  and  0.0363 for all    2591 data
REM    193 parameters refined using     46 restraints

END

WGHT      0.0528      0.1213

REM Instructions for potential hydrogen bonds
HTAB C12 O2_$1
HTAB C9 O4_$2
HTAB N1 O2
HTAB N2 O1_$1
HTAB N2 O1_$3

REM Highest difference peak  0.205,  deepest hole -0.258,  1-sigma level  0.035
Q1    1   0.2063  0.4170  0.3765  11.00000  0.05    0.20
Q2    1   0.2456  0.1798  0.2240  11.00000  0.05    0.18
Q3    1  -0.2025  0.1470  0.1390  11.00000  0.05    0.18
Q4    1   0.2217  0.2612  0.2889  11.00000  0.05    0.16
Q5    1   0.4745  0.2320  0.4197  11.00000  0.05    0.15
Q6    1   0.4977  0.1621  0.3577  11.00000  0.05    0.15
Q7    1   0.5432  0.1739  0.4344  11.00000  0.05    0.15
Q8    1   0.3070  0.2865  0.3884  11.00000  0.05    0.14
Q9    1   0.5075  0.6731  0.1074  11.00000  0.05    0.14
Q10   1   0.4354  0.1366  0.4032  11.00000  0.05    0.14
Q11   1   0.6946  0.7521  0.1956  11.00000  0.05    0.13
Q12   1   0.1051  0.2157  0.1796  11.00000  0.05    0.13
Q13   1   0.1655  0.3308  0.3641  11.00000  0.05    0.12
Q14   1  -0.0694  0.1120  0.0581  11.00000  0.05    0.12
Q15   1   0.3608  0.0963  0.2666  11.00000  0.05    0.12
Q16   1  -0.1233  0.0680  0.0810  11.00000  0.05    0.12
Q17   1   0.7917  0.2165  0.5779  11.00000  0.05    0.12
Q18   1   0.8456  0.1244  0.5065  11.00000  0.05    0.12
Q19   1   0.7732  0.0607  0.4068  11.00000  0.05    0.12
Q20   1   0.7571  0.6821  0.2509  11.00000  0.05    0.10
Q21   1   0.0595  0.2831  0.0735  11.00000  0.05    0.10
Q22   1   0.1525  0.3309  0.0723  11.00000  0.05    0.10
Q23   1  -0.2066  0.1034  0.0456  11.00000  0.05    0.09
Q24   1   0.8867  0.8423  0.2439  11.00000  0.05    0.09
Q25   1   0.2259  0.6218  0.1014  11.00000  0.05    0.09
;
_shelx_res_checksum              98318
_shelx_hkl_file
;
  -1   0   0  167.68    3.20
  -1   0   0  167.48    3.70
  -1   0   0  170.88    3.70
  -1   0   0  169.48    3.60
   1   0   0  168.58    3.60
   1   0   0  165.78    3.60
   1   0   0  155.08    3.70
   1   0   0  171.18    3.70
  -2   0   0   45.40    1.20
  -2   0   0   45.00    1.00
  -2   0   0   45.90    1.10
  -2   0   0   45.50    1.20
  -2   0   0   46.00    1.20
  -2   0   0   45.90    1.20
   2   0   0   44.90    1.10
   2   0   0   45.60    1.20
   2   0   0   45.10    1.20
  -3   0   0   24.40    0.80
  -3   0   0   24.20    0.70
  -3   0   0   25.20    0.90
   3   0   0   23.70    0.70
   3   0   0   23.80    0.80
  -4   0   0    0.20    0.30
  -4   0   0    0.10    0.20
  -4   0   0    0.40    0.30
   4   0   0    0.30    0.20
   4   0   0    0.10    0.20
  -5   0   0  214.78    4.90
  -5   0   0  216.48    5.30
  -5   0   0  215.18    5.20
  -5   0   0  216.98    5.40
   5   0   0  216.28    5.00
  -6   0   0    1.30    0.50
  -6   0   0    1.50    0.50
  -7   0   0    1.00    0.50
  -7   0   0    0.60    0.60
  -7   1   0    8.20    1.00
  -7   1   0    8.00    0.90
   6  -1   0   28.90    1.30
  -6   1   0   27.70    1.30
  -6   1   0   30.10    1.50
   5  -1   0    9.50    0.70
  -5   1   0    9.70    0.70
  -5   1   0    8.40    0.70
  -5   1   0    9.60    0.70
   4  -1   0    1.50    0.20
  -4   1   0    2.40    0.30
  -4   1   0    3.30    0.40
  -4   1   0    1.90    0.40
   3  -1   0    8.20    0.40
   3  -1   0    8.10    0.40
  -3   1   0    8.10    0.50
  -3   1   0    8.30    0.50
   2  -1   0   60.59    1.50
   2  -1   0   59.39    1.40
   2  -1   0   59.99    1.50
   2  -1   0   59.59    1.50
  -2   1   0   59.59    1.50
  -2   1   0   57.09    1.50
  -2   1   0   60.09    1.40
  -2   1   0   58.99    1.50
  -2   1   0   58.59    1.50
   1  -1   0   17.20    0.50
   1  -1   0   16.70    0.50
   1  -1   0   16.50    0.50
   1  -1   0   16.30    0.50
   1  -1   0   17.00    0.50
  -1   1   0   16.10    0.50
  -1   1   0   17.30    0.50
   0  -1   0   48.30    1.20
   0  -1   0   48.60    1.10
   0  -1   0   48.70    1.10
   0  -1   0   50.49    1.10
   0  -1   0   48.10    1.00
   0   1   0   47.00    1.00
   0   1   0   48.60    1.10
   0   1   0   46.60    1.10
   0   1   0   49.20    1.10
   0   1   0   44.80    1.20
   0   1   0   44.60    1.10
  -1  -1   0 1538.35   33.00
  -1  -1   0 1539.55   33.80
  -1  -1   0 1531.25   30.00
  -1  -1   0 1463.55   31.20
  -1  -1   0 1555.94   29.90
   1   1   0 1559.44   33.80
   1   1   0 1523.05   32.70
   1   1   0 1510.75   29.70
   1   1   0 1502.65   32.30
   1   1   0 1521.25   35.90
   1   1   0 1522.35   31.20
  -2  -1   0 1118.99   24.60
  -2  -1   0 1118.79   21.80
  -2  -1   0 1127.19   23.40
  -2  -1   0 1124.69   25.10
   2   1   0 1118.99   24.40
   2   1   0 1142.69   21.50
   2   1   0 1079.99   23.90
   2   1   0 1113.39   25.00
  -3  -1   0  646.94   14.00
  -3  -1   0  635.74   12.90
  -3  -1   0  605.24   13.80
  -3  -1   0  640.34   12.30
  -3  -1   0  618.44   13.60
   3   1   0  638.74   13.70
   3   1   0  630.14   13.30
  -4  -1   0  212.98    5.00
  -4  -1   0  210.38    4.70
  -4  -1   0  211.08    5.00
   4   1   0  207.38    4.70
   4   1   0  210.08    4.80
  -5  -1   0  162.28    4.10
  -5  -1   0  163.18    4.30
  -5  -1   0  160.38    3.80
  -5  -1   0  163.48    4.20
   5   1   0  160.28    3.90
  -6  -1   0    4.50    0.70
  -6  -1   0    6.50    0.90
  -7   2   0    8.70    1.00
  -7   2   0    8.30    0.90
   6  -2   0  208.58    5.00
  -6   2   0  210.38    5.30
  -6   2   0  205.08    5.20
   5  -2   0    8.70    0.60
   5  -2   0   10.20    0.60
  -5   2   0    9.80    0.60
  -5   2   0    9.30    0.70
  -5   2   0    8.10    0.70
  -5   2   0    9.70    0.70
   4  -2   0  201.38    4.70
   4  -2   0  201.48    4.60
  -4   2   0  202.78    4.90
  -4   2   0  200.58    4.70
   3  -2   0    1.60    0.20
   3  -2   0    1.90    0.30
   3  -2   0    2.40    0.30
   3  -2   0    2.30    0.30
  -3   2   0    2.70    0.30
  -3   2   0    1.90    0.30
   2  -2   0 1326.97   28.60
   2  -2   0 1311.37   29.70
   2  -2   0 1273.17   28.00
   2  -2   0 1309.77   29.10
   2  -2   0 1307.97   27.10
  -2   2   0 1285.77   29.40
  -2   2   0 1304.77   28.20
  -2   2   0 1293.07   27.20
   1  -2   0 1131.09   28.30
   1  -2   0 1225.98   26.10
   1  -2   0 1311.27   24.30
   1  -2   0 1260.47   27.00
   1  -2   0 1320.27   27.40
  -1   2   0 1254.27   28.20
  -1   2   0 1239.08   30.30
  -1   2   0 1293.57   25.50
  -1   2   0 1269.47   24.40
  -1   2   0 1261.87   27.30
   0  -2   0 1647.44   43.90
   0  -2   0 1673.03   32.30
   0  -2   0 1661.93   36.80
   0  -2   0 1624.94   35.40
   0   2   0 1652.23   33.90
   0   2   0 1633.74   36.70
   0   2   0 1669.43   35.40
   0   2   0 1648.04   35.40
   0   2   0 1653.73   35.00
   0   2   0 1616.64   32.20
   0   2   0 1643.64   43.90
  -1  -2   0  457.35    8.90
  -1  -2   0  427.36    8.50
  -1  -2   0  432.66    9.40
  -1  -2   0  445.96    8.10
  -1  -2   0  441.56    9.40
  -1  -2   0  449.76    9.70
   1   2   0  434.96    9.40
   1   2   0  427.46    8.50
   1   2   0  430.26    8.90
   1   2   0  430.26    9.20
   1   2   0  432.76    9.70
   1   2   0  431.96    9.80
  -2  -2   0  849.12   15.90
  -2  -2   0  859.71   18.70
  -2  -2   0  885.81   17.70
  -2  -2   0  889.01   19.40
  -2  -2   0  894.81   16.80
  -2  -2   0  872.71   18.50
   2   2   0  897.71   16.90
   2   2   0  852.31   17.80
   2   2   0  877.01   19.70
   2   2   0  835.82   19.00
   2   2   0  867.61   18.70
  -3  -2   0   40.90    1.30
  -3  -2   0   41.80    1.20
  -3  -2   0   42.60    1.20
  -3  -2   0   42.10    0.90
  -3  -2   0   41.90    1.30
  -3  -2   0   42.00    1.50
   3   2   0   42.10    1.00
   3   2   0   41.30    1.20
   3   2   0   41.40    1.10
  -4  -2   0    4.80    0.50
  -4  -2   0    4.70    0.30
  -4  -2   0    6.00    0.60
  -4  -2   0    4.40    0.50
   4   2   0    5.40    0.50
  -5  -2   0    9.70    0.90
  -5  -2   0    8.10    0.40
  -5  -2   0    8.80    0.90
  -5  -2   0    8.00    0.80
   5   2   0    9.20    0.70
  -6  -2   0    0.30    0.50
  -6  -2   0    0.30    0.50
  -7   3   0    0.30    0.50
  -7   3   0    1.20    0.50
   6  -3   0   22.90    1.20
  -6   3   0   25.80    1.20
  -6   3   0   25.60    1.30
  -6   3   0   25.40    1.30
   5  -3   0  107.39    2.90
   5  -3   0  109.39    2.90
  -5   3   0  109.89    2.90
  -5   3   0  109.59    3.00
  -5   3   0  108.29    2.90
   4  -3   0  804.72   17.10
   4  -3   0  788.72   17.40
   4  -3   0  814.02   16.30
   4  -3   0  771.22   16.80
  -4   3   0  791.42   17.10
  -4   3   0  785.62   17.60
   3  -3   0  240.38    5.70
   3  -3   0  245.08    5.50
   3  -3   0  240.28    5.40
   3  -3   0  242.58    5.60
   3  -3   0  250.87    5.30
   2  -3   0    5.50    0.40
   2  -3   0    5.00    0.30
  -2   3   0    5.00    0.30
  -2   3   0    5.50    0.30
   1  -3   0  561.04   12.40
   1  -3   0  560.84   12.40
  -1   3   0  577.94   11.40
  -1   3   0  560.54   12.50
  -1   3   0  560.54   11.50
  -1   3   0  563.94   12.00
   0  -3   0  689.03   15.30
   0  -3   0  693.73   13.50
   0  -3   0  708.63   15.50
   0  -3   0  697.63   15.60
   0  -3   0  723.03   14.20
   0   3   0  690.83   14.80
   0   3   0  706.73   13.50
   0   3   0  671.73   14.60
   0   3   0  700.73   14.30
   0   3   0  681.13   14.80
   0   3   0  713.93   15.30
   0   3   0  691.53   15.80
  -1  -3   0 2156.28   40.00
  -1  -3   0 2235.08   47.60
  -1  -3   0 2165.48   43.20
  -1  -3   0 2250.17   45.30
  -1  -3   0 2265.87   49.00
   1   3   0 2066.59   42.50
   1   3   0 2130.39   46.40
   1   3   0 2179.08   45.20
   1   3   0 2186.18   48.80
   1   3   0 2303.97   56.49
  -2  -3   0    1.40    0.20
  -2  -3   0    1.40    0.30
  -2  -3   0    1.60    0.30
  -2  -3   0    1.60    0.30
  -2  -3   0    2.70    0.30
  -2  -3   0    2.10    0.30
   2   3   0    2.30    0.30
   2   3   0    1.70    0.20
   2   3   0    1.70    0.20
  -3  -3   0    0.20    0.30
  -3  -3   0    0.00    0.20
  -3  -3   0    0.50    0.30
  -3  -3   0    0.50    0.30
  -3  -3   0    0.00    0.20
  -3  -3   0    0.20    0.30
   3   3   0    0.50    0.10
   3   3   0    0.80    0.30
   3   3   0    0.00    0.20
  -4  -3   0   75.89    2.10
  -4  -3   0   74.29    1.70
  -4  -3   0   76.29    2.30
  -4  -3   0   78.49    2.20
  -4  -3   0   75.19    2.30
   4   3   0   76.49    2.10
  -5  -3   0    6.30    0.50
  -5  -3   0    8.30    0.90
  -5  -3   0    6.40    0.80
  -6  -3   0    2.30    0.70
  -6  -3   0    3.40    0.80
  -6  -3   0    3.00    0.50
  -7   4   0    2.60    0.60
  -7   4   0    1.50    0.60
  -7   4   0    3.00    0.60
   6  -4   0    2.60    0.50
   6  -4   0    4.40    0.60
  -6   4   0    4.00    0.50
  -6   4   0    3.40    0.60
  -6   4   0    2.80    0.50
   5  -4   0    6.90    0.70
   5  -4   0    6.90    0.70
   5  -4   0    5.70    0.60
   5  -4   0    6.80    0.60
  -5   4   0    5.50    0.60
  -5   4   0    7.10    0.70
  -5   4   0    7.20    0.60
   4  -4   0   14.90    0.80
   4  -4   0   13.80    0.70
   4  -4   0   14.30    0.80
   4  -4   0   13.90    0.80
   4  -4   0   13.60    0.70
  -4   4   0   14.80    0.80
  -4   4   0   15.00    0.70
  -4   4   0   12.00    0.70
  -4   4   0   13.90    0.80
   3  -4   0    9.00    0.60
   3  -4   0    9.40    0.50
   3  -4   0    9.70    0.50
   3  -4   0    9.00    0.50
   3  -4   0    8.80    0.60
   2  -4   0  985.10   18.40
   2  -4   0  961.80   19.40
   2  -4   0  885.61   19.80
   2  -4   0  930.01   20.60
  -2   4   0  960.00   20.60
  -2   4   0  951.50   19.60
   1  -4   0  293.87    6.80
   1  -4   0  307.37    5.90
   1  -4   0  303.57    6.90
  -1   4   0  299.57    6.50
  -1   4   0  299.07    6.50
   0  -4   0  446.96    9.00
   0  -4   0  459.75   10.30
   0  -4   0  464.15    9.50
   0  -4   0  462.75    9.90
   0   4   0  468.75    9.50
   0   4   0  450.95    9.80
   0   4   0  456.95   10.10
  -1  -4   0  417.66    9.10
  -1  -4   0  424.16    8.30
  -1  -4   0  410.36    9.40
  -1  -4   0  427.36    9.20
  -1  -4   0  426.46    8.70
   1   4   0  415.66    9.10
   1   4   0  405.96    9.00
   1   4   0  412.26    8.30
  -2  -4   0  164.68    3.60
  -2  -4   0  159.58    3.90
  -2  -4   0  155.98    3.80
  -2  -4   0  160.28    3.10
  -2  -4   0  160.48    3.50
  -2  -4   0  160.88    3.80
   2   4   0  156.18    3.60
   2   4   0  155.28    3.70
   2   4   0  155.78    3.50
  -3  -4   0   36.90    1.40
  -3  -4   0   39.70    1.40
  -3  -4   0   39.60    1.30
  -3  -4   0   38.50    1.30
  -3  -4   0   39.20    1.10
   3   4   0   39.80    1.30
  -4  -4   0   34.50    1.50
  -4  -4   0   33.80    1.30
  -4  -4   0   34.50    1.50
  -4  -4   0   32.30    1.30
  -4  -4   0   34.40    1.00
   4   4   0   35.20    1.30
  -5  -4   0   10.00    1.00
  -5  -4   0    7.50    0.70
  -5  -4   0    8.30    0.90
  -6  -4   0   13.70    1.30
  -6  -4   0   12.90    0.90
   7  -5   0   12.40    1.00
  -7   5   0   12.80    1.00
  -7   5   0   11.90    1.00
  -7   5   0   11.40    0.90
   6  -5   0   31.70    1.40
   6  -5   0   31.20    1.40
   6  -5   0   31.30    1.40
  -6   5   0   31.10    1.40
  -6   5   0   31.50    1.30
  -6   5   0   29.10    1.30
  -6   5   0   30.20    1.30
   5  -5   0  181.98    4.50
   5  -5   0  173.88    4.20
   5  -5   0  181.28    4.40
   5  -5   0  176.08    4.40
   5  -5   0  180.68    4.60
  -5   5   0  171.48    4.10
  -5   5   0  177.98    4.40
  -5   5   0  178.18    4.60
  -5   5   0  174.08    4.50
   4  -5   0   16.30    0.80
   4  -5   0   16.60    0.90
   4  -5   0   16.80    0.80
   4  -5   0   17.60    0.80
   4  -5   0   17.70    0.90
  -4   5   0   16.40    0.90
  -4   5   0   16.50    0.70
   3  -5   0   40.70    1.40
   3  -5   0   38.30    1.30
   3  -5   0   39.80    1.30
   3  -5   0   40.40    1.30
   3  -5   0   40.50    1.40
  -3   5   0   40.70    1.10
  -3   5   0   39.80    1.30
   2  -5   0  198.08    4.40
   2  -5   0  198.98    4.50
   2  -5   0  188.48    4.70
   2  -5   0  196.78    3.90
  -2   5   0  192.78    4.10
   1  -5   0  858.61   17.40
   1  -5   0  866.31   18.30
   1  -5   0  868.31   16.50
   1  -5   0  859.31   18.90
   1  -5   0  837.12   18.60
  -1   5   0  837.42   18.60
  -1   5   0  839.02   18.00
   0  -5   0   26.40    0.90
   0  -5   0   25.30    0.80
   0  -5   0   24.80    0.90
   0  -5   0   24.60    0.90
   0   5   0   25.70    0.90
  -1  -5   0   38.20    1.10
  -1  -5   0   37.90    1.20
  -1  -5   0   37.50    1.20
  -1  -5   0   38.70    1.20
   1   5   0   37.70    1.20
   1   5   0   37.60    1.10
  -2  -5   0  165.08    3.70
  -2  -5   0  166.48    3.60
  -2  -5   0  162.18    4.00
  -2  -5   0  152.68    4.00
  -2  -5   0  161.68    4.00
   2   5   0  164.68    3.90
   2   5   0  156.18    3.60
   2   5   0  166.68    3.70
  -3  -5   0   17.50    1.00
  -3  -5   0   15.80    1.00
  -3  -5   0   15.80    0.80
  -3  -5   0   16.00    0.80
  -3  -5   0   17.80    0.90
   3   5   0   15.90    0.90
  -4  -5   0    2.70    0.60
  -4  -5   0    3.60    0.60
  -4  -5   0    3.00    0.50
  -4  -5   0    2.40    0.50
   4   5   0    3.10    0.50
  -5  -5   0    1.60    0.60
  -5  -5   0    1.60    0.70
  -5  -5   0    1.80    0.50
  -6  -5   0    0.10    0.50
   7  -6   0   15.00    1.10
  -7   6   0   15.30    1.10
  -7   6   0   16.70    1.20
  -7   6   0   16.00    1.10
   6  -6   0   18.10    1.10
   6  -6   0   17.10    1.00
   6  -6   0   18.00    1.10
   6  -6   0   17.70    1.10
  -6   6   0   18.10    1.00
  -6   6   0   19.20    1.10
  -6   6   0   18.20    1.10
  -6   6   0   18.00    0.90
   5  -6   0    0.40    0.40
   5  -6   0    0.00    0.30
   5  -6   0    0.20    0.30
   5  -6   0    0.00    0.40
   5  -6   0    0.00    0.30
  -5   6   0    0.30    0.40
  -5   6   0    0.20    0.30
  -5   6   0    0.00    0.30
  -5   6   0    0.20    0.20
   4  -6   0    0.20    0.30
   4  -6   0    0.80    0.30
   4  -6   0    0.60    0.30
   4  -6   0    0.50    0.30
   4  -6   0    0.80    0.30
  -4   6   0    0.80    0.20
  -4   6   0    0.70    0.30
   3  -6   0   48.10    1.60
   3  -6   0   51.39    1.60
   3  -6   0   48.50    1.60
   3  -6   0   49.70    1.50
  -3   6   0   48.50    1.60
  -3   6   0   51.49    1.40
   2  -6   0 1311.27   27.80
   2  -6   0 1292.97   26.50
   2  -6   0 1316.07   28.40
  -2   6   0 1313.17   28.90
  -2   6   0 1274.67   27.70
   1  -6   0  244.78    5.60
   1  -6   0  233.78    5.30
   1  -6   0  237.58    5.70
   1  -6   0  234.98    4.90
   1  -6   0  240.68    5.50
  -1   6   0  235.78    5.40
  -1   6   0  242.08    5.60
   0  -6   0  121.69    2.70
   0  -6   0  118.89    3.10
   0  -6   0  116.59    2.90
   0  -6   0  117.39    2.90
   0  -6   0  121.39    3.00
   0   6   0  121.39    3.00
   0   6   0  117.19    3.00
  -1  -6   0   65.19    1.80
  -1  -6   0   63.89    1.80
  -1  -6   0   67.59    1.80
  -1  -6   0   65.09    1.90
   1   6   0   63.19    1.80
  -2  -6   0    9.20    0.60
  -2  -6   0    8.30    0.60
  -2  -6   0    8.40    0.70
  -2  -6   0    8.40    0.80
  -2  -6   0   10.00    0.60
   2   6   0   11.60    0.80
   2   6   0   10.00    0.60
  -3  -6   0    1.60    0.50
  -3  -6   0    1.40    0.50
  -3  -6   0    1.50    0.40
  -3  -6   0    1.10    0.40
   3   6   0    2.00    0.50
  -4  -6   0    1.10    0.50
  -4  -6   0    0.00    0.50
   4   6   0    0.70    0.40
  -5  -6   0    2.70    0.70
   7  -7   0   11.50    1.00
   7  -7   0    9.80    1.10
  -7   7   0   10.10    1.00
  -7   7   0   11.80    1.00
   6  -7   0    9.70    0.80
   6  -7   0   10.00    1.00
   6  -7   0   10.60    0.90
   6  -7   0    8.30    0.80
   6  -7   0    9.40    0.90
  -6   7   0    9.70    0.80
  -6   7   0   10.90    0.70
  -6   7   0   11.20    0.90
  -6   7   0    9.50    0.90
   5  -7   0  101.79    3.10
   5  -7   0  102.29    2.90
   5  -7   0  100.89    2.90
   5  -7   0  104.59    3.10
  -5   7   0  102.09    3.00
  -5   7   0  103.09    2.60
   4  -7   0   45.60    1.60
   4  -7   0   47.10    1.70
   4  -7   0   47.50    1.60
   4  -7   0   45.40    1.70
  -4   7   0   45.40    1.40
  -4   7   0   45.60    1.70
   3  -7   0  169.28    4.00
   3  -7   0  168.08    3.40
   3  -7   0  168.48    4.10
   3  -7   0  165.48    4.30
  -3   7   0  167.68    3.70
  -3   7   0  163.28    4.10
   2  -7   0    0.80    0.30
   2  -7   0    0.80    0.30
  -2   7   0    0.80    0.30
  -2   7   0    0.80    0.30
   1  -7   0   49.10    1.40
   1  -7   0   48.50    1.60
   1  -7   0   47.20    1.50
   1  -7   0   50.79    1.60
   1  -7   0   49.80    1.60
  -1   7   0   49.50    1.60
  -1   7   0   48.70    1.60
   0  -7   0    9.00    0.60
   0  -7   0    8.20    0.60
   0  -7   0    9.20    0.60
   0  -7   0    9.30    0.70
   0  -7   0    9.20    0.60
   0   7   0    8.40    0.60
   0   7   0    9.80    0.70
  -1  -7   0    7.70    0.60
  -1  -7   0    6.80    0.60
  -1  -7   0    7.80    0.60
  -1  -7   0    7.00    0.60
   1   7   0    7.70    0.70
   1   7   0    8.20    0.60
  -2  -7   0   27.40    1.10
  -2  -7   0   27.10    1.10
  -2  -7   0   23.20    1.20
  -2  -7   0   25.00    1.20
  -2  -7   0   26.30    1.20
   2   7   0   24.80    1.20
  -3  -7   0    1.40    0.40
  -3  -7   0    2.00    0.60
  -3  -7   0    2.10    0.60
   3   7   0    1.70    0.50
  -4  -7   0    6.40    0.90
  -4  -7   0    5.50    0.90
   7  -8   0    0.00    0.50
  -7   8   0    0.10    0.40
  -7   8   0    1.10    0.50
   6  -8   0    5.40    0.80
   6  -8   0    4.40    0.80
   6  -8   0    5.50    0.70
   6  -8   0    3.90    0.60
  -6   8   0    5.70    0.70
  -6   8   0    7.10    0.80
  -6   8   0    4.50    0.70
   5  -8   0  109.69    3.20
   5  -8   0  103.49    3.00
   5  -8   0  106.09    3.00
   5  -8   0  102.99    3.20
  -5   8   0  104.09    2.70
  -5   8   0  104.19    3.10
   4  -8   0   28.70    1.30
   4  -8   0   31.60    1.30
   4  -8   0   27.50    1.20
   4  -8   0   28.70    1.40
  -4   8   0   29.00    1.30
  -4   8   0   29.80    1.10
  -4   8   0   26.40    1.30
   3  -8   0   66.59    2.10
   3  -8   0   66.79    2.20
   3  -8   0   67.79    1.60
   3  -8   0   68.29    2.20
   3  -8   0   66.19    2.00
  -3   8   0   64.69    2.10
  -3   8   0   66.79    2.10
   2  -8   0   11.60    0.80
   2  -8   0   15.60    0.90
   2  -8   0   14.00    0.80
  -2   8   0   14.80    0.90
  -2   8   0   14.20    0.90
   1  -8   0   29.50    1.20
   1  -8   0   30.40    1.10
   1  -8   0   30.80    1.20
   1  -8   0   30.10    1.30
  -1   8   0   31.50    1.30
  -1   8   0   29.50    1.20
   0  -8   0  116.79    3.00
   0  -8   0  115.59    3.20
   0  -8   0  114.89    3.00
   0  -8   0  118.09    2.90
   0  -8   0  117.09    3.20
   0   8   0  118.69    3.10
   0   8   0  119.09    3.10
  -1  -8   0  190.58    4.70
  -1  -8   0  189.68    4.90
  -1  -8   0  196.88    4.90
  -1  -8   0  189.58    4.50
  -1  -8   0  193.68    4.40
   1   8   0  192.68    4.70
   1   8   0  195.18    4.70
  -2  -8   0   38.60    1.50
  -2  -8   0   38.40    1.50
  -2  -8   0   39.50    1.50
  -2  -8   0   37.80    1.60
   2   8   0   38.50    1.50
  -3  -8   0    9.80    1.00
  -3  -8   0   10.70    1.10
  -3  -8   0    9.70    0.80
   3   8   0    9.70    1.00
  -4  -8   0    1.00    0.60
   7  -9   0   17.20    1.50
  -7   9   0   23.10    1.40
   6  -9   0   17.80    1.10
   6  -9   0   17.40    1.30
   6  -9   0   17.00    1.30
  -6   9   0   18.90    1.30
   5  -9   0   10.30    0.90
   5  -9   0   10.80    1.00
   5  -9   0    9.90    0.80
   5  -9   0   11.00    1.00
  -5   9   0   10.30    1.00
  -5   9   0   11.20    1.00
   4  -9   0    0.50    0.40
   4  -9   0    0.90    0.40
   4  -9   0    0.70    0.40
   4  -9   0    0.70    0.40
  -4   9   0    0.80    0.40
  -4   9   0    1.50    0.50
   3  -9   0   37.50    1.60
   3  -9   0   35.40    1.40
   3  -9   0   34.30    1.50
   3  -9   0   34.90    1.00
   3  -9   0   34.20    1.40
  -3   9   0   36.10    1.50
   2  -9   0   52.99    1.50
   2  -9   0   52.29    1.90
   2  -9   0   51.29    1.70
   2  -9   0   53.09    1.80
   2  -9   0   55.49    1.90
  -2   9   0   51.79    1.80
  -2   9   0   53.99    1.80
   1  -9   0   10.90    0.80
   1  -9   0   11.40    0.80
   1  -9   0   11.30    0.70
   1  -9   0   11.10    0.80
  -1   9   0   12.80    0.90
  -1   9   0   11.40    0.90
   0  -9   0  109.89    2.90
   0  -9   0  107.49    3.10
   0  -9   0  104.29    2.80
   0  -9   0  108.19    3.10
   0  -9   0  106.19    2.80
   0   9   0  107.19    3.00
   0   9   0  106.09    2.90
  -1  -9   0   81.29    2.40
  -1  -9   0   81.09    2.40
  -1  -9   0   81.89    2.60
  -1  -9   0   82.19    2.60
  -1  -9   0   81.09    2.30
   1   9   0   77.39    2.30
   1   9   0   78.49    2.50
  -2  -9   0    0.00    0.40
  -2  -9   0    0.00    0.30
  -2  -9   0    0.00    0.30
  -2  -9   0    0.30    0.50
   2   9   0    0.10    0.50
  -3  -9   0    7.40    0.90
   3   9   0    5.00    0.80
  -4  -9   0   11.40    1.10
   6 -10   0    7.30    0.90
   6 -10   0    7.80    1.10
  -6  10   0   10.10    1.00
  -6  10   0    7.40    0.90
   5 -10   0    0.10    0.40
   5 -10   0    0.60    0.40
   5 -10   0    1.60    0.50
   5 -10   0    1.10    0.60
  -5  10   0    0.00    0.50
  -5  10   0    1.40    0.60
   4 -10   0   18.70    1.10
   4 -10   0   19.80    1.30
   4 -10   0   19.10    0.60
   4 -10   0   19.20    1.20
   4 -10   0   21.30    1.20
  -4  10   0   20.20    1.20
  -4  10   0   19.20    1.20
   3 -10   0    0.80    0.40
   3 -10   0    0.40    0.20
   3 -10   0    0.20    0.40
   3 -10   0    0.20    0.40
   3 -10   0    0.40    0.30
  -3  10   0    0.60    0.40
  -3  10   0    0.30    0.40
   2 -10   0    0.00    0.30
   2 -10   0    0.00    0.30
   2 -10   0    0.00    0.30
   2 -10   0    0.00    0.20
  -2  10   0    0.00    0.40
  -2  10   0    0.00    0.40
   1 -10   0   30.90    1.30
   1 -10   0   29.00    1.20
   1 -10   0   30.40    1.30
   1 -10   0   29.30    1.40
  -1  10   0   29.80    1.30
  -1  10   0   29.00    1.40
   0 -10   0  126.59    3.40
   0 -10   0  122.29    3.60
   0 -10   0  125.99    3.60
   0 -10   0  128.29    3.20
   0 -10   0  127.09    3.30
   0  10   0  124.89    3.50
   0  10   0  122.39    3.40
  -1 -10   0  120.09    3.20
  -1 -10   0  116.99    3.50
  -1 -10   0  120.79    3.50
  -1 -10   0  118.59    3.30
  -1 -10   0  121.19    3.30
   1  10   0  122.89    3.50
  -2 -10   0    5.30    0.80
  -2 -10   0    4.60    0.60
  -2 -10   0    4.60    0.70
   2  10   0    4.60    0.80
  -3 -10   0    3.60    0.80
   6 -11   0    2.70    0.90
  -6  11   0    4.40    0.80
  -6  11   0    5.90    0.90
   5 -11   0   10.80    1.20
   5 -11   0   11.10    1.00
  -5  11   0   13.60    1.20
  -5  11   0   13.90    1.20
   4 -11   0   29.90    1.60
   4 -11   0   28.70    0.90
   4 -11   0   27.00    1.60
   4 -11   0   29.50    1.40
   4 -11   0   27.40    1.60
  -4  11   0   29.30    1.50
  -4  11   0   29.70    1.50
   3 -11   0   47.80    1.80
   3 -11   0   49.60    1.40
   3 -11   0   49.50    2.00
   3 -11   0   48.00    1.90
  -3  11   0   45.60    1.90
  -3  11   0   48.70    2.00
   2 -11   0    1.30    0.50
   2 -11   0    1.00    0.40
   2 -11   0    1.40    0.50
   2 -11   0    1.60    0.40
  -2  11   0    2.10    0.60
  -2  11   0    1.40    0.50
   1 -11   0   27.20    1.40
   1 -11   0   28.10    1.30
   1 -11   0   25.70    1.40
   1 -11   0   27.00    1.20
  -1  11   0   26.10    1.40
  -1  11   0   28.40    1.40
   0 -11   0    6.40    0.70
   0 -11   0    6.10    0.80
   0 -11   0    4.80    0.70
   0 -11   0    5.30    0.70
   0  11   0    5.10    0.90
   0  11   0    4.30    0.60
  -1 -11   0   25.00    1.50
  -1 -11   0   26.70    1.40
  -1 -11   0   25.30    1.40
   1  11   0   26.10    1.60
   2  11   0   55.79    2.30
  -5  12   0   19.20    1.40
  -5  12   0   19.00    1.40
   4 -12   0   22.50    1.30
   4 -12   0   23.60    0.80
  -4  12   0   24.50    1.50
  -4  12   0   24.80    1.50
   3 -12   0    8.30    0.90
   3 -12   0    9.30    0.70
   3 -12   0   10.30    1.10
  -3  12   0    8.70    1.00
  -3  12   0   10.00    1.00
   2 -12   0    3.70    0.50
   2 -12   0    4.20    0.70
   2 -12   0    3.90    0.70
  -2  12   0    3.80    0.80
  -2  12   0    3.90    0.70
   1 -12   0    3.40    0.70
   1 -12   0    3.30    0.70
   1 -12   0    2.60    0.50
  -1  12   0    3.40    0.80
  -1  12   0    3.30    0.60
   0 -12   0    0.30    0.40
   0 -12   0    0.20    0.40
   0  12   0    1.00    0.70
   1  12   0   33.70    1.80
  -4  13   0   30.50    1.70
  -4  13   0   29.40    1.80
  -3  13   0   46.80    2.10
  -3  13   0   49.90    2.20
   2 -13   0    9.10    0.80
  -2  13   0   11.40    1.10
  -2  13   0    8.40    1.10
   1 -13   0    0.90    0.40
  -1  13   0    1.00    0.70
  -1  13   0    1.60    0.60
   0 -13   0    3.50    0.60
   0  13   0    4.10    0.90
  -2  14  -1   13.00    1.20
   0  13  -1    0.00    0.70
   0 -13   1    0.00    0.40
  -1  13  -1    0.60    0.70
   1 -13   1    0.20    0.40
  -2  13  -1    2.40    0.60
  -2  13  -1    1.50    0.70
   2 -13   1    1.40    0.40
  -3  13  -1   15.70    1.40
  -3  13  -1   16.90    1.20
   3 -13   1   14.40    0.80
  -4  13  -1    2.60    0.60
  -4  13  -1    1.40    0.70
   4 -13   1    2.00    0.30
   1  12  -1   13.10    1.30
  -1 -12   1   12.60    1.10
   0  12  -1    0.90    0.70
   0 -12   1    0.70    0.50
   0 -12   1    1.20    0.40
  -1  12  -1    9.70    1.10
  -1  12  -1   14.50    1.10
   1 -12   1   11.20    0.90
   1 -12   1   12.20    1.00
   1 -12   1   12.80    1.10
  -2  12  -1    5.20    0.70
  -2  12  -1    5.10    0.80
   2 -12   1    4.70    0.70
   2 -12   1    4.60    0.60
   2 -12   1    5.00    0.70
  -3  12  -1    0.30    0.40
  -3  12  -1    0.00    0.50
   3 -12   1    0.40    0.50
   3 -12   1    0.00    0.60
   3 -12   1    0.30    0.30
   3 -12   1    0.90    0.40
  -4  12  -1    2.30    0.60
  -4  12  -1    2.80    0.70
   4 -12   1    1.80    0.50
   4 -12   1    2.10    0.30
   4 -12   1    1.50    0.70
  -5  12  -1    9.10    1.10
  -5  12  -1   10.40    1.10
   5 -12   1    8.20    1.10
   2  11  -1   15.20    1.30
   1  11  -1   78.39    2.70
  -1 -11   1   80.49    2.70
  -1 -11   1   75.99    2.50
  -1 -11   1   81.39    2.80
   0  11  -1    5.30    0.80
   0  11  -1    5.00    0.60
   0 -11   1    7.00    0.80
   0 -11   1    5.60    0.70
   0 -11   1    5.70    0.70
   0 -11   1    5.10    0.70
  -1  11  -1    0.40    0.50
  -1  11  -1    0.70    0.40
   1 -11   1    0.60    0.50
   1 -11   1    1.00    0.40
   1 -11   1    0.80    0.40
   1 -11   1    0.60    0.40
  -2  11  -1    7.90    0.90
  -2  11  -1    9.80    0.90
   2 -11   1    8.80    0.80
   2 -11   1    7.70    0.80
   2 -11   1    9.10    0.70
   2 -11   1    8.70    0.80
   2 -11   1    7.10    0.80
  -3  11  -1   13.30    1.10
  -3  11  -1   12.30    1.00
   3 -11   1   12.00    1.00
   3 -11   1   12.40    1.10
   3 -11   1   12.60    0.70
   3 -11   1   12.90    0.90
   3 -11   1   13.30    1.00
  -4  11  -1    4.40    0.70
  -4  11  -1    5.50    0.80
   4 -11   1    3.90    0.70
   4 -11   1    4.90    0.30
   4 -11   1    5.40    0.70
   4 -11   1    3.80    0.60
   4 -11   1    5.40    0.80
  -5  11  -1   24.50    1.50
  -5  11  -1   22.90    1.40
   5 -11   1   20.50    1.20
   5 -11   1   21.70    1.40
  -6  11  -1    8.30    1.00
  -6  11  -1    8.70    1.10
   6 -11   1    6.40    1.00
   3  10  -1    2.30    0.70
  -3 -10   1    2.50    0.70
   2  10  -1    2.00    0.70
  -2 -10   1    2.30    0.60
  -2 -10   1    1.70    0.50
  -2 -10   1    1.60    0.60
  -2 -10   1    2.20    0.50
   1  10  -1   12.70    1.20
  -1 -10   1   13.10    0.90
  -1 -10   1   12.40    1.00
  -1 -10   1   12.00    0.90
  -1 -10   1   13.30    0.90
  -1 -10   1   12.00    1.00
   0  10  -1   14.00    0.90
   0  10  -1   14.70    1.10
   0 -10   1   15.50    1.00
   0 -10   1   14.30    0.90
   0 -10   1   15.70    1.00
   0 -10   1   15.00    1.00
  -1  10  -1   20.90    1.10
  -1  10  -1   20.10    1.20
   1 -10   1   20.80    1.00
   1 -10   1   19.70    1.10
   1 -10   1   18.90    1.10
   1 -10   1   18.00    1.10
  -2  10  -1   60.59    2.10
  -2  10  -1   63.09    2.20
   2 -10   1   66.39    2.10
   2 -10   1   60.99    2.20
   2 -10   1   62.19    1.80
   2 -10   1   63.39    2.10
   2 -10   1   63.49    2.20
  -3  10  -1    0.40    0.40
  -3  10  -1    0.30    0.40
   3 -10   1    0.20    0.40
   3 -10   1    0.50    0.20
   3 -10   1    0.70    0.40
   3 -10   1    0.50    0.30
   3 -10   1    0.40    0.30
  -4  10  -1    8.20    0.80
  -4  10  -1    7.50    0.80
   4 -10   1    6.80    0.80
   4 -10   1    6.00    0.80
   4 -10   1    6.30    0.70
   4 -10   1    7.00    0.70
  -5  10  -1    0.10    0.40
  -5  10  -1    0.50    0.40
   5 -10   1    0.60    0.40
   5 -10   1    0.40    0.40
   5 -10   1    0.60    0.40
   5 -10   1    0.00    0.50
  -6  10  -1   22.70    1.40
  -6  10  -1   22.30    1.40
   6 -10   1   21.40    1.50
  -4  -9   1    2.80    0.70
   3   9  -1    0.00    0.60
  -3  -9   1    0.00    0.30
  -3  -9   1    0.40    0.50
  -3  -9   1    0.00    0.50
   2   9  -1   11.40    1.10
  -2  -9   1   11.60    0.90
  -2  -9   1   10.30    0.90
  -2  -9   1   11.90    1.00
  -2  -9   1   12.30    0.90
   1   9  -1  110.99    3.10
  -1  -9   1  110.09    3.00
  -1  -9   1  111.89    3.20
  -1  -9   1  104.99    3.20
  -1  -9   1  115.29    3.00
  -1  -9   1  107.89    3.00
   0   9  -1   31.80    1.40
   0   9  -1   32.60    1.30
   0  -9   1   34.10    1.50
   0  -9   1   32.60    1.30
   0  -9   1   33.90    1.30
   0  -9   1   34.10    1.40
   0  -9   1   33.20    1.20
  -1   9  -1   80.99    2.40
  -1   9  -1   86.19    2.50
   1  -9   1   85.09    2.40
   1  -9   1   84.29    2.60
   1  -9   1   85.19    2.50
   1  -9   1   85.59    2.20
   1  -9   1   79.29    2.40
  -2   9  -1   38.60    1.50
  -2   9  -1   39.20    1.50
   2  -9   1   39.50    1.50
   2  -9   1   40.30    1.20
   2  -9   1   38.80    1.60
   2  -9   1   38.90    1.40
   2  -9   1   38.90    1.50
  -3   9  -1  138.09    3.70
  -3   9  -1  133.49    3.70
   3  -9   1  135.19    3.60
   3  -9   1  141.09    3.60
   3  -9   1  138.69    3.80
   3  -9   1  145.89    3.90
   3  -9   1  137.69    3.00
  -4   9  -1   88.09    2.70
  -4   9  -1   82.59    2.70
  -4   9  -1   88.09    2.40
   4  -9   1   84.69    2.60
   4  -9   1   86.69    2.60
   4  -9   1   90.59    2.80
   4  -9   1   86.49    2.80
  -5   9  -1    1.20    0.50
  -5   9  -1    1.70    0.50
  -5   9  -1    1.80    0.40
   5  -9   1    1.80    0.40
   5  -9   1    1.60    0.60
   5  -9   1    1.80    0.50
   5  -9   1    1.20    0.50
  -6   9  -1   31.40    1.50
  -6   9  -1   28.40    1.50
   6  -9   1   28.60    1.60
   6  -9   1   27.60    1.60
   6  -9   1   27.70    1.40
  -7   9  -1    2.60    0.60
  -7   9  -1    1.90    0.50
   7  -9   1    0.60    0.60
   4   8  -1    5.20    0.70
  -4  -8   1    4.50    0.80
   3   8  -1   10.90    1.00
  -3  -8   1   11.10    0.90
  -3  -8   1   11.60    0.90
  -3  -8   1    9.40    0.80
  -3  -8   1    9.50    1.00
   2   8  -1    2.50    0.60
  -2  -8   1    3.40    0.50
  -2  -8   1    3.00    0.60
  -2  -8   1    2.20    0.50
  -2  -8   1    2.40    0.50
   1   8  -1  113.89    3.10
   1   8  -1  108.69    2.80
  -1  -8   1  108.39    3.10
  -1  -8   1  111.29    2.90
  -1  -8   1  111.09    2.90
  -1  -8   1  108.69    2.80
  -1  -8   1  113.39    3.10
   0   8  -1    1.60    0.50
   0   8  -1    0.90    0.30
   0  -8   1    1.20    0.30
   0  -8   1    1.00    0.40
   0  -8   1    1.40    0.40
   0  -8   1    0.50    0.30
   0  -8   1    1.10    0.30
  -1   8  -1   82.29    2.40
  -1   8  -1   82.99    2.40
   1  -8   1   86.89    2.10
   1  -8   1   83.19    2.40
   1  -8   1   82.39    2.50
   1  -8   1   84.49    2.40
  -2   8  -1   27.70    1.20
  -2   8  -1   28.10    1.20
   2  -8   1   27.00    1.20
   2  -8   1   28.40    1.10
  -3   8  -1   13.60    0.80
  -3   8  -1   13.20    0.80
   3  -8   1   13.70    0.80
   3  -8   1   13.60    0.50
   3  -8   1   13.00    0.80
   3  -8   1   13.50    0.80
   3  -8   1   12.80    0.90
  -4   8  -1  367.56    8.40
  -4   8  -1  366.26    7.80
  -4   8  -1  357.36    8.70
   4  -8   1  364.66    8.40
   4  -8   1  370.76    8.20
   4  -8   1  377.26    8.80
   4  -8   1  365.66    8.80
  -5   8  -1   34.10    1.50
  -5   8  -1   33.60    1.30
  -5   8  -1   34.90    1.50
   5  -8   1   32.70    1.40
   5  -8   1   34.30    1.40
   5  -8   1   34.50    1.60
   5  -8   1   31.60    1.50
  -6   8  -1   34.20    1.60
  -6   8  -1   35.20    1.50
  -6   8  -1   34.50    1.60
  -6   8  -1   32.80    1.40
   6  -8   1   36.00    1.60
   6  -8   1   35.50    1.70
   6  -8   1   35.80    1.70
  -7   8  -1    7.00    0.80
   7  -8   1    5.60    0.90
  -5  -7   1    2.60    0.70
   4   7  -1   10.40    0.90
  -4  -7   1    8.20    1.00
  -4  -7   1    7.50    0.70
  -4  -7   1   10.20    1.00
   3   7  -1  107.29    3.10
  -3  -7   1  113.69    3.30
  -3  -7   1  111.79    3.00
  -3  -7   1  110.49    3.20
  -3  -7   1  115.89    3.20
   2   7  -1    9.20    0.90
  -2  -7   1    9.60    0.90
  -2  -7   1   11.00    0.80
  -2  -7   1   10.30    0.80
  -2  -7   1   10.30    0.70
  -2  -7   1    9.10    0.70
   1   7  -1   99.99    2.70
   1   7  -1  100.39    2.50
  -1  -7   1   98.29    2.80
  -1  -7   1   97.49    2.60
  -1  -7   1   99.39    2.60
  -1  -7   1   98.79    2.70
  -1  -7   1   97.69    2.50
   0   7  -1   78.79    2.20
   0   7  -1   80.59    2.30
   0  -7   1   81.49    2.30
   0  -7   1   82.59    2.10
   0  -7   1   80.89    2.30
   0  -7   1   78.49    2.10
   0  -7   1   80.19    2.20
   0  -7   1   81.99    2.20
  -1   7  -1   55.09    1.60
  -1   7  -1   53.99    1.70
   1  -7   1   49.20    1.40
   1  -7   1   51.39    1.70
   1  -7   1   51.99    1.60
   1  -7   1   52.99    1.60
  -2   7  -1   18.60    0.90
   2  -7   1   18.00    0.90
   2  -7   1   17.40    0.80
   2  -7   1   18.00    0.80
  -3   7  -1   12.30    0.80
  -3   7  -1   13.40    0.70
   3  -7   1   13.10    0.70
   3  -7   1   13.20    0.40
   3  -7   1   15.50    0.80
   3  -7   1   12.80    0.80
  -4   7  -1   60.29    1.80
  -4   7  -1   62.39    2.00
   4  -7   1   59.99    1.90
   4  -7   1   62.19    1.90
   4  -7   1   61.89    2.10
   4  -7   1   60.99    2.10
  -5   7  -1    0.80    0.50
  -5   7  -1    1.20    0.40
   5  -7   1    1.50    0.50
   5  -7   1    1.80    0.50
   5  -7   1    1.90    0.40
   5  -7   1    1.60    0.40
  -6   7  -1   11.30    0.80
  -6   7  -1   11.60    0.90
  -6   7  -1   10.70    0.80
  -6   7  -1   11.70    0.90
   6  -7   1   10.60    0.90
   6  -7   1   11.10    0.80
   6  -7   1   10.50    0.90
   6  -7   1   12.20    1.00
  -7   7  -1    6.30    0.80
   7  -7   1    5.30    0.80
  -5  -6   1   17.00    1.30
   4   6  -1    0.70    0.40
  -4  -6   1    0.00    0.50
  -4  -6   1    1.20    0.50
  -4  -6   1    0.00    0.40
   3   6  -1   38.40    1.50
  -3  -6   1   37.10    1.50
  -3  -6   1   36.70    1.40
  -3  -6   1   39.40    1.60
  -3  -6   1   37.90    1.40
   2   6  -1  228.28    5.30
  -2  -6   1  232.68    5.00
  -2  -6   1  226.88    5.10
  -2  -6   1  225.98    5.40
  -2  -6   1  220.48    5.50
   1   6  -1   28.80    1.10
  -1  -6   1   29.20    1.10
  -1  -6   1   29.50    1.00
  -1  -6   1   29.70    1.00
  -1  -6   1   29.10    1.10
  -1  -6   1   28.30    1.10
   0   6  -1  251.97    5.70
   0   6  -1  252.67    5.80
   0  -6   1  252.67    6.00
   0  -6   1  247.28    5.30
   0  -6   1  252.27    5.60
   0  -6   1  256.47    5.80
   0  -6   1  257.17    5.80
  -1   6  -1  358.56    8.10
  -1   6  -1  348.47    7.80
   1  -6   1  360.56    7.10
   1  -6   1  353.46    8.20
   1  -6   1  360.26    7.90
   1  -6   1  354.36    8.10
  -2   6  -1  296.47    6.80
  -2   6  -1  309.97    6.40
   2  -6   1  302.37    7.10
   2  -6   1  297.87    7.00
   2  -6   1  309.27    6.80
   2  -6   1  302.07    6.60
  -3   6  -1   13.10    0.70
  -3   6  -1   13.60    0.60
   3  -6   1   13.90    0.80
   3  -6   1   13.50    0.80
   3  -6   1   13.40    0.70
   3  -6   1   14.10    0.70
  -4   6  -1    1.00    0.30
   4  -6   1    0.90    0.30
   4  -6   1    1.00    0.30
   4  -6   1    0.60    0.40
  -5   6  -1    0.00    0.30
  -5   6  -1    0.20    0.30
  -5   6  -1    0.30    0.30
  -5   6  -1    0.50    0.30
   5  -6   1    0.30    0.30
   5  -6   1    0.00    0.30
   5  -6   1    0.40    0.30
   5  -6   1    0.00    0.30
  -6   6  -1   36.20    1.50
  -6   6  -1   37.50    1.50
  -6   6  -1   36.30    1.40
  -6   6  -1   36.00    1.40
   6  -6   1   38.90    1.60
   6  -6   1   35.80    1.50
   6  -6   1   37.30    1.50
   6  -6   1   34.40    1.50
  -7   6  -1    0.00    0.30
  -7   6  -1    0.80    0.40
  -5  -5   1    3.80    0.80
  -5  -5   1    4.30    0.60
  -5  -5   1    5.70    0.80
   4   5  -1    2.40    0.50
  -4  -5   1    0.90    0.50
  -4  -5   1    2.30    0.50
  -4  -5   1    0.70    0.40
  -4  -5   1    1.50    0.50
  -4  -5   1    1.90    0.40
   3   5  -1   17.20    0.90
  -3  -5   1   15.90    0.90
  -3  -5   1   17.10    1.00
  -3  -5   1   16.60    0.90
  -3  -5   1   16.30    0.90
   2   5  -1   36.80    1.20
   2   5  -1   42.00    1.30
   2   5  -1   38.30    1.00
  -2  -5   1   38.60    1.30
  -2  -5   1   40.10    1.30
  -2  -5   1   38.40    1.30
  -2  -5   1   39.40    1.30
   1   5  -1   22.20    0.70
   1   5  -1   22.40    0.90
  -1  -5   1   22.60    0.80
  -1  -5   1   22.90    0.90
  -1  -5   1   23.10    0.90
  -1  -5   1   23.10    0.90
  -1  -5   1   23.90    0.90
   0   5  -1  529.75   11.50
   0  -5   1  543.15   11.50
   0  -5   1  519.45   12.00
   0  -5   1  547.85   11.60
   0  -5   1  548.55   11.10
   0  -5   1  539.05   10.60
   0  -5   1  521.85   11.80
  -1   5  -1  176.28    3.90
   1  -5   1  187.58    4.10
   1  -5   1  159.38    4.30
   1  -5   1  185.28    3.70
   1  -5   1  183.28    4.20
  -2   5  -1  403.46    9.00
  -2   5  -1  409.56    8.40
   2  -5   1  411.26    8.00
   2  -5   1  416.36    9.40
   2  -5   1  425.16    9.00
   2  -5   1  411.86    8.70
  -3   5  -1  420.26    8.80
   3  -5   1  434.46    9.00
   3  -5   1  424.06    9.30
   3  -5   1  424.96    9.70
   3  -5   1  424.16    9.80
  -4   5  -1   25.70    1.00
   4  -5   1   26.40    1.00
   4  -5   1   24.40    1.00
   4  -5   1   28.50    1.10
   4  -5   1   25.80    1.10
   4  -5   1   23.60    1.00
  -5   5  -1   85.69    2.40
  -5   5  -1   83.59    2.30
  -5   5  -1   83.99    2.50
   5  -5   1   81.49    2.40
   5  -5   1   82.49    2.50
   5  -5   1   82.19    2.30
   5  -5   1   88.49    2.40
   5  -5   1   82.39    2.50
  -6   5  -1    4.50    0.60
  -6   5  -1    5.10    0.60
  -6   5  -1    4.30    0.60
  -6   5  -1    4.80    0.60
   6  -5   1    5.10    0.60
   6  -5   1    4.50    0.60
  -7   5  -1    0.80    0.40
  -7   5  -1    1.40    0.50
  -6  -4   1   17.80    1.40
  -6  -4   1   16.90    0.90
   5   4  -1   46.50    1.70
  -5  -4   1   48.10    1.90
  -5  -4   1   45.20    1.70
  -5  -4   1   44.90    1.30
  -5  -4   1   48.40    1.90
   4   4  -1    7.30    0.70
  -4  -4   1    6.60    0.50
  -4  -4   1    7.50    0.80
  -4  -4   1    7.10    0.80
  -4  -4   1    6.70    0.60
  -4  -4   1    5.80    0.60
   3   4  -1    0.10    0.30
  -3  -4   1    0.30    0.30
  -3  -4   1    0.50    0.40
  -3  -4   1    0.40    0.30
  -3  -4   1    0.20    0.30
  -3  -4   1    0.60    0.30
   2   4  -1    6.90    0.60
   2   4  -1    7.20    0.50
  -2  -4   1    7.40    0.50
  -2  -4   1    7.40    0.60
  -2  -4   1    5.30    0.50
  -2  -4   1    5.40    0.50
  -2  -4   1    8.00    0.50
   1   4  -1    2.20    0.40
   1   4  -1    1.80    0.20
   1   4  -1    2.10    0.30
  -1  -4   1    1.90    0.30
  -1  -4   1    2.10    0.30
  -1  -4   1    2.20    0.30
  -1  -4   1    2.40    0.30
   0   4  -1  103.29    2.50
   0   4  -1  103.59    2.40
   0   4  -1  106.29    2.50
   0  -4   1  102.09    2.50
   0  -4   1  102.99    2.30
   0  -4   1  107.79    2.60
   0  -4   1  106.39    2.40
   0  -4   1  105.99    2.40
  -1   4  -1   27.80    0.70
  -1   4  -1   27.00    0.90
  -1   4  -1   28.00    0.90
  -1   4  -1   29.00    0.80
  -1   4  -1   28.50    0.90
   1  -4   1   30.40    0.90
   1  -4   1   28.20    0.70
   1  -4   1   27.40    0.90
  -2   4  -1  365.06    7.30
   2  -4   1  366.86    6.80
   2  -4   1  320.37    7.70
   2  -4   1  363.36    7.50
   2  -4   1  366.86    8.10
   2  -4   1  350.96    8.00
  -3   4  -1  383.66    7.90
   3  -4   1  381.66    8.70
   3  -4   1  390.66    8.40
   3  -4   1  368.56    8.30
   3  -4   1  378.26    8.00
   3  -4   1  380.46    8.60
  -4   4  -1  185.58    4.40
  -4   4  -1  186.18    4.20
  -4   4  -1  186.58    4.50
   4  -4   1  184.78    4.60
   4  -4   1  194.28    4.30
   4  -4   1  184.88    4.40
   4  -4   1  188.08    4.60
   4  -4   1  181.38    4.40
  -5   4  -1  248.68    5.60
  -5   4  -1  244.48    5.80
  -5   4  -1  252.57    6.00
   5  -4   1  248.38    5.80
   5  -4   1  251.07    6.00
   5  -4   1  251.37    5.60
  -6   4  -1    3.00    0.50
  -6   4  -1    4.00    0.60
  -6   4  -1    3.60    0.50
  -6   4  -1    2.70    0.50
   6  -4   1    2.40    0.50
   6  -4   1    3.50    0.50
  -7   4  -1    1.80    0.60
  -7   4  -1    1.00    0.40
  -6  -3   1    3.00    0.40
  -6  -3   1    3.10    0.70
  -6  -3   1    2.60    0.60
   5   3  -1   10.20    0.80
  -5  -3   1   10.30    0.60
  -5  -3   1   10.90    1.00
  -5  -3   1    9.30    0.90
  -5  -3   1   10.20    0.90
   4   3  -1   62.79    1.90
  -4  -3   1   62.89    1.90
  -4  -3   1   64.79    2.10
  -4  -3   1   65.19    2.10
  -4  -3   1   64.79    1.50
  -4  -3   1   65.09    2.00
   3   3  -1  501.85   10.90
  -3  -3   1  508.55   11.40
  -3  -3   1  506.05    9.20
  -3  -3   1  487.35   11.10
  -3  -3   1  517.65   11.20
  -3  -3   1  492.35   10.00
  -3  -3   1  517.55   10.60
   2   3  -1    9.90    0.50
   2   3  -1   12.10    0.60
  -2  -3   1   10.20    0.60
  -2  -3   1   13.30    0.50
  -2  -3   1    9.40    0.50
  -2  -3   1    9.80    0.60
  -2  -3   1    9.70    0.60
  -2  -3   1   10.60    0.60
   1   3  -1    5.60    0.30
   1   3  -1    7.00    0.50
   1   3  -1    6.50    0.50
   1   3  -1    5.90    0.40
  -1  -3   1    5.80    0.40
  -1  -3   1    6.50    0.40
  -1  -3   1    7.80    0.50
   0   3  -1  361.96    7.80
   0   3  -1  361.36    7.70
   0   3  -1  356.36    8.10
   0   3  -1  356.96    7.70
   0   3  -1  372.56    7.50
   0   3  -1  358.86    7.10
   0  -3   1  355.26    7.90
   0  -3   1  361.06    7.40
   0  -3   1  349.96    7.80
   0  -3   1  369.86    7.80
   0  -3   1  364.66    7.10
   0  -3   1  361.56    8.10
  -1   3  -1   26.90    0.80
  -1   3  -1   27.00    0.70
  -1   3  -1   26.40    0.80
  -1   3  -1   27.40    0.80
  -1   3  -1   26.60    0.80
   1  -3   1   27.60    0.80
   1  -3   1   26.60    0.80
   1  -3   1   27.20    0.80
   1  -3   1   26.60    0.80
  -2   3  -1   51.39    1.30
  -2   3  -1   51.09    1.30
  -2   3  -1   49.70    1.30
   2  -3   1   52.59    1.30
   2  -3   1   47.50    1.30
   2  -3   1   49.10    1.30
  -3   3  -1  248.98    5.50
   3  -3   1  246.08    5.70
   3  -3   1  241.88    5.50
   3  -3   1  247.88    5.70
   3  -3   1  249.88    5.30
  -4   3  -1   10.10    0.60
  -4   3  -1   10.70    0.60
   4  -3   1    9.50    0.60
   4  -3   1   10.60    0.60
   4  -3   1   11.20    0.60
   4  -3   1    9.10    0.60
   4  -3   1   10.40    0.60
  -5   3  -1  134.69    3.40
  -5   3  -1  133.69    3.50
   5  -3   1  130.89    3.50
   5  -3   1  132.79    3.30
  -6   3  -1    5.90    0.70
  -6   3  -1    7.70    0.80
  -6   3  -1    4.10    0.60
  -7   3  -1    1.70    0.60
  -6  -2   1    0.10    0.50
  -6  -2   1    0.00    0.50
   5   2  -1   20.90    1.00
  -5  -2   1   20.70    1.10
  -5  -2   1   21.20    1.20
  -5  -2   1   19.70    0.60
  -5  -2   1   19.70    1.10
  -5  -2   1   18.80    1.10
   4   2  -1  184.78    4.30
  -4  -2   1  187.78    4.20
  -4  -2   1  185.48    4.50
  -4  -2   1  188.48    4.50
  -4  -2   1  177.48    4.60
  -4  -2   1  180.88    3.40
   3   2  -1  123.99    3.00
  -3  -2   1  122.99    2.90
  -3  -2   1  125.39    3.10
  -3  -2   1  121.79    3.10
  -3  -2   1  121.09    3.10
  -3  -2   1  125.59    2.30
  -3  -2   1  124.69    2.70
   2   2  -1  340.87    7.40
   2   2  -1  344.27    6.80
  -2  -2   1  351.86    6.80
  -2  -2   1  346.67    7.80
  -2  -2   1  346.37    7.20
  -2  -2   1  345.17    6.30
  -2  -2   1  335.67    7.60
   1   2  -1 5537.75  125.69
   1   2  -1 5515.45  107.29
   1   2  -1 5508.85  122.39
   1   2  -1 5666.33  133.59
   1   2  -1 5536.25  123.19
   1   2  -1 5449.15  118.29
  -1  -2   1 5826.42  124.79
  -1  -2   1 5555.84  123.49
  -1  -2   1 5875.11  138.29
  -1  -2   1 5451.45  107.39
   0   2  -1  785.12   14.90
   0   2  -1  756.52   17.00
   0   2  -1  774.92   16.00
   0   2  -1  742.63   16.00
   0   2  -1  769.32   16.60
   0  -2   1  756.52   16.90
   0  -2   1  772.52   15.10
   0  -2   1  727.83   17.30
   0  -2   1  760.32   16.60
   0  -2   1  749.82   16.40
  -1   2  -1  198.28    4.20
  -1   2  -1  196.28    4.00
  -1   2  -1  189.98    4.20
  -1   2  -1  194.38    4.40
  -1   2  -1  195.98    4.10
   1  -2   1  194.18    4.10
   1  -2   1  198.88    4.20
   1  -2   1  194.98    4.40
   1  -2   1  191.78    3.80
  -2   2  -1 2042.90   42.40
  -2   2  -1 2010.00   44.30
  -2   2  -1 2095.59   44.30
  -2   2  -1 2062.09   46.00
   2  -2   1 2042.50   45.70
   2  -2   1 2108.29   42.60
   2  -2   1 2081.79   46.10
   2  -2   1 2089.49   44.50
   2  -2   1 2048.79   43.80
  -3   2  -1   76.49    1.80
  -3   2  -1   78.29    2.00
  -3   2  -1   77.69    1.90
   3  -2   1   76.39    1.90
   3  -2   1   70.09    2.00
  -4   2  -1    0.00    0.20
  -4   2  -1    0.90    0.30
   4  -2   1    0.00    0.20
   4  -2   1    0.00    0.20
  -5   2  -1    5.00    0.60
  -5   2  -1    5.90    0.70
  -5   2  -1    5.80    0.60
  -5   2  -1    6.10    0.60
   5  -2   1    5.40    0.50
   5  -2   1    6.50    0.60
  -6   2  -1   35.50    1.50
  -6   2  -1   35.00    1.60
  -7   2  -1    3.10    0.70
   6   1  -1   13.20    0.90
  -6  -1   1   13.00    1.00
  -6  -1   1   12.60    1.10
   5   1  -1   24.70    1.10
  -5  -1   1   24.10    1.30
  -5  -1   1   24.80    1.20
  -5  -1   1   24.50    1.10
  -5  -1   1   25.70    1.20
   4   1  -1    0.30    0.20
  -4  -1   1    0.00    0.30
  -4  -1   1    0.00    0.30
  -4  -1   1    0.00    0.30
   3   1  -1   41.20    1.00
   3   1  -1   39.20    1.20
  -3  -1   1   41.00    1.00
  -3  -1   1   42.20    1.30
  -3  -1   1   42.20    1.30
  -3  -1   1   41.70    1.10
  -3  -1   1   40.80    1.20
   2   1  -1  587.14   13.00
   2   1  -1  607.34   13.40
  -2  -1   1  616.84   11.70
  -2  -1   1  605.24   13.20
  -2  -1   1  596.74   13.00
  -2  -1   1  631.34   13.60
  -2  -1   1  610.94   12.60
   1   1  -1 3042.80   72.59
   1   1  -1 3019.60   63.89
   1   1  -1 2920.51   62.99
   1   1  -1 3002.20   76.59
  -1  -1   1 3030.40   57.49
  -1  -1   1 2935.81   74.29
  -1  -1   1 2979.30   57.89
  -1  -1   1 3078.79   71.49
   0   1  -1  170.88    3.60
   0   1  -1  175.38    3.70
   0   1  -1  174.48    3.90
   0   1  -1  171.28    3.70
   0  -1   1  170.98    3.80
   0  -1   1  172.68    3.70
  -1   1  -1 3652.73   72.39
  -1   1  -1 3645.64   86.59
  -1   1  -1 3622.84   81.59
  -1   1  -1 3574.84   79.89
  -1   1  -1 3640.84   81.59
  -1   1  -1 3578.44   81.69
   1  -1   1 3559.54   84.79
   1  -1   1 3526.45   80.39
   1  -1   1 3585.24   88.89
   1  -1   1 3664.33   81.69
   1  -1   1 3668.33   79.59
   1  -1   1 3616.34   71.99
  -2   1  -1  236.78    5.00
  -2   1  -1  231.48    5.20
  -2   1  -1  230.88    5.00
  -2   1  -1  225.48    5.20
  -2   1  -1  228.28    4.80
  -2   1  -1  231.18    4.40
   2  -1   1  227.78    4.90
   2  -1   1  234.68    5.20
   2  -1   1  223.38    5.10
   2  -1   1  222.98    5.00
   2  -1   1  233.08    4.80
  -3   1  -1    6.60    0.50
  -3   1  -1    6.90    0.40
  -3   1  -1    7.50    0.50
  -3   1  -1    7.50    0.50
  -3   1  -1    8.10    0.40
   3  -1   1    8.60    0.40
  -4   1  -1   90.99    2.40
  -4   1  -1   93.89    2.50
  -4   1  -1   93.29    2.40
   4  -1   1   91.79    2.40
   4  -1   1   89.59    2.30
  -5   1  -1    8.30    0.70
  -5   1  -1    8.30    0.60
  -5   1  -1    8.30    0.80
  -5   1  -1    7.40    0.70
   5  -1   1    8.30    0.60
   5  -1   1    7.80    0.60
  -6   1  -1    6.90    0.70
  -6   1  -1    7.60    0.90
  -7   1  -1    3.80    0.80
  -7   0   1   25.80    1.60
   6   0  -1    8.50    0.80
  -6   0   1    7.30    0.90
  -6   0   1    7.50    0.80
  -6   0   1    7.30    0.70
   5   0  -1  108.69    2.90
  -5   0   1  106.99    2.80
  -5   0   1  106.39    3.00
  -5   0   1  106.79    2.90
   4   0  -1   70.39    1.90
   4   0  -1   69.79    1.80
  -4   0   1   70.29    2.00
  -4   0   1   75.29    1.90
  -4   0   1   71.29    1.80
  -4   0   1   70.09    2.00
   3   0  -1    9.50    0.50
   3   0  -1    9.40    0.40
  -3   0   1    9.50    0.40
  -3   0   1   10.20    0.60
  -3   0   1    9.50    0.40
  -3   0   1    9.20    0.50
  -3   0   1    8.00    0.60
   2   0  -1   83.19    2.00
   2   0  -1   83.09    1.90
  -2   0   1   83.79    2.00
  -2   0   1   82.49    2.10
  -2   0   1   82.99    2.10
  -2   0   1   81.59    1.90
   1   0  -1  405.86    8.70
   1   0  -1  390.56    8.40
   1   0  -1  407.66    8.90
  -1   0   1  392.66   11.80
  -1   0   1  401.66    9.10
  -1   0   1  404.66    8.50
  -1   0   1  354.36    8.60
   0   0  -1   27.10    0.60
   0   0  -1   26.80    0.60
   0   0  -1   26.60    0.50
   0   0  -1   26.70    0.60
   0   0  -1   25.40    0.60
   0   0   1   26.30    0.60
   0   0   1   26.20    0.60
   0   0   1   24.50    0.60
   0   0   1   24.80    0.60
  -1   0  -1  332.97    7.30
  -1   0  -1  326.47    6.30
  -1   0  -1  317.97    7.00
  -1   0  -1  324.07    6.90
  -1   0  -1  328.47    6.80
   1   0   1  330.37    8.10
   1   0   1  329.57    7.10
   1   0   1  325.77    7.30
   1   0   1  319.97    7.00
   1   0   1  332.47    6.30
  -2   0  -1  332.37    7.30
  -2   0  -1  323.97    6.40
  -2   0  -1  332.57    7.20
  -2   0  -1  336.07    6.70
  -2   0  -1  332.77    7.10
  -2   0  -1  334.27    7.20
   2   0   1  323.87    7.10
   2   0   1  322.07    7.30
   2   0   1  325.37    6.30
   2   0   1  326.67    7.20
   2   0   1  321.87    6.90
  -3   0  -1  153.18    3.40
  -3   0  -1  156.28    3.70
  -3   0  -1  151.58    3.60
  -3   0  -1  154.58    3.60
  -3   0  -1  152.98    3.30
  -3   0  -1  153.68    3.20
  -3   0  -1  154.88    3.60
   3   0   1  153.58    3.60
   3   0   1  154.68    3.50
  -4   0  -1   98.59    2.40
  -4   0  -1   98.79    2.50
  -4   0  -1   98.39    2.70
  -4   0  -1   98.49    2.60
   4   0   1   97.29    2.40
  -5   0  -1   70.79    1.90
  -5   0  -1   70.79    2.20
  -5   0  -1   72.69    2.30
   5   0   1   72.59    2.00
  -6   0  -1    0.20    0.40
  -6   0  -1    0.80    0.50
  -7   0  -1   23.40    1.70
  -7   1   1    1.10    0.60
  -7   1   1    0.70    0.50
   6  -1  -1   54.39    1.80
  -6   1   1   54.29    2.00
  -6   1   1   53.09    1.90
  -6   1   1   53.99    1.80
   5  -1  -1   15.60    0.90
  -5   1   1   16.10    1.00
  -5   1   1   16.80    0.90
  -5   1   1   16.60    0.90
   4  -1  -1  109.99    2.80
  -4   1   1  111.79    2.90
  -4   1   1  111.99    2.70
  -4   1   1  114.89    3.00
  -4   1   1  114.19    2.90
   3  -1  -1  428.46    9.40
   3  -1  -1  438.96    9.50
   3  -1  -1  428.56    9.60
  -3   1   1  436.96    9.80
  -3   1   1  440.16    9.60
  -3   1   1  438.96    9.50
  -3   1   1  434.86    9.80
   2  -1  -1  822.92   18.00
   2  -1  -1  842.42   18.30
   2  -1  -1  826.92   18.60
  -2   1   1  849.41   17.70
  -2   1   1  792.22   16.90
  -2   1   1  860.91   18.30
  -2   1   1  807.12   18.10
  -2   1   1  836.62   18.30
  -2   1   1  813.32   18.60
   1  -1  -1   82.99    1.90
  -1   1   1   83.59    1.70
  -1   1   1   86.89    1.90
  -1   1   1   84.89    2.00
  -1   1   1   86.49    2.00
  -1   1   1   85.09    2.00
   0  -1  -1  729.43   14.30
   0  -1  -1  711.73   14.80
   0  -1  -1  707.33   16.10
   0  -1  -1  700.03   15.30
   0  -1  -1  704.13   13.10
   0  -1  -1  737.83   15.70
   0   1   1  714.33   16.10
   0   1   1  708.53   16.20
   0   1   1  720.03   15.50
   0   1   1  720.43   14.80
  -1  -1  -1  194.08    4.20
  -1  -1  -1  189.98    3.80
  -1  -1  -1  193.98    3.90
  -1  -1  -1  190.28    3.50
  -1  -1  -1  193.38    4.20
   1   1   1  190.38    3.80
   1   1   1  188.48    4.30
   1   1   1  191.88    3.90
   1   1   1  187.98    4.00
   1   1   1  191.28    4.20
   1   1   1  190.78    4.20
  -2  -1  -1  165.78    3.50
  -2  -1  -1  173.58    3.60
  -2  -1  -1  172.18    4.00
  -2  -1  -1  172.88    3.90
  -2  -1  -1  172.38    3.90
   2   1   1  172.88    3.50
   2   1   1  167.48    3.70
   2   1   1  174.48    3.90
  -3  -1  -1  121.89    2.70
  -3  -1  -1  122.39    3.10
  -3  -1  -1  121.49    3.00
  -3  -1  -1  124.49    2.80
  -3  -1  -1  126.39    2.90
   3   1   1  123.99    2.80
   3   1   1  123.49    2.90
   3   1   1  119.29    2.60
  -4  -1  -1    4.40    0.40
  -4  -1  -1    3.80    0.50
  -4  -1  -1    4.30    0.60
  -4  -1  -1    4.00    0.40
   4   1   1    4.20    0.40
   4   1   1    3.90    0.40
  -5  -1  -1    1.80    0.50
  -5  -1  -1    1.50    0.50
  -6  -1  -1    1.90    0.60
  -6  -1  -1    0.90    0.50
  -7   2   1   24.20    1.40
  -7   2   1   22.30    1.30
   6  -2  -1   13.20    0.90
  -6   2   1   13.80    1.00
  -6   2   1   15.00    1.00
  -6   2   1   13.60    1.00
   5  -2  -1    8.90    0.70
   5  -2  -1    8.90    0.60
  -5   2   1    8.50    0.70
  -5   2   1    9.20    0.80
  -5   2   1    9.80    0.60
  -5   2   1   10.40    0.80
   4  -2  -1    4.40    0.50
   4  -2  -1    4.10    0.40
   4  -2  -1    5.00    0.50
  -4   2   1    4.40    0.50
  -4   2   1    4.50    0.40
  -4   2   1    5.00    0.50
   3  -2  -1  838.02   18.70
   3  -2  -1  879.11   18.70
   3  -2  -1  905.41   17.90
  -3   2   1  872.91   19.80
  -3   2   1  881.21   18.70
  -3   2   1  879.61   19.10
   2  -2  -1   75.39    2.30
   2  -2  -1   80.69    2.20
   2  -2  -1  102.19    2.30
  -2   2   1  101.09    2.20
  -2   2   1  101.69    2.30
   1  -2  -1  158.78    3.60
   1  -2  -1  146.09    3.30
   1  -2  -1  155.88    3.40
  -1   2   1  154.48    3.50
  -1   2   1  165.38    3.10
  -1   2   1  151.88    3.30
  -1   2   1  155.98    3.60
  -1   2   1  150.88    3.40
   0  -2  -1  154.68    3.50
   0  -2  -1  151.18    3.40
   0  -2  -1  154.58    3.20
   0  -2  -1  153.58    2.80
   0  -2  -1  148.89    3.40
   0   2   1  152.18    3.10
   0   2   1  153.38    3.20
   0   2   1  155.58    3.50
   0   2   1  154.78    3.40
   0   2   1  153.98    3.30
   0   2   1  151.28    3.50
   0   2   1  151.28    3.40
  -1  -2  -1  660.63   12.80
  -1  -2  -1  625.54   11.70
  -1  -2  -1  614.54   14.00
  -1  -2  -1  634.64   13.30
  -1  -2  -1  623.14   12.10
   1   2   1  601.64   13.20
   1   2   1  604.24   14.00
   1   2   1  616.04   13.30
   1   2   1  632.84   12.10
   1   2   1  618.34   14.00
   1   2   1  615.84   12.90
  -2  -2  -1  182.78    4.20
  -2  -2  -1  191.88    4.10
  -2  -2  -1  183.28    3.90
  -2  -2  -1  184.98    3.40
  -2  -2  -1  182.88    3.80
   2   2   1  179.18    3.70
   2   2   1  177.08    3.90
   2   2   1  184.28    4.10
   2   2   1  179.08    4.00
   2   2   1  172.18    4.10
  -3  -2  -1   11.00    0.50
  -3  -2  -1   11.40    0.60
  -3  -2  -1   11.60    0.40
  -3  -2  -1   10.40    0.50
  -3  -2  -1    9.80    0.70
   3   2   1   10.40    0.50
   3   2   1   10.60    0.50
   3   2   1   11.10    0.50
  -4  -2  -1   84.09    1.70
  -4  -2  -1   86.19    2.40
  -4  -2  -1   77.59    2.40
  -4  -2  -1   82.39    2.10
  -4  -2  -1   83.59    2.20
   4   2   1   85.49    2.20
  -5  -2  -1  109.19    3.20
  -5  -2  -1  111.89    2.30
  -5  -2  -1  118.69    3.40
  -6  -2  -1    3.30    0.70
  -6  -2  -1    2.60    0.60
   7  -3  -1    7.50    0.80
  -7   3   1    6.80    0.80
   6  -3  -1   92.59    2.70
  -6   3   1   91.89    2.80
  -6   3   1   88.09    2.70
  -6   3   1   89.09    2.70
   5  -3  -1    7.40    0.70
   5  -3  -1    7.90    0.70
   5  -3  -1    6.90    0.60
  -5   3   1    7.90    0.70
  -5   3   1    7.20    0.70
  -5   3   1    7.40    0.60
   4  -3  -1    0.00    0.20
   4  -3  -1    0.00    0.20
   4  -3  -1    0.60    0.30
   4  -3  -1    0.00    0.20
  -4   3   1    0.30    0.20
  -4   3   1    0.00    0.20
  -4   3   1    0.30    0.20
   3  -3  -1   74.39    2.00
   3  -3  -1   69.99    1.90
   3  -3  -1   76.09    1.90
   3  -3  -1   71.99    1.90
   3  -3  -1   71.39    1.90
  -3   3   1   72.49    2.00
   2  -3  -1  130.79    3.10
  -2   3   1  129.49    3.10
  -2   3   1  132.59    2.80
   1  -3  -1  175.48    3.40
   1  -3  -1  168.28    3.80
   1  -3  -1  172.28    4.00
   1  -3  -1  170.08    3.70
  -1   3   1  164.18    3.90
  -1   3   1  168.58    3.60
  -1   3   1  164.18    3.80
   0  -3  -1  481.55   10.50
   0  -3  -1  483.75   10.20
   0  -3  -1  480.95    9.70
   0  -3  -1  481.65   10.20
   0  -3  -1  477.45    9.30
   0   3   1  474.25    9.70
   0   3   1  465.25   10.60
   0   3   1  464.55   10.50
   0   3   1  476.35   10.20
   0   3   1  467.35   10.00
  -1  -3  -1  106.19    2.10
  -1  -3  -1  110.49    2.60
  -1  -3  -1  108.49    2.60
  -1  -3  -1  108.59    2.40
  -1  -3  -1  109.79    2.40
   1   3   1  107.79    2.60
   1   3   1  105.59    2.50
   1   3   1  106.89    2.40
   1   3   1  106.39    2.60
   1   3   1  106.99    2.40
  -2  -3  -1   13.60    0.70
  -2  -3  -1   13.30    0.60
  -2  -3  -1   13.70    0.70
  -2  -3  -1   13.50    0.50
  -2  -3  -1   13.00    0.50
  -2  -3  -1   13.60    0.60
   2   3   1   12.60    0.50
   2   3   1   12.50    0.50
   2   3   1   13.90    0.60
   2   3   1   13.40    0.60
  -3  -3  -1   80.89    2.30
  -3  -3  -1   82.29    1.70
  -3  -3  -1   82.59    2.10
  -3  -3  -1   80.89    2.10
  -3  -3  -1   82.79    2.00
   3   3   1   79.39    2.00
   3   3   1   80.19    2.10
   3   3   1   78.09    2.00
  -4  -3  -1    0.50    0.40
  -4  -3  -1    1.00    0.30
  -4  -3  -1    0.70    0.30
  -4  -3  -1    0.90    0.50
   4   3   1    1.40    0.30
  -5  -3  -1    0.20    0.50
  -5  -3  -1    0.30    0.30
  -5  -3  -1    0.00    0.50
  -6  -3  -1    5.80    0.90
  -6  -3  -1    8.00    0.60
  -6  -3  -1    8.40    1.00
   7  -4  -1    0.10    0.40
  -7   4   1    0.00    0.50
  -7   4   1    0.90    0.50
   6  -4  -1    0.00    0.30
   6  -4  -1    0.00    0.40
  -6   4   1    0.50    0.30
  -6   4   1    0.50    0.40
  -6   4   1    0.00    0.40
   5  -4  -1    8.00    0.70
   5  -4  -1    8.60    0.70
   5  -4  -1    7.80    0.70
  -5   4   1    8.50    0.70
  -5   4   1    7.80    0.70
  -5   4   1    8.20    0.70
   4  -4  -1    0.10    0.20
   4  -4  -1    0.50    0.30
   4  -4  -1    0.10    0.20
   4  -4  -1    0.00    0.30
  -4   4   1    0.00    0.20
  -4   4   1    0.10    0.30
  -4   4   1    0.20    0.20
  -4   4   1    0.30    0.30
   3  -4  -1   83.79    2.30
   3  -4  -1   88.79    2.20
   3  -4  -1   91.29    2.30
   3  -4  -1   88.59    2.40
   3  -4  -1   85.99    2.30
  -3   4   1   85.79    2.30
  -3   4   1   90.89    2.00
   2  -4  -1 1226.78   27.20
   2  -4  -1 1254.87   34.90
   2  -4  -1 1266.17   24.60
   2  -4  -1 1286.07   27.50
  -2   4   1 1273.87   25.60
  -2   4   1 1247.18   38.70
   1  -4  -1  460.65    8.90
   1  -4  -1  446.66   10.30
   1  -4  -1  465.85    9.50
   0  -4  -1   12.80    0.50
   0  -4  -1   12.90    0.60
   0  -4  -1   13.50    0.60
   0  -4  -1   13.70    0.50
   0   4   1   11.40    0.50
   0   4   1   13.10    0.50
   0   4   1   12.80    0.60
  -1  -4  -1  340.47    7.60
  -1  -4  -1  334.07    6.20
  -1  -4  -1  337.67    7.50
  -1  -4  -1  331.17    7.00
  -1  -4  -1  340.97    6.80
  -1  -4  -1  350.26    7.50
   1   4   1  328.97    6.80
   1   4   1  333.27    7.30
   1   4   1  329.67    7.50
  -2  -4  -1    0.00    0.20
  -2  -4  -1    0.10    0.20
  -2  -4  -1    0.40    0.30
  -2  -4  -1    0.20    0.30
  -2  -4  -1    0.20    0.20
   2   4   1    0.00    0.20
   2   4   1    0.10    0.30
  -3  -4  -1    9.70    0.60
  -3  -4  -1    9.50    0.60
  -3  -4  -1   10.10    0.80
  -3  -4  -1   10.40    0.60
  -3  -4  -1   10.60    0.70
   3   4   1   10.20    0.60
  -4  -4  -1   12.60    1.00
  -4  -4  -1   12.60    0.70
  -4  -4  -1   13.40    1.00
  -4  -4  -1   12.50    0.80
  -5  -4  -1    5.40    0.50
  -5  -4  -1    4.00    0.70
  -5  -4  -1    4.60    0.80
  -6  -4  -1    0.90    0.50
   7  -5  -1    0.00    0.40
  -7   5   1    0.00    0.50
  -7   5   1    0.40    0.40
  -7   5   1    1.00    0.50
   6  -5  -1    1.90    0.50
   6  -5  -1    1.60    0.50
   6  -5  -1    1.50    0.50
  -6   5   1    2.50    0.40
  -6   5   1    1.70    0.50
  -6   5   1    1.60    0.40
  -6   5   1    1.40    0.50
   5  -5  -1   10.10    0.80
   5  -5  -1    8.90    0.70
   5  -5  -1    8.10    0.80
   5  -5  -1    9.20    0.70
  -5   5   1    8.40    0.70
  -5   5   1    9.40    0.60
  -5   5   1   10.70    0.80
  -5   5   1    9.20    0.80
   4  -5  -1   29.80    1.20
   4  -5  -1   29.30    1.20
   4  -5  -1   31.80    1.20
   4  -5  -1   31.10    1.30
   4  -5  -1   30.10    1.20
  -4   5   1   30.40    1.00
  -4   5   1   29.40    1.20
   3  -5  -1    9.80    0.60
   3  -5  -1   12.40    0.70
   3  -5  -1   10.30    0.60
   3  -5  -1   10.00    0.70
   3  -5  -1   10.20    0.70
  -3   5   1   10.10    0.60
  -3   5   1   11.00    0.50
   2  -5  -1    4.90    0.40
   2  -5  -1    6.40    0.50
   1  -5  -1   17.80    0.80
   1  -5  -1   19.10    0.80
   1  -5  -1   19.10    0.70
   1  -5  -1   17.80    0.60
  -1   5   1   18.10    0.80
  -1   5   1   17.80    0.70
   0  -5  -1  188.58    3.90
   0  -5  -1  181.28    4.40
   0  -5  -1  182.38    4.20
   0  -5  -1  181.38    4.10
   0   5   1  184.98    4.30
   0   5   1  182.58    4.20
  -1  -5  -1  119.09    3.00
  -1  -5  -1  117.69    3.00
  -1  -5  -1  118.99    3.00
  -1  -5  -1  116.99    2.80
  -1  -5  -1  118.99    2.70
   1   5   1  118.79    2.90
  -2  -5  -1  186.68    3.70
  -2  -5  -1  185.78    4.20
  -2  -5  -1  185.88    4.10
  -2  -5  -1  187.78    4.60
  -2  -5  -1  190.28    4.60
  -2  -5  -1  187.18    4.50
   2   5   1  183.58    4.30
  -3  -5  -1    1.50    0.50
  -3  -5  -1    2.20    0.50
  -3  -5  -1    1.80    0.30
  -3  -5  -1    1.70    0.40
  -3  -5  -1    2.00    0.40
   3   5   1    2.70    0.50
  -4  -5  -1    3.40    0.70
  -4  -5  -1    2.70    0.50
  -4  -5  -1    2.20    0.60
  -5  -5  -1   11.20    0.80
  -5  -5  -1   11.00    1.10
  -5  -5  -1   10.40    1.10
   7  -6  -1    3.40    0.70
  -7   6   1    4.70    0.70
  -7   6   1    5.00    0.80
   6  -6  -1   21.00    1.20
   6  -6  -1   20.10    1.10
   6  -6  -1   20.90    1.30
   6  -6  -1   17.70    1.10
  -6   6   1   21.40    1.10
  -6   6   1   19.50    1.20
  -6   6   1   18.30    1.10
   5  -6  -1   37.70    1.50
   5  -6  -1   36.80    1.50
   5  -6  -1   37.30    1.50
   5  -6  -1   36.70    1.60
   5  -6  -1   37.00    1.40
  -5   6   1   36.70    1.20
  -5   6   1   38.30    1.60
  -5   6   1   37.00    1.50
   4  -6  -1   90.69    2.50
   4  -6  -1   87.19    2.60
   4  -6  -1   86.39    2.40
   4  -6  -1   87.69    2.50
   4  -6  -1   91.39    2.60
  -4   6   1   87.69    2.50
  -4   6   1   87.09    2.10
   3  -6  -1   56.59    1.70
   3  -6  -1   59.99    1.30
   3  -6  -1   57.89    1.80
   3  -6  -1   61.19    1.90
   3  -6  -1   59.69    1.90
   3  -6  -1   56.99    1.80
  -3   6   1   57.49    1.50
  -3   6   1   57.89    1.80
   2  -6  -1   24.40    1.00
   2  -6  -1   25.00    1.00
   2  -6  -1   25.00    1.10
  -2   6   1   26.10    1.00
   1  -6  -1    2.80    0.40
   1  -6  -1    3.00    0.40
   1  -6  -1    2.30    0.30
   1  -6  -1    2.20    0.30
  -1   6   1    2.10    0.30
  -1   6   1    2.10    0.30
   0  -6  -1  132.89    3.40
   0  -6  -1  137.19    3.10
   0  -6  -1  137.99    3.30
   0  -6  -1  133.29    3.20
   0   6   1  137.19    3.40
   0   6   1  136.49    3.30
  -1  -6  -1    1.90    0.40
  -1  -6  -1    2.80    0.30
  -1  -6  -1    3.50    0.40
  -1  -6  -1    2.40    0.30
  -1  -6  -1    3.20    0.50
   1   6   1    3.30    0.40
   1   6   1    2.80    0.40
  -2  -6  -1   27.30    1.20
  -2  -6  -1   25.90    1.10
  -2  -6  -1   27.50    1.20
  -2  -6  -1   26.70    1.00
  -2  -6  -1   28.20    1.10
   2   6   1   28.30    1.10
  -3  -6  -1   74.29    2.40
  -3  -6  -1   74.89    2.40
  -3  -6  -1   75.39    2.10
  -3  -6  -1   73.89    1.80
   3   6   1   74.69    2.10
  -4  -6  -1   34.70    1.20
  -4  -6  -1   31.40    1.60
  -4  -6  -1   33.70    1.60
  -5  -6  -1   22.60    1.50
  -5  -6  -1   21.40    1.10
   7  -7  -1    3.40    0.70
   7  -7  -1    4.70    0.80
  -7   7   1    5.80    0.80
  -7   7   1    5.30    0.80
  -7   7   1    6.10    0.70
   6  -7  -1    0.40    0.40
   6  -7  -1    0.70    0.40
   6  -7  -1    0.70    0.50
   6  -7  -1    0.10    0.50
  -6   7   1    1.70    0.50
  -6   7   1    1.40    0.50
  -6   7   1    0.80    0.40
   5  -7  -1    6.80    0.70
   5  -7  -1    5.50    0.70
   5  -7  -1    6.40    0.70
   5  -7  -1    5.50    0.70
   5  -7  -1    5.70    0.60
  -5   7   1    5.50    0.50
  -5   7   1    5.40    0.60
   4  -7  -1  162.28    4.30
   4  -7  -1  163.38    4.40
   4  -7  -1  165.28    4.20
   4  -7  -1  163.38    4.00
  -4   7   1  160.48    4.30
  -4   7   1  166.18    3.70
   3  -7  -1   34.20    1.30
   3  -7  -1   35.90    0.90
   3  -7  -1   31.90    1.30
   2  -7  -1  141.69    3.50
   2  -7  -1  136.09    3.60
  -2   7   1  139.59    3.60
  -2   7   1  136.19    3.50
   1  -7  -1    2.80    0.40
   1  -7  -1    2.90    0.40
   1  -7  -1    2.80    0.40
   1  -7  -1    3.40    0.40
  -1   7   1    4.40    0.50
  -1   7   1    3.00    0.40
   0  -7  -1    0.10    0.20
   0  -7  -1    0.10    0.20
   0  -7  -1    0.40    0.30
   0  -7  -1    0.50    0.20
   0   7   1    0.30    0.30
   0   7   1    0.50    0.30
  -1  -7  -1   21.40    0.90
  -1  -7  -1   23.00    1.00
  -1  -7  -1   22.40    1.00
  -1  -7  -1   19.50    1.00
  -1  -7  -1   23.10    1.00
   1   7   1   23.10    1.00
   1   7   1   22.40    1.10
  -2  -7  -1   32.60    1.20
  -2  -7  -1   31.30    1.40
  -2  -7  -1   31.60    1.20
  -2  -7  -1   32.60    1.40
   2   7   1   32.20    1.30
  -3  -7  -1   13.20    0.80
  -3  -7  -1   13.90    1.10
  -3  -7  -1   12.70    1.00
   3   7   1   13.80    0.90
  -4  -7  -1   12.20    1.10
  -4  -7  -1   12.20    1.20
  -7   8   1    6.30    0.90
  -7   8   1   11.00    1.00
   6  -8  -1    2.80    0.70
   6  -8  -1    1.70    0.50
   6  -8  -1    1.40    0.60
   6  -8  -1    3.00    0.60
  -6   8   1    2.80    0.60
  -6   8   1    2.90    0.60
  -6   8   1    3.10    0.60
   5  -8  -1    4.90    0.60
   5  -8  -1    4.40    0.70
   5  -8  -1    4.00    0.70
   5  -8  -1    3.60    0.60
  -5   8   1    4.00    0.60
   4  -8  -1    0.00    0.30
   4  -8  -1    0.40    0.30
   4  -8  -1    0.00    0.50
   4  -8  -1    0.30    0.40
  -4   8   1    0.00    0.30
  -4   8   1    0.40    0.40
   3  -8  -1   61.79    2.00
   3  -8  -1   64.09    2.00
   3  -8  -1   61.29    1.50
   3  -8  -1   61.29    2.10
   3  -8  -1   64.39    2.10
  -3   8   1   63.39    2.00
  -3   8   1   59.69    2.00
   2  -8  -1  255.17    5.40
   2  -8  -1  253.77    6.10
   2  -8  -1  260.47    6.30
   2  -8  -1  259.17    5.90
  -2   8   1  253.37    6.00
  -2   8   1  261.37    6.20
   1  -8  -1  258.47    6.30
   1  -8  -1  271.87    6.10
   1  -8  -1  270.67    6.60
   1  -8  -1  271.47    5.70
  -1   8   1  273.27    6.40
  -1   8   1  271.47    6.30
   0  -8  -1   21.40    1.00
   0  -8  -1   21.50    1.10
   0  -8  -1   21.80    1.00
   0  -8  -1   22.40    1.00
   0  -8  -1   22.50    1.10
   0   8   1   22.40    1.10
   0   8   1   20.90    1.00
  -1  -8  -1   17.00    1.00
  -1  -8  -1   16.30    0.90
  -1  -8  -1   17.40    1.10
  -1  -8  -1   18.50    1.00
  -1  -8  -1   15.90    0.90
   1   8   1   16.00    1.00
   1   8   1   18.00    1.00
  -2  -8  -1    8.00    0.70
  -2  -8  -1    6.10    0.60
  -2  -8  -1    7.10    0.80
  -2  -8  -1    6.90    0.80
   2   8   1    7.20    0.80
  -3  -8  -1   45.80    1.90
  -3  -8  -1   44.60    1.90
  -4  -8  -1    1.40    0.60
  -7   9   1    1.80    0.60
   6  -9  -1   11.90    1.10
   6  -9  -1   11.70    1.00
  -6   9   1   14.30    1.10
   5  -9  -1    4.50    0.70
   5  -9  -1    5.10    0.80
   5  -9  -1    4.40    0.60
   5  -9  -1    4.60    0.70
  -5   9   1    5.10    0.70
   4  -9  -1    2.10    0.50
   4  -9  -1    1.90    0.40
   4  -9  -1    1.60    0.50
  -4   9   1    0.80    0.40
  -4   9   1    2.60    0.60
   3  -9  -1    3.80    0.50
   3  -9  -1    4.00    0.60
   3  -9  -1    4.00    0.40
   3  -9  -1    3.60    0.60
  -3   9   1    4.20    0.60
  -3   9   1    4.30    0.60
   2  -9  -1   24.30    1.10
   2  -9  -1   24.60    1.00
   2  -9  -1   25.50    1.20
   2  -9  -1   24.70    1.20
  -2   9   1   24.70    1.20
   1  -9  -1  103.19    2.60
   1  -9  -1  106.99    3.10
   1  -9  -1  102.49    3.00
   1  -9  -1  103.09    2.80
  -1   9   1  103.49    2.90
  -1   9   1  105.19    3.00
   0  -9  -1  458.35    9.90
   0  -9  -1  465.05   10.70
   0  -9  -1  456.75   10.30
   0  -9  -1  435.66   10.40
   0  -9  -1  467.35    9.50
   0   9   1  459.25   10.50
   0   9   1  462.25   10.30
  -1  -9  -1   34.10    1.40
  -1  -9  -1   33.20    1.50
  -1  -9  -1   31.30    1.30
  -1  -9  -1   34.50    1.40
  -1  -9  -1   34.70    1.40
   1   9   1   34.40    1.40
   1   9   1   33.30    1.50
  -2  -9  -1   14.80    1.00
  -2  -9  -1   14.60    0.90
  -2  -9  -1   15.20    1.10
   2   9   1   12.40    1.10
  -3  -9  -1    0.90    0.60
   6 -10  -1   20.40    1.30
  -6  10   1   23.10    1.40
  -6  10   1   23.00    1.40
   5 -10  -1    8.80    0.90
   5 -10  -1    7.00    0.90
  -5  10   1    8.70    0.90
  -5  10   1    7.40    0.90
   4 -10  -1    4.20    0.60
   4 -10  -1    5.20    0.70
   4 -10  -1    5.40    0.40
   4 -10  -1    4.80    0.70
  -4  10   1    5.60    0.70
  -4  10   1    4.60    0.70
   3 -10  -1   34.60    1.10
   3 -10  -1   34.80    1.50
   3 -10  -1   31.40    1.40
   3 -10  -1   32.70    1.50
  -3  10   1   34.30    1.50
  -3  10   1   33.00    1.50
   2 -10  -1   24.90    1.30
   2 -10  -1   26.30    1.30
   2 -10  -1   24.90    1.00
   2 -10  -1   26.70    1.30
  -2  10   1   24.20    1.30
  -2  10   1   25.30    1.30
   1 -10  -1   19.20    1.00
   1 -10  -1   17.10    1.00
   1 -10  -1   17.70    1.10
   1 -10  -1   17.70    1.10
  -1  10   1   17.10    1.10
  -1  10   1   16.90    1.10
   0 -10  -1   41.00    1.60
   0 -10  -1   42.30    1.60
   0 -10  -1   41.30    1.70
   0 -10  -1   42.30    1.70
   0 -10  -1   39.40    1.60
   0  10   1   41.70    1.80
   0  10   1   41.00    1.70
  -1 -10  -1   15.70    1.00
  -1 -10  -1   15.90    1.10
  -1 -10  -1   16.20    1.10
  -1 -10  -1   17.40    1.10
  -1 -10  -1   16.00    1.00
   1  10   1   15.70    1.20
  -2 -10  -1    1.60    0.50
  -2 -10  -1    1.60    0.60
   2  10   1    0.80    0.60
  -3 -10  -1    6.40    0.90
  -6  11   1   34.30    1.80
  -6  11   1   35.00    1.80
   5 -11  -1   17.10    1.20
  -5  11   1   17.30    1.30
  -5  11   1   18.90    1.30
   4 -11  -1   63.19    1.60
   4 -11  -1   60.99    2.40
   4 -11  -1   63.99    2.30
  -4  11   1   61.29    2.30
  -4  11   1   67.49    2.40
   3 -11  -1   26.30    1.40
   3 -11  -1   26.60    1.40
   3 -11  -1   26.50    1.00
   3 -11  -1   26.00    1.30
  -3  11   1   27.60    1.50
  -3  11   1   27.70    1.50
   2 -11  -1   18.70    1.00
   2 -11  -1   19.20    1.20
   2 -11  -1   19.30    1.10
   2 -11  -1   19.90    1.20
  -2  11   1   19.90    1.20
  -2  11   1   19.80    1.30
   1 -11  -1   26.50    1.40
   1 -11  -1   26.20    1.30
   1 -11  -1   25.40    1.30
   1 -11  -1   25.30    1.20
  -1  11   1   25.00    1.40
  -1  11   1   24.70    1.30
   0 -11  -1   31.10    1.60
   0 -11  -1   30.10    1.50
   0 -11  -1   30.90    1.40
   0 -11  -1   29.40    1.40
   0  11   1   31.10    1.50
   0  11   1   32.10    1.60
  -1 -11  -1    0.30    0.40
  -1 -11  -1    0.00    0.50
   1  11   1    0.00    0.60
  -2 -11  -1    0.00    0.50
   2  11   1    0.00    0.70
  -5  12   1   18.80    1.40
  -5  12   1   20.00    1.40
   4 -12  -1   30.00    1.00
  -4  12   1   35.30    1.80
  -4  12   1   32.30    1.70
   3 -12  -1   24.70    1.40
   3 -12  -1   26.70    1.10
  -3  12   1   25.80    1.50
  -3  12   1   28.10    1.50
   2 -12  -1   33.60    1.40
   2 -12  -1   30.50    1.60
   2 -12  -1   34.20    1.70
  -2  12   1   34.30    1.70
  -2  12   1   35.20    1.80
   1 -12  -1    2.60    0.50
   1 -12  -1    3.60    0.70
  -1  12   1    2.10    0.70
  -1  12   1    3.50    0.70
   0 -12  -1   17.30    1.20
   0 -12  -1   16.50    1.10
   0  12   1   14.30    1.40
   1  12   1   18.50    1.50
  -4  13   1    4.30    0.90
  -4  13   1    4.30    0.80
  -3  13   1    0.50    0.70
  -3  13   1    1.10    0.60
   2 -13  -1   14.60    1.00
  -2  13   1   15.40    1.40
  -2  13   1   17.70    1.30
   1 -13  -1    6.80    0.80
  -1  13   1    6.60    0.90
  -1  13   1    6.10    1.00
   0 -13  -1    0.00    0.40
   0  13   1    0.30    0.70
  -2  14  -2    2.20    0.60
  -2  14  -2    1.10    0.80
   0  13  -2    0.00    0.70
   0 -13   2    0.00    0.40
  -1  13  -2    5.30    0.70
  -1  13  -2    3.80    0.90
   1 -13   2    3.70    0.60
  -2  13  -2    4.90    0.90
  -2  13  -2    5.20    0.80
   2 -13   2    5.00    0.60
   2 -13   2    4.30    0.70
  -3  13  -2    0.60    0.70
  -3  13  -2    2.20    0.60
   3 -13   2    1.20    0.30
   3 -13   2    0.40    0.60
   3 -13   2    1.60    0.50
  -4  13  -2   13.20    1.20
  -4  13  -2   11.30    1.30
   4 -13   2    9.90    0.60
   4 -13   2   10.10    1.20
   2  12  -2   14.90    1.40
   1  12  -2    8.80    1.10
  -1 -12   2    7.30    0.90
   0  12  -2   12.80    1.20
   0 -12   2   10.40    0.90
   0 -12   2   11.70    0.90
   0 -12   2   13.20    1.10
  -1  12  -2    0.80    0.60
  -1  12  -2    2.20    0.50
   1 -12   2    1.90    0.50
   1 -12   2    1.60    0.50
   1 -12   2    1.40    0.40
  -2  12  -2   21.10    1.40
  -2  12  -2   23.60    1.30
   2 -12   2   22.00    1.00
   2 -12   2   22.00    1.40
   2 -12   2   21.00    1.20
   2 -12   2   20.90    1.40
  -3  12  -2   11.00    1.00
  -3  12  -2   12.30    1.20
   3 -12   2   11.00    0.70
   3 -12   2   12.50    1.10
   3 -12   2   11.80    0.90
   3 -12   2   11.40    1.10
  -4  12  -2    0.10    0.40
  -4  12  -2    0.00    0.50
   4 -12   2    0.70    0.40
   4 -12   2    0.50    0.20
   4 -12   2    0.50    0.60
  -5  12  -2   13.60    1.30
  -5  12  -2   14.70    1.20
   5 -12   2   11.30    1.10
   2  11  -2    5.80    1.00
  -2 -11   2    4.80    0.70
   1  11  -2    0.70    0.70
  -1 -11   2    0.30    0.40
  -1 -11   2    0.50    0.50
  -1 -11   2    0.70    0.40
  -1 -11   2    1.20    0.50
   0  11  -2    1.80    0.40
   0  11  -2    1.10    0.70
   0 -11   2    0.90    0.40
   0 -11   2    1.00    0.40
   0 -11   2    0.80    0.40
   0 -11   2    0.90    0.50
  -1  11  -2   55.09    2.10
  -1  11  -2   55.29    1.90
   1 -11   2   54.79    2.00
   1 -11   2   53.19    2.10
   1 -11   2   50.99    1.70
   1 -11   2   52.99    2.00
   1 -11   2   50.19    1.90
  -2  11  -2   26.00    1.40
  -2  11  -2   23.80    1.20
   2 -11   2   26.10    1.30
   2 -11   2   24.60    1.00
   2 -11   2   23.00    1.20
   2 -11   2   21.80    1.30
   2 -11   2   23.20    1.30
  -3  11  -2   15.60    1.00
  -3  11  -2   19.00    1.20
   3 -11   2   16.60    1.10
   3 -11   2   17.70    1.00
   3 -11   2   18.40    1.10
   3 -11   2   17.60    1.20
   3 -11   2   17.80    0.80
  -4  11  -2    8.50    0.90
  -4  11  -2    8.30    0.90
   4 -11   2    7.50    0.70
   4 -11   2    8.20    0.90
   4 -11   2    7.80    0.40
   4 -11   2    8.60    0.80
   4 -11   2    7.10    0.90
  -5  11  -2    0.00    0.50
  -5  11  -2    1.30    0.50
   5 -11   2    0.00    0.50
  -6  11  -2    3.20    0.70
  -6  11  -2    4.00    0.80
   6 -11   2    4.10    0.90
   3  10  -2    4.30    0.80
   2  10  -2    4.10    0.80
  -2 -10   2    4.50    0.70
  -2 -10   2    4.10    0.70
  -2 -10   2    3.70    0.60
   1  10  -2    0.50    0.60
  -1 -10   2    0.00    0.40
  -1 -10   2    0.00    0.30
  -1 -10   2    0.20    0.40
  -1 -10   2    0.00    0.30
   0  10  -2  109.49    3.10
   0  10  -2  117.39    3.30
   0 -10   2  112.39    3.00
   0 -10   2  114.99    3.30
   0 -10   2  113.99    3.40
   0 -10   2  113.09    3.10
  -1  10  -2   45.80    1.70
  -1  10  -2   46.10    1.80
   1 -10   2   44.60    1.70
   1 -10   2   44.90    1.70
   1 -10   2   45.40    1.50
   1 -10   2   44.00    1.80
   1 -10   2   43.80    1.70
  -2  10  -2  125.99    3.60
  -2  10  -2  134.79    3.60
   2 -10   2  129.59    3.10
   2 -10   2  134.59    3.80
   2 -10   2  128.39    3.60
   2 -10   2  132.89    3.50
   2 -10   2  129.59    3.50
  -3  10  -2   21.00    1.20
  -3  10  -2   19.60    1.10
   3 -10   2   20.70    0.80
   3 -10   2   19.70    1.00
   3 -10   2   20.10    1.20
   3 -10   2   20.30    1.20
   3 -10   2   20.90    1.10
  -4  10  -2   44.30    1.80
  -4  10  -2   39.90    1.70
   4 -10   2   41.90    1.60
   4 -10   2   39.70    1.80
   4 -10   2   41.40    1.80
   4 -10   2   39.50    1.50
  -5  10  -2   76.89    2.60
  -5  10  -2   78.39    2.60
  -5  10  -2   75.19    2.30
   5 -10   2   73.79    2.70
   5 -10   2   74.59    2.40
   5 -10   2   75.09    2.70
  -6  10  -2   22.60    1.40
  -6  10  -2   19.00    1.30
   6 -10   2   20.40    1.40
   4   9  -2    5.70    0.90
  -4  -9   2    5.40    0.80
   3   9  -2   16.70    1.30
  -3  -9   2   14.10    1.20
  -3  -9   2   15.40    1.10
  -3  -9   2   15.80    1.10
  -3  -9   2   16.00    1.10
   2   9  -2   11.00    1.10
  -2  -9   2    9.50    1.00
  -2  -9   2   10.50    0.90
  -2  -9   2    9.20    0.80
  -2  -9   2    9.80    0.90
   1   9  -2   65.39    2.30
  -1  -9   2   69.79    2.20
  -1  -9   2   66.39    2.00
  -1  -9   2   64.69    2.20
  -1  -9   2   66.39    2.20
  -1  -9   2   68.29    2.10
   0   9  -2   60.69    1.90
   0   9  -2   61.09    2.10
   0  -9   2   60.19    1.90
   0  -9   2   62.99    2.10
   0  -9   2   60.39    1.90
   0  -9   2   58.59    1.80
   0  -9   2   59.09    1.70
   0  -9   2   59.69    2.00
  -1   9  -2   53.59    1.90
  -1   9  -2   52.39    1.80
   1  -9   2   56.29    1.90
   1  -9   2   52.39    1.80
   1  -9   2   53.99    1.60
   1  -9   2   53.99    1.80
   1  -9   2   54.49    1.80
  -2   9  -2   57.39    1.90
  -2   9  -2   57.49    1.90
   2  -9   2   56.89    2.00
   2  -9   2   57.69    1.80
   2  -9   2   55.39    1.90
   2  -9   2   55.39    1.60
   2  -9   2   57.39    1.80
  -3   9  -2  122.59    3.40
  -3   9  -2  127.49    3.40
   3  -9   2  124.19    3.30
   3  -9   2  120.49    3.20
   3  -9   2  124.89    3.60
   3  -9   2  120.09    2.70
   3  -9   2  117.69    3.40
  -4   9  -2   14.50    1.00
  -4   9  -2   14.10    0.90
  -4   9  -2   14.10    1.00
   4  -9   2   15.30    1.10
   4  -9   2   13.00    0.90
   4  -9   2   15.40    0.90
   4  -9   2   15.50    1.00
  -5   9  -2   41.90    1.50
  -5   9  -2   41.20    1.80
  -5   9  -2   39.90    1.70
   5  -9   2   40.10    1.60
   5  -9   2   42.40    1.80
   5  -9   2   42.50    1.70
   5  -9   2   38.00    1.80
  -6   9  -2   15.60    1.00
  -6   9  -2   15.10    1.20
  -6   9  -2   17.10    1.20
   6  -9   2   14.70    1.20
   6  -9   2   14.00    1.20
   6  -9   2   14.50    1.10
  -7   9  -2   16.80    1.20
   4   8  -2   11.90    1.10
  -4  -8   2   12.00    1.00
  -4  -8   2    9.20    0.90
   3   8  -2   11.90    1.00
  -3  -8   2   10.60    0.90
  -3  -8   2   11.40    0.90
  -3  -8   2    9.80    0.90
  -3  -8   2    9.40    1.00
   2   8  -2   43.50    1.70
  -2  -8   2   42.70    1.70
  -2  -8   2   41.40    1.60
  -2  -8   2   40.70    1.60
  -2  -8   2   41.50    1.50
   1   8  -2  174.38    4.30
   1   8  -2  167.18    4.10
  -1  -8   2  169.98    4.00
  -1  -8   2  169.08    4.10
  -1  -8   2  169.88    4.30
  -1  -8   2  169.88    4.10
  -1  -8   2  170.18    4.50
   0   8  -2  550.54   12.30
   0   8  -2  563.74   12.10
   0  -8   2  555.94   11.70
   0  -8   2  555.14   11.10
   0  -8   2  553.84   12.30
   0  -8   2  541.15   12.20
   0  -8   2  539.25   12.70
   0  -8   2  540.45   11.90
  -1   8  -2    4.90    0.50
  -1   8  -2    5.40    0.60
   1  -8   2    5.60    0.60
   1  -8   2    4.60    0.40
   1  -8   2    4.80    0.50
  -2   8  -2    1.60    0.40
  -2   8  -2    1.00    0.30
   2  -8   2    0.90    0.30
   2  -8   2    0.90    0.30
   2  -8   2    1.10    0.30
   2  -8   2    1.00    0.40
  -3   8  -2    0.40    0.30
  -3   8  -2    1.40    0.40
   3  -8   2    0.90    0.40
   3  -8   2    0.60    0.30
   3  -8   2    1.10    0.30
   3  -8   2    0.70    0.20
   3  -8   2    0.60    0.30
  -4   8  -2   74.69    2.30
  -4   8  -2   74.59    2.10
   4  -8   2   76.09    2.50
   4  -8   2   77.29    2.30
   4  -8   2   75.59    2.50
   4  -8   2   78.89    2.20
  -5   8  -2    8.50    0.70
  -5   8  -2    8.50    0.80
  -5   8  -2    5.90    0.70
   5  -8   2    7.10    0.70
   5  -8   2    8.40    0.80
   5  -8   2    5.70    0.60
   5  -8   2    7.30    0.80
  -6   8  -2    0.30    0.40
  -6   8  -2    0.80    0.40
  -6   8  -2    1.10    0.40
  -6   8  -2    1.30    0.40
   6  -8   2    1.00    0.40
   6  -8   2    0.90    0.50
   6  -8   2    0.40    0.40
  -7   8  -2   14.10    1.00
  -7   8  -2   15.60    1.20
   7  -8   2   15.60    1.30
  -5  -7   2    0.90    0.60
   4   7  -2   26.10    1.30
  -4  -7   2   22.50    1.20
  -4  -7   2   24.10    1.50
  -4  -7   2   26.80    1.40
   3   7  -2   35.10    1.50
  -3  -7   2   34.20    1.50
  -3  -7   2   35.80    1.50
  -3  -7   2   36.10    1.40
  -3  -7   2   36.50    1.60
   2   7  -2   56.39    1.90
  -2  -7   2   53.09    1.90
  -2  -7   2   54.59    1.80
  -2  -7   2   54.69    1.80
  -2  -7   2   55.89    1.90
  -2  -7   2   58.09    1.80
   1   7  -2   41.90    1.50
   1   7  -2   41.50    1.30
  -1  -7   2   40.50    1.30
  -1  -7   2   39.70    1.50
  -1  -7   2   43.60    1.50
  -1  -7   2   41.90    1.40
  -1  -7   2   45.50    1.50
   0   7  -2  434.66    9.80
   0   7  -2  429.56    9.60
   0  -7   2  440.86   10.10
   0  -7   2  445.16    9.80
   0  -7   2  444.46    8.90
   0  -7   2  427.66    9.70
  -1   7  -2  672.23   14.50
  -1   7  -2  680.23   14.30
   1  -7   2  677.03   14.90
   1  -7   2  671.63   14.60
   1  -7   2  659.83   13.20
  -2   7  -2  270.97    6.30
  -2   7  -2  266.97    5.90
   2  -7   2  276.57    6.60
   2  -7   2  281.77    6.50
   2  -7   2  280.37    6.30
   2  -7   2  272.97    6.10
  -3   7  -2   83.49    2.40
  -3   7  -2   87.79    2.20
   3  -7   2   85.79    2.30
   3  -7   2   84.49    1.80
   3  -7   2   84.29    2.50
   3  -7   2   84.99    2.30
  -4   7  -2  276.17    6.20
  -4   7  -2  279.37    6.60
   4  -7   2  285.77    7.00
   4  -7   2  295.87    6.50
   4  -7   2  287.17    6.90
   4  -7   2  288.77    6.60
  -5   7  -2   84.19    2.50
  -5   7  -2   82.39    2.40
  -5   7  -2   85.59    2.40
   5  -7   2   85.29    2.70
   5  -7   2   86.19    2.40
   5  -7   2   86.79    2.70
   5  -7   2   83.89    2.40
  -6   7  -2    0.10    0.30
  -6   7  -2    0.70    0.40
   6  -7   2    0.40    0.40
   6  -7   2    0.10    0.30
   6  -7   2    0.00    0.40
  -7   7  -2    1.10    0.40
  -7   7  -2    0.80    0.50
   7  -7   2    0.30    0.50
   5   6  -2    0.70    0.40
  -5  -6   2    0.90    0.60
   4   6  -2    8.40    0.80
  -4  -6   2   11.40    1.00
  -4  -6   2    7.30    0.70
  -4  -6   2    6.90    0.70
  -4  -6   2    7.40    0.80
   3   6  -2   54.99    1.90
  -3  -6   2   55.99    1.90
  -3  -6   2   54.49    2.00
  -3  -6   2   56.19    1.80
  -3  -6   2   57.09    1.90
   2   6  -2    9.00    0.80
  -2  -6   2    8.50    0.70
  -2  -6   2   10.70    0.70
  -2  -6   2    9.40    0.60
  -2  -6   2    9.70    0.70
  -2  -6   2    8.40    0.80
   1   6  -2    9.90    0.70
   1   6  -2    8.60    0.40
  -1  -6   2   10.50    0.50
  -1  -6   2   10.20    0.70
  -1  -6   2    9.60    0.60
  -1  -6   2   10.00    0.70
  -1  -6   2    9.60    0.60
  -1  -6   2   10.10    0.60
   0   6  -2   22.00    0.90
   0   6  -2   21.10    0.80
   0  -6   2   22.10    0.80
   0  -6   2   22.70    0.90
   0  -6   2   22.70    1.00
   0  -6   2   21.20    0.80
   0  -6   2   22.30    0.90
   0  -6   2   21.90    0.70
  -1   6  -2  956.10   20.70
  -1   6  -2  968.40   20.50
   1  -6   2  984.00   21.20
   1  -6   2  984.70   21.00
   1  -6   2  963.40   18.80
   1  -6   2  962.30   19.80
  -2   6  -2   23.10    0.60
  -2   6  -2   22.20    0.90
  -2   6  -2   22.50    0.90
   2  -6   2   23.20    1.00
   2  -6   2   23.70    0.90
   2  -6   2   22.90    0.90
   2  -6   2   24.10    1.00
   2  -6   2   23.50    0.70
  -3   6  -2  152.68    3.80
  -3   6  -2  154.28    3.60
   3  -6   2  155.18    4.00
   3  -6   2  162.68    4.00
   3  -6   2  154.78    3.70
   3  -6   2  159.18    3.70
  -4   6  -2    2.30    0.40
   4  -6   2    2.40    0.40
   4  -6   2    2.60    0.40
   4  -6   2    2.80    0.40
   4  -6   2    2.50    0.50
  -5   6  -2    0.60    0.30
  -5   6  -2    0.50    0.30
  -5   6  -2    0.60    0.30
   5  -6   2    0.50    0.40
   5  -6   2    0.30    0.30
   5  -6   2    0.30    0.30
   5  -6   2    0.30    0.30
  -6   6  -2    4.00    0.60
   6  -6   2    4.20    0.60
   6  -6   2    3.80    0.60
  -7   6  -2    1.10    0.40
  -7   6  -2    0.90    0.40
   7  -6   2    1.30    0.50
   5   5  -2   29.30    1.40
  -5  -5   2   30.30    1.60
  -5  -5   2   27.30    1.40
  -5  -5   2   30.40    1.50
   4   5  -2   67.89    2.10
  -4  -5   2   66.09    2.10
  -4  -5   2   66.29    2.30
  -4  -5   2   66.99    2.20
  -4  -5   2   67.89    2.20
   3   5  -2    0.70    0.40
  -3  -5   2    1.10    0.40
  -3  -5   2    0.80    0.40
  -3  -5   2    0.90    0.40
  -3  -5   2    0.40    0.40
   2   5  -2   76.89    2.00
   2   5  -2   79.89    2.20
   2   5  -2   74.59    1.80
  -2  -5   2   80.19    2.30
  -2  -5   2   79.59    2.00
  -2  -5   2   81.99    2.10
  -2  -5   2   71.69    2.20
  -2  -5   2   80.19    2.20
   1   5  -2  428.46    9.50
   1   5  -2  430.66    9.40
  -1  -5   2  437.36    9.50
  -1  -5   2  428.36    9.50
  -1  -5   2  438.46    9.90
  -1  -5   2  436.26    8.70
  -1  -5   2  429.26    9.10
   0  -5   2   32.40    1.00
   0  -5   2   33.80    1.10
   0  -5   2   32.20    0.90
   0  -5   2   26.90    1.00
   0  -5   2   31.50    1.00
   0  -5   2   33.80    1.00
  -1   5  -2  413.56    9.00
  -1   5  -2  413.26    8.80
   1  -5   2  419.36    9.30
   1  -5   2  422.26    8.70
   1  -5   2  426.76    8.20
   1  -5   2  407.36    9.50
  -2   5  -2  186.58    4.10
  -2   5  -2  184.18    4.30
   2  -5   2  189.18    4.60
   2  -5   2  193.38    3.80
   2  -5   2  187.28    4.20
  -3   5  -2  404.46    9.10
  -3   5  -2  424.26    8.70
   3  -5   2  423.26    9.60
   3  -5   2  416.56    9.10
   3  -5   2  412.56    9.50
   3  -5   2  429.56    8.80
  -4   5  -2  420.86    9.40
  -4   5  -2  424.76    9.00
   4  -5   2  426.06    9.10
   4  -5   2  428.96    9.90
   4  -5   2  431.96    9.90
   4  -5   2  432.56    9.40
  -5   5  -2   23.90    1.00
  -5   5  -2   26.40    1.10
  -5   5  -2   25.50    1.10
  -5   5  -2   23.60    1.10
   5  -5   2   24.90    1.10
   5  -5   2   26.80    1.10
   5  -5   2   25.30    1.20
   5  -5   2   24.90    1.20
  -6   5  -2    0.60    0.40
  -6   5  -2    0.30    0.30
   6  -5   2    0.30    0.40
  -7   5  -2    3.10    0.60
  -6  -4   2    8.30    1.00
  -6  -4   2    8.80    0.70
   5   4  -2    4.70    0.60
  -5  -4   2    3.40    0.60
  -5  -4   2    2.70    0.60
  -5  -4   2    3.60    0.50
  -5  -4   2    5.20    0.80
   4   4  -2    0.30    0.40
  -4  -4   2    0.10    0.40
  -4  -4   2    0.80    0.30
  -4  -4   2    0.00    0.40
  -4  -4   2    0.40    0.50
  -4  -4   2    0.30    0.40
   3   4  -2   34.10    1.30
  -3  -4   2   35.40    1.30
  -3  -4   2   35.00    1.30
  -3  -4   2   34.40    1.30
   2   4  -2  739.73   15.70
   2   4  -2  734.33   14.50
   2   4  -2  690.43   13.30
  -2  -4   2  749.33   16.00
  -2  -4   2  763.12   16.50
  -2  -4   2  735.53   14.50
  -2  -4   2  766.02   15.30
  -2  -4   2  746.23   16.00
   1   4  -2    4.30    0.50
   1   4  -2    4.00    0.40
  -1  -4   2    3.50    0.20
  -1  -4   2    4.00    0.40
  -1  -4   2    3.20    0.30
  -1  -4   2    2.50    0.30
  -1  -4   2    3.80    0.40
   0   4  -2   64.49    1.70
   0  -4   2   65.89    1.70
   0  -4   2   69.49    1.60
   0  -4   2   66.69    1.80
   0  -4   2   67.59    1.60
  -1   4  -2  145.19    3.20
  -1   4  -2  143.69    3.30
  -1   4  -2  140.79    3.30
   1  -4   2  143.79    3.50
   1  -4   2  146.39    3.00
   1  -4   2  147.59    3.30
  -2   4  -2    0.40    0.20
  -2   4  -2    0.60    0.20
  -2   4  -2    0.70    0.20
   2  -4   2    0.70    0.10
   2  -4   2    1.00    0.20
   2  -4   2    1.00    0.10
   2  -4   2    0.80    0.20
   2  -4   2    0.60    0.20
   2  -4   2    1.40    0.30
  -3   4  -2   14.10    0.70
   3  -4   2   14.80    0.60
   3  -4   2   13.50    0.70
   3  -4   2   14.20    0.70
  -4   4  -2   59.99    1.70
  -4   4  -2   60.69    1.80
  -4   4  -2   60.39    1.70
   4  -4   2   59.09    1.70
   4  -4   2   61.29    1.70
   4  -4   2   60.59    1.90
   4  -4   2   61.19    1.80
   4  -4   2   57.59    1.70
  -5   4  -2  274.97    6.40
  -5   4  -2  267.17    6.20
  -5   4  -2  270.67    6.40
  -5   4  -2  269.67    6.10
   5  -4   2  272.47    6.00
   5  -4   2  276.57    6.50
   5  -4   2  269.47    6.20
   5  -4   2  271.17    6.50
  -6   4  -2    0.70    0.40
  -6   4  -2    0.40    0.30
   6  -4   2    0.30    0.40
  -7   4  -2    1.50    0.50
  -7   4  -2    0.80    0.40
   6   3  -2    2.00    0.50
  -6  -3   2    3.10    0.70
  -6  -3   2    3.70    0.50
  -6  -3   2    2.80    0.70
   5   3  -2   12.10    0.90
  -5  -3   2   10.70    1.00
  -5  -3   2   12.10    0.60
  -5  -3   2   12.30    1.00
  -5  -3   2   10.70    0.90
  -5  -3   2   11.80    1.00
   4   3  -2   20.90    1.00
  -4  -3   2   19.90    1.10
  -4  -3   2   19.90    0.70
  -4  -3   2   21.70    1.10
  -4  -3   2   20.50    1.10
  -4  -3   2   19.80    1.10
   3   3  -2   56.19    1.70
  -3  -3   2   55.99    1.30
  -3  -3   2   56.49    1.50
  -3  -3   2   57.89    1.80
  -3  -3   2   55.69    1.60
   2   3  -2  629.94   13.50
  -2  -3   2  643.24   12.40
  -2  -3   2  633.64   14.10
  -2  -3   2  626.34   13.00
   1   3  -2  193.78    4.40
   1   3  -2  194.98    4.00
  -1  -3   2  199.98    4.00
  -1  -3   2  203.08    4.30
  -1  -3   2  192.98    4.30
  -1  -3   2  189.88    4.60
   0   3  -2  481.95   10.10
   0   3  -2  467.35   10.60
   0   3  -2  469.85   10.10
   0   3  -2  474.95    9.80
   0  -3   2  485.15   10.10
   0  -3   2  472.95   12.60
   0  -3   2  472.65   10.40
   0  -3   2  477.25    9.30
  -1   3  -2  853.71   18.50
  -1   3  -2  842.72   18.10
  -1   3  -2  845.92   17.70
  -1   3  -2  842.92   17.30
  -1   3  -2  845.92   18.80
   1  -3   2  886.11   25.40
   1  -3   2  848.02   19.00
   1  -3   2  862.51   18.10
   1  -3   2  873.41   16.80
   1  -3   2  871.71   18.90
  -2   3  -2   10.40    0.40
  -2   3  -2    9.60    0.40
  -2   3  -2    9.20    0.40
  -2   3  -2   10.70    0.50
  -2   3  -2   10.00    0.40
   2  -3   2    9.70    0.40
   2  -3   2    9.10    0.50
   2  -3   2    9.90    0.30
   2  -3   2   10.00    0.40
   2  -3   2   10.50    0.50
  -3   3  -2  122.49    2.80
  -3   3  -2  125.49    2.80
  -3   3  -2  124.59    2.90
   3  -3   2  118.39    2.80
   3  -3   2   97.99    2.70
   3  -3   2  124.59    3.00
  -4   3  -2    1.10    0.30
  -4   3  -2    1.00    0.20
  -4   3  -2    1.10    0.30
   4  -3   2    1.50    0.30
   4  -3   2    1.00    0.30
   4  -3   2    1.20    0.30
   4  -3   2    1.40    0.30
  -5   3  -2   10.50    0.70
  -5   3  -2   11.20    0.80
  -5   3  -2    9.40    0.70
   5  -3   2    8.90    0.70
   5  -3   2   10.80    0.70
  -6   3  -2    1.20    0.40
  -6   3  -2    1.10    0.50
  -7   3  -2    2.80    0.70
   6   2  -2    1.00    0.40
  -6  -2   2    0.40    0.50
  -6  -2   2    0.90    0.50
  -6  -2   2    0.00    0.50
   5   2  -2    7.50    0.70
  -5  -2   2    7.00    0.40
  -5  -2   2    6.90    0.80
  -5  -2   2    7.60    0.70
  -5  -2   2    7.40    0.70
  -5  -2   2    7.40    0.80
   4   2  -2   28.70    1.10
  -4  -2   2   28.60    1.20
  -4  -2   2   28.60    0.70
  -4  -2   2   27.10    1.10
  -4  -2   2   29.70    1.20
   3   2  -2   40.90    1.30
  -3  -2   2   41.90    1.30
  -3  -2   2   42.60    1.40
  -3  -2   2   43.80    1.20
  -3  -2   2   41.20    0.90
  -3  -2   2   41.20    1.40
   2   2  -2 1691.23   37.30
  -2  -2   2 1744.53   48.70
  -2  -2   2 1771.62   39.80
  -2  -2   2 1759.62   31.80
  -2  -2   2 1761.12   34.40
   1   2  -2 9236.78  209.08
   1   2  -2 9645.04  205.88
   1   2  -2 9322.77  214.38
   1   2  -2 9638.04  226.28
  -1  -2   2 9100.29  195.88
  -1  -2   2 9853.71  227.88
  -1  -2   2 9118.39  209.98
  -1  -2   2 9402.56  218.58
  -1  -2   2 9610.14  210.58
   0   2  -2  456.25    9.80
   0   2  -2  467.75    9.50
   0   2  -2  465.15   10.30
   0   2  -2  460.15   10.10
   0  -2   2  464.25    9.00
   0  -2   2  476.45   10.30
   0  -2   2  479.15    9.50
   0  -2   2  470.05   10.20
   0  -2   2  450.55   10.50
  -1   2  -2    0.10    0.10
  -1   2  -2    0.10    0.10
  -1   2  -2    0.30    0.10
  -1   2  -2    0.10    0.10
  -1   2  -2    0.00    0.10
  -1   2  -2    0.10    0.10
   1  -2   2    0.00    0.10
   1  -2   2    0.00    0.10
   1  -2   2    0.20    0.10
   1  -2   2    0.10    0.10
  -2   2  -2   65.69    1.70
  -2   2  -2   65.19    1.40
  -2   2  -2   65.99    1.50
  -2   2  -2   66.29    1.60
  -2   2  -2   65.09    1.60
  -2   2  -2   69.29    1.60
   2  -2   2   68.09    1.50
   2  -2   2   66.69    1.70
   2  -2   2   66.99    1.60
  -3   2  -2   35.90    1.10
  -3   2  -2   38.90    1.10
  -3   2  -2   37.00    1.10
  -3   2  -2   35.80    1.00
  -3   2  -2   35.20    1.00
   3  -2   2   37.10    1.00
   3  -2   2   38.20    1.10
   3  -2   2   36.70    1.20
   3  -2   2   36.50    1.00
  -4   2  -2    0.10    0.20
  -4   2  -2    0.00    0.20
  -4   2  -2    0.20    0.30
   4  -2   2    0.00    0.20
   4  -2   2    0.10    0.20
  -5   2  -2    9.80    0.70
  -5   2  -2    9.80    0.80
  -5   2  -2   10.10    0.70
   5  -2   2   10.30    0.70
  -6   2  -2    1.50    0.50
  -6   2  -2    1.40    0.50
  -7   2  -2    5.80    0.80
   6   1  -2   56.19    2.00
  -6  -1   2   56.29    2.10
  -6  -1   2   55.69    1.90
  -6  -1   2   54.99    2.10
   5   1  -2    1.60    0.40
  -5  -1   2    1.60    0.50
  -5  -1   2    1.50    0.40
  -5  -1   2    1.70    0.50
   4   1  -2   20.70    0.90
  -4  -1   2   21.80    1.00
  -4  -1   2   22.30    1.00
  -4  -1   2   20.40    1.00
   3   1  -2   20.10    0.80
  -3  -1   2   19.90    0.60
  -3  -1   2   19.40    0.70
  -3  -1   2   20.00    0.90
  -3  -1   2   19.70    0.80
  -3  -1   2   20.20    0.80
   2   1  -2  149.29    3.50
  -2  -1   2  156.28    3.30
  -2  -1   2  152.88    3.60
  -2  -1   2  151.08    2.70
  -2  -1   2  148.09    3.30
   1   1  -2 2826.12   61.89
   1   1  -2 2814.22   62.09
   1   1  -2 2734.03   57.29
   1   1  -2 2767.22   72.69
   1   1  -2 2709.93   59.09
  -1  -1   2 2773.32   59.79
  -1  -1   2 2790.52   72.09
  -1  -1   2 2958.20   67.09
  -1  -1   2 2848.71   62.19
   0   1  -2   45.20    1.00
   0   1  -2   43.20    1.00
   0   1  -2   42.50    1.10
   0   1  -2   44.20    1.00
   0   1  -2   46.80    1.10
   0  -1   2   44.70    1.00
   0  -1   2   45.00    1.00
   0  -1   2   44.60    1.10
   0  -1   2   44.30    1.10
   0  -1   2   43.50    1.00
  -1   1  -2   85.29    1.90
  -1   1  -2   88.59    1.90
  -1   1  -2   88.19    2.00
  -1   1  -2   90.69    2.10
  -1   1  -2   88.99    1.90
  -1   1  -2   86.99    1.90
  -1   1  -2   88.89    1.80
   1  -1   2   87.19    2.10
   1  -1   2   85.09    2.00
   1  -1   2   88.99    2.10
   1  -1   2   86.09    1.80
   1  -1   2   88.59    1.90
  -2   1  -2 2532.25   53.89
  -2   1  -2 2487.05   55.39
  -2   1  -2 2506.65   63.59
  -2   1  -2 2575.94   54.99
  -2   1  -2 2570.14   49.00
  -2   1  -2 2565.24   53.99
  -2   1  -2 2562.44   51.29
   2  -1   2 2480.95   53.89
   2  -1   2 2564.04   51.39
   2  -1   2 2468.55   55.79
   2  -1   2 2542.45   48.60
   2  -1   2 2552.64   55.69
   2  -1   2 2495.75   52.99
  -3   1  -2  645.14   13.80
  -3   1  -2  632.64   12.90
  -3   1  -2  641.94   13.90
  -3   1  -2  637.04   14.00
  -3   1  -2  626.74   13.60
   3  -1   2  619.94   13.90
   3  -1   2  637.44   13.30
  -4   1  -2    4.60    0.50
  -4   1  -2    4.00    0.40
  -4   1  -2    4.30    0.40
   4  -1   2    4.80    0.40
   4  -1   2    4.40    0.40
  -5   1  -2    3.10    0.50
  -5   1  -2    3.20    0.60
   5  -1   2    2.90    0.40
  -6   1  -2   15.40    1.10
  -6   1  -2   13.10    1.00
  -7   1  -2    0.00    0.50
  -7   0   2   29.10    1.70
   6   0  -2    0.60    0.40
  -6   0   2    0.00    0.40
  -6   0   2    0.30    0.50
  -6   0   2    0.70    0.50
   5   0  -2   52.09    1.70
  -5   0   2   53.29    1.80
  -5   0   2   54.19    1.80
  -5   0   2   53.99    1.70
   4   0  -2    0.40    0.30
  -4   0   2    0.50    0.20
  -4   0   2    0.50    0.30
  -4   0   2    0.30    0.30
  -4   0   2    0.10    0.30
   3   0  -2    5.60    0.40
  -3   0   2    5.70    0.30
  -3   0   2    5.80    0.50
  -3   0   2    5.60    0.50
  -3   0   2    6.10    0.50
   2   0  -2    3.60    0.40
  -2   0   2    3.90    0.30
  -2   0   2    4.50    0.40
   1   0  -2 1862.21   41.80
   1   0  -2 1847.52   41.80
   1   0  -2 1886.91   40.50
   1   0  -2 1851.71   39.90
  -1   0   2 1882.31   40.40
  -1   0   2 1890.11   41.90
  -1   0   2 1934.61   50.99
   0   0  -2   30.70    0.80
   0   0  -2   31.00    0.80
   0   0  -2   31.80    0.80
   0   0  -2   29.50    0.80
   0   0  -2   28.90    0.80
   0   0   2   29.90    0.80
   0   0   2   30.40    0.80
   0   0   2   30.50    0.80
   0   0   2   32.30    0.80
   0   0   2   30.20    0.80
  -1   0  -2 1351.96   29.00
  -1   0  -2 1340.97   26.10
  -1   0  -2 1344.77   28.30
   1   0   2 1319.37   28.30
   1   0   2 1298.87   29.40
   1   0   2 1285.57   26.00
  -2   0  -2  175.88    3.50
  -2   0  -2  178.28    3.90
  -2   0  -2  172.18    3.90
  -2   0  -2  174.98    4.00
  -2   0  -2  177.68    3.60
  -2   0  -2  173.88    3.60
  -2   0  -2  178.78    3.90
   2   0   2  174.78    4.00
   2   0   2  175.08    3.70
   2   0   2  173.78    3.50
   2   0   2  175.88    4.00
   2   0   2  172.28    3.90
  -3   0  -2  359.36    7.20
  -3   0  -2  362.96    8.10
  -3   0  -2  366.56    7.50
  -3   0  -2  364.36    8.10
  -3   0  -2  362.26    8.20
  -3   0  -2  371.66    7.50
  -3   0  -2  363.96    8.00
   3   0   2  364.96    7.80
   3   0   2  372.96    7.10
  -4   0  -2    1.40    0.30
  -4   0  -2    1.40    0.40
  -4   0  -2    1.50    0.30
  -4   0  -2    1.70    0.40
   4   0   2    1.60    0.20
   4   0   2    1.60    0.30
  -5   0  -2    2.00    0.50
  -5   0  -2    1.20    0.40
  -6   0  -2   11.10    1.00
  -6   0  -2   10.30    0.90
   7  -1  -2   27.00    1.40
   6  -1  -2   20.20    1.10
  -6   1   2   20.10    1.20
  -6   1   2   20.40    1.10
  -6   1   2   20.20    1.20
   5  -1  -2  145.69    3.70
  -5   1   2  146.79    3.90
  -5   1   2  146.99    3.80
  -5   1   2  150.08    4.00
   4  -1  -2  126.89    3.20
  -4   1   2  126.49    3.20
  -4   1   2  127.89    3.30
  -4   1   2  124.89    3.30
  -4   1   2  126.49    3.00
   3  -1  -2  143.49    3.40
   3  -1  -2  140.89    3.40
  -3   1   2  139.89    3.50
  -3   1   2  142.69    3.50
  -3   1   2  143.89    3.40
  -3   1   2  141.39    3.30
   2  -1  -2   34.90    1.00
  -2   1   2   34.20    1.00
  -2   1   2   33.80    1.00
  -2   1   2   36.20    1.10
   1  -1  -2 5115.39  116.09
   1  -1  -2 5042.10  121.69
   1  -1  -2 5284.27  124.49
  -1   1   2 5383.46  125.39
  -1   1   2 5041.40  125.99
  -1   1   2 5146.68  119.09
  -1   1   2 5184.08  129.39
   0  -1  -2 2225.18   46.90
   0  -1  -2 1923.21   48.10
   0  -1  -2 2291.57   45.40
   0  -1  -2 2343.37   47.70
   0  -1  -2 2269.17   43.60
   0   1   2 2319.47   47.70
   0   1   2 2258.57   49.20
   0   1   2 2265.07   45.40
  -1  -1  -2   18.10    0.60
  -1  -1  -2   19.40    0.50
  -1  -1  -2   18.70    0.50
  -1  -1  -2   18.60    0.70
  -1  -1  -2   19.70    0.60
   1   1   2   19.20    0.50
   1   1   2   19.10    0.60
   1   1   2   19.50    0.70
   1   1   2   19.00    0.60
  -2  -1  -2   49.80    1.30
  -2  -1  -2   49.80    1.10
  -2  -1  -2   49.70    1.20
  -2  -1  -2   47.40    1.40
  -2  -1  -2   49.30    1.20
  -2  -1  -2   48.60    1.00
  -2  -1  -2   50.39    1.20
   2   1   2   47.90    1.10
   2   1   2   49.20    1.20
   2   1   2   48.30    1.30
  -3  -1  -2  537.95   11.50
  -3  -1  -2  530.35   11.40
  -3  -1  -2  537.15   10.70
  -3  -1  -2  528.05   10.70
  -3  -1  -2  521.05   10.30
  -3  -1  -2  513.35   11.50
  -3  -1  -2  512.45   11.60
   3   1   2  525.65   10.20
   3   1   2  511.65   11.00
  -4  -1  -2  306.07    6.90
  -4  -1  -2  308.67    6.40
  -4  -1  -2  300.07    7.10
   4   1   2  297.67    6.00
   4   1   2  303.07    6.60
  -5  -1  -2    2.20    0.60
  -5  -1  -2    1.70    0.50
  -6  -1  -2   14.70    1.10
  -6  -1  -2   15.80    1.20
   7  -2  -2    2.10    0.60
  -7   2   2    1.90    0.50
  -7   2   2    1.00    0.60
   6  -2  -2   22.30    1.20
  -6   2   2   23.70    1.30
  -6   2   2   23.00    1.30
  -6   2   2   20.40    1.20
   5  -2  -2    1.20    0.40
  -5   2   2    1.40    0.40
  -5   2   2    0.90    0.40
  -5   2   2    1.90    0.40
  -5   2   2    1.50    0.40
   4  -2  -2    1.20    0.30
   4  -2  -2    1.40    0.30
  -4   2   2    2.20    0.30
  -4   2   2    1.00    0.30
  -4   2   2    1.70    0.40
   3  -2  -2  406.56    9.00
   3  -2  -2  419.86    9.20
  -3   2   2  414.36    9.40
  -3   2   2  415.56    9.10
  -3   2   2  416.86    9.20
   2  -2  -2  566.14   12.30
  -2   2   2  598.44   12.70
   1  -2  -2   12.50    0.50
   1  -2  -2   12.50    0.50
   1  -2  -2   12.50    0.50
   1  -2  -2   12.10    0.50
   1  -2  -2   12.60    0.40
  -1   2   2   10.90    0.50
  -1   2   2   11.80    0.50
  -1   2   2   12.10    0.50
  -1   2   2   11.50    0.50
   0  -2  -2 1916.81   35.50
   0  -2  -2 1976.60   43.40
   0  -2  -2 1978.60   38.50
   0  -2  -2 1950.40   40.00
   0  -2  -2 2015.80   42.10
   0   2   2 2011.00   40.00
   0   2   2 1942.21   38.50
   0   2   2 2007.70   42.00
   0   2   2 1876.41   43.30
   0   2   2 1880.41   43.30
  -1  -2  -2   14.20    0.50
  -1  -2  -2   15.40    0.60
  -1  -2  -2   14.50    0.40
  -1  -2  -2   14.20    0.50
  -1  -2  -2   15.50    0.50
   1   2   2   14.10    0.50
   1   2   2   15.10    0.50
   1   2   2   15.10    0.50
   1   2   2   16.30    0.60
   1   2   2   15.00    0.60
   1   2   2   15.00    0.50
  -2  -2  -2  240.38    5.00
  -2  -2  -2  247.08    5.00
  -2  -2  -2  245.18    4.50
  -2  -2  -2  245.38    5.50
  -2  -2  -2  244.18    5.40
   2   2   2  239.88    5.20
   2   2   2  243.18    5.50
   2   2   2  245.68    5.00
   2   2   2  235.38    5.40
   2   2   2  244.18    4.90
  -3  -2  -2  163.98    3.00
  -3  -2  -2  158.98    3.60
  -3  -2  -2  153.48    3.40
  -3  -2  -2  158.88    3.80
  -3  -2  -2  156.08    3.40
   3   2   2  150.98    3.50
   3   2   2  154.58    3.30
  -4  -2  -2  226.98    5.40
  -4  -2  -2  226.68    4.20
  -4  -2  -2  224.98    4.90
  -4  -2  -2  223.48    5.50
  -5  -2  -2   20.20    0.70
  -5  -2  -2   20.80    1.20
  -5  -2  -2   20.80    1.20
  -6  -2  -2    0.00    0.50
  -6  -2  -2    1.00    0.50
   7  -3  -2    9.60    0.90
  -7   3   2   12.20    1.10
  -7   3   2    8.20    1.00
  -7   3   2   10.20    1.00
   6  -3  -2   23.80    1.20
  -6   3   2   23.10    1.20
  -6   3   2   22.90    1.30
  -6   3   2   24.20    1.30
   5  -3  -2    8.00    0.70
   5  -3  -2    8.30    0.70
  -5   3   2    9.90    0.80
  -5   3   2    8.20    0.70
  -5   3   2    8.40    0.70
   4  -3  -2    0.90    0.30
   4  -3  -2    0.30    0.30
  -4   3   2    0.60    0.30
  -4   3   2    0.60    0.30
  -4   3   2    0.90    0.30
   3  -3  -2  838.52   18.10
   3  -3  -2  859.61   19.00
   3  -3  -2  854.61   17.50
   3  -3  -2  857.21   18.30
  -3   3   2  867.71   18.70
   2  -3  -2  767.42   16.10
  -2   3   2  745.33   16.80
  -2   3   2  778.32   15.40
   1  -3  -2   19.00    0.70
   1  -3  -2   19.40    0.60
   1  -3  -2   19.20    0.70
   1  -3  -2   18.00    0.70
  -1   3   2   17.70    0.60
   0  -3  -2  308.57    6.40
   0  -3  -2  316.17    6.90
   0  -3  -2  316.67    6.80
   0  -3  -2  305.67    5.70
   0  -3  -2  310.37    6.20
   0   3   2  297.57    6.90
   0   3   2  303.57    6.60
   0   3   2  306.77    6.40
   0   3   2  314.67    6.90
  -1  -3  -2  791.32   16.50
  -1  -3  -2  769.82   14.30
  -1  -3  -2  784.22   15.80
  -1  -3  -2  776.22   16.70
  -1  -3  -2  771.72   17.20
  -1  -3  -2  796.82   15.10
   1   3   2  765.42   16.90
   1   3   2  758.52   16.50
   1   3   2  764.62   17.30
   1   3   2  765.92   15.00
   1   3   2  779.22   15.90
  -2  -3  -2  444.96    8.90
  -2  -3  -2  439.66    9.80
  -2  -3  -2  449.76    9.80
  -2  -3  -2  446.96    9.70
  -2  -3  -2  453.25    9.10
  -2  -3  -2  449.56    8.10
   2   3   2  436.26    9.80
   2   3   2  441.56    9.40
   2   3   2  415.96    9.80
   2   3   2  442.26    8.80
   2   3   2  449.95    9.10
  -3  -3  -2  125.29    2.50
  -3  -3  -2  124.19    2.90
  -3  -3  -2  127.79    3.20
  -3  -3  -2  124.69    2.80
   3   3   2  121.39    2.90
  -4  -3  -2   10.90    0.90
  -4  -3  -2   10.80    0.60
  -4  -3  -2   11.40    0.90
  -5  -3  -2    0.10    0.50
  -5  -3  -2    0.00    0.30
  -5  -3  -2    0.00    0.50
  -6  -3  -2    0.00    0.40
  -6  -3  -2    0.40    0.60
  -6  -3  -2    0.00    0.50
   7  -4  -2   15.20    1.10
  -7   4   2   13.40    1.20
  -7   4   2   14.40    1.10
  -7   4   2   14.30    1.10
   6  -4  -2    0.00    0.40
   6  -4  -2    0.60    0.40
  -6   4   2    1.10    0.40
  -6   4   2    0.40    0.40
  -6   4   2    0.40    0.40
  -6   4   2    0.80    0.40
   5  -4  -2    4.10    0.60
   5  -4  -2    1.70    0.40
  -5   4   2    1.20    0.40
  -5   4   2    2.20    0.40
  -5   4   2    2.70    0.50
   4  -4  -2   71.69    2.10
   4  -4  -2   73.89    2.10
   4  -4  -2   74.99    2.20
  -4   4   2   74.79    2.20
  -4   4   2   74.29    1.80
  -4   4   2   72.19    2.10
   3  -4  -2  400.36    9.10
   3  -4  -2  391.16    8.30
   3  -4  -2  373.66    8.60
   3  -4  -2  395.46    8.70
  -3   4   2  389.96    7.90
  -3   4   2  395.26    8.80
   2  -4  -2    0.00    0.10
   2  -4  -2    0.40    0.20
   2  -4  -2    0.00    0.10
   2  -4  -2    0.00    0.20
   2  -4  -2    0.00    0.20
  -2   4   2    0.10    0.20
   1  -4  -2  260.87    6.00
   1  -4  -2  260.37    5.70
   1  -4  -2  266.97    6.20
   1  -4  -2  274.37    5.40
  -1   4   2  269.57    6.10
   0  -4  -2  645.14   12.50
   0  -4  -2  625.84   13.00
   0  -4  -2  647.74   13.70
   0  -4  -2  649.83   13.80
   0  -4  -2  636.24   14.10
   0   4   2  634.64   13.50
   0   4   2  617.24   16.10
   0   4   2  645.74   13.10
  -1  -4  -2    0.70    0.30
  -1  -4  -2    0.20    0.20
  -1  -4  -2    0.00    0.20
  -1  -4  -2    0.00    0.20
  -1  -4  -2    0.00    0.10
  -1  -4  -2    0.00    0.10
   1   4   2    0.00    0.20
   1   4   2    0.10    0.20
   1   4   2    0.20    0.20
   1   4   2    0.00    0.20
   1   4   2    0.00    0.20
  -2  -4  -2  539.55   10.60
  -2  -4  -2  552.54   11.60
  -2  -4  -2  502.15   10.90
  -2  -4  -2  524.35    9.70
  -2  -4  -2  540.65   11.70
  -2  -4  -2  534.15   11.70
   2   4   2  506.45   11.70
   2   4   2  534.05   11.20
   2   4   2  516.15   10.50
  -3  -4  -2   21.00    1.10
  -3  -4  -2   20.60    1.10
  -3  -4  -2   20.70    0.80
  -3  -4  -2   20.40    0.80
   3   4   2   20.70    0.80
  -4  -4  -2    3.70    0.60
  -4  -4  -2    4.30    0.70
  -4  -4  -2    5.60    0.50
  -5  -4  -2    2.70    0.70
  -5  -4  -2    2.50    0.50
  -5  -4  -2    1.10    0.60
  -6  -4  -2    2.70    0.60
   7  -5  -2    3.10    0.60
  -7   5   2    2.60    0.60
  -7   5   2    2.70    0.60
  -7   5   2    2.70    0.60
   6  -5  -2   25.30    1.30
   6  -5  -2   25.20    1.30
  -6   5   2   30.10    1.40
  -6   5   2   27.30    1.40
  -6   5   2   28.10    1.30
   5  -5  -2  104.59    2.90
   5  -5  -2  101.79    2.90
   5  -5  -2  104.89    3.00
  -5   5   2   99.99    2.90
  -5   5   2  102.79    2.50
  -5   5   2  106.79    3.00
  -5   5   2  105.09    3.10
   4  -5  -2  201.88    4.80
   4  -5  -2  204.88    5.10
   4  -5  -2  201.68    4.90
   4  -5  -2  193.18    4.70
  -4   5   2  203.18    4.90
  -4   5   2  202.38    4.30
   3  -5  -2    7.50    0.50
   3  -5  -2    6.30    0.60
   3  -5  -2    7.10    0.50
   3  -5  -2    6.50    0.50
  -3   5   2    7.70    0.40
  -3   5   2    6.60    0.60
   2  -5  -2   60.19    1.80
   2  -5  -2   58.79    1.70
   2  -5  -2   63.69    1.80
   2  -5  -2   60.39    1.70
   1  -5  -2   34.30    1.20
   1  -5  -2   33.10    1.00
   1  -5  -2   35.20    1.10
  -1   5   2   36.90    1.20
   0  -5  -2   14.00    0.70
   0  -5  -2   15.00    0.70
   0  -5  -2   15.60    0.70
   0  -5  -2   15.40    0.60
   0  -5  -2   15.40    0.70
   0   5   2   14.20    0.70
   0   5   2   15.40    0.70
  -1  -5  -2  143.49    3.20
  -1  -5  -2  143.29    2.80
  -1  -5  -2  146.59    3.20
  -1  -5  -2  136.79    3.50
  -1  -5  -2  137.79    3.50
  -1  -5  -2  137.79    3.40
   1   5   2  141.69    3.50
   1   5   2  140.99    3.30
  -2  -5  -2   35.80    1.20
  -2  -5  -2   35.20    1.30
  -2  -5  -2   35.70    1.10
  -2  -5  -2   36.60    1.40
  -2  -5  -2   35.40    1.00
  -2  -5  -2   34.60    1.10
   2   5   2   33.70    1.20
   2   5   2   35.40    1.20
  -3  -5  -2   58.29    2.00
  -3  -5  -2   57.99    1.60
  -3  -5  -2   58.09    1.50
  -3  -5  -2   54.29    2.00
   3   5   2   58.39    1.70
  -4  -5  -2   30.30    1.10
  -4  -5  -2   30.70    1.50
  -4  -5  -2   30.90    1.50
  -5  -5  -2   65.29    1.80
  -5  -5  -2   61.29    2.40
  -5  -5  -2   69.49    2.60
   7  -6  -2    0.00    0.40
   7  -6  -2    0.30    0.50
  -7   6   2    0.00    0.40
  -7   6   2    0.50    0.50
   6  -6  -2   12.00    1.00
   6  -6  -2   11.70    1.00
  -6   6   2   13.10    1.00
  -6   6   2   12.60    1.00
  -6   6   2   13.00    1.00
   5  -6  -2    0.40    0.40
   5  -6  -2    0.00    0.40
   5  -6  -2    0.30    0.40
   5  -6  -2    0.20    0.30
  -5   6   2    0.40    0.40
  -5   6   2    0.90    0.40
   4  -6  -2   62.69    2.00
   4  -6  -2   60.99    2.10
   4  -6  -2   65.89    2.00
   4  -6  -2   61.29    1.90
  -4   6   2   63.99    1.60
  -4   6   2   64.39    2.00
   3  -6  -2  113.19    2.90
   3  -6  -2  109.89    2.90
   3  -6  -2  107.39    2.30
  -3   6   2  108.29    3.00
   2  -6  -2  163.08    4.10
   2  -6  -2  165.68    4.00
   2  -6  -2  160.78    3.80
  -2   6   2  165.68    4.10
   1  -6  -2  364.06    8.40
   1  -6  -2  369.36    7.40
   1  -6  -2  364.26    7.80
  -1   6   2  361.06    8.00
  -1   6   2  360.76    8.30
   0  -6  -2   11.30    0.60
   0  -6  -2   11.00    0.60
   0  -6  -2   12.40    0.70
   0  -6  -2   10.70    0.60
   0  -6  -2   11.40    0.60
   0   6   2   11.80    0.70
   0   6   2   12.60    0.80
  -1  -6  -2   35.90    1.20
  -1  -6  -2   36.20    1.30
  -1  -6  -2   34.10    1.30
  -1  -6  -2   34.00    1.20
  -1  -6  -2   33.80    1.20
   1   6   2   36.00    1.30
   1   6   2   35.70    1.20
  -2  -6  -2    0.00    0.20
  -2  -6  -2    0.50    0.40
  -2  -6  -2    0.00    0.40
  -2  -6  -2    0.00    0.40
  -2  -6  -2    0.10    0.20
   2   6   2    0.00    0.40
   2   6   2    0.00    0.30
  -3  -6  -2    3.80    0.50
  -3  -6  -2    2.70    0.60
  -3  -6  -2    3.30    0.60
  -4  -6  -2    3.70    0.70
  -4  -6  -2    4.30    0.80
  -4  -6  -2    4.40    0.60
  -5  -6  -2   15.70    1.00
   7  -7  -2   18.90    1.30
  -7   7   2   20.20    1.30
  -7   7   2   17.40    1.30
   6  -7  -2    0.80    0.50
   6  -7  -2    0.40    0.40
   6  -7  -2    1.70    0.50
  -6   7   2    1.10    0.50
  -6   7   2    1.70    0.50
  -6   7   2    0.80    0.40
   5  -7  -2    0.10    0.30
   5  -7  -2    0.50    0.40
   5  -7  -2    0.70    0.40
   5  -7  -2    0.00    0.40
  -5   7   2    0.10    0.40
   4  -7  -2   35.40    1.40
   4  -7  -2   37.60    1.50
   4  -7  -2   35.20    1.50
   4  -7  -2   37.90    1.50
  -4   7   2   35.60    1.40
   3  -7  -2  245.58    5.90
   3  -7  -2  244.38    5.00
   2  -7  -2   14.70    0.80
   2  -7  -2   15.70    0.80
   2  -7  -2   13.90    0.80
   2  -7  -2   12.40    0.60
  -2   7   2   15.90    0.80
  -2   7   2   13.80    0.80
   1  -7  -2  360.56    7.30
   1  -7  -2  361.46    7.80
   1  -7  -2  356.96    8.40
  -1   7   2  352.36    8.30
  -1   7   2  355.96    8.00
   0  -7  -2   12.50    0.70
   0  -7  -2   12.30    0.70
   0  -7  -2   11.10    0.70
   0  -7  -2   12.00    0.70
   0   7   2   11.80    0.80
   0   7   2   11.40    0.70
  -1  -7  -2  104.49    2.70
  -1  -7  -2  104.79    3.00
  -1  -7  -2  106.39    2.90
  -1  -7  -2  104.69    2.90
  -1  -7  -2  109.69    2.70
   1   7   2  106.29    2.90
   1   7   2  108.79    2.80
  -2  -7  -2   34.40    1.50
  -2  -7  -2   35.60    1.30
  -2  -7  -2   34.70    1.50
   2   7   2   35.00    1.40
  -3  -7  -2    0.00    0.50
  -3  -7  -2    0.00    0.40
  -4  -7  -2   15.60    1.20
  -4  -7  -2   13.10    1.20
   7  -8  -2    9.20    1.00
  -7   8   2   11.30    1.00
   6  -8  -2    7.90    0.90
   6  -8  -2    5.90    0.90
   6  -8  -2    7.80    0.90
  -6   8   2    6.70    0.80
  -6   8   2    8.20    0.90
   5  -8  -2    0.00    0.40
   5  -8  -2    0.00    0.40
   5  -8  -2    0.20    0.40
   5  -8  -2    0.50    0.40
  -5   8   2    0.20    0.40
   4  -8  -2    5.10    0.70
   4  -8  -2    5.30    0.60
   4  -8  -2    4.30    0.50
  -4   8   2    3.80    0.60
   3  -8  -2    2.20    0.40
   3  -8  -2    1.70    0.40
   3  -8  -2    1.80    0.30
   3  -8  -2    2.30    0.40
  -3   8   2    1.80    0.50
   2  -8  -2    0.10    0.30
   2  -8  -2    0.10    0.30
   2  -8  -2    0.00    0.30
   2  -8  -2    0.10    0.20
  -2   8   2    0.10    0.30
  -2   8   2    0.00    0.40
   1  -8  -2  145.39    3.80
   1  -8  -2  146.49    3.40
   1  -8  -2  147.29    3.90
   1  -8  -2  147.29    3.60
  -1   8   2  148.19    3.80
  -1   8   2  146.99    3.80
   0  -8  -2  269.67    6.50
   0  -8  -2  265.47    6.00
   0  -8  -2  263.67    6.40
   0  -8  -2  269.87    5.80
   0  -8  -2  272.87    6.30
   0   8   2  268.47    6.40
   0   8   2  268.17    6.30
  -1  -8  -2   78.49    2.20
  -1  -8  -2   78.19    2.20
  -1  -8  -2   77.19    2.30
  -1  -8  -2   80.59    2.40
  -1  -8  -2   79.79    2.50
   1   8   2   77.69    2.30
   1   8   2   77.09    2.40
  -2  -8  -2   25.10    1.40
  -2  -8  -2   25.50    1.30
  -2  -8  -2   27.30    1.10
   2   8   2   26.20    1.30
  -3  -8  -2    6.20    0.90
  -3  -8  -2    5.80    0.80
  -4  -8  -2    0.50    0.60
  -7   9   2   12.10    1.10
   6  -9  -2    5.80    0.80
  -6   9   2    5.70    0.80
   5  -9  -2  197.58    5.50
   5  -9  -2  198.38    5.20
   5  -9  -2  198.38    5.00
  -5   9   2  204.58    5.30
   4  -9  -2    0.00    0.30
   4  -9  -2    0.20    0.30
   4  -9  -2    0.00    0.30
  -4   9   2    0.60    0.50
   3  -9  -2    8.50    0.50
   3  -9  -2    7.30    0.70
   3  -9  -2    8.30    0.80
   3  -9  -2    8.40    0.80
  -3   9   2    7.50    0.80
  -3   9   2    8.70    0.80
   2  -9  -2    4.80    0.60
   2  -9  -2    4.90    0.60
   2  -9  -2    4.70    0.50
   2  -9  -2    5.00    0.60
  -2   9   2    5.10    0.70
  -2   9   2    4.30    0.60
   1  -9  -2   39.40    1.60
   1  -9  -2   38.50    1.50
   1  -9  -2   40.00    1.40
   1  -9  -2   40.60    1.60
  -1   9   2   39.70    1.60
  -1   9   2   37.50    1.50
   0  -9  -2   15.60    1.00
   0  -9  -2   17.00    1.00
   0  -9  -2   17.30    1.00
   0  -9  -2   15.00    1.00
   0  -9  -2   15.00    1.00
   0   9   2   16.60    1.10
   0   9   2   15.90    1.10
  -1  -9  -2   18.90    1.10
  -1  -9  -2   18.70    1.10
  -1  -9  -2   19.90    1.20
  -1  -9  -2   18.80    1.00
  -1  -9  -2   18.00    1.00
   1   9   2   18.00    1.10
   1   9   2   20.10    1.20
  -2  -9  -2    1.20    0.60
  -2  -9  -2    0.60    0.50
   2   9   2    0.50    0.50
  -3  -9  -2    1.70    0.70
  -6  10   2    5.00    0.80
   5 -10  -2   71.09    2.70
   5 -10  -2   70.99    2.50
  -5  10   2   72.49    2.50
   4 -10  -2   42.10    1.10
   4 -10  -2   41.80    1.70
   4 -10  -2   42.10    1.90
   4 -10  -2   43.10    1.70
  -4  10   2   43.80    1.80
  -4  10   2   41.20    1.80
   3 -10  -2   46.80    1.80
   3 -10  -2   46.40    1.40
   3 -10  -2   46.60    1.90
   3 -10  -2   44.50    1.80
  -3  10   2   43.60    1.80
  -3  10   2   46.50    1.80
   2 -10  -2   71.99    2.00
   2 -10  -2   72.79    2.30
   2 -10  -2   75.39    2.50
   2 -10  -2   72.79    2.40
  -2  10   2   75.49    2.40
  -2  10   2   72.09    2.40
   1 -10  -2   27.90    1.20
   1 -10  -2   26.40    1.30
   1 -10  -2   26.80    1.40
   1 -10  -2   27.80    1.40
  -1  10   2   27.00    1.40
  -1  10   2   24.70    1.40
   0 -10  -2  305.07    7.10
   0 -10  -2  312.17    6.90
   0 -10  -2  310.17    7.70
   0 -10  -2  314.67    7.60
   0  10   2  314.57    7.60
   0  10   2  316.17    7.40
  -1 -10  -2    7.20    0.90
  -1 -10  -2    8.30    0.80
  -1 -10  -2    9.20    0.90
   1  10   2    7.70    0.90
  -2 -10  -2    3.40    0.70
  -6  11   2    1.40    0.60
  -6  11   2    0.70    0.60
  -5  11   2    9.20    1.00
  -5  11   2    6.60    0.90
   4 -11  -2   27.40    0.90
   4 -11  -2   31.60    1.60
   4 -11  -2   27.40    1.50
  -4  11   2   28.40    1.50
  -4  11   2   27.70    1.50
   3 -11  -2   48.90    2.00
   3 -11  -2   51.09    1.90
   3 -11  -2   50.39    2.10
   3 -11  -2   51.29    1.60
  -3  11   2   49.00    2.00
  -3  11   2   52.49    2.00
   2 -11  -2    7.30    0.70
   2 -11  -2    6.40    0.80
   2 -11  -2    6.60    0.70
  -2  11   2    8.40    0.90
  -2  11   2    7.80    0.90
   1 -11  -2   20.20    1.20
   1 -11  -2   20.20    1.10
   1 -11  -2   18.10    1.20
   1 -11  -2   18.10    1.20
  -1  11   2   18.40    1.30
  -1  11   2   19.20    1.30
   0 -11  -2    0.70    0.40
   0 -11  -2    0.50    0.50
   0 -11  -2    0.50    0.40
   0 -11  -2    0.70    0.40
   0  11   2    1.90    0.60
   0  11   2    0.30    0.60
  -1 -11  -2    5.20    0.60
  -1 -11  -2    8.10    0.90
   1  11   2    5.80    0.90
  -2 -11  -2    2.40    0.70
  -5  12   2    0.00    0.50
  -5  12   2    1.00    0.60
   4 -12  -2    5.70    0.50
  -4  12   2    5.80    0.90
  -4  12   2    6.30    0.90
   3 -12  -2   25.10    1.10
  -3  12   2   25.90    1.50
  -3  12   2   25.70    1.50
   2 -12  -2    5.60    0.60
   2 -12  -2    4.00    0.70
  -2  12   2    4.70    0.90
  -2  12   2    4.70    0.80
   1 -12  -2   18.80    1.10
   1 -12  -2   19.40    1.30
  -1  12   2   17.80    1.40
  -1  12   2   18.60    1.30
   0 -12  -2    0.00    0.30
   0  12   2    0.00    0.60
   1  12   2    5.50    1.00
  -4  13   2    4.60    0.90
  -4  13   2    4.70    0.90
  -3  13   2    1.00    0.60
  -3  13   2    0.20    0.70
  -2  13   2   19.00    1.50
  -2  13   2   18.50    1.40
   1 -13  -2    3.00    0.60
  -1  13   2    4.10    0.80
  -1  13   2    2.40    0.80
  -2  14  -3   12.60    1.10
  -2  14  -3    8.70    1.20
   0  13  -3   21.30    1.60
   0 -13   3   19.60    1.20
  -1  13  -3    0.00    0.70
   1 -13   3    0.10    0.40
  -2  13  -3    1.10    0.40
  -2  13  -3    0.00    0.60
   2 -13   3    0.00    0.40
   2 -13   3    0.00    0.50
   2 -13   3    0.70    0.30
  -3  13  -3    9.20    1.00
  -3  13  -3    7.50    1.10
   3 -13   3    6.90    0.60
   3 -13   3    6.70    1.00
  -4  13  -3    4.60    0.80
  -4  13  -3    2.90    0.90
   4 -13   3    3.50    0.80
   4 -13   3    2.80    0.40
   2  12  -3    1.50    0.90
   1  12  -3    0.00    0.60
   0  12  -3    6.50    1.00
   0 -12   3    6.90    0.90
   0 -12   3    7.10    0.80
   0 -12   3    7.00    0.90
  -1  12  -3   31.90    1.80
  -1  12  -3   31.80    1.40
   1 -12   3   34.60    1.40
   1 -12   3   32.10    1.60
   1 -12   3   34.20    1.60
   1 -12   3   34.10    1.70
  -2  12  -3   10.80    1.10
  -2  12  -3   11.60    0.90
   2 -12   3   12.30    1.10
   2 -12   3   10.70    0.90
   2 -12   3   11.00    1.00
   2 -12   3    9.90    0.80
  -3  12  -3   36.70    1.80
  -3  12  -3   33.50    1.60
   3 -12   3   34.30    1.70
   3 -12   3   34.60    1.20
   3 -12   3   34.10    1.70
   3 -12   3   36.30    1.50
  -4  12  -3   20.70    1.50
  -4  12  -3   22.10    1.40
   4 -12   3   20.60    0.70
   4 -12   3   21.30    1.40
  -5  12  -3    1.80    0.60
  -5  12  -3    0.60    0.60
   5 -12   3    0.30    0.60
   2  11  -3    3.90    0.90
  -2 -11   3    4.20    0.70
   1  11  -3    0.00    0.60
  -1 -11   3    0.40    0.40
  -1 -11   3    0.40    0.40
  -1 -11   3    0.40    0.50
   0  11  -3    4.80    0.60
   0  11  -3    4.40    0.80
   0 -11   3    4.60    0.60
   0 -11   3    4.70    0.70
   0 -11   3    5.20    0.70
   0 -11   3    5.30    0.70
  -1  11  -3   11.80    1.10
  -1  11  -3   12.10    0.90
   1 -11   3   10.60    0.90
   1 -11   3   11.40    0.90
   1 -11   3   10.30    0.80
   1 -11   3   10.20    1.00
   1 -11   3    9.90    0.80
  -2  11  -3   57.29    2.10
  -2  11  -3   53.89    2.00
   2 -11   3   54.99    2.00
   2 -11   3   53.69    1.70
   2 -11   3   52.69    1.90
   2 -11   3   55.19    2.10
   2 -11   3   54.09    1.90
  -3  11  -3   35.20    1.60
  -3  11  -3   34.70    1.60
   3 -11   3   35.50    1.10
   3 -11   3   34.80    1.50
   3 -11   3   33.80    1.70
   3 -11   3   35.30    1.60
   3 -11   3   36.30    1.50
  -4  11  -3   11.40    1.00
  -4  11  -3   12.10    1.10
   4 -11   3   11.70    1.00
   4 -11   3   12.30    1.10
   4 -11   3   11.90    1.00
   4 -11   3   12.50    0.50
  -5  11  -3   60.29    2.30
  -5  11  -3   56.99    2.10
  -5  11  -3   63.59    2.30
   5 -11   3   62.39    2.40
  -6  11  -3    2.30    0.60
  -6  11  -3    1.30    0.60
   6 -11   3    1.40    0.60
   3  10  -3   25.00    1.50
  -3 -10   3   25.20    1.40
   2  10  -3    0.00    0.60
  -2 -10   3    0.30    0.50
  -2 -10   3    0.00    0.50
  -2 -10   3    0.00    0.40
   1  10  -3    4.30    0.70
  -1 -10   3    4.70    0.60
  -1 -10   3    3.90    0.60
  -1 -10   3    5.00    0.70
  -1 -10   3    5.10    0.80
   0  10  -3    9.00    0.70
   0  10  -3   10.10    1.00
   0 -10   3    8.70    0.90
   0 -10   3    6.60    0.60
   0 -10   3    7.50    0.80
   0 -10   3    8.30    0.80
   0 -10   3    9.30    0.80
  -1  10  -3    1.40    0.40
  -1  10  -3    1.50    0.50
   1 -10   3    1.80    0.40
   1 -10   3    1.50    0.40
   1 -10   3    1.70    0.40
   1 -10   3    1.20    0.50
   1 -10   3    1.40    0.40
  -2  10  -3   55.79    2.00
  -2  10  -3   59.59    2.10
   2 -10   3   58.89    1.90
   2 -10   3   60.49    2.00
   2 -10   3   59.89    2.20
   2 -10   3   60.59    2.10
   2 -10   3   56.69    1.70
  -3  10  -3   16.30    1.00
  -3  10  -3   16.30    1.10
   3 -10   3   14.60    0.90
   3 -10   3   16.50    1.10
   3 -10   3   17.00    1.00
   3 -10   3   15.30    0.70
   3 -10   3   15.40    1.00
  -4  10  -3   27.50    1.30
  -4  10  -3   29.50    1.40
  -4  10  -3   27.60    1.40
   4 -10   3   27.90    1.30
   4 -10   3   26.80    1.40
   4 -10   3   30.90    1.50
  -5  10  -3   18.50    1.10
  -5  10  -3   17.40    1.20
  -5  10  -3   16.20    1.20
   5 -10   3   18.00    1.10
   5 -10   3   17.70    1.30
   5 -10   3   18.20    1.20
  -6  10  -3   18.80    1.10
  -6  10  -3   18.80    1.30
  -6  10  -3   18.80    1.30
   6 -10   3   15.90    1.30
   6 -10   3   17.90    1.40
   4   9  -3   13.60    1.30
  -4  -9   3   12.30    1.10
   3   9  -3    9.10    1.00
  -3  -9   3    8.80    0.90
  -3  -9   3    8.00    0.90
  -3  -9   3    8.80    0.90
  -3  -9   3    9.70    0.90
   2   9  -3   68.79    2.40
  -2  -9   3   71.79    2.50
  -2  -9   3   71.69    2.50
  -2  -9   3   72.09    2.30
  -2  -9   3   72.39    2.20
   1   9  -3  211.78    5.30
  -1  -9   3  217.08    5.50
  -1  -9   3  214.78    5.10
  -1  -9   3  215.08    4.90
  -1  -9   3  201.78    5.30
   0   9  -3   14.80    0.80
   0   9  -3   15.70    1.10
   0  -9   3   16.10    1.00
   0  -9   3   15.10    0.80
   0  -9   3   14.60    0.90
   0  -9   3   15.80    0.90
   0  -9   3   15.80    0.90
  -1   9  -3    9.30    0.70
  -1   9  -3   10.80    0.90
   1  -9   3    8.50    0.70
   1  -9   3    9.90    0.70
   1  -9   3   10.10    0.80
   1  -9   3    9.70    0.70
   1  -9   3    9.10    0.70
  -2   9  -3   36.00    1.50
   2  -9   3   35.60    1.40
   2  -9   3   35.50    1.20
   2  -9   3   37.70    1.40
   2  -9   3   36.70    1.50
   2  -9   3   38.10    1.40
  -3   9  -3    0.00    0.40
   3  -9   3    0.00    0.20
   3  -9   3    0.00    0.30
   3  -9   3    0.00    0.30
   3  -9   3    0.30    0.30
   3  -9   3    0.10    0.30
  -4   9  -3   35.70    1.40
  -4   9  -3   33.80    1.50
   4  -9   3   32.80    1.50
   4  -9   3   33.80    1.40
   4  -9   3   33.50    1.50
   4  -9   3   33.90    1.30
  -5   9  -3    0.50    0.40
  -5   9  -3    0.60    0.40
   5  -9   3    0.50    0.50
   5  -9   3    0.50    0.30
   5  -9   3    0.50    0.40
  -6   9  -3   19.20    1.10
  -6   9  -3   18.10    1.20
  -6   9  -3   20.50    1.30
   6  -9   3   20.40    1.30
   6  -9   3   16.70    1.20
   4   8  -3    3.80    0.70
  -4  -8   3    3.50    0.70
   3   8  -3    5.90    0.80
  -3  -8   3    5.70    0.70
  -3  -8   3    6.50    0.80
  -3  -8   3    6.10    0.70
  -3  -8   3    5.00    0.80
   2   8  -3   25.60    1.40
  -2  -8   3   26.80    1.40
  -2  -8   3   27.20    1.20
  -2  -8   3   24.90    1.30
  -2  -8   3   26.40    1.30
   1   8  -3   98.69    2.80
   1   8  -3   93.99    2.50
  -1  -8   3   98.39    2.70
  -1  -8   3   94.99    2.50
  -1  -8   3   95.89    2.80
  -1  -8   3   96.69    2.50
  -1  -8   3   93.89    2.50
  -1  -8   3   90.99    2.70
   0   8  -3   11.00    0.90
   0   8  -3    9.00    0.70
   0  -8   3   10.40    0.80
   0  -8   3   10.50    0.70
   0  -8   3    8.50    0.70
   0  -8   3    8.50    0.70
  -1   8  -3   72.39    2.20
   1  -8   3   66.59    2.00
   1  -8   3   70.59    2.10
   1  -8   3   71.19    1.90
   1  -8   3   70.49    2.00
  -2   8  -3   17.40    1.00
   2  -8   3   18.40    0.90
   2  -8   3   18.00    1.00
   2  -8   3   18.70    0.80
   2  -8   3   17.60    1.00
  -3   8  -3    3.30    0.50
  -3   8  -3    2.00    0.40
   3  -8   3    2.10    0.40
   3  -8   3    2.70    0.40
   3  -8   3    2.10    0.30
   3  -8   3    3.00    0.50
   3  -8   3    2.80    0.50
  -4   8  -3   91.19    2.60
  -4   8  -3   89.99    2.50
   4  -8   3   91.29    2.80
   4  -8   3   90.59    2.50
   4  -8   3   91.59    2.60
   4  -8   3   93.29    2.90
  -5   8  -3   44.80    1.70
  -5   8  -3   46.70    1.60
   5  -8   3   46.60    1.80
   5  -8   3   43.90    1.60
   5  -8   3   42.90    1.80
  -6   8  -3    6.00    0.70
  -6   8  -3    7.50    0.80
   6  -8   3    5.60    0.80
   6  -8   3    7.10    0.80
  -7   8  -3    1.00    0.40
  -7   8  -3    1.10    0.50
   7  -8   3    1.40    0.60
   5   7  -3    1.70    0.60
  -5  -7   3    1.60    0.60
   4   7  -3   38.40    1.60
  -4  -7   3   35.10    1.60
  -4  -7   3   37.20    1.80
  -4  -7   3   36.90    1.60
  -4  -7   3   38.30    1.70
   3   7  -3   10.00    1.00
  -3  -7   3    8.00    0.80
  -3  -7   3    7.20    0.80
  -3  -7   3    8.80    0.90
  -3  -7   3    8.20    0.80
   2   7  -3  295.27    6.70
  -2  -7   3  281.57    7.00
  -2  -7   3  288.77    6.70
  -2  -7   3  283.77    6.80
  -2  -7   3  286.07    6.50
  -2  -7   3  285.07    6.20
   1   7  -3   55.49    1.60
   1   7  -3   54.19    1.80
  -1  -7   3   55.39    1.90
  -1  -7   3   54.99    1.80
  -1  -7   3   55.69    1.70
  -1  -7   3   55.19    1.60
  -1  -7   3   55.69    1.80
  -1  -7   3   57.19    1.60
   0   7  -3    0.80    0.50
   0  -7   3    1.40    0.40
   0  -7   3    1.20    0.30
   0  -7   3    1.20    0.30
   0  -7   3    1.80    0.30
   0  -7   3    0.70    0.30
  -1   7  -3   11.60    0.70
   1  -7   3   13.10    0.70
   1  -7   3   11.50    0.70
   1  -7   3   12.50    0.70
   1  -7   3   12.90    0.60
  -2   7  -3  141.79    3.60
  -2   7  -3  143.49    3.40
   2  -7   3  142.09    3.50
   2  -7   3  145.39    3.50
   2  -7   3  143.29    3.70
   2  -7   3  144.09    3.80
  -3   7  -3    8.60    0.70
  -3   7  -3    7.40    0.60
   3  -7   3    8.90    0.60
   3  -7   3    9.70    0.70
   3  -7   3    8.00    0.40
   3  -7   3    8.70    0.60
   3  -7   3    7.40    0.40
  -4   7  -3    6.70    0.70
  -4   7  -3    7.70    0.70
   4  -7   3    6.40    0.70
   4  -7   3    6.80    0.60
   4  -7   3    6.60    0.50
   4  -7   3    6.50    0.70
  -5   7  -3    0.50    0.30
  -5   7  -3    0.50    0.40
   5  -7   3    0.60    0.30
   5  -7   3    1.00    0.50
   5  -7   3    0.70    0.40
  -6   7  -3    4.40    0.60
   6  -7   3    4.20    0.70
  -7   7  -3    0.40    0.40
   7  -7   3    1.10    0.50
   5   6  -3    3.50    0.70
  -5  -6   3    4.20    0.70
  -5  -6   3    1.80    0.60
   4   6  -3    9.10    0.90
  -4  -6   3    9.00    0.90
  -4  -6   3    7.10    0.80
  -4  -6   3    8.40    0.90
  -4  -6   3    8.00    0.80
   3   6  -3    9.20    0.90
  -3  -6   3   10.00    0.90
  -3  -6   3    9.60    0.80
  -3  -6   3    9.50    0.80
  -3  -6   3    9.20    0.90
   2   6  -3    3.20    0.60
  -2  -6   3    2.40    0.40
  -2  -6   3    1.70    0.30
  -2  -6   3    3.00    0.40
  -2  -6   3    2.50    0.40
  -2  -6   3    1.60    0.40
   1   6  -3   13.40    0.90
  -1  -6   3   12.80    0.70
  -1  -6   3   14.50    0.80
  -1  -6   3   13.30    0.60
  -1  -6   3   12.70    0.80
  -1  -6   3   14.20    0.60
  -1  -6   3   14.00    0.80
   0   6  -3  101.89    2.70
   0  -6   3  103.09    2.80
   0  -6   3  103.19    2.40
   0  -6   3  105.89    2.70
   0  -6   3  106.79    2.70
   0  -6   3  106.99    2.40
   1  -6   3    9.00    0.50
   1  -6   3    9.60    0.50
   1  -6   3    9.80    0.60
   1  -6   3    8.60    0.60
   1  -6   3    8.80    0.60
  -2   6  -3   58.49    1.70
  -2   6  -3   60.29    1.60
   2  -6   3   57.59    1.60
   2  -6   3   56.59    1.80
   2  -6   3   58.49    1.80
   2  -6   3   58.99    1.60
  -3   6  -3    8.60    0.60
  -3   6  -3    8.60    0.40
  -3   6  -3    8.80    0.60
   3  -6   3    9.10    0.60
   3  -6   3    8.70    0.30
   3  -6   3    9.60    0.60
   3  -6   3    9.20    0.50
   3  -6   3    8.60    0.30
   3  -6   3    8.10    0.70
  -4   6  -3  508.65   11.20
  -4   6  -3  518.95   11.30
  -4   6  -3  505.75   10.80
   4  -6   3  517.45   10.90
   4  -6   3  527.45   11.90
   4  -6   3  514.85   11.80
   4  -6   3  516.75   11.20
  -5   6  -3    0.90    0.30
  -5   6  -3    1.10    0.30
  -5   6  -3    1.10    0.30
   5  -6   3    1.10    0.30
   5  -6   3    1.00    0.40
   5  -6   3    1.00    0.40
  -6   6  -3    0.90    0.40
   6  -6   3    0.60    0.40
  -7   6  -3    0.10    0.40
   7  -6   3    0.90    0.50
   6   5  -3   12.00    1.10
   5   5  -3    1.30    0.50
  -5  -5   3    0.00    0.50
  -5  -5   3    1.70    0.60
  -5  -5   3    1.30    0.60
  -5  -5   3    0.20    0.50
   4   5  -3    1.70    0.50
  -4  -5   3    0.50    0.50
  -4  -5   3    0.00    0.50
  -4  -5   3    0.80    0.50
  -4  -5   3    0.50    0.50
   3   5  -3   47.90    1.60
  -3  -5   3   46.90    1.60
  -3  -5   3   45.50    1.70
  -3  -5   3   45.70    1.70
  -3  -5   3   48.30    1.60
   2   5  -3   41.80    1.10
   2   5  -3   44.10    1.50
  -2  -5   3   44.10    1.30
  -2  -5   3   42.80    1.40
  -2  -5   3   44.30    1.50
  -2  -5   3   40.80    1.40
  -2  -5   3   43.80    1.50
   1   5  -3   57.69    1.70
  -1  -5   3   57.29    1.80
  -1  -5   3   57.99    1.70
  -1  -5   3   59.19    1.60
  -1  -5   3   59.89    1.70
  -1  -5   3   58.29    1.50
   0   5  -3  141.79    3.50
   0  -5   3  145.59    3.50
   0  -5   3  145.69    3.20
   0  -5   3  145.99    3.40
   0  -5   3  148.59    3.20
   0  -5   3  148.89    3.50
  -1   5  -3  907.41   19.00
  -1   5  -3  910.61   18.00
   1  -5   3  917.11   19.70
   1  -5   3  812.12   19.70
   1  -5   3  930.41   18.40
   1  -5   3  895.31   17.40
   1  -5   3  928.91   20.00
  -2   5  -3    8.20    0.50
  -2   5  -3    8.60    0.50
  -2   5  -3    8.60    0.40
   2  -5   3    6.60    0.50
   2  -5   3    8.40    0.50
   2  -5   3    8.40    0.40
   2  -5   3    8.90    0.50
   2  -5   3    8.60    0.40
  -3   5  -3    0.70    0.30
  -3   5  -3    0.50    0.20
  -3   5  -3    0.60    0.20
   3  -5   3    0.40    0.30
   3  -5   3    0.90    0.20
   3  -5   3    0.70    0.20
  -4   5  -3  120.19    3.00
  -4   5  -3  122.69    3.00
  -4   5  -3  123.89    3.00
  -4   5  -3  115.59    3.00
   4  -5   3  122.39    3.00
   4  -5   3  123.89    3.30
   4  -5   3  121.79    3.30
   4  -5   3  125.69    3.00
  -5   5  -3    0.30    0.30
  -5   5  -3    0.40    0.30
  -5   5  -3    0.30    0.30
  -5   5  -3    0.00    0.30
   5  -5   3    0.00    0.30
   5  -5   3    0.20    0.20
   5  -5   3    0.00    0.30
  -6   5  -3   40.10    1.60
  -6   5  -3   40.00    1.60
   6  -5   3   41.90    1.70
  -7   5  -3    8.80    0.90
   6   4  -3    7.90    0.90
  -6  -4   3    7.10    1.00
  -6  -4   3    4.10    0.80
   5   4  -3    2.50    0.50
  -5  -4   3    1.50    0.60
  -5  -4   3    3.50    0.70
  -5  -4   3    1.90    0.60
  -5  -4   3    2.20    0.60
   4   4  -3    1.40    0.40
  -4  -4   3    0.40    0.50
  -4  -4   3    0.00    0.40
  -4  -4   3    1.60    0.50
  -4  -4   3    0.40    0.50
   2   4  -3 1048.40   23.00
   2   4  -3 1100.49   19.80
   2   4  -3 1096.09   23.60
  -2  -4   3 1106.09   23.30
  -2  -4   3 1104.89   24.30
  -2  -4   3 1106.59   22.30
  -2  -4   3 1079.89   23.60
  -2  -4   3 1083.69   21.20
   1   4  -3  170.58    4.00
  -1  -4   3  166.88    4.00
  -1  -4   3  172.68    3.60
  -1  -4   3  174.68    4.20
  -1  -4   3  166.98    3.80
  -1  -4   3  167.68    3.90
   0   4  -3    9.30    0.60
   0  -4   3    9.40    0.50
   0  -4   3   10.00    0.50
   0  -4   3    9.30    0.50
   0  -4   3    9.40    0.50
  -1   4  -3   21.80    0.70
  -1   4  -3   21.10    0.80
   1  -4   3   20.70    0.80
   1  -4   3   21.40    0.80
   1  -4   3   22.50    0.70
   1  -4   3   22.60    0.70
  -2   4  -3  159.38    3.50
  -2   4  -3  158.28    3.50
  -2   4  -3  155.28    3.60
  -2   4  -3  160.18    3.50
   2  -4   3  157.58    3.20
   2  -4   3  160.08    3.50
   2  -4   3  160.38    3.80
   2  -4   3  164.08    3.20
   2  -4   3  136.89    3.80
  -3   4  -3    0.00    0.20
  -3   4  -3    0.00    0.20
  -3   4  -3    0.30    0.20
  -3   4  -3    0.10    0.10
  -3   4  -3    0.00    0.10
   3  -4   3    0.20    0.10
   3  -4   3    0.10    0.10
   3  -4   3    0.00    0.20
   3  -4   3    0.00    0.20
  -4   4  -3    0.20    0.20
  -4   4  -3    0.60    0.20
  -4   4  -3    0.60    0.20
  -4   4  -3    0.10    0.30
   4  -4   3    0.30    0.30
   4  -4   3    0.40    0.20
   4  -4   3    0.80    0.20
  -5   4  -3   33.00    1.20
  -5   4  -3   31.90    1.30
  -5   4  -3   33.80    1.30
  -5   4  -3   34.50    1.20
   5  -4   3   33.60    1.30
   5  -4   3   33.90    1.40
  -6   4  -3   50.19    1.80
  -6   4  -3   48.30    1.80
   6  -4   3   52.79    1.90
  -7   4  -3    0.00    0.30
  -7   4  -3    0.50    0.50
   6   3  -3    1.70    0.50
  -6  -3   3    0.90    0.60
  -6  -3   3    0.00    0.50
  -6  -3   3    1.30    0.40
   5   3  -3    0.00    0.30
  -5  -3   3    0.00    0.40
  -5  -3   3    0.00    0.40
  -5  -3   3    0.00    0.30
  -5  -3   3    0.20    0.40
  -5  -3   3    0.20    0.50
   4   3  -3   26.20    1.10
  -4  -3   3   26.70    1.30
  -4  -3   3   28.00    1.30
  -4  -3   3   28.00    1.20
  -4  -3   3   26.00    0.80
   3   3  -3   69.79    2.00
  -3  -3   3   68.79    2.10
  -3  -3   3   70.59    2.00
  -3  -3   3   69.99    1.80
   2   3  -3  260.97    5.80
  -2  -3   3  260.17    6.10
  -2  -3   3  263.47    5.90
  -2  -3   3  253.57    5.60
  -2  -3   3  247.18    5.60
  -2  -3   3  266.07    5.30
   1   3  -3  292.67    6.60
  -1  -3   3  302.37    6.60
  -1  -3   3  307.47    6.90
  -1  -3   3  302.97    6.10
   0   3  -3 1089.89   23.10
   0   3  -3 1060.89   22.10
   0   3  -3 1057.59   22.60
   0  -3   3 1055.79   24.00
   0  -3   3 1093.19   21.40
   0  -3   3 1084.69   23.40
  -1   3  -3  552.34   11.30
  -1   3  -3  553.44   11.70
  -1   3  -3  546.05   12.40
  -1   3  -3  566.74   11.90
   1  -3   3  566.14   11.30
   1  -3   3  550.64   10.80
   1  -3   3  571.54   12.30
   1  -3   3  542.55   12.20
   1  -3   3  548.75   11.90
   1  -3   3  558.34   12.10
  -2   3  -3  593.34   12.10
  -2   3  -3  609.84   12.80
  -2   3  -3  593.94   12.20
  -2   3  -3  595.94   12.90
  -2   3  -3  589.44   12.60
   2  -3   3  596.54   11.80
   2  -3   3  603.14   13.20
   2  -3   3  610.64   11.50
   2  -3   3  605.14   12.20
   2  -3   3  578.44   13.20
   2  -3   3  600.74   13.00
  -3   3  -3   35.20    1.00
  -3   3  -3   34.00    1.00
  -3   3  -3   34.50    1.00
  -3   3  -3   36.50    1.10
  -3   3  -3   35.20    1.00
  -3   3  -3   35.40    1.00
  -3   3  -3   37.00    1.20
   3  -3   3   35.10    1.20
  -4   3  -3   13.40    0.60
  -4   3  -3   14.40    0.60
  -4   3  -3   14.20    0.70
   4  -3   3   13.30    0.60
   4  -3   3   13.20    0.80
   4  -3   3   14.70    0.70
  -5   3  -3    0.50    0.40
  -5   3  -3    0.70    0.30
   5  -3   3    0.00    0.30
  -6   3  -3    0.60    0.40
   6  -3   3    0.70    0.40
  -7   3  -3    6.80    0.90
   6   2  -3    4.20    0.70
  -6  -2   3    3.10    0.70
  -6  -2   3    2.70    0.60
  -6  -2   3    4.10    0.80
  -6  -2   3    2.50    0.70
   5   2  -3    3.20    0.50
  -5  -2   3    2.70    0.60
  -5  -2   3    2.60    0.50
  -5  -2   3    3.10    0.30
  -5  -2   3    2.80    0.50
   4   2  -3    1.50    0.40
  -4  -2   3    1.50    0.30
  -4  -2   3    0.90    0.40
  -4  -2   3    1.60    0.50
  -4  -2   3    1.10    0.40
   3   2  -3   50.49    1.50
  -3  -2   3   49.20    1.30
  -3  -2   3   49.20    1.60
  -3  -2   3   50.49    1.10
  -3  -2   3   48.40    1.50
   2   2  -3  117.89    2.90
  -2  -2   3  122.89    2.90
  -2  -2   3  128.39    2.70
  -2  -2   3  123.59    2.80
  -2  -2   3  125.19    3.10
  -2  -2   3  122.29    3.00
   1   2  -3  212.08    4.70
   1   2  -3  215.58    3.90
   1   2  -3  207.58    4.50
   1   2  -3  206.38    4.70
  -1  -2   3  208.18    4.70
  -1  -2   3  213.88    4.70
   0   2  -3 1060.39   23.00
   0   2  -3 1008.40   23.70
   0   2  -3 1033.80   21.80
   0   2  -3 1099.49   22.80
   0   2  -3 1066.79   21.60
   0  -2   3 1059.29   24.20
   0  -2   3 1072.09   23.00
   0  -2   3 1057.89   23.50
   0  -2   3 1087.09   22.40
  -1   2  -3   12.90    0.40
  -1   2  -3   12.80    0.50
  -1   2  -3   13.30    0.50
  -1   2  -3   13.10    0.50
   1  -2   3   12.60    0.40
   1  -2   3   12.50    0.40
   1  -2   3   12.90    0.50
   1  -2   3   13.70    0.40
  -2   2  -3   72.59    1.60
  -2   2  -3   70.59    1.80
  -2   2  -3   71.19    1.60
  -2   2  -3   72.19    1.60
  -2   2  -3   68.39    1.70
  -2   2  -3   70.09    1.60
  -2   2  -3   72.49    1.80
   2  -2   3   73.49    1.60
   2  -2   3   71.49    1.90
   2  -2   3   71.49    1.50
   2  -2   3   72.19    1.80
  -3   2  -3  632.54   14.00
  -3   2  -3  632.34   13.70
  -3   2  -3  630.74   13.90
  -3   2  -3  627.04   13.50
  -3   2  -3  631.74   13.50
  -3   2  -3  638.94   12.90
   3  -2   3  646.84   13.10
   3  -2   3  627.54   14.00
   3  -2   3  637.04   14.00
  -4   2  -3   10.60    0.60
  -4   2  -3   10.10    0.70
   4  -2   3   10.30    0.70
   4  -2   3   13.00    0.50
  -5   2  -3    6.30    0.60
  -5   2  -3    7.00    0.70
   5  -2   3    5.70    0.60
  -6   2  -3   15.90    1.10
  -7   2  -3    4.40    0.80
   7   1  -3    5.60    0.80
   6   1  -3    8.80    0.90
  -6  -1   3    7.90    0.80
  -6  -1   3    7.30    0.90
  -6  -1   3    7.20    0.80
   5   1  -3    4.10    0.50
  -5  -1   3    5.00    0.70
  -5  -1   3    4.30    0.60
  -5  -1   3    4.30    0.60
   4   1  -3   10.10    0.70
  -4  -1   3    9.90    0.70
  -4  -1   3    9.40    0.80
   3   1  -3  218.88    5.00
  -3  -1   3  223.68    4.90
  -3  -1   3  214.08    4.80
  -3  -1   3  217.78    5.20
  -3  -1   3  218.88    4.00
   2   1  -3  153.58    3.60
  -2  -1   3  162.78    3.80
  -2  -1   3  156.78    3.50
  -2  -1   3  154.98    3.70
  -2  -1   3  161.98    3.60
   1   1  -3  356.26    7.90
   1   1  -3  367.16    8.20
   1   1  -3  368.26    6.80
  -1  -1   3  369.86    7.90
  -1  -1   3  368.36    8.10
  -1  -1   3  369.06    7.90
   0   1  -3  236.28    5.20
   0   1  -3  236.18    4.80
   0   1  -3  226.18    5.30
   0   1  -3  225.98    5.00
   0   1  -3  234.58    4.80
   0  -1   3  238.58    5.00
   0  -1   3  234.88    5.20
   0  -1   3  231.58    5.40
   0  -1   3  237.78    4.80
   0  -1   3  239.08    5.30
  -1   1  -3 2113.69   46.50
  -1   1  -3 2076.69   42.70
  -1   1  -3 2173.78   45.60
  -1   1  -3 2080.69   41.40
  -1   1  -3 2059.79   44.00
   1  -1   3 2083.29   41.20
   1  -1   3 2143.59   42.70
   1  -1   3 2146.09   46.50
  -2   1  -3 1037.80   20.60
  -2   1  -3 1051.19   22.90
  -2   1  -3 1069.39   22.30
  -2   1  -3 1082.99   22.40
  -2   1  -3 1054.39   22.30
  -2   1  -3 1049.00   21.10
  -2   1  -3 1016.20   24.20
   2  -1   3 1038.10   21.20
   2  -1   3 1068.29   23.10
   2  -1   3  885.91   23.00
   2  -1   3 1049.00   22.30
   2  -1   3 1044.20   20.30
  -3   1  -3  136.89    3.40
  -3   1  -3  136.69    3.20
  -3   1  -3  140.39    3.20
  -3   1  -3  140.69    2.90
  -3   1  -3  139.29    2.90
   3  -1   3  140.69    3.40
   3  -1   3  135.19    3.00
  -4   1  -3    3.90    0.40
  -4   1  -3    3.80    0.30
  -4   1  -3    3.70    0.30
  -4   1  -3    3.30    0.50
   4  -1   3    3.70    0.40
  -5   1  -3  132.49    3.40
  -5   1  -3  130.39    3.60
   5  -1   3  130.89    3.40
  -6   1  -3   42.40    1.80
  -7   1  -3    1.30    0.60
   7   0  -3    1.90    0.60
   6   0  -3   53.39    1.90
  -6   0   3   52.39    2.00
  -6   0   3   53.89    2.00
  -6   0   3   51.49    1.90
   5   0  -3   38.60    1.50
  -5   0   3   38.60    1.50
  -5   0   3   38.30    1.50
  -5   0   3   40.20    1.60
   4   0  -3  195.08    4.60
  -4   0   3  192.78    4.50
  -4   0   3  199.48    4.90
  -4   0   3  189.88    4.40
  -4   0   3  197.58    4.80
   3   0  -3   17.50    0.80
  -3   0   3   17.60    0.80
  -3   0   3   19.50    0.70
  -3   0   3   18.70    0.90
   2   0  -3   15.90    0.70
   2   0  -3   19.30    0.70
  -2   0   3   17.00    0.70
  -2   0   3   18.90    0.70
  -2   0   3   17.90    0.70
   1   0  -3 1056.49   23.00
   1   0  -3 1041.50   18.90
   1   0  -3 1032.00   23.90
   1   0  -3 1030.20   22.70
   1   0  -3  983.90   23.50
  -1   0   3 1062.79   23.00
  -1   0   3 1054.59   24.00
  -1   0   3 1054.89   22.80
  -1   0   3 1057.99   23.90
  -1   0   3 1064.19   23.60
   0   0  -3 1411.96   25.90
   0   0  -3 1420.86   30.40
   0   0  -3 1397.16   31.60
   0   0  -3 1405.56   30.10
   0   0  -3 1441.56   28.70
   0   0  -3 1419.96   28.20
   0   0   3 1411.26   31.30
   0   0   3 1425.96   33.70
   0   0   3 1423.16   31.90
   0   0   3 1443.66   28.20
   0   0   3 1410.46   30.40
  -1   0  -3    0.00    0.10
  -1   0  -3    0.00    0.10
  -1   0  -3    0.00    0.20
   1   0   3    0.00    0.10
   1   0   3    0.00    0.10
   1   0   3    0.00    0.10
   1   0   3    0.00    0.20
  -2   0  -3  317.57    6.90
  -2   0  -3  315.07    6.70
  -2   0  -3  308.67    6.20
   2   0   3  311.87    6.20
   2   0   3  308.37    6.80
   2   0   3  305.67    6.70
  -3   0  -3  193.38    4.40
  -3   0  -3  190.48    4.60
  -3   0  -3  187.68    4.00
  -3   0  -3  192.58    4.20
  -3   0  -3  188.18    4.00
  -3   0  -3  190.48    4.20
  -3   0  -3  189.98    4.00
   3   0   3  196.78    3.90
   3   0   3  187.48    4.10
   3   0   3  193.38    4.50
  -4   0  -3   77.89    2.30
  -4   0  -3   76.49    2.10
   4   0   3   76.19    2.10
   4   0   3   73.39    1.60
  -5   0  -3   75.29    2.20
  -5   0  -3   74.79    2.40
  -6   0  -3   34.10    1.60
   7  -1  -3   24.60    1.40
  -7   1   3   25.20    1.40
   6  -1  -3   33.00    1.50
  -6   1   3   33.70    1.50
  -6   1   3   32.70    1.50
  -6   1   3   33.30    1.50
   5  -1  -3    0.00    0.30
  -5   1   3    0.30    0.40
  -5   1   3    0.10    0.40
  -5   1   3    0.70    0.40
   4  -1  -3  124.29    3.10
  -4   1   3  124.69    3.20
  -4   1   3  123.39    3.00
  -4   1   3  108.99    3.10
  -4   1   3  122.49    3.30
   3  -1  -3  162.88    3.80
  -3   1   3  162.48    4.00
  -3   1   3  165.08    4.00
  -3   1   3  161.08    3.80
   2  -1  -3    6.80    0.40
   2  -1  -3    5.60    0.40
  -2   1   3    4.60    0.40
  -2   1   3    5.90    0.50
   1  -1  -3 9490.55  218.68
   1  -1  -3 9658.73  218.98
  -1   1   3 9208.68  225.58
  -1   1   3 9691.83  212.58
  -1   1   3 9699.93  229.28
  -1   1   3 9999.00  221.98
  -1   1   3 9734.73  193.08
   0  -1  -3  246.38    5.00
   0  -1  -3  250.77    4.60
   0  -1  -3  256.77    5.20
   0  -1  -3  255.87    5.50
   0  -1  -3  246.38    5.30
   0   1   3  247.08    5.20
   0   1   3  259.37    5.00
   0   1   3  250.37    5.60
   0   1   3  250.97    5.50
  -1  -1  -3  502.15    9.20
  -1  -1  -3  487.45   10.20
  -1  -1  -3  515.85   10.80
  -1  -1  -3  518.35   10.60
  -1  -1  -3  510.95    9.70
   1   1   3  496.85   10.60
   1   1   3  449.36   10.90
   1   1   3  501.35    9.70
   1   1   3  499.55   10.10
  -2  -1  -3    4.10    0.20
  -2  -1  -3    4.60    0.40
  -2  -1  -3    3.60    0.30
  -2  -1  -3    4.40    0.50
   2   1   3    3.90    0.30
  -3  -1  -3   30.90    0.80
  -3  -1  -3   30.80    1.00
  -3  -1  -3   31.50    0.70
  -3  -1  -3   31.10    0.80
  -3  -1  -3   31.30    1.20
  -3  -1  -3   32.50    1.10
   3   1   3   31.70    0.80
   3   1   3   30.90    0.90
   3   1   3   31.90    1.10
  -4  -1  -3  314.57    5.60
  -4  -1  -3  307.47    7.00
  -4  -1  -3  313.27    7.20
   4   1   3  288.17    6.10
   4   1   3  309.77    7.10
  -5  -1  -3    2.10    0.60
  -5  -1  -3    1.40    0.50
  -6  -1  -3    6.20    0.90
   7  -2  -3    0.30    0.50
  -7   2   3    1.80    0.60
  -7   2   3    0.50    0.40
   6  -2  -3    0.00    0.40
  -6   2   3    0.70    0.40
  -6   2   3    0.30    0.40
  -6   2   3    0.00    0.50
   5  -2  -3    1.20    0.40
  -5   2   3    1.70    0.40
  -5   2   3    0.80    0.40
  -5   2   3    1.10    0.40
  -5   2   3    1.20    0.40
   4  -2  -3   30.30    1.20
   4  -2  -3   29.00    1.10
  -4   2   3   28.30    1.20
  -4   2   3   28.80    1.10
  -4   2   3   28.40    1.10
  -4   2   3   28.40    1.20
   3  -2  -3  202.88    4.80
   3  -2  -3  209.68    4.80
  -3   2   3  205.78    5.00
  -3   2   3  208.98    4.80
  -3   2   3  200.48    4.80
   2  -2  -3  290.37    6.20
   2  -2  -3  285.77    6.40
   2  -2  -3  284.57    6.40
  -2   2   3  294.37    6.50
   1  -2  -3  635.64   13.40
   1  -2  -3  653.83   12.30
   1  -2  -3  654.53   13.60
   1  -2  -3  650.23   12.90
  -1   2   3  631.54   14.50
  -1   2   3  578.84   12.90
   0  -2  -3  859.11   18.90
   0  -2  -3  874.61   18.50
   0  -2  -3  887.71   19.20
   0  -2  -3  896.11   20.00
   0  -2  -3  894.51   17.30
   0  -2  -3  863.71   16.30
   0   2   3  865.11   18.40
   0   2   3  883.21   19.10
   0   2   3  905.01   17.00
   0   2   3  871.51   19.70
  -1  -2  -3  658.03   12.10
  -1  -2  -3  665.83   13.90
  -1  -2  -3  662.23   12.70
  -1  -2  -3  645.04   13.40
  -1  -2  -3  649.14   14.10
  -1  -2  -3  637.34   14.40
   1   2   3  651.03   14.30
   1   2   3  664.83   13.20
   1   2   3  648.64   13.80
   1   2   3  627.94   12.70
  -2  -2  -3  314.57    6.50
  -2  -2  -3  323.07    7.10
  -2  -2  -3  320.67    5.90
  -2  -2  -3  322.37    6.50
  -2  -2  -3  322.37    7.20
   2   2   3  318.07    6.70
   2   2   3  320.17    6.50
   2   2   3  320.17    7.20
   2   2   3  318.07    6.50
  -3  -2  -3   15.90    0.50
  -3  -2  -3   16.30    0.80
  -3  -2  -3   16.60    0.60
   3   2   3   15.60    0.70
   3   2   3   16.40    0.70
  -4  -2  -3  115.59    3.30
  -4  -2  -3  112.59    3.00
  -4  -2  -3  114.09    2.30
  -5  -2  -3    0.00    0.50
  -5  -2  -3    0.60    0.30
  -5  -2  -3    0.00    0.40
  -6  -2  -3    1.40    0.40
  -6  -2  -3    2.40    0.70
   7  -3  -3    3.70    0.70
  -7   3   3    4.70    0.70
  -7   3   3    3.60    0.70
  -7   3   3    3.50    0.80
   6  -3  -3   16.50    1.10
  -6   3   3   18.60    1.10
  -6   3   3   17.90    1.10
  -6   3   3   16.60    1.10
   5  -3  -3   68.89    2.20
   5  -3  -3   72.29    2.20
  -5   3   3   72.59    2.30
  -5   3   3   68.09    2.20
  -5   3   3   67.19    2.00
  -5   3   3   70.19    2.30
   4  -3  -3    0.90    0.30
   4  -3  -3    0.80    0.30
  -4   3   3    0.80    0.30
  -4   3   3    0.30    0.30
  -4   3   3    1.50    0.40
   3  -3  -3  623.44   13.80
   3  -3  -3  649.54   13.30
   3  -3  -3  640.84   13.90
  -3   3   3  654.43   14.20
  -3   3   3  641.14   12.90
   2  -3  -3  104.79    2.60
   2  -3  -3  107.99    2.70
   2  -3  -3  104.29    2.60
   2  -3  -3  108.49    2.50
  -2   3   3  103.89    2.70
   1  -3  -3   32.80    0.90
   1  -3  -3   32.20    1.00
   1  -3  -3   32.70    1.00
   1  -3  -3   33.10    1.00
   1  -3  -3   32.80    1.00
   0  -3  -3   20.50    0.60
   0  -3  -3   21.00    0.70
   0  -3  -3   20.00    0.70
   0  -3  -3   21.00    0.70
   0  -3  -3   20.80    0.80
   0  -3  -3   20.70    0.70
   0   3   3   20.40    0.70
   0   3   3   20.70    0.70
   0   3   3   21.20    0.90
  -1  -3  -3 1693.33   32.80
  -1  -3  -3 1680.73   43.30
  -1  -3  -3 1697.33   35.90
  -1  -3  -3 1613.14   35.60
  -1  -3  -3 1623.54   30.70
  -1  -3  -3 1676.03   36.90
   1   3   3 1666.03   34.30
   1   3   3 1646.34   32.30
   1   3   3 1674.83   37.70
   1   3   3 1690.53   36.80
   1   3   3 1657.43   35.30
  -2  -3  -3    3.10    0.40
  -2  -3  -3    3.30    0.40
  -2  -3  -3    3.00    0.30
  -2  -3  -3    3.10    0.20
  -2  -3  -3    3.40    0.30
   2   3   3    3.10    0.30
   2   3   3    3.70    0.30
   2   3   3    3.40    0.40
   2   3   3    3.40    0.30
   2   3   3    4.10    0.40
  -3  -3  -3    0.30    0.30
  -3  -3  -3    0.30    0.30
  -3  -3  -3    0.10    0.10
   3   3   3    0.00    0.20
  -4  -3  -3    8.70    0.80
  -4  -3  -3    9.10    0.90
  -4  -3  -3    8.80    0.60
  -5  -3  -3    0.40    0.30
  -5  -3  -3    0.30    0.50
  -5  -3  -3    1.10    0.60
  -6  -3  -3   10.80    0.80
   7  -4  -3    9.70    1.00
  -7   4   3   10.30    1.10
  -7   4   3   11.10    1.00
   6  -4  -3    9.30    0.90
   6  -4  -3    9.30    0.90
  -6   4   3   12.30    1.00
  -6   4   3   10.80    1.00
  -6   4   3   11.30    1.00
  -6   4   3   11.80    0.90
   5  -4  -3  124.79    3.50
   5  -4  -3  128.99    3.40
  -5   4   3  128.29    3.50
  -5   4   3  125.29    3.40
  -5   4   3  128.69    3.60
   4  -4  -3   31.10    1.20
   4  -4  -3   31.70    1.30
   4  -4  -3   33.50    1.30
  -4   4   3   30.80    1.30
  -4   4   3   32.00    0.90
  -4   4   3   31.80    1.20
   3  -4  -3  276.57    6.30
   3  -4  -3  274.97    6.40
  -3   4   3  281.17    6.40
  -3   4   3  274.07    5.60
   2  -4  -3  311.77    6.90
   2  -4  -3  320.37    7.50
   2  -4  -3  335.07    6.50
   2  -4  -3  321.17    7.20
  -2   4   3  334.67    7.40
   1  -4  -3   39.10    1.20
   1  -4  -3   39.40    1.20
   1  -4  -3   39.60    1.20
   1  -4  -3   38.20    1.10
   1  -4  -3   40.00    1.20
  -1   4   3   40.30    1.30
   0  -4  -3  239.78    5.40
   0  -4  -3  234.28    5.10
   0  -4  -3  240.78    4.90
   0  -4  -3  239.28    5.50
   0  -4  -3  239.08    5.50
   0  -4  -3  236.98    4.50
   0   4   3  234.88    5.60
   0   4   3  237.68    5.30
  -1  -4  -3   64.09    1.80
  -1  -4  -3   63.59    1.60
  -1  -4  -3   62.99    1.90
  -1  -4  -3   64.19    1.50
  -1  -4  -3   66.49    1.70
  -1  -4  -3   64.79    1.70
   1   4   3   63.19    1.70
   1   4   3   65.49    1.90
   1   4   3   63.99    1.60
   1   4   3   62.69    1.60
  -2  -4  -3    4.70    0.60
  -2  -4  -3    4.00    0.30
  -2  -4  -3    3.80    0.50
  -2  -4  -3    5.70    0.50
  -2  -4  -3    4.20    0.30
  -2  -4  -3    4.10    0.40
   2   4   3    3.80    0.40
   2   4   3    4.30    0.40
   2   4   3    3.50    0.30
  -3  -4  -3   51.09    1.40
  -3  -4  -3   53.59    1.80
  -3  -4  -3   50.39    1.80
   3   4   3   51.39    1.60
  -4  -4  -3   99.09    2.90
  -4  -4  -3  100.89    3.10
  -4  -4  -3  101.69    2.30
  -5  -4  -3   14.90    0.90
  -5  -4  -3   14.20    1.20
  -5  -4  -3   13.80    1.10
   7  -5  -3    0.40    0.50
  -7   5   3    0.90    0.50
  -7   5   3    0.50    0.50
   6  -5  -3    6.80    0.80
   6  -5  -3    6.00    0.70
  -6   5   3    7.90    0.80
  -6   5   3    5.80    0.70
  -6   5   3    6.10    0.70
   5  -5  -3   37.80    1.50
   5  -5  -3   38.80    1.60
   5  -5  -3   39.10    1.50
  -5   5   3   38.30    1.50
  -5   5   3   35.40    1.50
  -5   5   3   37.50    1.50
   4  -5  -3   29.70    1.20
   4  -5  -3   31.90    1.40
   4  -5  -3   33.80    1.30
   4  -5  -3   32.20    1.30
  -4   5   3   31.10    0.90
  -4   5   3   32.50    1.30
   3  -5  -3   47.90    1.50
   3  -5  -3   43.50    1.50
  -3   5   3   46.80    1.60
   2  -5  -3  274.17    6.30
   2  -5  -3  281.57    6.60
   2  -5  -3  287.47    5.70
   2  -5  -3  279.97    6.10
   1  -5  -3  157.98    3.70
   1  -5  -3  161.98    4.00
   1  -5  -3  163.18    3.50
   1  -5  -3  166.08    3.90
  -1   5   3  157.58    4.00
   0  -5  -3  130.59    3.30
   0  -5  -3  129.79    3.30
   0  -5  -3  132.39    3.00
   0  -5  -3  128.69    3.30
   0  -5  -3  131.99    3.00
   0   5   3  135.19    3.40
   0   5   3  130.39    3.10
  -1  -5  -3    2.50    0.50
  -1  -5  -3    2.00    0.30
  -1  -5  -3    2.10    0.30
  -1  -5  -3    2.20    0.30
  -1  -5  -3    1.50    0.40
  -1  -5  -3    1.90    0.30
   1   5   3    2.30    0.40
   1   5   3    1.70    0.30
  -2  -5  -3   27.30    1.10
  -2  -5  -3   25.50    0.90
  -2  -5  -3   25.50    0.90
  -2  -5  -3   25.40    1.20
  -2  -5  -3   26.70    1.00
  -2  -5  -3   24.80    0.90
   2   5   3   24.70    1.00
   2   5   3   25.50    1.10
  -3  -5  -3    5.20    0.70
  -3  -5  -3    4.70    0.50
  -3  -5  -3    4.70    0.70
  -4  -5  -3    4.50    0.80
  -4  -5  -3    3.70    0.50
  -4  -5  -3    2.90    0.60
  -5  -5  -3    6.60    0.70
  -5  -5  -3    8.20    1.10
  -5  -5  -3    4.80    0.80
   7  -6  -3    0.10    0.50
  -7   6   3    0.30    0.50
   6  -6  -3    2.00    0.50
   6  -6  -3    2.10    0.50
  -6   6   3    2.00    0.50
  -6   6   3    1.80    0.60
  -6   6   3    1.70    0.50
   5  -6  -3   20.20    1.10
   5  -6  -3   20.10    1.10
   5  -6  -3   19.80    1.10
  -5   6   3   19.30    1.10
  -5   6   3   20.60    1.10
   4  -6  -3    4.80    0.60
   4  -6  -3    6.00    0.60
   4  -6  -3    7.30    0.70
   4  -6  -3    6.10    0.60
  -4   6   3    5.60    0.60
   3  -6  -3   41.60    1.50
   3  -6  -3   42.00    1.10
   3  -6  -3   41.20    1.50
  -3   6   3   41.30    1.50
   2  -6  -3  548.65   11.00
   2  -6  -3  559.54   12.70
   2  -6  -3  568.34   11.80
   1  -6  -3   25.80    1.00
   1  -6  -3   23.40    0.90
   1  -6  -3   26.60    1.00
  -1   6   3   26.20    1.10
  -1   6   3   25.10    1.00
   0  -6  -3   58.09    1.60
   0  -6  -3   56.69    1.70
   0  -6  -3   59.59    1.60
   0  -6  -3   59.19    1.80
   0  -6  -3   58.69    1.80
   0   6   3   60.79    1.90
   0   6   3   59.19    1.70
  -1  -6  -3    0.00    0.30
  -1  -6  -3    0.00    0.30
  -1  -6  -3    0.30    0.20
  -1  -6  -3    0.00    0.20
  -1  -6  -3    0.00    0.20
   1   6   3    0.00    0.30
   1   6   3    0.00    0.40
  -2  -6  -3   54.29    1.50
  -2  -6  -3   49.90    1.80
  -2  -6  -3   53.79    1.80
  -2  -6  -3   54.69    1.50
   2   6   3   53.49    1.60
   2   6   3   55.69    1.80
  -3  -6  -3   30.90    1.50
  -3  -6  -3   31.60    1.10
  -3  -6  -3   30.40    1.40
  -4  -6  -3    6.30    0.90
  -4  -6  -3    3.90    0.70
  -4  -6  -3    4.90    0.60
  -5  -6  -3    0.00    0.50
   7  -7  -3    6.20    0.90
  -7   7   3    6.60    0.80
   6  -7  -3    7.10    0.90
   6  -7  -3    7.00    0.80
   6  -7  -3    5.90    0.80
  -6   7   3    6.30    0.80
  -6   7   3    6.50    0.80
  -6   7   3    6.50    0.80
   5  -7  -3    0.30    0.40
   5  -7  -3    0.00    0.30
   5  -7  -3    0.00    0.40
   5  -7  -3    0.20    0.40
  -5   7   3    0.30    0.40
   4  -7  -3    7.90    0.70
   4  -7  -3    6.40    0.70
   4  -7  -3    6.40    0.70
   4  -7  -3    7.80    0.80
  -4   7   3    6.80    0.80
   3  -7  -3   93.39    2.10
   3  -7  -3   92.79    2.80
   3  -7  -3   92.69    2.70
   3  -7  -3   91.89    2.50
   3  -7  -3   93.29    2.60
  -3   7   3   85.69    2.70
   2  -7  -3    0.00    0.20
   2  -7  -3    0.00    0.30
   2  -7  -3    0.20    0.20
  -2   7   3    0.10    0.40
   1  -7  -3  309.97    6.80
   1  -7  -3  304.37    6.40
   1  -7  -3  307.87    7.30
  -1   7   3  308.47    7.00
  -1   7   3  310.07    7.30
   0  -7  -3  107.59    2.70
   0  -7  -3  107.29    2.90
   0  -7  -3  105.49    2.70
   0  -7  -3  108.49    2.90
   0  -7  -3  108.09    3.00
   0   7   3  113.69    2.90
   0   7   3  104.49    3.00
  -1  -7  -3   51.69    1.70
  -1  -7  -3   52.79    1.80
  -1  -7  -3   52.49    1.60
  -1  -7  -3   53.19    1.60
  -1  -7  -3   53.99    1.80
   1   7   3   51.69    1.70
   1   7   3   49.90    1.80
  -2  -7  -3    9.70    0.90
  -2  -7  -3    8.30    0.80
   2   7   3    7.50    0.80
  -3  -7  -3    1.10    0.50
  -3  -7  -3    1.90    0.60
  -3  -7  -3    1.80    0.60
  -4  -7  -3    8.30    1.10
  -4  -7  -3    6.70    0.70
   7  -8  -3    5.30    0.90
  -7   8   3    6.60    0.80
   6  -8  -3   61.39    2.30
   6  -8  -3   62.09    2.30
  -6   8   3   60.99    2.30
  -6   8   3   61.29    2.40
   5  -8  -3    0.00    0.40
   5  -8  -3    0.60    0.50
   5  -8  -3    0.50    0.40
   5  -8  -3    0.00    0.40
  -5   8   3    0.70    0.50
   4  -8  -3  120.49    3.50
   4  -8  -3  114.29    3.20
   4  -8  -3  114.49    3.30
  -4   8   3  115.49    3.40
   3  -8  -3   10.20    0.80
   3  -8  -3   10.90    0.80
   3  -8  -3   11.80    0.80
   3  -8  -3   10.80    0.60
  -3   8   3    9.50    0.90
   2  -8  -3   38.90    1.50
   2  -8  -3   38.90    1.60
   2  -8  -3   41.90    1.50
   2  -8  -3   39.60    1.30
  -2   8   3   38.30    1.60
  -2   8   3   39.70    1.50
   1  -8  -3   93.89    2.60
   1  -8  -3   93.19    2.40
   1  -8  -3   95.29    2.70
   1  -8  -3   95.29    2.80
  -1   8   3   91.49    2.60
  -1   8   3   96.69    2.80
   0  -8  -3   62.89    2.10
   0  -8  -3   62.09    1.90
   0  -8  -3   65.29    2.00
   0  -8  -3   62.39    2.00
   0  -8  -3   64.69    1.90
   0   8   3   63.29    2.00
   0   8   3   63.89    2.10
  -1  -8  -3    0.40    0.40
  -1  -8  -3    0.30    0.40
  -1  -8  -3    0.40    0.30
  -1  -8  -3    0.10    0.30
  -1  -8  -3    0.20    0.40
   1   8   3    0.50    0.40
   1   8   3    0.80    0.50
  -2  -8  -3    1.90    0.60
  -2  -8  -3    0.70    0.50
  -3  -8  -3    0.50    0.60
  -3  -8  -3    0.10    0.50
  -6   9   3   37.10    1.80
   5  -9  -3   12.30    1.10
   5  -9  -3   13.40    1.10
   5  -9  -3   12.70    1.00
  -5   9   3   13.40    1.20
   4  -9  -3   39.30    1.60
   4  -9  -3   37.50    1.60
   4  -9  -3   36.10    1.70
  -4   9   3   36.20    1.70
   3  -9  -3   13.00    0.70
   3  -9  -3   13.60    1.00
   3  -9  -3   14.50    1.00
   3  -9  -3   13.40    0.90
  -3   9   3   12.30    0.90
  -3   9   3   15.60    1.10
   2  -9  -3    0.20    0.30
   2  -9  -3    0.30    0.30
   2  -9  -3    0.00    0.30
   2  -9  -3    0.00    0.30
  -2   9   3    0.00    0.40
  -2   9   3    0.00    0.50
   1  -9  -3  308.07    6.50
   1  -9  -3  295.47    7.30
   1  -9  -3  295.97    6.80
   1  -9  -3  290.57    7.20
  -1   9   3  300.77    7.30
  -1   9   3  303.27    7.00
   0  -9  -3   19.30    1.00
   0  -9  -3   19.70    1.20
   0  -9  -3   19.20    1.10
   0  -9  -3   18.60    1.00
   0   9   3   18.80    1.10
   0   9   3   20.90    1.20
  -1  -9  -3    2.50    0.60
  -1  -9  -3    3.00    0.50
  -1  -9  -3    3.70    0.70
   1   9   3    3.30    0.70
   1   9   3    3.70    0.70
  -2  -9  -3   33.40    1.60
  -2  -9  -3   33.20    1.60
  -3  -9  -3    5.60    0.90
  -6  10   3    3.30    0.70
   5 -10  -3    0.90    0.50
  -5  10   3    1.90    0.60
   4 -10  -3   26.80    1.50
   4 -10  -3   24.20    0.80
   4 -10  -3   23.90    1.30
   4 -10  -3   24.60    1.40
  -4  10   3   26.20    1.40
  -4  10   3   24.30    1.40
   3 -10  -3   21.80    0.90
   3 -10  -3   22.00    1.30
   3 -10  -3   23.40    1.20
   3 -10  -3   23.00    1.30
  -3  10   3   22.90    1.30
  -3  10   3   22.40    1.30
   2 -10  -3    3.30    0.60
   2 -10  -3    3.20    0.50
   2 -10  -3    3.00    0.50
   2 -10  -3    3.20    0.60
  -2  10   3    3.80    0.70
  -2  10   3    3.80    0.70
   1 -10  -3   10.90    0.90
   1 -10  -3    9.70    0.80
   1 -10  -3   10.70    0.90
   1 -10  -3   10.30    0.90
  -1  10   3   10.00    1.00
  -1  10   3   11.70    1.10
   0 -10  -3    0.00    0.40
   0 -10  -3    0.00    0.40
   0 -10  -3    0.30    0.40
   0 -10  -3    0.00    0.30
   0  10   3    0.00    0.50
   0  10   3    0.00    0.50
  -1 -10  -3    2.60    0.60
  -1 -10  -3    1.70    0.60
   1  10   3    1.80    0.60
  -2 -10  -3    0.00    0.60
  -5  11   3    0.00    0.50
  -5  11   3    0.50    0.50
   4 -11  -3    6.30    0.50
  -4  11   3    7.40    0.90
  -4  11   3    6.30    0.90
   3 -11  -3    3.10    0.60
   3 -11  -3    4.00    0.50
   3 -11  -3    2.60    0.60
  -3  11   3    3.60    0.80
  -3  11   3    4.50    0.80
   2 -11  -3   26.50    1.40
   2 -11  -3   26.00    1.40
   2 -11  -3   25.00    1.50
   2 -11  -3   26.80    1.20
  -2  11   3   28.10    1.50
  -2  11   3   25.50    1.50
   1 -11  -3   18.20    1.20
   1 -11  -3   18.80    1.20
   1 -11  -3   19.80    1.30
   1 -11  -3   18.30    1.10
  -1  11   3   18.10    1.30
  -1  11   3   19.90    1.40
   0 -11  -3   10.30    0.90
   0 -11  -3   12.40    1.00
   0  11   3   10.80    1.10
   0  11   3   13.80    1.20
  -1 -11  -3    2.50    0.70
  -5  12   3   15.90    1.40
  -5  12   3   15.20    1.40
  -4  12   3    0.10    0.60
  -4  12   3    0.40    0.50
   3 -12  -3    0.20    0.30
  -3  12   3    0.10    0.60
  -3  12   3    0.10    0.60
   2 -12  -3   36.10    1.90
   2 -12  -3   37.90    1.50
  -2  12   3   37.30    1.90
  -2  12   3   35.60    1.90
   1 -12  -3   13.10    1.10
   1 -12  -3   12.50    1.00
  -1  12   3   12.90    1.30
  -1  12   3   14.30    1.30
   0 -12  -3    0.60    0.40
   0  12   3    1.00    0.70
  -3  13   3   18.30    1.50
  -3  13   3   17.70    1.50
  -2  13   3    1.90    0.80
  -2  13   3    2.40    0.80
   0  13  -4    0.30    0.80
   0 -13   4    0.20    0.40
  -1  13  -4   14.10    1.00
  -1  13  -4   10.90    1.30
   1 -13   4    8.80    0.80
   1 -13   4    9.50    1.00
   1 -13   4   10.20    1.00
  -2  13  -4    8.70    1.10
  -2  13  -4   11.40    1.00
   2 -13   4    8.00    0.90
   2 -13   4    9.10    0.90
   2 -13   4    8.60    0.80
  -3  13  -4   12.30    1.30
  -3  13  -4   13.20    1.10
   3 -13   4   12.10    1.20
  -4  13  -4   19.40    1.40
  -4  13  -4   16.80    1.50
   4 -13   4   18.20    1.40
   2  12  -4    6.40    1.10
   1  12  -4    0.50    0.80
   0  12  -4    0.00    0.60
   0 -12   4    0.40    0.40
   0 -12   4    0.00    0.40
  -1  12  -4    2.30    0.80
  -1  12  -4    2.60    0.50
   1 -12   4    1.80    0.50
   1 -12   4    2.90    0.60
   1 -12   4    1.70    0.60
   1 -12   4    3.00    0.60
  -2  12  -4    3.50    0.60
  -2  12  -4    1.40    0.70
   2 -12   4    2.20    0.60
   2 -12   4    2.90    0.40
   2 -12   4    1.70    0.60
   2 -12   4    3.40    0.60
  -3  12  -4    1.50    0.70
  -3  12  -4    1.90    0.60
   3 -12   4    2.50    0.40
   3 -12   4    1.70    0.60
  -4  12  -4   39.60    1.80
  -4  12  -4   36.80    1.90
   4 -12   4   38.10    1.90
   4 -12   4   36.80    1.00
  -5  12  -4   13.20    1.20
  -5  12  -4   11.30    1.20
   5 -12   4   13.70    1.30
   2  11  -4   29.90    1.80
   1  11  -4    5.80    0.90
  -1 -11   4    4.80    0.70
  -1 -11   4    4.80    0.70
  -1 -11   4    4.90    0.80
   0  11  -4   33.90    1.70
   0 -11   4   33.00    1.60
   0 -11   4   32.20    1.50
   0 -11   4   34.50    1.50
   0 -11   4   34.20    1.40
   0 -11   4   33.90    1.50
  -1  11  -4   40.80    1.60
  -1  11  -4   39.10    1.80
   1 -11   4   38.60    1.80
   1 -11   4   37.60    1.40
   1 -11   4   37.90    1.60
   1 -11   4   35.50    1.50
   1 -11   4   40.00    1.60
  -2  11  -4    7.60    0.90
  -2  11  -4    8.20    0.80
   2 -11   4    7.20    0.80
   2 -11   4    7.20    0.70
   2 -11   4    7.00    0.80
   2 -11   4    7.10    0.60
   2 -11   4    6.20    0.70
  -3  11  -4    0.00    0.30
  -3  11  -4    0.30    0.50
   3 -11   4    0.20    0.40
   3 -11   4    0.70    0.50
   3 -11   4    0.10    0.20
   3 -11   4    0.10    0.30
  -4  11  -4    1.40    0.50
  -4  11  -4    1.60    0.70
   4 -11   4    2.00    0.20
   4 -11   4    1.80    0.50
   4 -11   4    2.50    0.60
   4 -11   4    2.90    0.60
  -5  11  -4   11.40    1.10
  -5  11  -4   11.00    1.00
  -5  11  -4   11.70    1.10
   5 -11   4   11.20    1.10
   3  10  -4    2.80    0.80
  -3 -10   4    1.60    0.60
   2  10  -4   22.00    1.50
  -2 -10   4   18.10    1.20
  -2 -10   4   18.40    1.20
  -2 -10   4   20.20    1.30
   1  10  -4   40.40    1.80
  -1 -10   4   39.30    1.70
  -1 -10   4   39.00    1.50
  -1 -10   4   40.30    1.70
  -1 -10   4   36.70    1.60
   0  10  -4    0.20    0.30
   0  10  -4    0.10    0.60
   0 -10   4    0.00    0.30
   0 -10   4    0.00    0.30
   0 -10   4    0.00    0.30
   0 -10   4    0.00    0.30
   0 -10   4    0.00    0.30
  -1  10  -4    7.10    0.70
  -1  10  -4    8.40    0.90
   1 -10   4    8.30    0.70
   1 -10   4    8.30    0.70
   1 -10   4    7.60    0.80
   1 -10   4    6.80    0.70
   1 -10   4    7.40    0.70
  -2  10  -4   32.30    1.50
   2 -10   4   30.40    1.20
   2 -10   4   29.50    1.30
   2 -10   4   29.70    1.50
   2 -10   4   30.10    1.40
   2 -10   4   32.00    1.20
  -3  10  -4   82.99    2.60
   3 -10   4   83.19    2.10
   3 -10   4   85.09    2.40
   3 -10   4   83.59    2.70
   3 -10   4   83.29    2.50
   3 -10   4   84.99    2.80
  -4  10  -4   17.40    1.10
  -4  10  -4   17.60    1.20
   4 -10   4   16.10    1.10
   4 -10   4   16.50    1.20
   4 -10   4   18.30    1.10
  -5  10  -4    1.60    0.50
  -5  10  -4    0.80    0.50
   5 -10   4    1.20    0.40
   5 -10   4    1.70    0.60
   5 -10   4    2.00    0.60
  -6  10  -4    1.90    0.50
   6 -10   4    1.60    0.60
   6 -10   4    0.60    0.50
   4   9  -4    0.30    0.60
  -4  -9   4    1.30    0.60
   3   9  -4    1.40    0.70
  -3  -9   4    0.00    0.50
  -3  -9   4    0.00    0.40
  -3  -9   4    0.00    0.60
   2   9  -4   15.40    1.30
  -2  -9   4   16.00    1.10
  -2  -9   4   15.80    1.10
  -2  -9   4   15.10    1.10
   1   9  -4   42.20    1.80
  -1  -9   4   43.30    1.70
  -1  -9   4   42.40    1.80
  -1  -9   4   41.60    1.70
  -1  -9   4   43.50    1.60
   0   9  -4   22.90    1.30
   0   9  -4   22.70    1.00
   0  -9   4   23.30    1.00
   0  -9   4   22.90    1.10
   0  -9   4   21.80    1.00
   0  -9   4   21.30    1.10
   0  -9   4   21.60    1.10
  -1   9  -4   50.69    1.80
   1  -9   4   49.10    1.70
   1  -9   4   49.90    1.60
   1  -9   4   48.20    1.50
   1  -9   4   48.70    1.80
   1  -9   4   46.50    1.70
  -2   9  -4   13.80    1.00
   2  -9   4   13.70    0.90
   2  -9   4   12.70    0.80
   2  -9   4   13.80    0.80
   2  -9   4   12.90    0.70
   2  -9   4   13.40    0.90
  -3   9  -4  109.69    2.90
  -3   9  -4  112.59    3.10
   3  -9   4  112.39    3.00
   3  -9   4  109.69    3.30
   3  -9   4  105.59    2.50
   3  -9   4  111.59    2.90
   3  -9   4  111.49    3.30
  -4   9  -4    2.50    0.50
  -4   9  -4    1.10    0.50
   4  -9   4    1.70    0.40
   4  -9   4    1.70    0.50
   4  -9   4    2.40    0.60
  -5   9  -4    3.00    0.60
  -5   9  -4    3.90    0.60
   5  -9   4    3.60    0.50
   5  -9   4    3.60    0.70
   5  -9   4    4.40    0.60
  -6   9  -4    0.60    0.40
   6  -9   4    0.00    0.40
   4   8  -4   10.70    1.10
  -4  -8   4    8.20    1.00
  -4  -8   4   11.00    1.00
   3   8  -4   17.90    1.30
  -3  -8   4   17.50    1.20
  -3  -8   4   16.80    1.00
  -3  -8   4   15.60    1.10
  -3  -8   4   16.30    1.20
   2   8  -4   86.09    2.70
  -2  -8   4   88.19    2.50
  -2  -8   4   89.79    2.60
  -2  -8   4   85.19    2.80
  -2  -8   4   88.09    2.70
   1   8  -4  255.57    6.10
   1   8  -4  251.17    5.90
  -1  -8   4  249.68    5.80
  -1  -8   4  250.67    6.30
  -1  -8   4  262.67    5.60
  -1  -8   4  242.28    5.90
  -1  -8   4  253.47    6.10
  -1  -8   4  253.07    5.90
   0   8  -4  163.08    4.10
   0  -8   4  163.78    4.30
   0  -8   4  157.18    3.90
   0  -8   4  163.88    4.10
   0  -8   4  161.48    4.00
   0  -8   4  163.78    3.80
  -1   8  -4    2.70    0.50
   1  -8   4    2.90    0.40
   1  -8   4    3.10    0.40
   1  -8   4    2.70    0.40
   1  -8   4    3.00    0.50
   1  -8   4    2.20    0.40
  -2   8  -4   67.79    2.10
   2  -8   4   67.29    2.00
   2  -8   4   65.49    2.20
   2  -8   4   64.29    2.10
   2  -8   4   63.19    1.70
   2  -8   4   66.29    1.90
  -3   8  -4  106.19    2.90
  -3   8  -4  102.99    2.80
   3  -8   4  106.89    3.10
   3  -8   4  107.29    2.70
   3  -8   4  107.59    3.10
   3  -8   4  105.59    2.80
   3  -8   4  103.39    2.30
  -4   8  -4   56.29    1.80
  -4   8  -4   56.39    1.90
   4  -8   4   55.79    1.80
   4  -8   4   55.49    2.00
   4  -8   4   57.19    2.10
  -5   8  -4    7.20    0.70
  -5   8  -4    5.90    0.70
   5  -8   4    6.20    0.60
   5  -8   4    5.40    0.70
   5  -8   4    6.70    0.70
  -6   8  -4    3.80    0.60
   6  -8   4    2.80    0.70
   5   7  -4    1.80    0.70
  -5  -7   4    1.00    0.60
   4   7  -4    1.50    0.60
  -4  -7   4    0.50    0.60
  -4  -7   4    0.90    0.50
  -4  -7   4    0.00    0.50
  -4  -7   4    0.00    0.50
   3   7  -4   65.69    2.20
  -3  -7   4   67.19    2.10
  -3  -7   4   66.79    2.30
  -3  -7   4   64.09    2.30
  -3  -7   4   65.79    2.20
   2   7  -4   52.49    1.90
  -2  -7   4   49.90    1.60
  -2  -7   4   47.70    1.80
  -2  -7   4   50.39    1.60
  -2  -7   4   51.59    1.90
  -2  -7   4   50.09    1.80
   1   7  -4    0.40    0.50
  -1  -7   4    0.40    0.40
  -1  -7   4    0.00    0.40
  -1  -7   4    0.30    0.20
  -1  -7   4    0.10    0.20
  -1  -7   4    0.30    0.30
   0   7  -4    1.70    0.50
   0  -7   4    2.00    0.40
   0  -7   4    1.20    0.30
   0  -7   4    1.40    0.30
   0  -7   4    1.70    0.20
   0  -7   4    1.30    0.30
  -1   7  -4    8.60    0.70
   1  -7   4    9.10    0.70
   1  -7   4    9.60    0.60
   1  -7   4    8.60    0.50
   1  -7   4    8.70    0.50
   1  -7   4    8.80    0.60
  -2   7  -4   46.00    1.50
  -2   7  -4   47.20    1.50
   2  -7   4   48.60    1.50
   2  -7   4   47.50    1.40
   2  -7   4   47.00    1.60
   2  -7   4   46.50    1.60
  -3   7  -4 1497.15   31.20
  -3   7  -4 1489.45   30.00
   3  -7   4 1482.25   31.80
   3  -7   4 1504.35   32.80
   3  -7   4 1536.85   28.70
   3  -7   4 1392.16   32.30
   3  -7   4 1469.35   30.20
  -4   7  -4    3.90    0.50
  -4   7  -4    3.40    0.50
   4  -7   4    4.90    0.60
   4  -7   4    4.90    0.70
   4  -7   4    4.90    0.50
  -5   7  -4   19.00    1.00
  -5   7  -4   18.60    1.00
   5  -7   4   19.00    1.10
   5  -7   4   19.60    1.00
   5  -7   4   18.40    1.20
  -6   7  -4    3.90    0.60
   6  -7   4    3.10    0.70
  -7   7  -4    1.10    0.50
   7  -7   4    0.00    0.50
   5   6  -4    8.30    0.90
  -5  -6   4    7.80    0.90
  -5  -6   4    7.20    0.90
  -5  -6   4    5.70    0.90
   4   6  -4   16.60    1.20
  -4  -6   4   15.60    1.10
  -4  -6   4   16.60    1.20
  -4  -6   4   17.00    1.20
  -4  -6   4   17.80    1.10
   3   6  -4   47.80    1.80
  -3  -6   4   47.80    1.80
  -3  -6   4   48.00    1.70
  -3  -6   4   44.40    1.70
  -3  -6   4   47.20    1.70
   2   6  -4    0.60    0.50
  -2  -6   4    0.60    0.30
  -2  -6   4    0.80    0.30
  -2  -6   4    0.20    0.40
  -2  -6   4    0.60    0.40
  -2  -6   4    0.10    0.40
   1   6  -4   70.79    2.10
  -1  -6   4   70.79    1.90
  -1  -6   4   68.99    2.10
  -1  -6   4   71.49    2.00
  -1  -6   4   67.99    1.80
  -1  -6   4   65.89    1.80
   0   6  -4   57.49    1.80
   0  -6   4   55.89    1.40
   0  -6   4   55.59    1.60
   0  -6   4   59.49    1.70
   0  -6   4   55.79    1.70
   0  -6   4   58.39    1.70
  -1   6  -4   40.60    1.40
   1  -6   4   43.50    1.30
   1  -6   4   41.80    1.40
   1  -6   4   39.90    1.20
   1  -6   4   42.60    1.40
   1  -6   4   42.10    1.20
  -2   6  -4   46.80    1.40
  -2   6  -4   47.00    1.50
   2  -6   4   45.30    1.60
   2  -6   4   47.10    1.40
   2  -6   4   46.00    1.50
  -3   6  -4   13.90    0.70
  -3   6  -4   14.60    0.50
  -3   6  -4   13.60    0.80
   3  -6   4   12.40    0.90
   3  -6   4   14.40    0.50
   3  -6   4   13.30    0.70
   3  -6   4   13.90    0.50
   3  -6   4   14.00    0.80
  -4   6  -4  363.16    8.00
  -4   6  -4  358.96    8.20
   4  -6   4  373.86    8.70
   4  -6   4  373.26    8.00
   4  -6   4  374.66    8.80
  -5   6  -4   47.80    1.70
  -5   6  -4   50.79    1.70
   5  -6   4   50.69    1.90
   5  -6   4   49.60    1.80
  -6   6  -4    1.20    0.40
   6  -6   4    1.00    0.40
  -7   6  -4    4.40    0.70
   7  -6   4    3.70    0.70
   6   5  -4    1.00    0.50
   5   5  -4    0.80    0.50
  -5  -5   4    1.10    0.50
  -5  -5   4    0.00    0.50
  -5  -5   4    0.70    0.50
  -5  -5   4    0.00    0.50
   4   5  -4   17.00    1.10
  -4  -5   4   17.90    1.10
  -4  -5   4   15.10    1.10
  -4  -5   4   15.70    1.10
  -4  -5   4   16.10    1.10
   3   5  -4  294.57    6.70
  -3  -5   4  277.87    6.80
  -3  -5   4  297.77    7.10
  -3  -5   4  290.87    6.80
  -3  -5   4  288.77    6.50
   2   5  -4    0.50    0.20
   2   5  -4    1.20    0.50
  -2  -5   4    0.70    0.40
  -2  -5   4    0.30    0.30
  -2  -5   4    0.70    0.30
  -2  -5   4    0.70    0.20
  -2  -5   4    0.10    0.30
   1   5  -4  133.49    3.40
  -1  -5   4  138.19    3.30
  -1  -5   4  136.69    3.50
  -1  -5   4  139.19    3.10
  -1  -5   4  134.89    3.20
   0   5  -4    6.10    0.60
   0  -5   4    6.60    0.60
   0  -5   4    6.20    0.50
   0  -5   4    6.50    0.50
   0  -5   4    6.20    0.30
   0  -5   4    6.10    0.40
   0  -5   4    5.20    0.40
  -1   5  -4  250.97    5.80
  -1   5  -4  253.27    5.70
   1  -5   4  262.37    6.10
   1  -5   4  259.27    6.00
   1  -5   4  259.47    5.30
   1  -5   4  258.87    5.70
   1  -5   4  263.67    5.60
  -2   5  -4   82.59    2.00
  -2   5  -4   82.89    2.10
  -2   5  -4   85.39    2.20
   2  -5   4   81.89    2.10
   2  -5   4   84.49    2.30
   2  -5   4   82.09    1.90
   2  -5   4   85.19    2.00
  -3   5  -4   25.50    0.90
  -3   5  -4   28.00    1.10
  -3   5  -4   27.50    0.80
  -3   5  -4   25.90    0.80
   3  -5   4   27.20    0.90
   3  -5   4   26.50    1.00
   3  -5   4   27.50    1.10
   3  -5   4   27.00    0.70
   3  -5   4   28.40    0.70
   3  -5   4   27.00    0.80
  -4   5  -4   13.00    0.80
  -4   5  -4   15.20    0.70
  -4   5  -4   15.40    0.60
  -4   5  -4   16.30    0.70
   4  -5   4   15.40    1.00
   4  -5   4   16.60    0.70
   4  -5   4   16.10    0.80
  -5   5  -4   45.70    1.50
  -5   5  -4   44.80    1.60
   5  -5   4   45.10    1.70
  -6   5  -4    0.00    0.30
   6  -5   4    0.30    0.40
  -7   5  -4   16.50    1.20
   6   4  -4    6.70    0.80
  -6  -4   4    6.50    1.00
   5   4  -4    0.20    0.40
  -5  -4   4    0.10    0.50
  -5  -4   4    0.00    0.50
  -5  -4   4    0.20    0.50
  -5  -4   4    0.00    0.40
   4   4  -4    8.50    0.80
  -4  -4   4    8.00    0.80
  -4  -4   4    7.40    0.70
  -4  -4   4    9.20    0.90
   3   4  -4  137.29    3.50
  -3  -4   4  137.49    3.70
  -3  -4   4  135.99    3.40
  -3  -4   4  136.29    3.60
   2   4  -4  917.91   16.70
   2   4  -4  944.31   19.70
  -2  -4   4  915.41   19.10
  -2  -4   4  914.11   20.70
  -2  -4   4  911.01   20.20
  -2  -4   4  960.50   20.00
  -2  -4   4  939.81   18.20
   1   4  -4  735.53   16.30
  -1  -4   4  771.02   17.20
  -1  -4   4  800.92   15.10
  -1  -4   4  775.42   16.80
  -1  -4   4  774.82   16.50
  -1  -4   4  764.82   15.80
   0   4  -4   79.59    2.00
   0   4  -4   74.59    1.90
   0  -4   4   78.29    1.80
   0  -4   4   77.49    2.10
   0  -4   4   74.39    1.90
   0  -4   4   75.89    2.00
   0  -4   4   76.59    1.90
  -1   4  -4    0.20    0.10
  -1   4  -4    0.30    0.10
  -1   4  -4    0.60    0.30
   1  -4   4    0.40    0.10
   1  -4   4    0.30    0.20
   1  -4   4    0.50    0.20
   1  -4   4    0.00    0.20
   1  -4   4    0.20    0.20
  -2   4  -4  250.97    5.60
  -2   4  -4  255.97    5.50
  -2   4  -4  257.47    5.50
  -2   4  -4  254.37    5.50
   2  -4   4  258.77    5.10
   2  -4   4  254.67    5.10
   2  -4   4  259.67    6.00
   2  -4   4  252.27    5.50
  -3   4  -4    0.80    0.20
  -3   4  -4    1.00    0.20
  -3   4  -4    1.00    0.20
  -3   4  -4    1.20    0.20
   3  -4   4    0.70    0.10
   3  -4   4    0.80    0.20
   3  -4   4    1.00    0.10
   3  -4   4    0.70    0.20
   3  -4   4    0.70    0.20
   3  -4   4    0.90    0.20
  -4   4  -4   48.00    1.40
  -4   4  -4   48.80    1.40
  -4   4  -4   51.59    1.50
  -4   4  -4   48.40    1.60
  -4   4  -4   46.70    1.40
   4  -4   4   50.19    1.50
   4  -4   4   49.99    1.70
   4  -4   4   48.60    1.40
  -5   4  -4    4.00    0.50
  -5   4  -4    5.40    0.60
   5  -4   4    5.20    0.60
  -6   4  -4    1.30    0.50
  -6   4  -4    1.30    0.50
   6  -4   4    1.30    0.50
  -7   4  -4    1.00    0.50
   6   3  -4    0.40    0.50
  -6  -3   4    0.00    0.50
  -6  -3   4    0.00    0.50
  -6  -3   4    0.00    0.50
   5   3  -4    1.70    0.50
  -5  -3   4    1.50    0.50
  -5  -3   4    0.90    0.50
  -5  -3   4    1.80    0.60
   4   3  -4    4.40    0.60
  -4  -3   4    4.30    0.60
  -4  -3   4    3.80    0.60
  -4  -3   4    4.10    0.70
   3   3  -4   42.40    1.50
  -3  -3   4   42.20    1.30
  -3  -3   4   43.40    1.60
  -3  -3   4   42.00    1.50
  -3  -3   4   43.50    1.50
   2   3  -4  275.47    6.20
  -2  -3   4  271.57    6.10
  -2  -3   4  285.17    6.30
  -2  -3   4  275.87    5.70
  -2  -3   4  278.87    6.10
  -2  -3   4  281.37    6.60
   1   3  -4    2.80    0.40
  -1  -3   4    2.80    0.40
  -1  -3   4    1.70    0.30
   0   3  -4  191.98    4.30
   0   3  -4  191.38    4.20
   0   3  -4  192.18    4.10
   0  -3   4  193.28    4.20
   0  -3   4  195.28    4.60
   0  -3   4  188.58    4.40
  -1   3  -4 1862.01   38.90
  -1   3  -4 1892.01   39.00
  -1   3  -4 1861.21   40.10
  -1   3  -4 1891.51   39.90
   1  -3   4 1891.11   42.50
   1  -3   4 1912.61   40.00
   1  -3   4 1971.80   39.30
   1  -3   4 1867.91   37.50
   1  -3   4 1862.31   40.50
  -2   3  -4   20.90    0.70
  -2   3  -4   20.50    0.70
  -2   3  -4   19.80    0.50
  -2   3  -4   19.20    0.60
  -2   3  -4   19.90    0.50
   2  -3   4   22.30    0.60
   2  -3   4   20.80    0.60
   2  -3   4   16.10    0.70
   2  -3   4   20.20    0.80
  -3   3  -4  151.58    3.60
  -3   3  -4  147.89    3.50
  -3   3  -4  146.39    3.40
  -3   3  -4  148.99    3.40
  -3   3  -4  148.09    3.30
  -3   3  -4  148.49    3.30
   3  -3   4  154.68    3.00
   3  -3   4  153.88    3.30
   3  -3   4  154.48    3.80
   3  -3   4  151.68    3.00
  -4   3  -4  105.99    2.60
  -4   3  -4  106.99    2.80
  -4   3  -4  108.69    2.80
  -4   3  -4  106.99    2.60
   4  -3   4  108.09    3.00
  -5   3  -4    7.60    0.70
   5  -3   4    6.70    0.70
  -6   3  -4    1.30    0.50
   6  -3   4    0.60    0.40
  -7   3  -4    4.00    0.70
   7   2  -4    1.70    0.60
   6   2  -4    1.10    0.50
  -6  -2   4    0.90    0.50
  -6  -2   4    1.10    0.50
  -6  -2   4    0.50    0.60
   5   2  -4    8.10    0.80
  -5  -2   4    7.90    0.80
  -5  -2   4    8.30    0.80
  -5  -2   4   10.40    0.90
   4   2  -4   40.20    1.50
  -4  -2   4   41.10    1.50
  -4  -2   4   40.80    1.50
  -4  -2   4   38.20    1.60
   3   2  -4   35.50    1.20
  -3  -2   4   36.60    1.30
  -3  -2   4   32.70    0.90
  -3  -2   4   34.80    1.20
  -3  -2   4   34.00    1.10
  -3  -2   4   33.00    1.30
   2   2  -4  655.83   14.60
  -2  -2   4  690.93   15.20
  -2  -2   4  697.93   15.30
  -2  -2   4  694.63   14.70
   1   2  -4   14.90    0.40
  -1  -2   4   14.80    0.60
  -1  -2   4   13.80    0.60
  -1  -2   4   15.40    0.60
   0   2  -4  174.98    3.90
   0   2  -4  180.98    3.80
   0   2  -4  176.98    3.90
   0  -2   4  177.68    3.80
   0  -2   4  180.88    3.90
   0  -2   4  172.08    4.10
   0  -2   4  172.88    4.20
   0  -2   4  180.48    3.90
  -1   2  -4    2.80    0.30
  -1   2  -4    2.70    0.30
  -1   2  -4    2.00    0.20
  -1   2  -4    2.60    0.30
  -1   2  -4    1.90    0.20
   1  -2   4    1.80    0.20
   1  -2   4    2.00    0.20
   1  -2   4    2.00    0.20
  -2   2  -4 1084.19   22.90
  -2   2  -4 1063.29   21.60
  -2   2  -4 1071.99   24.40
  -2   2  -4 1066.19   21.20
  -2   2  -4 1088.59   22.10
  -2   2  -4 1091.79   22.80
  -2   2  -4 1081.59   23.60
  -2   2  -4 1064.59   23.60
  -2   2  -4 1089.29   23.80
   2  -2   4 1101.99   31.70
   2  -2   4 1099.59   22.20
   2  -2   4 1067.19   23.70
   2  -2   4 1095.49   21.50
  -3   2  -4   35.60    1.00
  -3   2  -4   37.00    1.00
  -3   2  -4   35.50    1.00
  -3   2  -4   37.30    1.00
  -3   2  -4   37.10    1.20
  -3   2  -4   36.70    0.90
  -3   2  -4   37.40    1.10
   3  -2   4   38.20    1.30
   3  -2   4   37.50    0.90
   3  -2   4   38.40    1.10
  -4   2  -4   68.69    1.80
  -4   2  -4   66.89    2.00
   4  -2   4   69.99    2.10
  -5   2  -4   57.29    2.00
   5  -2   4   60.69    2.00
  -6   2  -4    2.90    0.60
  -7   2  -4    6.00    0.90
   7   1  -4    0.00    0.50
   6   1  -4    1.90    0.50
  -6  -1   4    1.50    0.60
  -6  -1   4    2.20    0.60
  -6  -1   4    0.70    0.50
   5   1  -4  144.89    3.80
  -5  -1   4  140.49    2.80
  -5  -1   4  142.39    3.90
  -5  -1   4  144.29    3.70
  -5  -1   4  144.79    3.90
   4   1  -4   22.60    1.00
  -4  -1   4   22.10    1.10
  -4  -1   4   22.30    0.60
  -4  -1   4   23.10    1.20
  -3  -1   4  158.38    3.80
  -3  -1   4  154.08    3.60
  -3  -1   4  151.58    3.90
  -3  -1   4  151.58    3.50
   2   1  -4    1.80    0.30
  -2  -1   4    1.60    0.30
  -2  -1   4    1.40    0.30
  -2  -1   4    1.70    0.30
   1   1  -4   88.69    2.20
   1   1  -4   89.89    1.70
  -1  -1   4   90.69    2.10
  -1  -1   4   89.49    2.10
  -1  -1   4   85.49    2.20
  -1  -1   4   91.99    2.20
   0   1  -4  947.91   20.00
   0   1  -4  920.41   20.10
   0   1  -4  931.11   20.80
   0   1  -4  910.51   20.70
   0   1  -4  906.81   19.20
   0   1  -4  949.40   17.30
   0  -1   4  937.21   23.70
   0  -1   4  863.81   17.90
   0  -1   4  935.61   20.00
   0  -1   4  942.11   21.00
   0  -1   4  960.00   20.90
   0  -1   4  933.51   20.00
  -1   1  -4 1562.24   33.60
  -1   1  -4 1468.35   32.10
  -1   1  -4 1518.95   34.50
  -1   1  -4 1512.75   31.00
  -1   1  -4 1541.65   29.50
   1  -1   4 1540.05   34.00
   1  -1   4 1515.85   30.50
   1  -1   4 1549.14   31.10
  -2   1  -4   53.79    1.30
  -2   1  -4   54.29    1.30
  -2   1  -4   55.99    1.30
  -2   1  -4   53.69    1.50
  -2   1  -4   53.09    1.30
   2  -1   4   54.39    1.60
   2  -1   4   53.69    1.30
   2  -1   4   52.29    1.30
   2  -1   4   54.89    1.30
  -3   1  -4   16.00    0.40
  -3   1  -4   14.50    0.40
  -3   1  -4   15.40    0.80
  -3   1  -4   14.90    0.40
  -3   1  -4   15.80    0.60
  -3   1  -4   15.40    0.60
  -3   1  -4   14.70    0.50
  -3   1  -4   15.20    0.60
   3  -1   4   16.20    0.80
   3  -1   4   15.80    0.50
   3  -1   4   16.40    0.60
  -4   1  -4    3.20    0.50
  -4   1  -4    3.40    0.40
   4  -1   4    3.30    0.20
   4  -1   4    3.20    0.40
  -5   1  -4    7.00    0.80
   5  -1   4    6.80    0.70
  -6   1  -4    0.30    0.50
   7   0  -4    1.10    0.60
  -7   0   4    1.70    0.70
   6   0  -4   29.60    1.40
  -6   0   4   28.80    1.50
  -6   0   4   27.20    1.50
  -6   0   4   27.60    1.40
   5   0  -4    2.60    0.50
  -5   0   4    1.60    0.50
  -5   0   4    1.60    0.50
  -5   0   4    0.70    0.50
   4   0  -4   55.19    1.70
  -4   0   4   54.59    1.50
  -4   0   4   54.39    1.80
  -4   0   4   53.49    1.70
   3   0  -4  338.87    7.70
  -3   0   4  353.36    7.80
  -3   0   4  351.56    7.70
  -3   0   4  341.97    8.00
   2   0  -4  830.02   17.90
   2   0  -4  828.92   17.70
  -2   0   4  830.72   18.90
  -2   0   4  855.81   18.70
  -2   0   4  852.71   17.90
   1   0  -4  231.48    5.10
   1   0  -4  233.48    4.30
   1   0  -4  237.58    5.20
  -1   0   4  233.08    5.30
  -1   0   4  235.08    5.10
  -1   0   4  225.48    5.10
  -1   0   4  237.38    5.30
   0   0  -4 1384.16   27.90
   0   0  -4 1375.26   31.30
   0   0  -4 1396.06   30.00
   0   0  -4 1380.36   29.70
   0   0  -4 1402.76   25.70
   0   0  -4 1428.66   28.50
   0   0   4 1403.66   27.80
   0   0   4 1395.66   31.00
   0   0   4 1405.66   31.90
   0   0   4 1420.36   30.20
   0   0   4 1401.46   31.40
   0   0   4 1367.16   28.90
  -1   0  -4    4.40    0.40
  -1   0  -4    3.90    0.30
  -1   0  -4    3.90    0.20
  -1   0  -4    4.50    0.30
   1   0   4    4.10    0.30
   1   0   4    4.10    0.20
   1   0   4    4.00    0.10
   1   0   4    5.50    0.40
   1   0   4    3.70    0.10
   1   0   4    4.60    0.30
   1   0   4    4.20    0.30
  -2   0  -4  850.21   17.90
  -2   0  -4  842.62   16.10
  -2   0  -4  853.21   17.80
   2   0   4  812.52   17.80
   2   0   4  824.12   16.00
   2   0   4  817.02   18.20
   2   0   4  808.82   18.20
  -3   0  -4   39.80    1.20
  -3   0  -4   40.50    1.40
   3   0   4   40.00    1.10
   3   0   4   41.20    1.30
   3   0   4   38.60    1.10
  -4   0  -4    2.30    0.50
  -4   0  -4    1.40    0.40
   4   0   4    1.40    0.20
   4   0   4    1.30    0.30
  -5   0  -4   26.80    1.40
  -6   0  -4    4.50    0.80
   7  -1  -4    0.30    0.50
  -7   1   4    1.10    0.60
   6  -1  -4   22.60    1.30
  -6   1   4   22.70    1.20
  -6   1   4   21.60    1.30
  -6   1   4   23.80    1.30
   5  -1  -4   47.00    1.70
  -5   1   4   47.00    1.80
  -5   1   4   48.10    1.80
  -5   1   4   48.40    1.80
   4  -1  -4    4.40    0.60
  -4   1   4    3.80    0.50
  -4   1   4    4.60    0.50
   3  -1  -4   60.59    1.80
   3  -1  -4   61.99    1.80
  -3   1   4   63.89    1.70
  -3   1   4   62.79    1.80
  -3   1   4   62.29    1.90
  -3   1   4   53.59    1.80
   2  -1  -4  130.79    3.20
   2  -1  -4  134.19    3.20
  -2   1   4  135.19    3.30
  -2   1   4  136.09    3.30
  -2   1   4  134.89    3.30
   1  -1  -4  384.26    8.20
   1  -1  -4  372.46    6.90
   1  -1  -4  382.26    7.60
   1  -1  -4  376.66    8.10
  -1   1   4  369.96    7.90
  -1   1   4  380.56    8.50
  -1   1   4  384.56    8.50
   0  -1  -4  762.12   14.00
   0  -1  -4  779.22   14.70
   0  -1  -4  763.62   16.40
   0  -1  -4  753.82   16.40
   0   1   4  738.83   14.70
   0   1   4  748.43   17.00
   0   1   4  758.02   15.90
   0   1   4  766.92   16.20
   0   1   4  772.32   16.70
  -1  -1  -4    8.20    0.40
  -1  -1  -4    9.10    0.60
  -1  -1  -4    7.80    0.40
  -1  -1  -4    8.70    0.40
   1   1   4    9.20    0.30
   1   1   4    9.90    0.50
   1   1   4    8.70    0.30
   1   1   4    9.00    0.50
   1   1   4    8.10    0.40
   1   1   4    8.60    0.30
  -2  -1  -4  163.48    3.70
  -2  -1  -4  157.78    3.50
  -2  -1  -4  156.98    3.90
  -2  -1  -4  162.98    3.10
   2   1   4  167.68    3.50
   2   1   4  166.68    3.90
  -3  -1  -4  110.59    2.20
  -3  -1  -4  110.39    2.70
  -3  -1  -4  110.29    3.00
   3   1   4  109.69    2.90
   3   1   4  106.39    2.50
  -4  -1  -4   36.90    1.40
  -4  -1  -4   36.50    1.50
  -4  -1  -4   36.80    0.90
   4   1   4   37.40    1.30
  -5  -1  -4    0.00    0.20
  -5  -1  -4    0.20    0.50
  -6  -1  -4    4.20    0.80
   7  -2  -4    4.40    0.80
  -7   2   4    3.90    0.70
   6  -2  -4    0.30    0.40
  -6   2   4    0.20    0.40
  -6   2   4    0.10    0.40
  -6   2   4    0.60    0.40
   5  -2  -4   28.60    1.30
   5  -2  -4   29.20    1.30
  -5   2   4   29.50    1.30
  -5   2   4   29.50    1.40
  -5   2   4   28.80    1.40
  -5   2   4   28.90    1.20
   4  -2  -4  580.64   12.70
  -4   2   4  587.14   12.90
  -4   2   4  578.24   13.30
   3  -2  -4  182.28    5.10
   3  -2  -4  216.98    5.00
  -3   2   4  227.28    5.10
  -3   2   4  231.18    5.10
  -3   2   4  225.58    5.30
   2  -2  -4   34.60    1.10
   2  -2  -4   35.70    1.20
  -2   2   4   36.80    1.20
  -2   2   4   35.80    1.20
   1  -2  -4   85.89    2.00
   1  -2  -4   87.69    2.20
   1  -2  -4   84.09    1.80
   1  -2  -4   85.59    1.70
   1  -2  -4   87.89    2.00
   1  -2  -4   84.69    2.10
  -1   2   4   85.29    2.10
  -1   2   4   87.79    2.30
   0  -2  -4  257.17    4.70
   0  -2  -4  258.67    5.30
   0  -2  -4  256.67    5.60
   0  -2  -4  257.97    5.20
   0  -2  -4  253.27    5.50
   0   2   4  248.58    5.30
   0   2   4  258.77    5.90
   0   2   4  247.18    5.80
  -1  -2  -4   22.20    0.60
  -1  -2  -4   21.50    0.80
  -1  -2  -4   21.70    0.70
  -1  -2  -4   21.50    0.80
  -1  -2  -4   21.40    0.90
   1   2   4   21.70    0.60
   1   2   4   21.70    0.60
   1   2   4   22.20    0.60
   1   2   4   21.30    0.80
   1   2   4   21.90    0.90
  -2  -2  -4    3.60    0.40
  -2  -2  -4    4.00    0.30
  -2  -2  -4    3.80    0.40
  -2  -2  -4    4.30    0.50
   2   2   4    4.20    0.40
   2   2   4    4.20    0.40
  -3  -2  -4   31.50    1.30
  -3  -2  -4   31.00    1.10
  -3  -2  -4   29.10    0.90
   3   2   4   31.00    1.10
  -4  -2  -4   26.30    1.20
  -4  -2  -4   25.80    1.30
  -4  -2  -4   28.10    0.90
   4   2   4   27.40    1.10
  -5  -2  -4    2.20    0.70
  -5  -2  -4    2.00    0.40
  -6  -2  -4    5.50    0.60
   7  -3  -4    1.10    0.60
  -7   3   4    0.40    0.60
  -7   3   4    1.40    0.60
   6  -3  -4   14.70    1.10
  -6   3   4   14.20    1.10
  -6   3   4   16.80    1.10
  -6   3   4   15.20    1.10
   5  -3  -4   11.50    0.90
   5  -3  -4   12.10    0.90
  -5   3   4   11.20    0.90
  -5   3   4   12.00    0.80
  -5   3   4   11.60    0.90
  -5   3   4   11.00    0.90
   4  -3  -4   77.79    2.20
   4  -3  -4   63.79    2.20
  -4   3   4   77.29    2.10
   3  -3  -4   37.10    1.30
  -3   3   4   37.60    1.30
  -3   3   4   37.30    0.90
  -3   3   4   38.70    1.40
   2  -3  -4  201.18    4.60
   2  -3  -4  203.08    4.50
   2  -3  -4  204.98    4.70
  -2   3   4  202.38    4.80
   1  -3  -4   31.30    0.90
   1  -3  -4   30.80    1.00
   1  -3  -4   28.90    1.00
   1  -3  -4   30.10    1.00
   1  -3  -4   29.40    0.90
   0  -3  -4   42.50    1.50
   0  -3  -4   53.39    1.30
   0  -3  -4   51.19    1.40
   0  -3  -4   52.39    1.40
   0  -3  -4   51.49    1.20
   0  -3  -4   52.99    1.40
   0   3   4   53.09    1.60
   0   3   4   52.39    1.30
   0   3   4   50.29    1.40
  -1  -3  -4   78.79    1.80
  -1  -3  -4   76.99    1.70
  -1  -3  -4   74.69    2.00
  -1  -3  -4   79.19    1.90
  -1  -3  -4   76.69    1.90
   1   3   4   78.19    1.90
   1   3   4   75.19    1.90
   1   3   4   75.99    1.80
   1   3   4   79.69    2.20
   1   3   4   76.19    1.80
  -2  -3  -4   16.40    0.50
  -2  -3  -4   16.30    0.80
  -2  -3  -4   18.40    0.70
  -2  -3  -4   15.40    0.70
   2   3   4   15.80    0.60
   2   3   4   16.10    0.80
   2   3   4   16.10    0.50
  -3  -3  -4    1.90    0.40
  -3  -3  -4    0.90    0.50
  -3  -3  -4    1.30    0.40
   3   3   4    1.00    0.30
  -4  -3  -4  281.27    6.60
  -4  -3  -4  277.47    6.90
  -4  -3  -4  281.07    5.40
  -5  -3  -4    1.10    0.40
  -5  -3  -4    1.50    0.60
  -6  -3  -4    8.30    0.70
   7  -4  -4    0.60    0.50
  -7   4   4    0.30    0.60
  -7   4   4    1.10    0.50
   6  -4  -4    7.20    0.80
   6  -4  -4    6.70    0.80
  -6   4   4    6.80    0.80
  -6   4   4    5.80    0.70
  -6   4   4    6.80    0.80
  -6   4   4    7.00    0.80
   5  -4  -4    0.00    0.30
   5  -4  -4    0.00    0.30
  -5   4   4    0.30    0.40
  -5   4   4    0.80    0.40
  -5   4   4    0.00    0.30
   4  -4  -4    2.40    0.50
   4  -4  -4    2.90    0.50
   4  -4  -4    2.60    0.40
  -4   4   4    2.80    0.50
   3  -4  -4  151.48    3.70
  -3   4   4  150.38    3.80
   2  -4  -4  154.58    3.60
   2  -4  -4  150.18    3.70
   2  -4  -4  149.59    3.90
   2  -4  -4  152.18    3.70
   2  -4  -4  157.28    3.30
  -2   4   4  154.48    3.80
   1  -4  -4  134.39    2.90
   1  -4  -4  132.99    3.30
   1  -4  -4  131.79    3.00
   1  -4  -4  129.59    3.20
   1  -4  -4  131.99    3.10
  -1   4   4  128.99    3.40
   0  -4  -4  293.07    5.50
   0  -4  -4  292.07    6.70
   0  -4  -4  298.47    6.20
   0  -4  -4  301.67    6.10
   0  -4  -4  296.07    6.70
   0  -4  -4  289.47    6.60
   0   4   4  283.47    6.40
   0   4   4  294.67    6.80
  -1  -4  -4   16.40    0.70
  -1  -4  -4   17.30    0.70
  -1  -4  -4   15.80    0.60
  -1  -4  -4   17.00    0.80
  -1  -4  -4   17.60    0.60
  -1  -4  -4   15.60    0.80
   1   4   4   16.00    0.60
   1   4   4   15.80    0.60
   1   4   4   17.10    0.90
   1   4   4   16.00    0.60
  -2  -4  -4    6.70    0.60
  -2  -4  -4    8.20    0.60
  -2  -4  -4    7.60    0.40
  -2  -4  -4    7.20    0.60
   2   4   4    8.50    0.70
  -3  -4  -4   19.80    1.00
  -3  -4  -4   21.80    0.90
  -3  -4  -4   20.30    1.20
   3   4   4   18.00    0.90
  -4  -4  -4   29.70    1.40
  -4  -4  -4   31.60    1.10
  -4  -4  -4   29.70    1.50
  -5  -4  -4   14.50    1.30
  -5  -4  -4   15.30    0.90
   7  -5  -4    2.30    0.70
  -7   5   4    2.50    0.70
   6  -5  -4    9.20    0.90
   6  -5  -4    9.00    0.90
  -6   5   4    9.80    0.90
  -6   5   4    8.70    1.00
  -6   5   4    8.70    0.90
  -6   5   4   11.40    1.00
   5  -5  -4    1.40    0.50
   5  -5  -4    2.30    0.50
  -5   5   4    2.30    0.50
  -5   5   4    1.70    0.50
  -5   5   4    1.30    0.50
   4  -5  -4    0.00    0.30
   4  -5  -4    0.00    0.30
   4  -5  -4    0.00    0.30
  -4   5   4    0.10    0.40
   3  -5  -4   42.00    1.60
   3  -5  -4   38.30    1.50
   3  -5  -4   53.49    1.60
  -3   5   4   52.89    1.70
   2  -5  -4  275.67    5.60
   2  -5  -4  283.17    6.00
   2  -5  -4  248.18    6.30
   2  -5  -4  281.47    6.50
   2  -5  -4  273.07    6.20
   1  -5  -4    0.60    0.20
   1  -5  -4    0.30    0.20
   1  -5  -4    0.30    0.20
   1  -5  -4    0.30    0.20
  -1   5   4    0.60    0.40
   0  -5  -4  168.88    4.10
   0  -5  -4  174.58    4.20
   0  -5  -4  172.08    3.80
   0  -5  -4  173.18    3.80
   0  -5  -4  167.28    4.10
   0   5   4  173.68    4.30
   0   5   4  168.28    4.00
  -1  -5  -4    0.40    0.30
  -1  -5  -4    1.00    0.30
  -1  -5  -4    1.80    0.30
  -1  -5  -4    1.50    0.40
  -1  -5  -4    0.50    0.20
  -1  -5  -4    1.00    0.30
   1   5   4    1.20    0.30
   1   5   4    1.20    0.40
  -2  -5  -4    8.00    0.70
  -2  -5  -4    9.30    0.80
  -2  -5  -4    8.70    0.70
   2   5   4    8.20    0.80
  -3  -5  -4    3.10    0.50
  -3  -5  -4    2.70    0.70
  -3  -5  -4    2.00    0.50
  -4  -5  -4   37.50    1.30
  -4  -5  -4   37.60    1.80
  -4  -5  -4   38.20    1.60
  -5  -5  -4   12.30    1.00
   7  -6  -4    7.60    1.00
   6  -6  -4    1.30    0.60
   6  -6  -4    0.70    0.50
  -6   6   4    1.50    0.60
  -6   6   4    2.00    0.60
  -6   6   4    1.40    0.50
   5  -6  -4   26.10    1.30
   5  -6  -4   26.00    1.30
   5  -6  -4   26.10    1.30
  -5   6   4   25.90    1.30
  -5   6   4   28.30    1.40
   4  -6  -4   29.60    1.30
   4  -6  -4   28.80    1.30
   4  -6  -4   28.70    1.40
   4  -6  -4   29.30    1.30
  -4   6   4   27.20    1.30
   3  -6  -4    6.10    0.40
   3  -6  -4    5.20    0.60
   3  -6  -4    7.30    0.60
   3  -6  -4    6.60    0.70
  -3   6   4    5.10    0.60
   2  -6  -4   12.00    0.70
   2  -6  -4   12.30    0.80
   2  -6  -4   13.80    0.60
   2  -6  -4   12.90    0.80
   1  -6  -4  231.78    5.20
   1  -6  -4  226.18    5.50
   1  -6  -4  228.78    4.90
   1  -6  -4  232.28    5.50
  -1   6   4  228.18    5.60
   0  -6  -4  205.78    4.60
   0  -6  -4  206.08    5.00
   0  -6  -4  201.98    5.00
   0  -6  -4  208.58    5.00
   0  -6  -4  204.68    4.50
   0   6   4  212.48    5.10
   0   6   4  204.28    4.80
  -1  -6  -4    4.70    0.40
  -1  -6  -4    5.00    0.50
  -1  -6  -4    4.70    0.60
  -1  -6  -4    5.00    0.50
  -1  -6  -4    3.80    0.50
  -1  -6  -4    3.60    0.60
   1   6   4    5.00    0.50
   1   6   4    4.90    0.60
  -2  -6  -4    0.30    0.40
  -2  -6  -4    0.40    0.40
  -2  -6  -4    0.90    0.40
   2   6   4    0.10    0.40
  -3  -6  -4    1.20    0.60
  -3  -6  -4    2.20    0.50
  -3  -6  -4    0.90    0.50
  -4  -6  -4   12.20    0.90
  -4  -6  -4   13.50    1.20
  -4  -6  -4   11.30    1.10
   7  -7  -4    2.70    0.70
  -7   7   4    3.60    0.70
   6  -7  -4   38.40    1.80
   6  -7  -4   39.20    1.80
  -6   7   4   39.20    1.80
  -6   7   4   39.10    1.80
  -6   7   4   37.50    1.70
   5  -7  -4   29.90    1.50
   5  -7  -4   28.40    1.40
   5  -7  -4   29.60    1.40
  -5   7   4   30.30    1.50
   4  -7  -4   18.30    1.10
   4  -7  -4   16.20    1.00
   4  -7  -4   17.80    1.00
   4  -7  -4   16.90    1.10
  -4   7   4   17.40    1.10
   3  -7  -4    1.30    0.20
   3  -7  -4    1.40    0.40
   3  -7  -4    0.80    0.40
   3  -7  -4    2.20    0.40
   3  -7  -4    1.40    0.40
  -3   7   4    0.90    0.50
   2  -7  -4  181.28    4.30
   2  -7  -4  185.88    4.70
   2  -7  -4  177.78    4.00
   2  -7  -4  180.18    4.60
  -2   7   4  181.08    4.70
   1  -7  -4   17.40    1.00
   1  -7  -4   18.30    0.90
   1  -7  -4   19.60    0.90
   1  -7  -4   18.20    0.90
  -1   7   4   20.00    1.10
  -1   7   4   19.40    0.90
   0  -7  -4    7.60    0.80
   0  -7  -4    6.90    0.60
   0  -7  -4    7.80    0.70
   0  -7  -4    7.10    0.60
   0  -7  -4    6.70    0.60
   0   7   4    7.80    0.60
   0   7   4    6.80    0.70
  -1  -7  -4    3.80    0.60
  -1  -7  -4    4.30    0.40
  -1  -7  -4    4.60    0.70
  -1  -7  -4    5.70    0.60
   1   7   4    4.20    0.70
   1   7   4    5.30    0.60
  -2  -7  -4   40.00    1.70
  -2  -7  -4   40.90    1.70
  -2  -7  -4   42.50    1.30
   2   7   4   40.30    1.60
  -3  -7  -4    2.30    0.60
  -3  -7  -4    3.10    0.70
  -3  -7  -4    3.10    0.60
  -4  -7  -4    1.90    0.60
  -7   8   4    3.50    0.70
   6  -8  -4    1.20    0.60
  -6   8   4    1.50    0.60
  -6   8   4    2.20    0.60
   5  -8  -4   41.80    1.70
   5  -8  -4   43.50    1.80
   5  -8  -4   44.20    1.80
   5  -8  -4   38.30    1.80
  -5   8   4   44.40    1.80
   4  -8  -4   22.50    1.20
   4  -8  -4   21.40    1.10
   4  -8  -4   19.00    1.10
   4  -8  -4   21.50    1.30
  -4   8   4   19.20    1.30
   3  -8  -4   85.19    2.50
   3  -8  -4   84.49    2.60
   3  -8  -4   85.29    2.10
   3  -8  -4   82.39    2.70
  -3   8   4   84.49    2.70
   2  -8  -4   17.40    0.80
   2  -8  -4   17.10    1.00
   2  -8  -4   16.80    1.00
   2  -8  -4   16.50    1.00
  -2   8   4   17.10    1.20
  -2   8   4   18.70    1.10
   1  -8  -4  108.19    3.10
   1  -8  -4  110.89    2.80
   1  -8  -4  108.99    3.10
   1  -8  -4  108.49    2.90
  -1   8   4  110.39    3.20
  -1   8   4  109.49    3.00
   0  -8  -4    0.30    0.30
   0  -8  -4    0.10    0.30
   0  -8  -4    0.00    0.30
   0  -8  -4    0.10    0.30
   0   8   4    0.10    0.40
   0   8   4    0.00    0.50
  -1  -8  -4   39.80    1.40
  -1  -8  -4   41.30    1.70
  -1  -8  -4   40.80    1.70
  -1  -8  -4   38.10    1.70
   1   8   4   39.50    1.70
   1   8   4   39.50    1.50
  -2  -8  -4   28.40    1.50
  -2  -8  -4   29.80    1.50
  -3  -8  -4   15.90    1.30
  -3  -8  -4   17.70    1.30
   6  -9  -4    2.50    0.70
  -6   9   4    2.20    0.70
   5  -9  -4   11.00    1.00
   5  -9  -4   12.60    1.20
  -5   9   4   14.30    1.20
   4  -9  -4   27.10    1.40
   4  -9  -4   26.50    1.40
   4  -9  -4   29.10    1.40
  -4   9   4   27.30    1.40
   3  -9  -4   59.79    2.10
   3  -9  -4   58.29    2.00
   3  -9  -4   57.59    1.70
   3  -9  -4   59.69    2.20
  -3   9   4   56.29    2.20
  -3   9   4   58.49    2.10
   2  -9  -4    6.00    0.70
   2  -9  -4    6.40    0.70
   2  -9  -4    5.60    0.70
   2  -9  -4    5.40    0.50
  -2   9   4    5.40    0.70
  -2   9   4    5.40    0.70
   1  -9  -4   13.50    0.90
   1  -9  -4   12.90    0.90
   1  -9  -4   12.60    0.90
   1  -9  -4   12.70    0.90
  -1   9   4   11.50    0.90
  -1   9   4   12.80    1.00
   0  -9  -4   20.00    1.10
   0  -9  -4   19.70    1.10
   0  -9  -4   20.00    1.10
   0  -9  -4   18.90    1.20
   0   9   4   21.00    1.20
   0   9   4   21.70    1.30
  -1  -9  -4    0.00    0.40
  -1  -9  -4    0.20    0.50
   1   9   4    0.00    0.50
  -2  -9  -4   26.00    1.50
  -2  -9  -4   26.20    1.50
  -6  10   4    1.00    0.60
  -5  10   4   13.00    1.30
   4 -10  -4    5.00    0.70
   4 -10  -4    4.80    0.40
   4 -10  -4    4.10    0.70
  -4  10   4    4.70    0.70
  -4  10   4    4.30    0.80
   3 -10  -4   34.90    1.60
   3 -10  -4   34.70    1.30
   3 -10  -4   34.10    1.50
   3 -10  -4   36.40    1.70
  -3  10   4   35.10    1.60
  -3  10   4   35.70    1.80
   2 -10  -4  104.49    3.20
   2 -10  -4  105.49    3.20
   2 -10  -4  104.89    3.00
   2 -10  -4  100.59    2.70
  -2  10   4  103.39    3.10
  -2  10   4  101.39    3.30
   1 -10  -4   41.00    1.70
   1 -10  -4   40.40    1.60
   1 -10  -4   41.90    1.80
   1 -10  -4   40.30    1.60
  -1  10   4   41.10    1.90
  -1  10   4   41.00    1.70
   0 -10  -4    8.50    0.80
   0 -10  -4    5.00    0.60
   0 -10  -4    6.60    0.80
   0  10   4    6.80    0.80
   0  10   4    7.50    0.90
  -1 -10  -4    7.60    0.90
  -2 -10  -4    4.60    0.90
  -5  11   4   14.70    1.30
  -5  11   4   14.20    1.30
   4 -11  -4   17.60    0.80
  -4  11   4   18.90    1.40
  -4  11   4   20.90    1.40
   3 -11  -4   23.40    1.40
   3 -11  -4   21.80    1.00
  -3  11   4   24.30    1.60
  -3  11   4   23.60    1.40
   2 -11  -4    0.30    0.40
   2 -11  -4    0.60    0.40
   2 -11  -4    0.30    0.30
  -2  11   4    0.20    0.50
  -2  11   4    0.00    0.60
   1 -11  -4   78.99    2.40
   1 -11  -4   78.89    2.50
   1 -11  -4   77.49    2.70
  -1  11   4   80.89    2.70
  -1  11   4   76.39    2.80
   0 -11  -4    1.90    0.50
   0  11   4    1.80    0.70
   0  11   4    1.90    0.70
  -1 -11  -4    2.40    0.70
  -4  12   4   19.50    1.50
  -4  12   4   21.30    1.50
  -3  12   4   43.50    2.20
  -3  12   4   46.00    2.10
   2 -12  -4    6.60    0.70
  -2  12   4    9.40    1.10
  -2  12   4    8.60    1.10
   1 -12  -4    1.80    0.50
  -1  12   4    0.40    0.70
  -1  12   4    0.70    0.70
   0  13  -5    0.00    0.70
   0 -13   5    0.30    0.40
  -1  13  -5   15.60    1.40
   1 -13   5   14.60    1.00
   1 -13   5   14.00    1.20
  -2  13  -5    1.30    0.80
  -2  13  -5    1.70    0.50
   2 -13   5    1.40    0.50
   2 -13   5    1.70    0.60
  -3  13  -5    0.00    0.80
  -3  13  -5    0.50    0.50
   3 -13   5    0.60    0.50
  -4  13  -5   13.80    1.40
  -4  13  -5   16.20    1.30
   4 -13   5   14.40    1.30
   1  12  -5    0.00    0.70
   0  12  -5    7.30    1.00
   0 -12   5    8.30    0.80
   0 -12   5    7.70    0.90
  -1  12  -5    0.30    0.30
  -1  12  -5    0.00    0.70
   1 -12   5    0.00    0.40
   1 -12   5    0.00    0.30
   1 -12   5    0.10    0.40
  -2  12  -5    3.70    0.60
  -2  12  -5    2.60    0.80
   2 -12   5    2.90    0.50
   2 -12   5    3.30    0.60
  -3  12  -5   11.40    1.10
  -3  12  -5   13.50    1.00
   3 -12   5   11.00    1.00
   3 -12   5   12.10    0.70
  -4  12  -5   10.60    1.20
   4 -12   5   10.00    0.50
   4 -12   5   11.90    1.20
  -5  12  -5    4.00    0.70
  -5  12  -5    2.80    0.80
   5 -12   5    4.20    0.80
   2  11  -5    9.00    1.10
   1  11  -5    4.30    0.90
  -1 -11   5    4.00    0.70
  -1 -11   5    4.00    0.70
  -1 -11   5    3.30    0.60
   0  11  -5    0.00    0.60
   0 -11   5    0.00    0.30
   0 -11   5    0.00    0.40
   0 -11   5    0.00    0.40
   0 -11   5    0.10    0.40
  -1  11  -5   12.20    1.20
  -1  11  -5   10.80    0.80
   1 -11   5   10.00    0.90
   1 -11   5   10.90    0.90
   1 -11   5    9.80    0.80
   1 -11   5   10.60    0.80
   1 -11   5   10.50    1.00
  -2  11  -5    4.00    0.80
   2 -11   5    5.00    0.70
   2 -11   5    4.10    0.70
   2 -11   5    4.50    0.60
   2 -11   5    4.90    0.50
  -3  11  -5    1.80    0.70
   3 -11   5    2.60    0.60
   3 -11   5    1.80    0.30
   3 -11   5    1.80    0.50
   3 -11   5    2.10    0.50
  -4  11  -5    0.00    0.60
   4 -11   5    0.00    0.40
   4 -11   5    0.00    0.10
   4 -11   5    0.00    0.40
   4 -11   5    0.00    0.30
  -5  11  -5    1.00    0.70
  -5  11  -5    0.50    0.50
   5 -11   5    1.20    0.60
   3  10  -5    2.10    0.80
   2  10  -5    7.60    1.00
  -2 -10   5    5.40    0.80
  -2 -10   5    4.30    0.70
   1  10  -5    9.40    1.00
  -1 -10   5   10.30    0.90
  -1 -10   5    9.60    0.90
  -1 -10   5   10.00    0.90
  -1 -10   5   10.90    0.90
   0  10  -5   23.10    1.40
   0  10  -5   23.10    1.10
   0 -10   5   22.50    1.30
   0 -10   5   21.90    1.10
   0 -10   5   21.10    1.10
   0 -10   5   23.40    1.20
   0 -10   5   21.90    1.10
  -1  10  -5    4.90    0.80
   1 -10   5    4.10    0.60
   1 -10   5    4.00    0.50
   1 -10   5    4.30    0.60
   1 -10   5    4.70    0.60
   1 -10   5    3.90    0.50
  -2  10  -5    0.70    0.60
   2 -10   5    0.60    0.30
   2 -10   5    0.50    0.30
   2 -10   5    0.70    0.40
   2 -10   5    1.20    0.50
   2 -10   5    1.10    0.40
  -3  10  -5    3.90    0.70
   3 -10   5    5.30    0.50
   3 -10   5    4.50    0.70
   3 -10   5    3.70    0.60
   3 -10   5    5.50    0.60
  -4  10  -5    2.90    0.60
  -4  10  -5    3.00    0.60
   4 -10   5    4.70    0.60
   4 -10   5    3.30    0.60
   4 -10   5    4.10    0.70
  -5  10  -5    1.30    0.50
  -5  10  -5    0.10    0.60
   5 -10   5    1.00    0.50
   5 -10   5    1.50    0.50
  -6  10  -5    3.20    0.60
   6 -10   5    2.70    0.70
   4   9  -5   14.40    1.40
   3   9  -5   16.40    1.30
  -3  -9   5   13.50    1.20
  -3  -9   5   14.30    1.20
   2   9  -5    5.80    0.90
  -2  -9   5    4.30    0.70
  -2  -9   5    4.60    0.70
  -2  -9   5    2.90    0.60
   1   9  -5   51.69    2.00
  -1  -9   5   53.99    2.10
  -1  -9   5   53.59    1.90
  -1  -9   5   54.69    1.80
  -1  -9   5   54.39    1.90
   0   9  -5   33.20    1.60
   0  -9   5   34.50    1.30
   0  -9   5   34.30    1.40
   0  -9   5   33.60    1.40
   0  -9   5   34.50    1.30
   0  -9   5   33.00    1.50
  -1   9  -5  181.18    4.50
   1  -9   5  172.28    4.30
   1  -9   5  173.38    4.50
   1  -9   5  180.98    4.00
   1  -9   5  171.98    4.70
   1  -9   5  171.28    4.30
  -2   9  -5  141.19    3.80
   2  -9   5  141.39    4.00
   2  -9   5  144.49    3.30
   2  -9   5  143.59    3.60
   2  -9   5  140.99    3.60
   2  -9   5  137.89    3.90
  -3   9  -5   29.90    1.30
  -3   9  -5   26.70    1.30
   3  -9   5   27.70    1.40
   3  -9   5   27.00    1.30
   3  -9   5   26.70    0.90
   3  -9   5   27.70    1.20
  -4   9  -5   40.10    1.60
  -4   9  -5   41.50    1.60
   4  -9   5   40.00    1.70
   4  -9   5   38.70    1.50
   4  -9   5   38.40    1.70
  -5   9  -5   42.50    1.70
  -5   9  -5   44.40    1.70
   5  -9   5   40.10    1.80
   5  -9   5   41.50    1.90
  -6   9  -5   10.40    0.90
   6  -9   5   11.50    1.10
   4   8  -5    8.60    1.00
  -4  -8   5    6.70    0.90
  -4  -8   5    9.10    1.00
   3   8  -5   27.00    1.50
  -3  -8   5   24.00    1.40
  -3  -8   5   26.30    1.50
  -3  -8   5   23.90    1.40
  -3  -8   5   26.10    1.20
   2   8  -5    0.10    0.60
  -2  -8   5    0.50    0.50
  -2  -8   5    0.40    0.50
  -2  -8   5    0.00    0.50
  -2  -8   5    0.60    0.40
   1   8  -5    2.60    0.70
  -1  -8   5    1.70    0.50
  -1  -8   5    2.20    0.40
  -1  -8   5    2.30    0.50
  -1  -8   5    2.60    0.50
  -1  -8   5    1.50    0.40
   0   8  -5   13.70    1.00
   0  -8   5   13.20    0.80
   0  -8   5   13.20    0.90
   0  -8   5   13.30    0.80
   0  -8   5   11.20    0.90
   0  -8   5   12.70    0.80
  -1   8  -5   90.09    2.60
   1  -8   5   91.59    2.60
   1  -8   5   92.39    2.40
   1  -8   5   85.59    2.50
   1  -8   5   91.49    2.30
   1  -8   5   87.29    2.70
  -2   8  -5   99.49    2.80
  -2   8  -5  102.99    2.70
   2  -8   5  101.69    2.70
   2  -8   5  104.69    3.00
   2  -8   5  102.89    3.00
   2  -8   5  103.39    2.50
   2  -8   5  104.19    2.60
  -3   8  -5  276.27    6.40
  -3   8  -5  272.87    6.20
   3  -8   5  279.87    6.80
   3  -8   5  265.37    5.50
   3  -8   5  276.27    6.20
   3  -8   5  269.37    6.80
  -4   8  -5   84.69    2.50
  -4   8  -5   86.29    2.50
   4  -8   5   82.59    2.70
   4  -8   5   88.29    2.70
   4  -8   5   85.69    2.40
  -5   8  -5    1.20    0.40
   5  -8   5    1.10    0.40
   5  -8   5    0.40    0.50
  -6   8  -5    6.00    0.80
   6  -8   5    7.20    0.90
   5   7  -5    2.10    0.70
  -5  -7   5    0.50    0.70
  -5  -7   5    2.30    0.70
   4   7  -5   21.30    1.30
  -4  -7   5   20.80    1.40
  -4  -7   5   19.00    1.30
  -4  -7   5   22.10    1.30
  -4  -7   5   18.90    1.30
   3   7  -5    0.10    0.60
  -3  -7   5    0.00    0.50
  -3  -7   5    0.50    0.40
  -3  -7   5    0.00    0.50
  -3  -7   5    0.00    0.40
   2   7  -5   17.70    1.20
  -2  -7   5   16.60    1.10
  -2  -7   5   16.60    1.10
  -2  -7   5   15.60    1.00
  -2  -7   5   16.30    0.90
  -2  -7   5   15.20    0.90
   1   7  -5  231.18    5.60
  -1  -7   5  233.48    5.10
  -1  -7   5  239.38    5.90
  -1  -7   5  236.48    5.50
  -1  -7   5  232.98    5.40
  -1  -7   5  230.58    5.30
  -1  -7   5  231.98    5.60
   0   7  -5    0.70    0.50
   0  -7   5    0.20    0.20
   0  -7   5    0.20    0.30
   0  -7   5    0.30    0.30
   0  -7   5    0.40    0.20
  -1   7  -5    0.10    0.40
   1  -7   5    0.60    0.20
   1  -7   5    0.00    0.20
   1  -7   5    0.00    0.20
   1  -7   5    0.40    0.30
   1  -7   5    0.00    0.20
  -2   7  -5    7.30    0.70
  -2   7  -5    7.60    0.60
   2  -7   5    6.40    0.60
   2  -7   5    6.20    0.50
   2  -7   5    6.80    0.70
   2  -7   5    6.90    0.70
  -3   7  -5   17.30    1.00
  -3   7  -5   16.10    0.90
   3  -7   5   16.60    0.60
   3  -7   5   17.10    0.60
   3  -7   5   17.40    1.00
   3  -7   5   16.70    0.90
   3  -7   5   18.30    1.10
  -4   7  -5    2.50    0.50
  -4   7  -5    3.20    0.50
   4  -7   5    3.10    0.60
   4  -7   5    2.50    0.50
   4  -7   5    2.20    0.40
  -5   7  -5    5.70    0.70
   5  -7   5    5.20    0.70
  -6   7  -5   39.10    1.70
   6  -7   5   42.10    1.90
   5   6  -5   14.90    1.20
  -5  -6   5   15.70    1.20
  -5  -6   5   11.90    1.30
   4   6  -5    0.00    0.50
  -4  -6   5    0.00    0.50
  -4  -6   5    0.00    0.50
  -4  -6   5    0.60    0.50
  -4  -6   5    0.00    0.50
   3   6  -5  377.36    8.60
  -3  -6   5  370.66    8.60
  -3  -6   5  377.96    8.70
  -3  -6   5  363.36    9.00
  -3  -6   5  379.66    8.40
   2   6  -5   10.00    0.50
   2   6  -5   10.80    1.00
  -2  -6   5    9.20    0.80
  -2  -6   5    8.50    0.80
  -2  -6   5   11.80    0.70
  -2  -6   5   11.10    0.70
  -2  -6   5    8.80    0.90
   1   6  -5  103.79    2.90
  -1  -6   5  105.19    2.70
  -1  -6   5  108.59    2.80
  -1  -6   5  103.99    2.60
   0   6  -5  215.98    5.20
   0  -6   5  222.18    5.10
   0  -6   5  227.38    5.50
   0  -6   5  213.88    4.80
   0  -6   5  222.68    5.00
   0  -6   5  227.28    4.80
   0  -6   5  223.18    5.30
  -1   6  -5  367.76    8.10
   1  -6   5  362.16    8.50
   1  -6   5  369.06    8.40
   1  -6   5  363.56    7.80
   1  -6   5  350.26    7.40
  -2   6  -5  177.08    4.20
   2  -6   5  175.98    4.00
   2  -6   5  165.88    4.40
   2  -6   5  179.68    4.10
   2  -6   5  181.28    4.40
  -3   6  -5    0.00    0.30
  -3   6  -5    0.00    0.30
   3  -6   5    0.40    0.20
   3  -6   5    0.30    0.10
   3  -6   5    0.00    0.30
   3  -6   5    0.80    0.30
   3  -6   5    0.00    0.40
  -4   6  -5    9.20    0.70
  -4   6  -5    9.10    0.70
   4  -6   5   11.20    0.70
   4  -6   5   10.00    0.70
   4  -6   5   10.80    0.90
  -5   6  -5    8.40    0.70
   5  -6   5    8.70    0.90
  -6   6  -5    1.10    0.50
   6  -6   5    1.10    0.50
   6   5  -5    1.50    0.60
   5   5  -5    5.60    0.80
  -5  -5   5    6.30    0.90
  -5  -5   5    3.40    0.80
  -5  -5   5    3.00    0.70
  -5  -5   5    4.00    0.70
   4   5  -5   19.00    1.20
  -4  -5   5   19.60    1.20
  -4  -5   5   19.40    1.30
  -4  -5   5   18.30    1.20
   3   5  -5    0.30    0.50
  -3  -5   5    0.90    0.50
  -3  -5   5    0.30    0.50
  -3  -5   5    0.50    0.40
   2   5  -5   16.80    1.00
   2   5  -5   16.00    0.50
  -2  -5   5   16.70    0.80
  -2  -5   5   16.00    0.60
  -2  -5   5   16.10    0.90
  -2  -5   5   17.50    1.00
   1   5  -5  120.69    3.00
  -1  -5   5  117.69    2.90
  -1  -5   5  119.49    3.00
  -1  -5   5  113.39    2.80
  -1  -5   5  117.19    2.90
   0   5  -5  844.32   18.30
   0  -5   5  874.61   19.30
   0  -5   5  845.32   18.50
   0  -5   5  847.32   16.90
   0  -5   5  876.41   19.00
   0  -5   5  898.01   17.80
  -1   5  -5   32.40    0.90
  -1   5  -5   32.80    1.10
  -1   5  -5   32.50    1.10
   1  -5   5   32.40    1.10
   1  -5   5   33.70    0.90
   1  -5   5   32.80    1.20
   1  -5   5   32.40    1.20
   1  -5   5   32.50    1.00
  -2   5  -5  127.89    2.90
  -2   5  -5  128.99    3.10
   2  -5   5  129.29    2.90
   2  -5   5  129.89    3.30
   2  -5   5  130.59    3.00
   2  -5   5  124.99    2.80
  -3   5  -5    3.20    0.40
  -3   5  -5    3.60    0.30
  -3   5  -5    3.90    0.40
   3  -5   5    3.40    0.30
   3  -5   5    3.50    0.30
   3  -5   5    3.60    0.30
   3  -5   5    3.30    0.50
   3  -5   5    3.40    0.40
  -4   5  -5   17.90    1.00
  -4   5  -5   17.40    0.80
  -4   5  -5   19.20    0.80
   4  -5   5   18.30    0.90
   4  -5   5   17.20    1.00
   4  -5   5   19.10    0.80
  -5   5  -5   32.00    1.40
   5  -5   5   31.60    1.50
  -6   5  -5    0.30    0.40
   6  -5   5    0.80    0.50
   6   4  -5    2.50    0.60
  -6  -4   5    2.10    0.70
  -6  -4   5    0.10    0.70
   5   4  -5   15.10    1.10
  -5  -4   5   13.50    1.20
  -5  -4   5   14.60    1.10
  -5  -4   5   14.20    1.10
   4   4  -5    3.60    0.60
  -4  -4   5    3.60    0.70
  -4  -4   5    3.80    0.70
  -4  -4   5    2.10    0.50
   3   4  -5  218.58    5.20
  -3  -4   5  211.08    5.40
  -3  -4   5  215.38    5.00
  -3  -4   5  218.58    5.30
   2   4  -5    8.20    0.70
   2   4  -5    8.60    0.40
  -2  -4   5    8.90    0.70
  -2  -4   5    9.30    0.60
  -2  -4   5   11.10    0.80
  -2  -4   5    9.50    0.50
   1   4  -5   24.90    1.00
  -1  -4   5   25.20    0.90
  -1  -4   5   24.60    1.00
  -1  -4   5   25.50    0.90
  -1  -4   5   25.20    0.90
  -1  -4   5   25.90    1.10
   0   4  -5  262.57    6.00
   0   4  -5  269.27    6.10
   0  -4   5  278.37    6.40
   0  -4   5  283.47    5.90
   0  -4   5  264.67    6.20
   0  -4   5  270.87    6.00
  -1   4  -5  237.88    5.00
  -1   4  -5  228.28    5.20
  -1   4  -5  228.78    5.00
   1  -4   5  222.98    5.00
   1  -4   5  238.28    5.50
   1  -4   5  238.68    5.50
   1  -4   5  225.98    5.00
   1  -4   5  233.78    5.00
  -2   4  -5  252.27    5.60
  -2   4  -5  252.07    5.50
   2  -4   5  245.08    5.10
   2  -4   5  258.07    5.90
  -3   4  -5  129.49    3.10
  -3   4  -5  130.49    3.10
  -3   4  -5  129.69    2.90
   3  -4   5  135.39    3.50
   3  -4   5  132.99    2.70
   3  -4   5  136.39    3.30
   3  -4   5  127.59    2.70
  -4   4  -5   32.40    1.20
  -4   4  -5   31.50    1.30
   4  -4   5   31.70    1.10
   4  -4   5   33.10    1.40
  -5   4  -5   11.20    0.90
  -5   4  -5   11.10    0.90
   5  -4   5   10.60    0.90
  -6   4  -5    3.00    0.60
   6  -4   5    3.60    0.60
   6   3  -5    2.10    0.60
  -6  -3   5    0.10    0.70
   5   3  -5    0.40    0.40
  -5  -3   5    0.20    0.50
  -5  -3   5    0.00    0.50
  -5  -3   5    0.40    0.50
   4   3  -5    4.60    0.70
  -4  -3   5    4.00    0.70
  -4  -3   5    4.40    0.60
  -4  -3   5    4.50    0.60
   3   3  -5    5.20    0.60
  -3  -3   5    4.30    0.60
  -3  -3   5    5.00    0.60
   2   3  -5  311.67    5.70
   2   3  -5  306.77    7.00
  -2  -3   5  315.77    7.40
  -2  -3   5  316.87    7.00
  -2  -3   5  329.17    7.10
  -2  -3   5  307.87    6.90
   1   3  -5  101.19    2.10
   1   3  -5  103.39    2.60
  -1  -3   5  104.39    2.50
  -1  -3   5  107.59    2.60
  -1  -3   5  103.59    2.60
  -1  -3   5  106.39    2.80
   0   3  -5  141.19    3.20
   0   3  -5  143.09    3.40
   0   3  -5  145.29    3.20
   0  -3   5  147.89    3.60
   0  -3   5  145.09    3.30
   0  -3   5  146.99    3.50
   0  -3   5  143.89    3.30
   0  -3   5  147.59    3.30
  -1   3  -5  805.92   15.90
  -1   3  -5  796.32   16.50
  -1   3  -5  821.62   15.80
   1  -3   5  801.82   15.20
   1  -3   5  661.93   17.60
   1  -3   5  816.22   17.30
  -2   3  -5   12.60    0.60
  -2   3  -5   11.50    0.50
  -2   3  -5   11.10    0.50
  -2   3  -5   12.00    0.60
   2  -3   5   12.20    0.50
   2  -3   5   12.60    0.50
   2  -3   5   12.20    0.70
  -3   3  -5   76.49    2.00
  -3   3  -5   76.19    1.70
  -3   3  -5   75.49    1.80
  -3   3  -5   74.99    1.80
  -3   3  -5   73.79    1.80
   3  -3   5   75.19    2.20
   3  -3   5   76.39    1.80
  -4   3  -5   80.99    2.30
  -4   3  -5   79.39    2.30
   4  -3   5   80.09    2.40
  -5   3  -5    4.30    0.60
  -5   3  -5    4.10    0.60
   5  -3   5    4.50    0.60
  -6   3  -5    8.00    0.90
  -6   3  -5    7.60    0.80
   6  -3   5    8.60    0.90
   6   2  -5    0.30    0.50
  -6  -2   5    0.00    0.60
  -6  -2   5    0.00    0.50
   5   2  -5   28.60    1.30
  -5  -2   5   25.70    1.30
  -5  -2   5   25.00    1.30
  -5  -2   5   22.50    1.40
   4   2  -5   10.20    0.80
  -4  -2   5    9.60    0.90
  -4  -2   5    9.40    0.80
  -4  -2   5   10.40    1.00
   3   2  -5   15.70    0.80
  -3  -2   5   16.00    0.80
  -3  -2   5   16.60    0.60
  -3  -2   5   16.50    1.00
   2   2  -5   75.09    2.10
  -2  -2   5   75.99    1.90
  -2  -2   5   75.49    2.00
  -2  -2   5   76.09    2.00
   1   2  -5   20.30    0.80
   1   2  -5   20.00    0.60
  -1  -2   5   19.50    0.80
  -1  -2   5   20.70    0.80
  -1  -2   5   20.00    0.90
   0   2  -5  233.98    5.40
   0   2  -5  234.88    5.20
   0   2  -5  236.18    5.00
   0  -2   5  238.18    5.10
   0  -2   5  237.48    5.10
   0  -2   5  232.48    4.90
   0  -2   5  244.28    5.50
  -1   2  -5  903.61   19.80
  -1   2  -5  897.41   18.90
  -1   2  -5  940.41   19.20
  -1   2  -5  929.71   20.40
  -1   2  -5  928.01   20.40
   1  -2   5  934.41   21.00
   1  -2   5  925.31   18.00
   1  -2   5  947.91   19.10
  -2   2  -5   16.80    0.60
  -2   2  -5   16.50    0.50
  -2   2  -5   17.60    0.70
  -2   2  -5   18.20    0.60
  -2   2  -5   16.10    0.50
  -2   2  -5   17.50    0.70
   2  -2   5   16.70    0.60
   2  -2   5   16.40    0.60
   2  -2   5   17.40    0.80
   2  -2   5   16.70    0.50
  -3   2  -5   11.20    0.70
  -3   2  -5   11.00    0.40
  -3   2  -5   10.60    0.70
   3  -2   5   11.10    0.70
   3  -2   5   11.00    0.50
   3  -2   5   11.00    0.40
   3  -2   5    9.70    0.40
  -4   2  -5    5.90    0.60
   4  -2   5    5.10    0.30
   4  -2   5    4.80    0.60
  -5   2  -5    1.10    0.50
   5  -2   5    1.00    0.40
  -6   2  -5    0.20    0.50
   7   1  -5    0.30    0.50
   6   1  -5    1.40    0.50
  -6  -1   5    0.30    0.50
  -6  -1   5    0.40    0.60
  -6  -1   5    0.70    0.50
  -5  -1   5    1.20    0.50
  -5  -1   5    0.80    0.50
  -5  -1   5    2.50    0.60
   4   1  -5   23.40    1.10
  -4  -1   5   24.50    1.10
  -4  -1   5   22.10    1.20
  -4  -1   5   23.30    1.10
   3   1  -5   80.59    2.20
  -3  -1   5   80.49    2.30
  -3  -1   5   79.19    2.40
  -3  -1   5   81.49    2.10
   2   1  -5  463.55   10.20
  -2  -1   5  478.05   10.30
  -2  -1   5  482.45   10.50
  -2  -1   5  460.15   10.80
  -2  -1   5  482.45    9.90
   1   1  -5  709.33   13.30
   1   1  -5  708.63   15.20
   1   1  -5  692.03   15.10
  -1  -1   5  730.03   16.10
  -1  -1   5  726.83   15.90
  -1  -1   5  728.43   15.20
   0   1  -5  260.07    4.90
   0   1  -5  274.37    5.70
   0   1  -5  258.37    5.70
   0   1  -5  263.87    5.90
   0  -1   5  267.27    5.70
   0  -1   5  229.98    6.00
   0  -1   5  265.37    6.00
   0  -1   5  272.17    5.50
   0  -1   5  268.27    5.70
   0  -1   5  259.87    5.30
  -1   1  -5   20.10    0.70
  -1   1  -5   20.60    0.50
  -1   1  -5   20.70    0.70
  -1   1  -5   19.70    0.60
  -1   1  -5   20.40    0.70
  -1   1  -5   20.30    0.80
   1  -1   5   20.10    0.70
   1  -1   5   20.80    0.60
   1  -1   5   20.80    0.80
   1  -1   5   21.20    0.70
   1  -1   5   20.10    0.50
  -2   1  -5  124.99    3.10
  -2   1  -5  127.29    2.80
  -2   1  -5  125.29    2.80
  -2   1  -5  125.89    2.90
   2  -1   5  128.39    3.30
   2  -1   5  129.49    2.80
   2  -1   5  127.89    2.90
   2  -1   5  124.29    2.80
  -3   1  -5   29.60    1.20
  -3   1  -5   30.60    0.90
   3  -1   5   29.60    1.20
   3  -1   5   30.80    0.90
  -4   1  -5   17.20    1.00
   4  -1   5   17.20    0.60
   4  -1   5   18.70    1.00
  -5   1  -5   24.00    1.30
   5  -1   5   23.70    1.20
  -6   1  -5   11.30    1.10
   7   0  -5    5.70    0.90
   6   0  -5    6.10    0.80
  -6   0   5    4.40    0.60
  -6   0   5    4.60    0.70
  -6   0   5    5.20    0.80
   5   0  -5   73.89    2.30
  -5   0   5   67.99    2.20
  -5   0   5   71.09    2.40
  -5   0   5   70.09    2.30
   4   0  -5   14.80    0.90
  -4   0   5   14.50    0.80
  -4   0   5   15.00    0.90
  -4   0   5   14.70    1.00
  -4   0   5   14.50    0.90
   3   0  -5    6.20    0.60
  -3   0   5    6.10    0.60
  -3   0   5    6.20    0.60
  -3   0   5    6.80    0.60
   2   0  -5  126.69    3.10
   2   0  -5  129.49    3.10
  -2   0   5  126.89    3.30
  -2   0   5  126.39    3.10
  -2   0   5  125.59    3.10
  -2   0   5  126.59    3.20
   1   0  -5    0.70    0.20
   1   0  -5    0.30    0.20
   1   0  -5    0.00    0.20
  -1   0   5    0.10    0.10
  -1   0   5    0.70    0.30
  -1   0   5    0.50    0.30
   0   0  -5    3.10    0.30
   0   0  -5    2.70    0.20
   0   0  -5    3.20    0.30
   0   0  -5    3.50    0.30
   0   0  -5    2.60    0.30
   0   0  -5    2.90    0.20
   0   0   5    3.00    0.30
   0   0   5    3.00    0.30
   0   0   5    2.80    0.20
   0   0   5    3.10    0.30
   0   0   5    2.30    0.20
   0   0   5    4.20    0.40
  -1   0  -5  403.26    7.40
  -1   0  -5  406.16    8.60
  -1   0  -5  405.06    8.80
  -1   0  -5  395.76    8.40
  -1   0  -5  397.46    8.00
   1   0   5  409.76    9.00
   1   0   5  399.46    8.10
   1   0   5  397.16    9.10
   1   0   5  395.76    8.00
   1   0   5  406.66    8.80
   1   0   5  404.86    8.60
   1   0   5  400.16    8.20
  -2   0  -5    7.00    0.50
  -2   0  -5    6.90    0.60
  -2   0  -5    7.80    0.40
  -2   0  -5    7.60    0.40
   2   0   5    7.00    0.60
   2   0   5    7.20    0.40
   2   0   5    7.30    0.40
  -3   0  -5    2.00    0.50
  -3   0  -5    2.20    0.30
  -3   0  -5    2.70    0.30
   3   0   5    2.60    0.40
   3   0   5    2.20    0.30
  -4   0  -5    8.00    0.40
  -4   0  -5    8.30    0.80
   4   0   5    7.30    0.60
  -5   0  -5   18.50    1.20
  -6   0  -5    1.40    0.60
   7  -1  -5    0.40    0.60
   6  -1  -5   35.50    1.60
  -6   1   5   37.80    1.60
  -6   1   5   33.60    1.60
  -6   1   5   35.30    1.70
   5  -1  -5    0.00    0.40
  -5   1   5    0.10    0.40
  -5   1   5    0.30    0.40
  -5   1   5    0.00    0.40
   4  -1  -5   89.39    2.50
  -4   1   5   89.59    2.40
  -4   1   5   86.09    2.60
  -4   1   5   87.59    2.60
   3  -1  -5   58.79    1.80
   3  -1  -5   57.59    1.80
  -3   1   5   60.59    1.90
  -3   1   5   59.49    1.80
  -3   1   5   60.59    1.80
   2  -1  -5   88.69    2.30
   2  -1  -5   87.29    2.30
  -2   1   5   91.59    2.50
  -2   1   5   95.09    2.40
  -2   1   5   91.89    2.40
   1  -1  -5  733.43   15.40
   1  -1  -5  743.73   15.60
   1  -1  -5  734.83   14.70
   1  -1  -5  743.03   13.50
  -1   1   5  730.53   16.70
  -1   1   5  694.93   16.40
   0  -1  -5  807.82   16.10
   0  -1  -5  803.42   15.50
   0  -1  -5  801.92   17.00
   0  -1  -5  785.92   14.90
   0  -1  -5  796.62   16.70
   0   1   5  800.52   17.90
   0   1   5  769.32   16.20
   0   1   5  807.82   17.80
   0   1   5  789.02   16.90
  -1  -1  -5  200.78    4.60
  -1  -1  -5  199.58    4.40
  -1  -1  -5  193.88    3.80
  -1  -1  -5  199.68    4.20
   1   1   5  200.58    4.10
   1   1   5  192.68    4.20
   1   1   5  200.08    4.40
   1   1   5  197.28    4.40
   1   1   5  197.28    4.40
   1   1   5  197.48    4.10
   1   1   5  200.98    4.80
  -2  -1  -5   34.60    1.30
  -2  -1  -5   37.40    1.10
  -2  -1  -5   38.70    1.20
  -2  -1  -5   37.20    0.90
   2   1   5   37.30    1.10
   2   1   5   39.40    1.30
  -3  -1  -5    5.60    0.70
  -3  -1  -5    4.80    0.50
  -3  -1  -5    5.40    0.40
   3   1   5    5.10    0.50
  -4  -1  -5   29.70    1.30
  -4  -1  -5   31.50    0.90
  -4  -1  -5   29.80    1.40
   4   1   5   30.80    1.20
  -5  -1  -5    0.00    0.30
  -5  -1  -5    0.00    0.50
  -6  -1  -5   17.80    1.30
  -6  -1  -5   15.90    0.80
   7  -2  -5    9.70    1.10
   6  -2  -5   34.20    1.60
  -6   2   5   33.80    1.70
  -6   2   5   33.00    1.70
  -6   2   5   32.50    1.60
   5  -2  -5    2.50    0.50
   5  -2  -5    2.80    0.50
  -5   2   5    2.30    0.60
  -5   2   5    3.00    0.50
  -5   2   5    2.40    0.50
  -5   2   5    2.50    0.50
   4  -2  -5    6.70    0.70
  -4   2   5    7.20    0.70
  -4   2   5    7.40    0.70
  -4   2   5    7.20    0.60
   3  -2  -5   77.79    2.20
   3  -2  -5   75.39    2.10
  -3   2   5   79.09    2.20
  -3   2   5   77.49    2.20
  -3   2   5   75.19    2.20
   2  -2  -5  599.04   13.10
   2  -2  -5  599.54   13.20
  -2   2   5  623.64   13.60
  -2   2   5  614.34   13.60
  -2   2   5  613.14   13.70
   1  -2  -5  140.69    2.70
   1  -2  -5  145.39    3.10
   1  -2  -5  138.59    2.90
   1  -2  -5  142.99    3.40
   1  -2  -5  138.49    3.30
  -1   2   5  146.89    3.60
  -1   2   5  146.09    3.50
   0  -2  -5  110.49    2.70
   0  -2  -5  113.99    2.60
   0  -2  -5  111.59    2.30
   0  -2  -5  112.69    2.60
   0  -2  -5  112.29    2.50
   0   2   5  108.59    2.80
   0   2   5  115.89    2.70
   0   2   5  114.69    2.90
   0   2   5  110.29    2.50
  -1  -2  -5    0.20    0.20
  -1  -2  -5    0.30    0.30
  -1  -2  -5    0.40    0.20
  -1  -2  -5    0.50    0.20
   1   2   5    0.30    0.10
   1   2   5    0.40    0.10
   1   2   5    0.40    0.10
   1   2   5    0.60    0.20
   1   2   5    0.10    0.30
   1   2   5    0.60    0.10
  -2  -2  -5  106.59    2.80
  -2  -2  -5  105.39    2.60
  -2  -2  -5  102.89    2.20
  -2  -2  -5  102.09    2.50
   2   2   5  105.69    2.80
  -3  -2  -5  855.71   17.90
  -3  -2  -5  813.62   15.10
  -3  -2  -5  813.42   18.30
   3   2   5  845.92   18.40
  -4  -2  -5   11.30    1.00
  -4  -2  -5   13.00    0.70
  -4  -2  -5   11.60    0.90
   4   2   5   12.40    0.80
  -5  -2  -5   15.60    1.20
  -5  -2  -5   14.40    0.80
  -6  -2  -5    0.60    0.50
   7  -3  -5   13.50    1.20
   6  -3  -5    4.40    0.70
  -6   3   5    3.70    0.70
  -6   3   5    4.40    0.70
  -6   3   5    3.50    0.60
   5  -3  -5    2.70    0.60
   5  -3  -5    3.60    0.60
  -5   3   5    4.10    0.60
  -5   3   5    3.10    0.60
  -5   3   5    3.20    0.50
  -5   3   5    3.30    0.50
   4  -3  -5    4.80    0.60
   4  -3  -5    5.50    0.60
  -4   3   5    4.70    0.60
  -4   3   5    5.40    0.60
  -4   3   5    5.00    0.60
  -4   3   5    4.10    0.60
   3  -3  -5  110.39    3.10
   3  -3  -5  126.59    3.20
  -3   3   5  125.49    3.20
  -3   3   5  127.39    3.30
   2  -3  -5    5.60    0.50
   2  -3  -5    5.50    0.50
   2  -3  -5    5.30    0.50
  -2   3   5    5.60    0.60
   1  -3  -5  247.98    5.10
   1  -3  -5  246.98    5.30
   1  -3  -5  246.88    5.50
   1  -3  -5  249.97    5.60
   1  -3  -5  242.18    4.60
   0  -3  -5   28.80    0.90
   0  -3  -5   29.00    1.00
   0  -3  -5   31.40    0.90
   0  -3  -5   28.90    1.00
   0  -3  -5   29.90    0.80
   0   3   5   30.40    1.20
   0   3   5   27.90    0.90
  -1  -3  -5  114.49    2.90
  -1  -3  -5  114.79    2.40
  -1  -3  -5  116.19    2.50
  -1  -3  -5  119.09    2.70
   1   3   5  113.49    2.60
   1   3   5  111.59    2.70
   1   3   5  114.19    2.50
   1   3   5  120.39    3.10
  -2  -3  -5    9.30    0.60
  -2  -3  -5   10.40    0.70
   2   3   5   10.90    0.80
  -3  -3  -5   27.20    0.90
  -3  -3  -5   26.00    1.10
  -3  -3  -5   27.40    1.40
   3   3   5   26.20    1.20
  -4  -3  -5   18.80    0.80
  -4  -3  -5   17.30    1.20
  -4  -3  -5   15.70    1.00
  -5  -3  -5    1.90    0.50
  -5  -3  -5    2.20    0.80
   7  -4  -5    0.00    0.50
   6  -4  -5   11.40    1.00
   6  -4  -5    9.80    1.00
  -6   4   5   10.10    1.00
  -6   4   5    9.40    0.90
  -6   4   5    8.90    0.90
   5  -4  -5    7.70    0.80
   5  -4  -5    7.60    0.70
  -5   4   5    7.30    0.80
  -5   4   5    7.30    0.80
  -5   4   5    8.40    0.80
  -5   4   5    7.80    0.80
   4  -4  -5   88.69    2.60
   4  -4  -5   89.39    2.60
  -4   4   5   89.39    2.70
  -4   4   5   87.49    2.60
   3  -4  -5  219.28    5.20
   3  -4  -5  226.08    5.10
  -3   4   5  222.58    5.40
   2  -4  -5   77.59    2.20
   2  -4  -5   81.19    2.10
   2  -4  -5   79.29    1.90
   2  -4  -5   78.79    2.20
  -2   4   5   78.49    2.30
   1  -4  -5  226.38    5.30
   1  -4  -5  226.98    4.90
   1  -4  -5  233.28    5.50
   1  -4  -5  226.38    5.20
   1  -4  -5  236.98    5.10
  -1   4   5  227.58    5.50
   0  -4  -5    3.50    0.40
   0  -4  -5    5.10    0.40
   0  -4  -5    4.40    0.40
   0  -4  -5    5.30    0.40
   0  -4  -5    4.90    0.40
   0   4   5    4.70    0.60
  -1  -4  -5  253.27    4.80
  -1  -4  -5  245.98    5.70
  -1  -4  -5  249.48    5.30
  -1  -4  -5  240.98    5.20
  -1  -4  -5  243.68    5.60
   1   4   5  245.28    5.40
   1   4   5  246.88    5.90
   1   4   5  243.28    5.20
  -2  -4  -5  102.19    3.00
  -2  -4  -5  114.49    2.40
  -2  -4  -5  112.59    2.90
   2   4   5  107.49    3.00
  -3  -4  -5    4.20    0.50
  -3  -4  -5    4.10    0.60
  -3  -4  -5    3.20    0.70
   3   4   5    2.80    0.50
  -4  -4  -5    0.60    0.60
  -4  -4  -5    0.40    0.40
  -4  -4  -5    0.20    0.40
  -5  -4  -5    7.30    0.70
   7  -5  -5    2.70    0.70
   6  -5  -5    0.60    0.50
   6  -5  -5    0.20    0.40
  -6   5   5    0.80    0.50
  -6   5   5    0.40    0.40
  -6   5   5    0.00    0.40
  -6   5   5    0.00    0.40
   5  -5  -5   16.00    1.00
   5  -5  -5   18.60    1.10
  -5   5   5   16.00    1.10
  -5   5   5   16.90    1.10
  -5   5   5   16.70    1.00
   4  -5  -5    5.30    0.60
   4  -5  -5    6.30    0.60
   4  -5  -5    6.20    0.70
  -4   5   5    5.30    0.70
  -4   5   5    7.20    0.70
   3  -5  -5  123.39    3.30
   3  -5  -5  129.89    3.20
   3  -5  -5  123.49    3.30
  -3   5   5  126.89    3.50
   2  -5  -5  194.08    4.80
   2  -5  -5  185.88    4.10
   2  -5  -5  193.28    4.70
   2  -5  -5  194.78    4.50
   2  -5  -5  192.08    4.60
   1  -5  -5  266.27    6.30
   1  -5  -5  274.57    6.50
   1  -5  -5  274.07    6.00
   1  -5  -5  271.17    5.70
   1  -5  -5  272.47    6.20
  -1   5   5  280.37    6.60
   0  -5  -5   51.69    1.60
   0  -5  -5   53.59    1.30
   0  -5  -5   52.29    1.60
   0  -5  -5   52.29    1.50
   0  -5  -5   52.49    1.60
   0   5   5   50.59    1.80
   0   5   5   51.69    1.50
  -1  -5  -5  211.98    5.10
  -1  -5  -5  211.98    4.20
  -1  -5  -5  214.18    4.70
  -1  -5  -5  205.18    4.90
  -1  -5  -5  214.38    4.60
  -1  -5  -5  212.68    5.20
   1   5   5  210.48    4.80
   1   5   5  210.98    5.30
  -2  -5  -5    0.00    0.30
  -2  -5  -5    0.70    0.40
  -2  -5  -5    0.10    0.50
   2   5   5    0.00    0.40
  -3  -5  -5   19.00    1.10
  -3  -5  -5   19.80    1.30
  -3  -5  -5   18.70    0.90
  -4  -5  -5   49.10    1.90
  -4  -5  -5   51.49    1.60
  -4  -5  -5   52.19    2.20
   7  -6  -5   20.30    1.40
   6  -6  -5    4.80    0.70
   6  -6  -5    5.90    0.80
  -6   6   5    3.60    0.70
  -6   6   5    4.00    0.70
  -6   6   5    3.90    0.70
   5  -6  -5   55.79    2.00
   5  -6  -5   56.29    2.10
   5  -6  -5   51.99    1.90
  -5   6   5   52.29    2.10
  -5   6   5   53.89    2.00
   4  -6  -5   17.50    1.00
   4  -6  -5   17.30    1.10
   4  -6  -5   17.00    1.00
  -4   6   5   18.30    1.20
   3  -6  -5   20.00    1.10
   3  -6  -5   19.80    0.80
   3  -6  -5   21.50    1.00
   3  -6  -5   20.50    1.10
   3  -6  -5   21.70    1.10
  -3   6   5   21.80    1.30
   2  -6  -5  163.38    4.20
   2  -6  -5  162.08    4.00
   2  -6  -5  162.08    4.10
   2  -6  -5  159.38    3.60
   2  -6  -5  162.38    3.90
   1  -6  -5   29.80    1.20
   1  -6  -5   29.00    1.20
   1  -6  -5   28.50    1.10
   1  -6  -5   28.80    1.10
  -1   6   5   29.20    1.40
   0  -6  -5    0.80    0.30
   0  -6  -5    0.80    0.30
   0  -6  -5    0.50    0.30
   0  -6  -5    0.60    0.20
   0   6   5    0.40    0.30
   0   6   5    1.00    0.50
  -1  -6  -5   32.10    1.10
  -1  -6  -5   32.10    1.30
  -1  -6  -5   32.20    1.30
  -1  -6  -5   31.30    1.40
  -1  -6  -5   33.60    1.10
   1   6   5   31.80    1.40
  -2  -6  -5   15.70    1.10
  -2  -6  -5   16.50    0.80
  -2  -6  -5   15.40    1.00
   2   6   5   13.10    1.00
  -3  -6  -5   22.20    1.20
  -3  -6  -5   22.50    1.40
  -3  -6  -5   21.30    1.00
  -4  -6  -5    6.30    0.70
  -4  -6  -5    6.10    0.80
  -4  -6  -5    6.40    1.00
   7  -7  -5    1.70    0.70
  -7   7   5    2.50    0.70
   6  -7  -5   21.60    1.40
  -6   7   5   20.00    1.40
  -6   7   5   19.80    1.40
   5  -7  -5   15.20    1.10
   5  -7  -5   13.30    1.00
   5  -7  -5   16.70    1.10
  -5   7   5   15.50    1.20
  -5   7   5   16.20    1.20
   4  -7  -5   29.60    1.50
   4  -7  -5   31.40    1.40
   4  -7  -5   33.10    1.40
   4  -7  -5   30.50    1.40
  -4   7   5   30.90    1.50
   3  -7  -5    6.40    0.70
   3  -7  -5    9.20    0.80
   3  -7  -5    6.70    0.70
   3  -7  -5    5.80    0.60
   3  -7  -5    7.40    0.50
  -3   7   5    6.40    0.80
   2  -7  -5  283.47    6.10
   2  -7  -5  292.07    7.00
   2  -7  -5  284.77    6.50
   2  -7  -5  285.57    6.80
  -2   7   5  288.07    7.00
   1  -7  -5   42.80    1.50
   1  -7  -5   42.40    1.50
   1  -7  -5   42.40    1.40
   1  -7  -5   43.30    1.60
  -1   7   5   44.00    1.70
  -1   7   5   42.90    1.50
   0  -7  -5    0.80    0.40
   0  -7  -5    0.40    0.30
   0  -7  -5    1.00    0.30
   0  -7  -5    0.50    0.30
   0   7   5    0.60    0.50
   0   7   5    0.40    0.30
  -1  -7  -5   20.00    1.20
  -1  -7  -5   19.80    1.10
  -1  -7  -5   18.40    1.10
   1   7   5   18.80    1.20
  -2  -7  -5   67.29    1.80
  -2  -7  -5   69.59    2.40
  -2  -7  -5   69.29    2.30
   2   7   5   68.19    2.30
  -3  -7  -5    0.00    0.50
  -3  -7  -5    0.00    0.50
  -3  -7  -5    0.00    0.50
  -4  -7  -5    0.10    0.50
   6  -8  -5    0.40    0.50
  -6   8   5    0.50    0.60
   5  -8  -5   10.40    1.00
   5  -8  -5   12.20    1.10
  -5   8   5   12.30    1.10
   4  -8  -5   59.39    2.20
   4  -8  -5   61.99    2.20
   4  -8  -5   56.79    2.00
   4  -8  -5   56.79    2.20
  -4   8   5   61.69    2.30
   3  -8  -5   48.60    1.90
   3  -8  -5   49.50    1.90
   3  -8  -5   46.80    1.50
   3  -8  -5   48.10    1.80
  -3   8   5   48.20    2.00
   2  -8  -5    3.00    0.50
   2  -8  -5    2.70    0.50
   2  -8  -5    2.60    0.40
   2  -8  -5    2.90    0.50
  -2   8   5    1.70    0.50
  -2   8   5    2.20    0.60
   1  -8  -5   36.00    1.50
   1  -8  -5   36.80    1.40
   1  -8  -5   37.60    1.40
   1  -8  -5   38.30    1.50
  -1   8   5   38.00    1.70
  -1   8   5   35.90    1.40
   0  -8  -5   55.09    1.80
   0  -8  -5   55.79    1.90
   0  -8  -5   55.09    1.90
   0  -8  -5   54.29    2.00
   0   8   5   57.79    2.20
   0   8   5   58.19    1.90
  -1  -8  -5   44.50    1.80
  -1  -8  -5   50.29    1.90
   1   8   5   46.70    1.90
  -2  -8  -5    1.10    0.60
  -2  -8  -5    0.70    0.50
   6  -9  -5   13.20    1.30
  -6   9   5   10.70    1.20
   5  -9  -5    0.30    0.50
  -5   9   5    0.30    0.60
   4  -9  -5    9.90    0.90
   4  -9  -5   10.80    1.00
   4  -9  -5   10.40    1.10
  -4   9   5   12.20    1.20
   3  -9  -5   12.00    0.90
   3  -9  -5   12.20    1.00
   3  -9  -5   11.60    0.70
   3  -9  -5   11.90    1.00
  -3   9   5   13.60    1.20
   2  -9  -5   72.39    2.50
   2  -9  -5   74.29    2.50
   2  -9  -5   74.39    2.10
   2  -9  -5   72.69    2.30
  -2   9   5   72.89    2.60
  -2   9   5   75.39    2.40
   1  -9  -5   37.60    1.60
   1  -9  -5   36.60    1.50
   1  -9  -5   35.30    1.40
   1  -9  -5   31.50    1.50
  -1   9   5   39.60    1.80
  -1   9   5   37.60    1.50
   0  -9  -5   46.90    1.80
   0  -9  -5   46.30    1.90
   0  -9  -5   46.80    1.70
   0   9   5   47.60    2.00
   0   9   5   46.40    1.80
  -1  -9  -5   16.20    1.20
  -1  -9  -5   16.30    1.20
   1   9   5   14.10    1.30
  -2  -9  -5   11.80    1.20
  -5  10   5    8.70    1.10
   4 -10  -5   11.60    0.70
  -4  10   5   13.50    1.30
   3 -10  -5    0.90    0.50
   3 -10  -5    1.00    0.40
   3 -10  -5    0.60    0.40
   3 -10  -5    0.00    0.30
  -3  10   5    0.20    0.50
  -3  10   5    0.10    0.60
   2 -10  -5   32.20    1.50
   2 -10  -5   30.20    1.60
   2 -10  -5   30.00    1.40
   2 -10  -5   30.50    1.30
  -2  10   5   33.10    1.70
  -2  10   5   29.40    1.50
   1 -10  -5   15.30    1.00
   1 -10  -5   13.80    1.00
   1 -10  -5   15.70    1.20
   1 -10  -5   12.30    1.00
  -1  10   5   16.20    1.30
  -1  10   5   15.50    1.10
   0 -10  -5   25.90    1.40
   0  10   5   26.20    1.60
  -1 -10  -5    0.30    0.60
  -5  11   5    8.30    1.10
  -4  11   5   53.99    2.40
  -4  11   5   55.79    2.30
   3 -11  -5   40.00    1.50
  -3  11   5   43.20    2.10
  -3  11   5   43.20    1.90
   2 -11  -5    0.80    0.40
   2 -11  -5    1.00    0.50
  -2  11   5    0.00    0.60
  -2  11   5    0.40    0.50
   1 -11  -5   34.10    1.60
   1 -11  -5   36.30    1.60
  -1  11   5   36.90    1.90
  -1  11   5   34.70    1.70
   0  11   5    0.60    0.70
  -3  12   5   23.10    1.80
  -3  12   5   25.30    1.60
  -2  12   5    3.70    0.80
  -2  12   5    4.00    0.90
  -1  12   5    0.20    0.70
   0  13  -6    0.00    0.80
   0 -13   6    0.00    0.40
  -1  13  -6    1.00    0.90
  -2  13  -6    0.00    0.80
  -2  13  -6    0.70    0.40
   2 -13   6    0.40    0.50
  -3  13  -6    0.80    0.50
  -3  13  -6    0.00    0.70
   3 -13   6    0.70    0.50
   1  12  -6   10.70    1.30
   0  12  -6    1.80    0.80
   0 -12   6    1.60    0.60
   0 -12   6    1.10    0.50
  -1  12  -6    5.80    1.00
  -1  12  -6    8.20    0.80
   1 -12   6    6.40    0.70
   1 -12   6    7.30    0.80
  -2  12  -6   23.80    1.60
   2 -12   6   25.80    1.20
   2 -12   6   26.80    1.40
  -3  12  -6    1.70    0.70
   3 -12   6    2.20    0.40
   3 -12   6    2.80    0.70
  -4  12  -6    6.70    1.00
   4 -12   6    6.00    0.90
   4 -12   6    5.40    0.40
   2  11  -6    2.40    0.80
   1  11  -6    8.20    1.10
  -1 -11   6    7.30    0.90
  -1 -11   6    7.60    0.80
   0  11  -6   18.50    1.40
   0 -11   6   19.20    1.10
   0 -11   6   18.70    1.30
   0 -11   6   18.40    1.10
  -1  11  -6   41.70    1.90
   1 -11   6   42.70    1.90
   1 -11   6   39.50    1.70
   1 -11   6   42.10    1.70
   1 -11   6   38.40    1.50
  -2  11  -6    5.00    0.90
   2 -11   6    4.30    0.60
   2 -11   6    5.20    0.70
   2 -11   6    4.90    0.70
   2 -11   6    5.10    0.50
  -3  11  -6    7.90    1.00
   3 -11   6    8.10    0.60
   3 -11   6    9.30    1.00
   3 -11   6    9.10    0.80
   3 -11   6    8.30    0.90
  -4  11  -6   11.80    1.10
  -4  11  -6   11.60    1.10
   4 -11   6    9.80    0.90
   4 -11   6   11.40    0.50
   4 -11   6   11.30    1.00
   4 -11   6   11.20    1.10
  -5  11  -6    0.20    0.50
  -5  11  -6    0.00    0.60
   5 -11   6    0.40    0.50
   3  10  -6   16.40    1.50
   2  10  -6   12.10    1.20
  -2 -10   6   10.50    1.10
  -2 -10   6    9.60    1.00
   1  10  -6   18.00    1.40
  -1 -10   6   18.50    1.30
  -1 -10   6   17.20    1.10
  -1 -10   6   18.80    1.20
  -1 -10   6   17.80    1.10
   0 -10   6   21.90    1.10
   0 -10   6   23.40    1.30
   0 -10   6   22.50    1.20
   0 -10   6   23.20    1.20
   0 -10   6   21.30    1.10
  -1  10  -6   62.89    2.20
   1 -10   6   60.69    2.10
   1 -10   6   57.59    1.90
   1 -10   6   57.39    1.80
   1 -10   6   57.49    2.20
   1 -10   6   61.89    2.10
  -2  10  -6   78.39    2.60
   2 -10   6   77.89    2.60
   2 -10   6   76.39    2.10
   2 -10   6   78.49    2.40
   2 -10   6   77.49    2.70
  -3  10  -6    3.50    0.70
   3 -10   6    3.90    0.60
   3 -10   6    4.40    0.70
   3 -10   6    4.40    0.60
   3 -10   6    4.30    0.40
  -4  10  -6   29.80    1.50
  -4  10  -6   29.50    1.40
   4 -10   6   29.10    0.80
   4 -10   6   30.90    1.50
   4 -10   6   28.30    1.30
   4 -10   6   32.00    1.60
  -5  10  -6    2.40    0.60
   5 -10   6    2.90    0.60
   5 -10   6    2.30    0.70
   4   9  -6    1.30    0.70
   3   9  -6    2.20    0.70
  -3  -9   6    2.30    0.70
  -3  -9   6    1.90    0.70
   2   9  -6    0.10    0.60
  -2  -9   6    0.00    0.40
  -2  -9   6    0.00    0.40
  -2  -9   6    0.00    0.50
   1   9  -6   15.30    1.20
  -1  -9   6   15.00    1.10
  -1  -9   6   15.10    1.00
  -1  -9   6   13.80    1.00
  -1  -9   6   15.40    0.90
   0   9  -6    0.00    0.50
   0  -9   6    0.30    0.40
   0  -9   6    0.30    0.30
   0  -9   6    0.80    0.40
   0  -9   6    0.60    0.30
   0  -9   6    0.30    0.40
  -1   9  -6   82.59    2.60
   1  -9   6   82.79    2.50
   1  -9   6   78.39    2.60
   1  -9   6   81.39    2.50
   1  -9   6   83.59    2.30
   1  -9   6   82.49    2.20
  -2   9  -6  357.26    8.30
   2  -9   6  354.46    8.60
   2  -9   6  366.86    7.50
   2  -9   6  358.56    8.80
   2  -9   6  360.16    8.00
  -3   9  -6    3.20    0.60
  -3   9  -6    3.70    0.60
   3  -9   6    2.60    0.50
   3  -9   6    2.60    0.40
   3  -9   6    3.00    0.50
   3  -9   6    3.40    0.40
  -4   9  -6   14.90    1.10
  -4   9  -6   16.00    1.00
   4  -9   6   17.70    1.20
   4  -9   6   17.10    1.00
   4  -9   6   17.60    1.10
  -5   9  -6   19.50    1.20
   5  -9   6   18.00    1.30
  -6   9  -6    4.70    0.70
   6  -9   6    4.40    0.80
   4   8  -6   34.70    1.80
   3   8  -6   17.70    1.30
  -3  -8   6   16.70    1.30
  -3  -8   6   16.40    1.20
  -3  -8   6   16.30    1.20
   2   8  -6   48.20    1.90
  -2  -8   6   46.20    1.80
  -2  -8   6   45.90    1.80
  -2  -8   6   46.00    1.90
   1   8  -6    0.50    0.60
  -1  -8   6    1.20    0.50
  -1  -8   6    0.70    0.40
  -1  -8   6    0.90    0.30
  -1  -8   6    0.90    0.40
  -1  -8   6    0.70    0.30
   0   8  -6   50.39    1.90
   0  -8   6   52.89    1.80
   0  -8   6   49.50    1.90
   0  -8   6   52.49    1.70
   0  -8   6   50.59    1.70
   0  -8   6   49.40    1.60
  -1   8  -6   52.49    1.90
   1  -8   6   50.39    1.90
   1  -8   6   53.39    1.60
   1  -8   6   52.69    1.60
   1  -8   6   52.39    1.70
   1  -8   6   51.49    1.80
  -2   8  -6  159.08    4.10
  -2   8  -6  162.38    4.00
   2  -8   6  162.68    4.30
   2  -8   6  158.38    3.60
   2  -8   6  159.48    3.90
   2  -8   6  161.48    4.30
  -3   8  -6    2.80    0.60
  -3   8  -6    2.90    0.60
   3  -8   6    2.90    0.50
   3  -8   6    3.10    0.30
   3  -8   6    3.80    0.60
   3  -8   6    2.90    0.40
  -4   8  -6   11.20    0.80
  -4   8  -6   10.00    0.90
   4  -8   6   10.40    0.70
   4  -8   6    9.30    0.90
   4  -8   6   11.10    0.90
  -5   8  -6   13.40    1.00
   5  -8   6   12.80    1.10
  -6   8  -6   21.20    1.30
   6  -8   6   20.00    1.40
   5   7  -6    2.40    0.70
  -5  -7   6    1.10    0.60
   4   7  -6   39.80    1.80
  -4  -7   6   36.40    1.80
  -4  -7   6   39.70    1.70
  -4  -7   6   37.90    1.90
   3   7  -6    4.30    0.80
  -3  -7   6    3.50    0.60
  -3  -7   6    2.20    0.60
  -3  -7   6    3.40    0.70
  -3  -7   6    1.70    0.60
   2   7  -6  195.28    4.90
  -2  -7   6  192.88    4.70
  -2  -7   6  198.78    5.20
  -2  -7   6  198.28    4.80
   1   7  -6    5.50    0.80
  -1  -7   6    4.90    0.60
  -1  -7   6    4.90    0.50
  -1  -7   6    5.20    0.70
  -1  -7   6    4.40    0.40
  -1  -7   6    4.40    0.50
  -1  -7   6    6.10    0.70
   0   7  -6   32.70    1.40
   0  -7   6   34.50    1.20
   0  -7   6   31.80    1.20
   0  -7   6   31.30    1.40
   0  -7   6   32.10    1.30
   0  -7   6   33.00    1.20
  -1   7  -6   52.39    1.80
   1  -7   6   53.89    1.80
   1  -7   6   53.59    1.60
   1  -7   6   53.89    1.70
   1  -7   6   52.19    1.50
   1  -7   6   52.79    1.80
  -2   7  -6   33.20    1.40
  -2   7  -6   38.40    1.40
   2  -7   6   36.00    1.10
   2  -7   6   36.40    1.30
   2  -7   6   36.90    1.50
   2  -7   6   34.40    1.40
  -3   7  -6  158.48    3.90
  -3   7  -6  162.68    4.00
   3  -7   6  162.08    3.80
   3  -7   6  163.08    4.30
   3  -7   6  156.28    4.20
   3  -7   6  157.78    3.40
  -4   7  -6   27.40    1.30
  -4   7  -6   27.20    1.20
   4  -7   6   27.50    1.30
   4  -7   6   28.10    1.40
  -5   7  -6    1.50    0.50
   5  -7   6    1.70    0.50
  -6   7  -6   29.30    1.50
   6  -7   6   29.40    1.60
   5   6  -6    8.20    1.00
  -5  -6   6    7.40    0.90
  -5  -6   6    5.70    0.90
   4   6  -6  123.89    3.50
  -4  -6   6  118.39    3.40
  -4  -6   6  118.09    3.40
  -4  -6   6  116.29    3.70
  -4  -6   6  118.09    3.50
   3   6  -6    8.60    0.90
  -3  -6   6    8.00    0.80
  -3  -6   6    7.90    0.90
  -3  -6   6    9.20    0.90
   2   6  -6  128.09    3.50
  -2  -6   6  125.99    3.20
  -2  -6   6  128.79    3.50
  -2  -6   6  131.59    3.40
  -2  -6   6  133.19    3.70
   1   6  -6    0.00    0.50
  -1  -6   6    0.00    0.30
  -1  -6   6    0.10    0.20
  -1  -6   6    0.10    0.20
  -1  -6   6    0.30    0.30
   0   6  -6   13.80    0.90
   0  -6   6   15.20    0.80
   0  -6   6   14.80    0.90
   0  -6   6   16.00    0.80
   0  -6   6   16.00    0.80
   0  -6   6   14.10    0.70
  -1   6  -6   32.60    1.20
  -1   6  -6   29.40    1.20
   1  -6   6   27.80    1.10
   1  -6   6   28.60    1.20
   1  -6   6   29.70    1.20
   1  -6   6   28.40    1.00
  -2   6  -6  136.19    3.40
   2  -6   6  136.29    3.60
   2  -6   6  134.09    3.60
   2  -6   6  136.19    3.30
  -3   6  -6  183.58    4.30
  -3   6  -6  172.98    4.30
   3  -6   6  189.58    4.80
   3  -6   6  180.58    3.80
   3  -6   6  183.38    4.20
   3  -6   6  184.88    4.60
  -4   6  -6    9.60    0.70
   4  -6   6   10.70    0.90
   4  -6   6   12.30    0.80
  -5   6  -6    0.90    0.40
   5  -6   6    1.00    0.50
  -6   6  -6    0.50    0.50
   6  -6   6    0.50    0.50
   5   5  -6    3.60    0.70
  -5  -5   6    1.50    0.70
   4   5  -6    8.10    0.90
  -4  -5   6    5.60    0.70
  -4  -5   6    6.00    0.80
  -4  -5   6    6.20    0.90
   3   5  -6  104.69    3.00
  -3  -5   6  100.19    2.90
  -3  -5   6  102.09    3.10
  -3  -5   6  105.59    2.90
   2   5  -6   23.00    1.20
   2   5  -6   22.50    0.70
  -2  -5   6   19.60    1.20
  -2  -5   6   22.40    0.80
  -2  -5   6   22.90    1.00
  -2  -5   6   21.70    1.00
  -2  -5   6   22.70    1.10
   1   5  -6   23.90    1.10
  -1  -5   6   25.10    0.90
  -1  -5   6   26.60    1.10
  -1  -5   6   25.50    1.00
  -1  -5   6   22.30    1.20
  -1  -5   6   26.80    1.00
   0   5  -6  404.66    8.80
   0  -5   6  403.76    9.10
   0  -5   6  355.46    8.60
   0  -5   6  413.66    9.30
   0  -5   6  410.76    8.50
   0  -5   6  400.86    8.10
  -1   5  -6   27.40    1.00
  -1   5  -6   26.20    0.80
  -1   5  -6   25.30    1.00
   1  -5   6   25.70    0.90
   1  -5   6   27.60    1.00
   1  -5   6   27.50    1.10
   1  -5   6   26.10    0.70
   1  -5   6   26.00    1.10
   1  -5   6   25.80    0.80
  -2   5  -6    6.50    0.60
  -2   5  -6    6.60    0.50
   2  -5   6    6.30    0.40
   2  -5   6    6.60    0.50
   2  -5   6    7.00    0.50
  -3   5  -6  136.19    3.40
  -3   5  -6  134.09    3.30
   3  -5   6  137.39    3.50
   3  -5   6  134.29    3.70
   3  -5   6  138.19    3.20
   3  -5   6  136.59    2.90
  -4   5  -6   11.00    0.80
   4  -5   6   12.10    0.90
  -5   5  -6    0.50    0.40
   5  -5   6    0.70    0.40
  -6   5  -6    1.80    0.60
   6  -5   6    2.10    0.60
   6   4  -6    1.90    0.70
   5   4  -6    7.20    0.90
  -5  -4   6    6.40    0.90
  -5  -4   6    5.60    0.80
  -5  -4   6    7.20    0.90
   4   4  -6    6.00    0.80
  -4  -4   6    5.40    0.80
  -4  -4   6    5.90    0.80
  -4  -4   6    6.20    0.70
   3   4  -6   46.80    1.70
  -3  -4   6   50.89    1.90
  -3  -4   6   51.89    1.80
  -3  -4   6   49.90    1.80
   2   4  -6    5.10    0.60
   2   4  -6    6.20    0.40
  -2  -4   6    6.40    0.60
  -2  -4   6    6.50    0.40
  -2  -4   6    6.40    0.60
  -2  -4   6    6.30    0.60
   1   4  -6   62.09    1.90
   1   4  -6   64.19    1.40
  -1  -4   6   65.69    1.80
  -1  -4   6   60.79    2.00
  -1  -4   6   65.39    1.80
  -1  -4   6   64.59    1.80
   0   4  -6  113.69    2.90
   0  -4   6  112.19    2.80
   0  -4   6  116.39    3.00
   0  -4   6  118.69    3.10
   0  -4   6  112.29    2.70
  -1   4  -6   73.29    1.70
  -1   4  -6   74.99    2.00
  -1   4  -6   75.19    2.00
   1  -4   6   77.19    1.90
   1  -4   6   72.39    2.10
   1  -4   6   72.89    1.70
   1  -4   6   71.79    1.70
   1  -4   6   73.79    1.80
   1  -4   6   76.09    2.10
  -2   4  -6   10.70    0.60
  -2   4  -6    9.60    0.60
   2  -4   6    9.50    0.50
   2  -4   6   10.30    0.60
   2  -4   6    9.60    0.50
  -3   4  -6   16.80    0.70
  -3   4  -6   17.50    0.80
  -3   4  -6   17.50    0.90
   3  -4   6   17.40    1.00
   3  -4   6   17.30    0.80
   3  -4   6   15.90    0.60
  -4   4  -6    6.20    0.60
  -4   4  -6    4.60    0.60
   4  -4   6    5.50    0.70
  -5   4  -6   33.30    1.50
   5  -4   6   32.90    1.50
  -6   4  -6    0.00    0.40
   6  -4   6    0.20    0.40
   6   3  -6   10.80    1.10
  -6  -3   6    8.40    1.10
   5   3  -6    0.70    0.50
  -5  -3   6    1.00    0.50
  -5  -3   6    0.10    0.50
  -5  -3   6    0.00    0.50
   4   3  -6    5.90    0.70
  -4  -3   6    4.90    0.70
  -4  -3   6    5.80    0.70
  -4  -3   6    6.00    0.70
   3   3  -6    1.00    0.40
  -3  -3   6    0.90    0.40
  -3  -3   6    1.30    0.50
   2   3  -6    0.50    0.20
   2   3  -6    0.30    0.40
  -2  -3   6    0.60    0.20
  -2  -3   6    0.20    0.30
  -2  -3   6    0.90    0.30
   1   3  -6  127.09    2.60
   1   3  -6  126.89    3.20
  -1  -3   6  132.09    3.10
  -1  -3   6  132.09    3.20
  -1  -3   6  127.29    3.40
  -1  -3   6  128.39    3.10
   0   3  -6  134.99    3.30
   0   3  -6  133.69    3.20
   0   3  -6  141.79    3.20
   0  -3   6  145.69    3.60
   0  -3   6  143.79    3.50
   0  -3   6  142.99    3.20
   0  -3   6  141.89    3.20
   0  -3   6  140.89    3.20
  -1   3  -6    1.00    0.20
  -1   3  -6    0.50    0.20
  -1   3  -6    0.80    0.30
   1  -3   6    1.00    0.30
   1  -3   6    0.60    0.20
   1  -3   6    0.80    0.20
  -2   3  -6    0.10    0.20
  -2   3  -6    0.00    0.20
  -2   3  -6    0.70    0.20
  -2   3  -6    0.40    0.20
   2  -3   6    0.20    0.20
   2  -3   6    0.50    0.20
   2  -3   6    0.20    0.10
   2  -3   6    0.30    0.10
  -3   3  -6    4.10    0.50
  -3   3  -6    5.90    0.50
   3  -3   6    4.20    0.50
   3  -3   6    4.00    0.30
  -4   3  -6    0.00    0.20
  -4   3  -6    0.00    0.40
   4  -3   6    0.00    0.10
   4  -3   6    0.10    0.30
  -5   3  -6   81.59    2.50
  -5   3  -6   80.69    2.50
   5  -3   6   81.49    2.60
  -6   3  -6    0.50    0.40
   6  -3   6    0.30    0.40
   6   2  -6    2.90    0.70
  -6  -2   6    1.80    0.70
   5   2  -6    5.20    0.70
  -5  -2   6    5.10    0.80
  -5  -2   6    5.20    0.70
  -5  -2   6    6.20    0.80
   4   2  -6    1.70    0.50
  -4  -2   6    1.50    0.50
  -4  -2   6    0.90    0.50
  -4  -2   6    1.90    0.50
   3   2  -6   82.59    2.30
  -3  -2   6   80.79    2.10
  -3  -2   6   81.29    2.30
   2   2  -6   76.99    2.10
   2   2  -6   76.79    1.50
  -2  -2   6   77.09    2.10
  -2  -2   6   78.69    2.10
  -2  -2   6   77.99    2.30
  -2  -2   6   79.49    2.10
   1   2  -6  119.89    2.40
   1   2  -6  119.59    2.90
  -1  -2   6  102.09    2.80
  -1  -2   6  121.79    2.80
  -1  -2   6  126.19    3.10
  -1  -2   6  125.19    3.00
   0   2  -6    1.30    0.20
   0   2  -6    1.00    0.30
   0   2  -6    1.30    0.20
   0  -2   6    1.40    0.20
   0  -2   6    1.40    0.30
   0  -2   6    1.40    0.20
   0  -2   6    1.10    0.30
   0  -2   6    0.90    0.30
  -1   2  -6   28.00    0.90
  -1   2  -6   25.20    0.80
  -1   2  -6   26.30    0.80
   1  -2   6   26.90    0.80
   1  -2   6   25.70    0.90
  -2   2  -6   10.50    0.60
  -2   2  -6   10.50    0.40
  -2   2  -6   10.00    0.50
  -2   2  -6   11.80    0.60
  -2   2  -6   10.90    0.60
  -2   2  -6   10.70    0.40
   2  -2   6   10.60    0.40
   2  -2   6   10.70    0.50
   2  -2   6   10.90    0.50
   2  -2   6   10.70    0.70
  -3   2  -6   22.40    1.00
  -3   2  -6   25.10    1.00
   3  -2   6   23.40    0.80
   3  -2   6   23.70    1.10
  -4   2  -6    0.30    0.40
  -4   2  -6    0.30    0.30
   4  -2   6    0.00    0.30
  -5   2  -6    0.80    0.50
   5  -2   6    0.40    0.40
  -6   2  -6   10.00    1.00
   6   1  -6    7.50    0.90
  -6  -1   6    4.90    0.80
  -6  -1   6    6.10    0.90
   5   1  -6    7.10    0.80
  -5  -1   6    7.40    0.80
  -5  -1   6    8.60    0.80
  -5  -1   6    7.00    0.80
  -4  -1   6   15.60    1.00
  -4  -1   6   14.60    0.90
  -4  -1   6   15.30    1.10
   3   1  -6   19.30    1.00
  -3  -1   6   21.40    1.00
  -3  -1   6   20.00    0.90
   2   1  -6  116.89    3.00
  -2  -1   6  128.29    3.20
  -2  -1   6  123.09    3.30
  -2  -1   6  121.99    3.10
  -2  -1   6  124.29    3.00
  -2  -1   6  125.89    3.10
   1   1  -6  376.36    8.40
   1   1  -6  379.66    7.10
   1   1  -6  376.96    8.30
  -1  -1   6  389.16    8.10
  -1  -1   6  398.96    8.80
  -1  -1   6  388.36    8.70
   0   1  -6   15.40    0.60
   0   1  -6   14.90    0.50
   0   1  -6   14.70    0.60
   0   1  -6   15.30    0.50
   0  -1   6   14.90    0.50
   0  -1   6   15.90    0.70
   0  -1   6   15.80    0.80
   0  -1   6   14.70    0.50
  -1   1  -6    0.90    0.20
  -1   1  -6    0.90    0.20
  -1   1  -6    0.50    0.20
  -1   1  -6    0.90    0.10
  -1   1  -6    0.80    0.20
  -1   1  -6    1.10    0.20
   1  -1   6    0.60    0.30
   1  -1   6    0.50    0.10
   1  -1   6    0.60    0.20
   1  -1   6    0.30    0.20
   1  -1   6    0.70    0.20
  -2   1  -6  171.48    4.10
  -2   1  -6  167.38    3.90
  -2   1  -6  174.58    3.90
  -2   1  -6  174.88    3.70
  -2   1  -6  165.48    3.70
   2  -1   6  170.78    3.90
   2  -1   6  172.08    3.70
   2  -1   6  174.08    4.30
   2  -1   6  167.98    3.70
  -3   1  -6    0.50    0.40
   3  -1   6    0.50    0.30
  -4   1  -6    0.10    0.40
   4  -1   6    0.20    0.30
  -5   1  -6    0.60    0.50
   5  -1   6    0.80    0.40
  -6   1  -6   11.90    1.20
   7   0  -6    1.70    0.70
   6   0  -6   10.40    1.00
  -6   0   6   11.30    1.00
  -6   0   6    9.00    1.00
  -6   0   6    8.90    0.90
   5   0  -6   42.90    1.70
  -5   0   6   40.10    1.70
  -5   0   6   41.10    1.60
  -5   0   6   39.00    1.80
   4   0  -6   78.09    2.30
  -4   0   6   76.89    2.40
  -4   0   6   75.59    2.20
  -4   0   6   74.79    2.10
  -4   0   6   73.59    2.40
  -4   0   6   75.29    2.30
   3   0  -6    0.00    0.30
   3   0  -6    0.00    0.30
  -3   0   6    0.00    0.30
  -3   0   6    0.00    0.30
  -3   0   6    0.00    0.30
  -3   0   6    0.00    0.30
   2   0  -6    0.70    0.30
   2   0  -6    0.60    0.30
  -2   0   6    0.40    0.20
  -2   0   6    0.50    0.30
  -2   0   6    0.40    0.30
  -2   0   6    0.70    0.30
  -2   0   6    0.40    0.30
   1   0  -6   17.50    0.60
   1   0  -6   17.10    0.70
   1   0  -6   17.80    0.70
   1   0  -6   17.60    0.60
  -1   0   6   18.60    0.80
  -1   0   6   17.70    0.70
  -1   0   6   19.20    0.70
  -1   0   6   16.30    0.70
  -1   0   6   18.50    0.90
   0   0  -6  311.27    6.70
   0   0  -6  306.87    5.70
   0   0  -6  300.17    6.60
   0   0  -6  311.87    6.30
   0   0   6  315.87    6.90
   0   0   6  312.67    6.40
   0   0   6  299.37    6.40
   0   0   6  304.17    6.70
   0   0   6  308.77    7.10
  -1   0  -6   85.29    1.80
  -1   0  -6   86.49    2.10
  -1   0  -6   88.19    2.00
  -1   0  -6   84.99    2.30
  -1   0  -6   84.79    2.10
  -1   0  -6   84.49    1.90
   1   0   6   84.09    2.00
   1   0   6   85.59    2.40
   1   0   6   87.59    2.10
   1   0   6   85.89    1.90
   1   0   6   84.09    1.90
   1   0   6   85.29    2.10
  -2   0  -6  458.05    9.30
  -2   0  -6  460.35   10.30
  -2   0  -6  463.45    9.90
  -2   0  -6  467.15    8.50
   2   0   6  450.05    9.90
   2   0   6  464.85    9.40
   2   0   6  465.55   10.50
  -3   0  -6   10.70    0.50
  -3   0  -6    9.60    0.80
   3   0   6   12.90    0.80
  -4   0  -6   58.39    2.00
  -4   0  -6   56.09    1.40
   4   0   6   57.29    1.90
  -5   0  -6   12.90    1.10
  -5   0  -6   13.20    0.60
  -6   0  -6    1.20    0.70
   7  -1  -6   22.10    1.50
   6  -1  -6   12.20    1.10
  -6   1   6   14.20    1.20
  -6   1   6   12.50    1.00
  -6   1   6   12.00    1.10
   5  -1  -6    2.40    0.50
  -5   1   6    2.20    0.60
  -5   1   6    3.20    0.60
  -5   1   6    2.30    0.50
   4  -1  -6    9.60    0.80
   4  -1  -6    9.40    0.80
  -4   1   6    9.80    0.80
  -4   1   6   10.60    0.80
  -4   1   6   10.60    0.90
  -4   1   6    9.80    0.70
   3  -1  -6    4.80    0.50
   3  -1  -6    4.70    0.50
  -3   1   6    3.70    0.40
  -3   1   6    5.50    0.50
  -3   1   6    3.80    0.50
   2  -1  -6   93.29    2.50
   2  -1  -6   97.49    2.60
  -2   1   6  103.29    2.70
  -2   1   6  103.49    2.70
  -2   1   6   97.89    2.70
   1  -1  -6   67.19    1.40
   1  -1  -6   67.29    1.80
   1  -1  -6   66.69    1.80
   1  -1  -6   66.59    1.50
  -1   1   6   67.19    1.90
  -1   1   6   71.09    2.00
  -1   1   6   70.89    1.90
   0  -1  -6    3.30    0.30
   0  -1  -6    3.40    0.30
   0  -1  -6    3.00    0.30
   0  -1  -6    3.50    0.40
   0   1   6    3.10    0.30
   0   1   6    3.40    0.30
  -1  -1  -6   11.30    0.60
  -1  -1  -6   11.10    0.50
  -1  -1  -6   11.60    0.70
  -1  -1  -6   10.60    0.40
  -1  -1  -6   10.90    0.50
   1   1   6   10.60    0.40
   1   1   6   10.90    0.50
   1   1   6   11.00    0.40
   1   1   6   11.20    0.40
   1   1   6   11.10    0.60
   1   1   6   11.80    0.70
  -2  -1  -6   29.90    1.00
  -2  -1  -6   32.40    0.90
  -2  -1  -6   31.60    1.30
   2   1   6   31.60    1.30
  -3  -1  -6  263.07    5.10
  -3  -1  -6  270.87    6.40
  -3  -1  -6  264.57    6.00
   3   1   6  270.27    6.50
  -4  -1  -6   99.79    3.00
  -4  -1  -6   95.59    2.20
   4   1   6   97.59    2.90
  -5  -1  -6   10.50    0.70
  -5  -1  -6   10.70    1.10
   7  -2  -6    1.50    0.70
   6  -2  -6    0.20    0.50
  -6   2   6    0.90    0.60
  -6   2   6    1.50    0.50
  -6   2   6    1.50    0.60
   5  -2  -6    5.80    0.70
   5  -2  -6    5.70    0.70
  -5   2   6    7.30    0.80
  -5   2   6    6.30    0.80
  -5   2   6    6.70    0.70
  -5   2   6    6.70    0.80
   4  -2  -6   54.79    1.80
   4  -2  -6   53.19    1.90
  -4   2   6   55.29    1.90
  -4   2   6   53.19    1.80
  -4   2   6   54.49    1.90
  -4   2   6   54.59    1.80
   3  -2  -6    8.20    0.60
   3  -2  -6    7.90    0.70
  -3   2   6    7.70    0.80
  -3   2   6    7.90    0.70
  -3   2   6    8.50    0.70
  -3   2   6    8.90    0.70
   2  -2  -6 1437.16   31.10
   2  -2  -6 1428.56   30.50
  -2   2   6 1402.86   32.10
  -2   2   6 1430.26   31.40
  -2   2   6 1472.05   32.70
   1  -2  -6  118.39    2.90
   1  -2  -6  115.69    2.30
   1  -2  -6  119.99    2.80
   1  -2  -6  117.69    2.90
   1  -2  -6  119.19    2.50
  -1   2   6  122.99    3.20
  -1   2   6  121.59    3.00
   0  -2  -6  224.98    5.10
   0  -2  -6  223.98    5.00
   0  -2  -6  224.88    4.30
   0  -2  -6  232.08    4.80
   0   2   6  216.68    4.80
   0   2   6  236.68    5.50
  -1  -2  -6   23.30    0.90
  -1  -2  -6   22.50    0.80
  -1  -2  -6   21.90    1.00
  -1  -2  -6   23.50    0.80
   1   2   6   24.20    1.10
   1   2   6   22.00    0.60
   1   2   6   23.70    0.70
   1   2   6   22.60    0.70
   1   2   6   22.00    0.70
  -2  -2  -6    2.00    0.40
  -2  -2  -6    2.60    0.50
  -2  -2  -6    1.50    0.30
   2   2   6    1.60    0.40
  -3  -2  -6   46.00    1.80
  -3  -2  -6   43.90    1.30
  -3  -2  -6   45.30    1.50
   3   2   6   46.00    1.70
  -4  -2  -6   28.20    1.50
  -4  -2  -6   30.30    1.00
   4   2   6   30.10    1.30
  -5  -2  -6    0.50    0.40
  -5  -2  -6    0.10    0.60
   7  -3  -6    0.30    0.60
   6  -3  -6    0.50    0.50
   6  -3  -6    0.00    0.50
  -6   3   6    0.10    0.50
  -6   3   6    0.30    0.50
  -6   3   6    0.50    0.50
   5  -3  -6    3.50    0.60
   5  -3  -6    3.40    0.60
  -5   3   6    4.20    0.70
  -5   3   6    3.50    0.60
  -5   3   6    4.30    0.70
  -5   3   6    3.70    0.60
   4  -3  -6    1.70    0.40
   4  -3  -6    1.90    0.50
  -4   3   6    2.20    0.50
  -4   3   6    4.50    0.60
  -4   3   6    1.00    0.50
  -4   3   6    1.60    0.50
   3  -3  -6  210.98    5.10
   3  -3  -6  209.08    5.00
  -3   3   6  217.08    5.30
  -3   3   6  211.48    5.20
  -3   3   6  211.08    5.30
   2  -3  -6  161.18    4.00
   2  -3  -6  166.18    4.00
  -2   3   6  165.68    4.20
   1  -3  -6  315.77    6.60
   1  -3  -6  297.87    6.20
   1  -3  -6  310.47    6.80
   1  -3  -6  299.47    5.70
   1  -3  -6  311.97    6.40
   1  -3  -6  309.77    7.00
   0  -3  -6  254.77    5.50
   0  -3  -6  258.77    5.70
   0  -3  -6  255.67    5.90
   0  -3  -6  265.47    5.50
   0  -3  -6  253.77    4.90
   0   3   6  258.37    6.20
  -1  -3  -6   59.89    1.70
  -1  -3  -6   59.69    1.50
  -1  -3  -6   60.19    1.70
  -1  -3  -6   59.99    1.40
   1   3   6   60.19    1.50
   1   3   6   64.09    2.00
  -2  -3  -6    1.10    0.40
  -2  -3  -6    1.20    0.50
  -2  -3  -6    0.90    0.30
   2   3   6    0.60    0.40
  -3  -3  -6  474.15   11.00
  -3  -3  -6  476.75   10.60
  -3  -3  -6  482.45    9.00
   3   3   6  479.55   11.00
  -4  -3  -6    5.30    0.80
  -4  -3  -6    5.40    0.60
  -5  -3  -6    0.70    0.70
  -5  -3  -6    0.00    0.40
   7  -4  -6    0.30    0.60
   6  -4  -6   17.40    1.20
   6  -4  -6   17.60    1.20
  -6   4   6   17.60    1.30
  -6   4   6   17.30    1.30
  -6   4   6   19.10    1.30
   5  -4  -6    1.30    0.50
   5  -4  -6    0.60    0.40
  -5   4   6    0.80    0.40
  -5   4   6    1.20    0.40
  -5   4   6    0.90    0.50
  -5   4   6    0.00    0.50
   4  -4  -6  142.99    3.70
   4  -4  -6  142.09    3.80
  -4   4   6  137.19    3.80
  -4   4   6  135.59    3.90
  -4   4   6  142.59    3.90
   3  -4  -6    7.00    0.70
   3  -4  -6    5.10    0.60
  -3   4   6    5.50    0.60
  -3   4   6    5.20    0.70
   2  -4  -6   18.30    0.90
   2  -4  -6   16.10    0.80
   2  -4  -6   17.20    0.80
   2  -4  -6   17.90    0.90
  -2   4   6   17.30    1.00
   1  -4  -6  101.09    2.70
   1  -4  -6   98.49    2.50
   1  -4  -6  102.49    2.60
   1  -4  -6   97.29    2.40
   0  -4  -6  301.57    5.70
   0  -4  -6  299.67    6.40
   0  -4  -6  303.77    6.50
   0  -4  -6  303.97    6.90
   0   4   6  306.27    7.30
  -1  -4  -6    0.20    0.40
  -1  -4  -6    0.20    0.30
  -1  -4  -6    0.60    0.30
  -1  -4  -6    0.70    0.20
  -1  -4  -6    1.00    0.30
   1   4   6    0.20    0.40
  -2  -4  -6   14.90    0.80
  -2  -4  -6   15.20    0.80
  -2  -4  -6   14.00    1.00
   2   4   6   14.30    1.00
  -3  -4  -6   22.00    1.10
  -3  -4  -6   21.00    0.90
  -3  -4  -6   20.30    1.30
   3   4   6   21.20    1.20
  -4  -4  -6   14.90    0.90
  -4  -4  -6   14.90    1.30
  -5  -4  -6   23.70    1.20
   7  -5  -6   11.80    1.20
   6  -5  -6   19.80    1.30
   6  -5  -6   19.90    1.30
  -6   5   6   21.00    1.40
  -6   5   6   20.90    1.40
  -6   5   6   19.90    1.30
  -6   5   6   21.10    1.30
   5  -5  -6    7.40    0.80
   5  -5  -6    7.20    0.90
  -5   5   6    7.30    0.80
  -5   5   6    6.20    0.80
  -5   5   6    7.50    0.80
  -5   5   6    7.40    0.80
   4  -5  -6    3.50    0.60
   4  -5  -6    4.50    0.60
  -4   5   6    3.50    0.70
  -4   5   6    3.80    0.60
   3  -5  -6  397.46    9.10
   3  -5  -6  387.66    8.60
   3  -5  -6  398.36    8.90
  -3   5   6  395.96    9.30
   2  -5  -6    4.10    0.50
   2  -5  -6    4.20    0.50
   2  -5  -6    5.60    0.50
   2  -5  -6    3.20    0.50
   1  -5  -6   39.20    1.40
   1  -5  -6   35.60    1.30
   1  -5  -6   38.30    1.30
   1  -5  -6   35.40    1.20
  -1   5   6   36.90    1.50
   0  -5  -6   19.40    0.90
   0  -5  -6   20.00    0.80
   0  -5  -6   18.70    0.90
   0  -5  -6   20.30    0.80
   0   5   6   20.50    1.20
   0   5   6   18.80    0.80
  -1  -5  -6   14.50    0.90
  -1  -5  -6   15.00    0.80
  -1  -5  -6   14.40    0.90
  -1  -5  -6   14.40    0.80
   1   5   6   14.20    1.10
  -2  -5  -6   21.70    1.10
  -2  -5  -6   21.30    1.30
  -2  -5  -6   24.00    1.00
   2   5   6   23.00    1.30
  -3  -5  -6    0.00    0.40
  -3  -5  -6    0.00    0.40
  -3  -5  -6    0.60    0.60
  -4  -5  -6    0.30    0.60
  -4  -5  -6    0.70    0.50
   7  -6  -6    0.30    0.60
   6  -6  -6    7.90    1.00
  -6   6   6    6.70    0.90
  -6   6   6    7.80    1.00
   5  -6  -6   14.00    1.10
   5  -6  -6   14.80    1.00
  -5   6   6   14.60    1.20
  -5   6   6   15.90    1.10
   4  -6  -6   29.90    1.40
   4  -6  -6   29.80    1.40
   4  -6  -6   30.70    1.40
  -4   6   6   28.90    1.50
   3  -6  -6    0.00    0.30
   3  -6  -6    0.00    0.30
   3  -6  -6    0.00    0.40
  -3   6   6    0.00    0.50
   2  -6  -6  196.98    5.10
   2  -6  -6  199.48    4.90
   2  -6  -6  201.08    4.40
   2  -6  -6  202.98    4.70
   2  -6  -6  198.08    5.00
  -2   6   6  202.08    5.20
   1  -6  -6   80.29    2.20
   1  -6  -6   81.99    2.20
   1  -6  -6   83.59    2.40
   1  -6  -6   84.49    2.50
  -1   6   6   84.69    2.70
   0  -6  -6    0.20    0.30
   0  -6  -6    0.30    0.30
   0  -6  -6    0.40    0.20
   0  -6  -6    0.00    0.30
   0   6   6    0.00    0.30
   0   6   6    0.30    0.50
  -1  -6  -6   38.50    1.50
  -1  -6  -6   38.60    1.20
  -1  -6  -6   38.50    1.60
   1   6   6   38.70    1.70
  -2  -6  -6    1.00    0.40
  -2  -6  -6    1.30    0.50
  -2  -6  -6    1.40    0.60
   2   6   6    0.50    0.50
  -3  -6  -6    6.00    0.60
  -3  -6  -6    5.10    0.70
  -3  -6  -6    7.10    1.00
  -4  -6  -6    2.40    0.60
   6  -7  -6    0.00    0.50
  -6   7   6    0.50    0.60
   5  -7  -6   12.60    1.10
   5  -7  -6   12.10    1.00
  -5   7   6   12.30    1.20
  -5   7   6   12.10    1.00
   4  -7  -6   16.90    1.10
   4  -7  -6   17.10    1.10
   4  -7  -6   18.50    1.20
  -4   7   6   15.80    1.20
   3  -7  -6   39.00    1.60
   3  -7  -6   40.40    1.30
   3  -7  -6   40.50    1.60
   3  -7  -6   40.00    1.60
  -3   7   6   42.10    1.80
   2  -7  -6    2.50    0.50
   2  -7  -6    3.50    0.50
   2  -7  -6    4.50    0.60
   2  -7  -6    3.60    0.50
  -2   7   6    3.00    0.70
   1  -7  -6   46.00    1.70
   1  -7  -6   48.20    1.60
   1  -7  -6   45.70    1.70
   1  -7  -6   47.10    1.60
  -1   7   6   45.20    1.60
  -1   7   6   46.60    1.90
   0  -7  -6   31.00    1.30
   0  -7  -6   33.20    1.20
   0  -7  -6   32.10    1.40
   0   7   6   33.80    1.30
   0   7   6   30.80    1.60
  -1  -7  -6   72.49    2.50
  -1  -7  -6   71.69    2.30
   1   7   6   72.39    2.50
  -2  -7  -6    0.00    0.40
  -2  -7  -6    0.00    0.50
  -2  -7  -6    0.60    0.50
   2   7   6    0.00    0.50
  -3  -7  -6    0.70    0.70
  -3  -7  -6    0.00    0.50
  -3  -7  -6    0.70    0.50
   6  -8  -6    4.00    0.80
  -6   8   6    5.10    0.90
   5  -8  -6    2.00    0.60
  -5   8   6    1.40    0.70
   4  -8  -6    0.00    0.50
   4  -8  -6    0.20    0.40
   4  -8  -6    0.40    0.40
  -4   8   6    0.70    0.60
   3  -8  -6   76.19    2.60
   3  -8  -6   75.79    2.10
   3  -8  -6   78.19    2.40
   3  -8  -6   77.79    2.60
  -3   8   6   74.59    2.70
   2  -8  -6   15.70    0.90
   2  -8  -6   15.00    1.00
   2  -8  -6   15.00    0.90
   2  -8  -6   16.60    1.10
  -2   8   6   17.50    1.30
   1  -8  -6   34.10    1.50
   1  -8  -6   38.20    1.40
   1  -8  -6   36.50    1.60
   1  -8  -6   36.50    1.40
  -1   8   6   37.10    1.80
  -1   8   6   36.00    1.50
   0  -8  -6   24.20    1.20
   0  -8  -6   23.80    1.30
   0   8   6   24.10    1.50
  -1  -8  -6    1.40    0.50
  -1  -8  -6    0.90    0.60
   1   8   6    0.80    0.60
  -2  -8  -6   11.50    1.00
  -2  -8  -6   11.20    1.20
   6  -9  -6    1.90    0.80
  -6   9   6    1.30    0.80
   5  -9  -6   69.69    2.50
  -5   9   6   58.89    2.50
   4  -9  -6    1.50    0.70
   4  -9  -6    1.30    0.50
  -4   9   6    1.30    0.70
   3  -9  -6    7.00    0.80
   3  -9  -6    7.00    0.80
   3  -9  -6    6.20    0.70
   3  -9  -6    6.60    0.60
  -3   9   6    5.70    0.90
   2  -9  -6    0.50    0.40
   2  -9  -6    0.60    0.40
   2  -9  -6    0.30    0.40
   2  -9  -6    0.00    0.30
  -2   9   6    0.10    0.40
  -2   9   6    0.10    0.60
   1  -9  -6   24.10    1.10
   1  -9  -6   21.60    1.20
   1  -9  -6   22.00    1.20
   1  -9  -6   20.70    1.20
  -1   9   6   22.30    1.50
  -1   9   6   22.10    1.20
   0  -9  -6    0.20    0.40
   0  -9  -6    0.10    0.40
   0   9   6    0.00    0.60
  -1  -9  -6    4.10    0.80
   1   9   6    3.10    0.80
  -5  10   6   19.10    1.50
  -4  10   6   55.99    2.40
   3 -10  -6   10.80    1.10
   3 -10  -6   11.20    0.80
  -3  10   6   12.00    1.20
  -3  10   6   13.70    1.10
   2 -10  -6   31.20    1.40
   2 -10  -6   30.20    1.60
   2 -10  -6   32.00    1.50
  -2  10   6   30.00    1.80
  -2  10   6   33.90    1.60
   1 -10  -6    0.00    0.40
  -1  10   6    1.00    0.70
  -1  10   6    0.80    0.50
   0  10   6    0.00    0.60
  -4  11   6    5.70    0.90
  -4  11   6    4.50    0.90
  -3  11   6   21.40    1.70
  -3  11   6   21.10    1.50
   2 -11  -6    2.70    0.50
   2 -11  -6    2.70    0.60
  -2  11   6    2.10    0.70
  -2  11   6    2.00    0.80
   1 -11  -6    0.10    0.40
  -1  11   6    0.00    0.70
  -1  13  -7    0.20    0.80
  -2  13  -7    8.10    1.20
   2 -13   7    8.20    0.90
   1  12  -7    0.00    0.80
   0  12  -7    9.80    1.20
   0 -12   7   10.90    1.00
  -1  12  -7    0.70    0.70
   1 -12   7    0.80    0.50
   1 -12   7    0.50    0.40
  -2  12  -7    5.30    1.00
   2 -12   7    5.10    0.60
   2 -12   7    5.30    0.80
  -3  12  -7    9.60    1.20
   3 -12   7    9.00    1.00
  -4  12  -7    2.20    0.80
   4 -12   7    3.00    0.70
   2  11  -7    0.80    0.80
   1  11  -7    0.20    0.70
  -1 -11   7    0.00    0.50
   0  11  -7    1.50    0.80
   0 -11   7    1.30    0.40
  -1  11  -7   93.29    3.10
   1 -11   7   94.09    3.20
   1 -11   7   92.69    2.60
   1 -11   7   95.39    3.00
  -2  11  -7   16.30    1.30
   2 -11   7   16.60    0.90
   2 -11   7   18.10    1.10
   2 -11   7   18.50    1.30
   2 -11   7   16.30    1.10
  -3  11  -7    7.00    1.00
   3 -11   7    6.40    0.60
   3 -11   7    7.10    0.90
   3 -11   7    6.60    0.80
   3 -11   7    6.10    0.70
  -4  11  -7   10.80    1.10
  -4  11  -7   12.70    1.30
   4 -11   7   13.50    1.20
   4 -11   7   13.30    0.60
   3  10  -7    2.50    0.80
   2  10  -7    0.60    0.70
  -2 -10   7    0.00    0.50
   1  10  -7   38.40    1.90
  -1 -10   7   36.50    1.80
  -1 -10   7   34.20    1.60
  -1 -10   7   35.60    1.50
   0  10  -7   40.60    1.90
   0 -10   7   42.10    1.70
   0 -10   7   40.20    1.60
   0 -10   7   40.20    1.80
   0 -10   7   38.50    1.60
   0 -10   7   41.40    1.60
  -1  10  -7    0.10    0.60
   1 -10   7    0.70    0.50
   1 -10   7    0.90    0.40
   1 -10   7    0.80    0.40
   1 -10   7    1.30    0.40
  -2  10  -7   33.20    1.60
   2 -10   7   32.40    1.60
   2 -10   7   32.10    1.40
   2 -10   7   30.20    1.20
   2 -10   7   31.10    1.50
  -3  10  -7   10.70    1.00
  -3  10  -7   14.10    1.10
   3 -10   7   11.60    1.00
   3 -10   7   14.50    1.00
   3 -10   7   11.30    0.90
   3 -10   7   11.80    0.70
  -4  10  -7    0.00    0.50
  -4  10  -7    0.00    0.40
   4 -10   7    0.00    0.40
   4 -10   7    0.00    0.20
   4 -10   7    0.00    0.40
  -5  10  -7   18.40    1.20
   5 -10   7   19.20    1.40
   3   9  -7    7.20    1.00
   2   9  -7    3.30    0.80
  -2  -9   7    2.40    0.60
  -2  -9   7    2.80    0.70
   1   9  -7    6.10    0.90
  -1  -9   7    5.40    0.70
  -1  -9   7    5.80    0.70
  -1  -9   7    4.00    0.50
  -1  -9   7    4.20    0.70
   0   9  -7   28.40    1.50
   0  -9   7   27.20    1.20
   0  -9   7   28.50    1.30
   0  -9   7   29.00    1.30
   0  -9   7   29.40    1.50
   0  -9   7   28.60    1.20
  -1   9  -7   10.50    1.00
   1  -9   7   12.00    0.80
   1  -9   7   12.00    0.90
   1  -9   7   11.20    1.00
   1  -9   7   11.40    0.90
  -2   9  -7   13.90    1.10
   2  -9   7   13.70    0.80
   2  -9   7   14.50    1.00
   2  -9   7   15.40    1.00
   2  -9   7   14.40    0.90
  -3   9  -7    1.00    0.50
  -3   9  -7    0.70    0.50
   3  -9   7    0.90    0.40
   3  -9   7    1.20    0.30
   3  -9   7    1.00    0.40
   3  -9   7    1.20    0.40
  -4   9  -7    0.00    0.50
  -4   9  -7    0.50    0.40
   4  -9   7    0.10    0.40
   4  -9   7    0.00    0.10
   4  -9   7    0.50    0.40
  -5   9  -7    4.00    0.70
   5  -9   7    5.00    0.80
   4   8  -7   30.10    1.70
   3   8  -7    1.10    0.60
  -3  -8   7    0.00    0.50
  -3  -8   7    0.00    0.50
   2   8  -7   54.59    2.10
  -2  -8   7   55.99    2.20
  -2  -8   7   51.79    1.90
  -2  -8   7   50.49    2.00
   1   8  -7    0.20    0.60
  -1  -8   7    0.00    0.40
  -1  -8   7    0.00    0.40
  -1  -8   7    0.00    0.40
  -1  -8   7    0.50    0.30
  -1  -8   7    0.00    0.30
   0   8  -7   19.20    1.20
   0  -8   7   18.90    1.00
   0  -8   7   20.30    1.20
   0  -8   7   20.30    1.00
   0  -8   7   17.30    1.00
   0  -8   7   18.80    0.90
  -1   8  -7    4.90    0.70
   1  -8   7    4.20    0.50
   1  -8   7    4.90    0.60
   1  -8   7    4.60    0.60
   1  -8   7    4.50    0.60
  -2   8  -7   18.70    1.10
  -2   8  -7   20.00    1.20
   2  -8   7   22.20    0.90
   2  -8   7   21.00    1.20
   2  -8   7   20.60    1.20
   2  -8   7   22.40    1.00
  -3   8  -7   35.40    1.50
  -3   8  -7   36.10    1.50
   3  -8   7   37.80    1.60
   3  -8   7   35.70    1.40
   3  -8   7   36.10    1.10
   3  -8   7   37.70    1.60
  -4   8  -7   18.70    1.10
   4  -8   7   16.80    1.00
   4  -8   7   15.20    1.10
   4  -8   7   16.60    0.50
  -5   8  -7    3.00    0.60
   5  -8   7    3.30    0.70
  -6   8  -7    1.70    0.50
   6  -8   7    1.70    0.70
  -5  -7   7   19.60    1.40
   4   7  -7   17.80    1.30
  -4  -7   7   14.90    1.30
  -4  -7   7   15.30    1.20
  -4  -7   7   13.50    1.30
   3   7  -7   25.70    1.50
  -3  -7   7   26.00    1.40
  -3  -7   7   24.90    1.40
  -3  -7   7   25.00    1.20
  -3  -7   7   23.80    1.50
   2   7  -7   59.49    2.10
  -2  -7   7   59.49    2.20
  -2  -7   7   58.09    2.00
  -2  -7   7   60.49    2.10
   1   7  -7  124.19    3.40
  -1  -7   7  124.49    3.60
  -1  -7   7  118.69    3.20
  -1  -7   7  122.79    3.10
  -1  -7   7  119.69    3.20
  -1  -7   7  119.09    3.20
   0   7  -7   75.09    2.30
   0  -7   7   74.29    2.10
   0  -7   7   71.69    2.10
   0  -7   7   74.69    2.40
   0  -7   7   71.59    2.20
   0  -7   7   72.79    2.20
  -1   7  -7    0.00    0.40
   1  -7   7    0.20    0.20
   1  -7   7    0.00    0.30
   1  -7   7    0.00    0.30
   1  -7   7    0.20    0.30
  -2   7  -7   25.30    1.20
  -2   7  -7   23.80    1.10
   2  -7   7   26.40    1.10
   2  -7   7   25.90    1.20
   2  -7   7   24.80    1.30
   2  -7   7   24.80    1.00
  -3   7  -7   56.99    1.80
  -3   7  -7   53.39    1.80
   3  -7   7   59.99    2.10
   3  -7   7   56.99    1.70
   3  -7   7   54.89    1.90
   3  -7   7   54.99    1.50
  -4   7  -7   18.80    1.00
   4  -7   7   17.70    1.20
   4  -7   7   17.50    0.50
  -5   7  -7    0.50    0.40
   5  -7   7    0.50    0.50
  -6   7  -7    8.90    1.00
   6  -7   7    8.90    1.10
   5   6  -7    1.80    0.70
  -5  -6   7    2.00    0.60
   4   6  -7   14.60    1.20
  -4  -6   7   15.10    1.20
  -4  -6   7   11.80    1.20
   3   6  -7   14.50    1.10
  -3  -6   7   11.60    1.10
  -3  -6   7   12.90    1.00
  -3  -6   7   12.50    1.10
   2   6  -7    3.60    0.70
  -2  -6   7    2.80    0.50
  -2  -6   7    3.20    0.50
  -2  -6   7    2.80    0.60
  -2  -6   7    2.80    0.60
   1   6  -7    2.00    0.60
  -1  -6   7    1.70    0.40
  -1  -6   7    1.60    0.50
  -1  -6   7    1.60    0.50
  -1  -6   7    1.20    0.40
  -1  -6   7    1.60    0.30
   0   6  -7    5.70    0.70
   0  -6   7    6.60    0.60
   0  -6   7    6.40    0.60
   0  -6   7    6.30    0.70
   0  -6   7    6.70    0.60
   0  -6   7    6.80    0.50
  -1   6  -7   18.80    1.00
  -1   6  -7   20.40    1.00
   1  -6   7   19.40    1.00
   1  -6   7   20.10    0.90
   1  -6   7   21.00    0.90
   1  -6   7   20.00    1.00
   1  -6   7   19.60    0.70
  -2   6  -7  443.76    9.50
  -2   6  -7  447.86    9.80
   2  -6   7  460.45    9.50
   2  -6   7  439.76   10.40
   2  -6   7  447.56   10.40
   2  -6   7  450.65    9.00
  -3   6  -7   22.00    1.00
  -3   6  -7   22.60    1.10
   3  -6   7   20.50    0.80
   3  -6   7   21.60    0.90
   3  -6   7   22.00    1.00
   3  -6   7   21.10    1.10
  -4   6  -7    0.00    0.30
   4  -6   7    0.40    0.40
   4  -6   7    0.00    0.10
  -5   6  -7    1.80    0.50
   5  -6   7    2.10    0.60
  -6   6  -7    2.30    0.60
   6  -6   7    2.20    0.60
   5   5  -7    1.80    0.70
  -5  -5   7    0.20    0.70
   4   5  -7   18.40    1.20
  -4  -5   7   14.00    1.30
  -4  -5   7   18.00    1.20
  -4  -5   7   15.20    1.20
   3   5  -7   24.90    1.30
  -3  -5   7   23.80    1.30
  -3  -5   7   24.80    1.30
  -3  -5   7   24.80    1.40
   2   5  -7    0.80    0.50
  -2  -5   7    1.00    0.50
  -2  -5   7    1.80    0.40
  -2  -5   7    2.70    0.50
  -2  -5   7    1.70    0.30
  -2  -5   7    0.80    0.40
   1   5  -7    0.60    0.40
   1   5  -7    0.00    0.20
  -1  -5   7    0.00    0.30
  -1  -5   7    0.20    0.40
  -1  -5   7    0.40    0.20
  -1  -5   7    0.40    0.30
  -1  -5   7    0.30    0.40
   0   5  -7   80.19    2.30
   0  -5   7   81.29    2.20
   0  -5   7   79.29    2.40
   0  -5   7   78.89    2.30
  -1   5  -7   86.49    2.30
  -1   5  -7   89.09    2.30
   1  -5   7   87.49    2.50
   1  -5   7   87.49    2.30
   1  -5   7   84.19    2.00
   1  -5   7   88.19    2.50
  -2   5  -7    9.50    0.70
  -2   5  -7    9.50    0.70
   2  -5   7   10.00    0.60
   2  -5   7   10.80    0.60
   2  -5   7    9.00    0.80
   2  -5   7    9.00    0.70
  -3   5  -7  126.99    3.30
   3  -5   7  130.49    3.60
   3  -5   7  127.39    2.90
   3  -5   7  132.09    3.40
  -4   5  -7   68.39    2.20
   4  -5   7   67.49    1.50
   4  -5   7   70.19    2.40
  -5   5  -7    3.50    0.60
   5  -5   7    3.40    0.60
  -6   5  -7    0.10    0.40
   6  -5   7    1.10    0.50
   6   4  -7    1.70    0.60
   5   4  -7    7.80    1.00
  -5  -4   7    5.40    0.90
  -5  -4   7    6.40    0.90
   4   4  -7   10.30    1.00
  -4  -4   7    8.90    1.00
  -4  -4   7   10.30    0.90
  -4  -4   7    9.10    0.90
   3   4  -7   13.40    1.00
  -3  -4   7   13.30    0.90
  -3  -4   7   13.40    1.00
  -3  -4   7   14.10    1.10
   2   4  -7    0.70    0.40
   2   4  -7    1.00    0.20
  -2  -4   7    0.80    0.50
  -2  -4   7    0.80    0.30
  -2  -4   7    0.70    0.40
  -2  -4   7    1.00    0.30
   1   4  -7    9.50    0.50
   1   4  -7   10.80    0.80
  -1  -4   7   12.10    0.90
  -1  -4   7   10.40    0.80
  -1  -4   7   10.60    0.60
  -1  -4   7   10.90    0.60
   0   4  -7  539.55   11.90
   0   4  -7  566.54   11.40
   0  -4   7  557.24   11.60
   0  -4   7  555.74   12.60
   0  -4   7  543.45   11.80
   0  -4   7  551.14   12.40
  -1   4  -7    9.70    0.70
  -1   4  -7   10.30    0.70
   1  -4   7   10.70    0.70
   1  -4   7   10.20    0.60
   1  -4   7   11.60    0.70
  -2   4  -7    0.40    0.30
  -2   4  -7    0.00    0.30
   2  -4   7    1.10    0.20
   2  -4   7    0.20    0.20
  -3   4  -7   22.80    1.10
  -3   4  -7   25.20    1.00
   3  -4   7   25.50    1.20
   3  -4   7   24.80    1.00
  -4   4  -7   78.99    2.40
   4  -4   7   78.89    1.80
   4  -4   7   81.29    2.60
  -5   4  -7    0.00    0.30
   5  -4   7    0.20    0.40
  -6   4  -7    4.20    0.70
   6  -4   7    5.00    0.80
   6   3  -7    0.70    0.60
   5   3  -7    0.70    0.50
  -5  -3   7    0.00    0.50
  -5  -3   7    0.00    0.50
  -5  -3   7    0.00    0.50
   4   3  -7    1.80    0.60
  -4  -3   7    1.70    0.60
  -4  -3   7    2.30    0.50
  -4  -3   7    2.10    0.60
   3   3  -7   11.20    0.90
  -3  -3   7   12.60    1.00
  -3  -3   7   12.00    0.90
  -3  -3   7   11.30    0.80
   2   3  -7  255.47    4.90
   2   3  -7  259.77    6.00
  -2  -3   7  267.27    6.10
  -2  -3   7  252.87    6.40
  -2  -3   7  272.37    6.10
  -2  -3   7  261.17    5.90
   1   3  -7   90.29    2.50
   1   3  -7   92.59    2.00
  -1  -3   7   92.89    2.70
  -1  -3   7   92.39    2.40
  -1  -3   7   95.59    2.40
  -1  -3   7   94.79    2.50
   0   3  -7    7.60    0.60
   0   3  -7    4.80    0.40
   0   3  -7    4.40    0.50
   0  -3   7    4.50    0.50
   0  -3   7    4.60    0.50
   0  -3   7    6.40    0.50
   0  -3   7    4.80    0.40
   0  -3   7    5.10    0.30
  -1   3  -7   17.50    0.70
  -1   3  -7   17.40    0.80
  -1   3  -7   16.30    0.60
   1  -3   7   17.30    0.70
   1  -3   7   16.70    0.80
  -2   3  -7    1.80    0.30
  -2   3  -7    2.20    0.30
  -2   3  -7    2.40    0.40
   2  -3   7    2.00    0.20
   2  -3   7    1.60    0.30
   2  -3   7    2.00    0.40
  -3   3  -7   19.20    0.90
  -3   3  -7   20.20    1.00
   3  -3   7   19.30    1.10
  -4   3  -7   16.30    1.00
  -4   3  -7   15.40    1.00
   4  -3   7   15.50    1.00
  -5   3  -7   13.50    1.00
  -5   3  -7   13.30    1.00
   5  -3   7   13.00    1.00
  -6   3  -7   10.30    0.90
   6  -3   7   10.90    1.00
   6   2  -7   15.40    1.20
   5   2  -7    2.00    0.60
  -5  -2   7    1.90    0.60
  -5  -2   7    2.40    0.70
  -5  -2   7    3.20    0.60
   4   2  -7   12.80    1.00
  -4  -2   7   13.20    1.10
  -4  -2   7   13.60    1.00
  -4  -2   7   11.90    0.90
   3   2  -7   20.70    1.10
  -3  -2   7   20.80    0.90
  -3  -2   7   22.10    1.00
  -3  -2   7   22.70    1.20
  -3  -2   7   20.60    1.00
   2   2  -7    4.80    0.50
  -2  -2   7    4.10    0.50
  -2  -2   7    4.20    0.50
  -2  -2   7    4.30    0.60
   1   2  -7   18.70    0.60
   1   2  -7   18.50    0.80
  -1  -2   7   19.10    0.90
  -1  -2   7   19.30    0.80
  -1  -2   7   19.50    0.90
  -1  -2   7   19.80    1.00
   0   2  -7   94.59    2.00
   0   2  -7   91.89    2.30
   0   2  -7   96.79    2.30
   0  -2   7   96.39    2.30
   0  -2   7   94.89    2.60
   0  -2   7   90.19    2.20
   0  -2   7   94.49    2.20
   0  -2   7   96.99    2.60
  -1   2  -7  310.17    5.70
  -1   2  -7  295.17    6.60
  -1   2  -7  310.27    6.50
   1  -2   7  309.97    6.40
   1  -2   7  312.27    7.00
   1  -2   7  292.87    6.30
  -2   2  -7   30.70    1.10
  -2   2  -7   28.90    1.10
   2  -2   7   28.40    1.00
   2  -2   7   29.20    1.20
   2  -2   7   27.80    0.80
  -3   2  -7   38.40    1.40
  -3   2  -7   38.30    1.40
   3  -2   7   36.40    1.50
  -4   2  -7    0.30    0.40
  -4   2  -7    0.50    0.40
   4  -2   7    0.50    0.40
  -5   2  -7    0.70    0.50
  -5   2  -7    0.60    0.40
   5  -2   7    0.40    0.40
  -6   2  -7    3.90    0.70
  -6   2  -7    4.90    0.80
   6   1  -7    0.60    0.60
  -6  -1   7    0.30    0.70
   5   1  -7   25.00    1.40
  -5  -1   7   24.60    1.30
  -5  -1   7   24.20    1.40
  -5  -1   7   25.60    1.50
   4   1  -7    0.30    0.40
  -4  -1   7    0.00    0.40
  -4  -1   7    0.00    0.30
  -4  -1   7    0.20    0.50
   3   1  -7   16.20    0.90
  -3  -1   7   16.70    0.90
  -3  -1   7   17.10    1.00
  -3  -1   7   18.00    1.10
  -3  -1   7   17.50    0.90
   2   1  -7  101.39    2.70
  -2  -1   7  100.99    2.60
  -2  -1   7  103.39    2.70
  -2  -1   7  102.19    2.90
  -2  -1   7  101.99    2.70
   1   1  -7  129.99    3.20
   1   1  -7  132.39    3.20
   1   1  -7  129.79    2.60
  -1  -1   7  135.89    3.40
  -1  -1   7  134.09    3.40
  -1  -1   7  132.59    3.10
  -1  -1   7  133.69    3.20
   0   1  -7   83.19    1.80
   0   1  -7   83.79    2.10
   0   1  -7   83.49    2.00
   0   1  -7   83.09    2.00
   0  -1   7   81.49    2.00
   0  -1   7   81.99    2.00
   0  -1   7   82.59    2.00
   0  -1   7   83.99    2.40
   0  -1   7   84.79    2.30
  -1   1  -7  314.17    6.50
  -1   1  -7  307.37    6.70
  -1   1  -7  317.37    6.70
  -1   1  -7  310.47    5.90
  -1   1  -7  321.17    6.70
   1  -1   7  314.57    6.70
   1  -1   7  320.27    6.50
   1  -1   7  308.37    6.50
  -2   1  -7   61.59    1.80
  -2   1  -7   61.09    1.80
  -2   1  -7   61.09    1.40
   2  -1   7   64.29    2.00
   2  -1   7   60.89    1.60
  -3   1  -7   20.40    0.70
  -3   1  -7   21.30    1.00
  -3   1  -7   19.70    1.00
   3  -1   7   21.20    1.10
  -4   1  -7   20.20    1.20
  -4   1  -7   19.30    0.70
   4  -1   7   19.20    1.10
  -5   1  -7   15.90    1.20
  -5   1  -7   16.50    0.70
   5  -1   7   16.80    1.10
  -6   1  -7   21.00    1.50
   6   0  -7   10.10    1.10
  -6   0   7   10.10    1.10
   5   0  -7    6.60    0.80
  -5   0   7    6.80    0.90
  -5   0   7    6.70    0.80
  -5   0   7    5.70    0.70
   4   0  -7   33.40    1.40
  -4   0   7   32.50    1.50
  -4   0   7   33.10    1.40
  -4   0   7   32.30    1.40
  -4   0   7   32.00    1.30
  -4   0   7   34.50    1.50
   3   0  -7    0.30    0.30
   3   0  -7    0.30    0.30
  -3   0   7    0.00    0.30
  -3   0   7    0.50    0.40
  -3   0   7    0.40    0.30
  -3   0   7    0.40    0.30
  -3   0   7    0.60    0.40
   2   0  -7   38.00    1.30
   2   0  -7   39.50    1.30
  -2   0   7   38.70    1.30
  -2   0   7   42.50    1.50
  -2   0   7   38.50    1.40
  -2   0   7   37.10    1.30
  -2   0   7   38.30    1.40
   1   0  -7  303.27    6.80
   1   0  -7  302.37    5.70
   1   0  -7  305.67    6.90
  -1   0   7  310.97    6.60
  -1   0   7  312.27    6.90
  -1   0   7  309.27    7.20
  -1   0   7  312.57    7.20
  -1   0   7  312.47    7.10
   0   0  -7  303.77    6.30
   0   0  -7  302.37    5.70
   0   0  -7  301.87    6.60
   0   0  -7  297.57    6.50
   0   0   7  309.47    6.80
   0   0   7  311.87    7.00
   0   0   7  275.67    7.20
  -1   0  -7   15.10    0.60
  -1   0  -7   15.30    0.70
  -1   0  -7   13.70    0.50
  -1   0  -7   14.50    0.50
  -1   0  -7   14.40    0.70
   1   0   7   14.20    0.60
   1   0   7   15.50    0.90
   1   0   7   14.10    0.60
   1   0   7   13.80    0.50
   1   0   7   14.50    0.50
  -2   0  -7  438.66    9.80
  -2   0  -7  426.06    8.10
   2   0   7  438.86   10.00
  -3   0  -7   21.00    0.80
  -3   0  -7   23.00    1.20
   3   0   7   24.30    1.20
  -4   0  -7   13.70    0.70
  -4   0  -7   14.50    1.10
   4   0   7   14.50    1.00
  -5   0  -7    1.70    0.70
  -5   0  -7    1.60    0.40
   7  -1  -7    2.80    0.80
   6  -1  -7    8.80    1.00
  -6   1   7    5.70    0.80
   5  -1  -7    0.00    0.40
  -5   1   7    0.30    0.40
  -5   1   7    0.40    0.50
  -5   1   7    0.10    0.40
  -5   1   7    0.30    0.40
   4  -1  -7  109.49    3.10
   4  -1  -7  109.79    3.10
  -4   1   7  109.39    3.10
  -4   1   7  110.19    3.30
  -4   1   7  106.79    3.20
  -4   1   7  117.09    3.20
   3  -1  -7  151.78    3.90
   3  -1  -7  148.49    3.80
  -3   1   7  153.38    3.90
  -3   1   7  146.09    4.00
  -3   1   7  151.78    4.00
  -3   1   7  156.78    3.90
   2  -1  -7   13.10    0.70
   2  -1  -7   14.60    0.80
  -2   1   7   16.20    0.80
  -2   1   7   13.10    0.80
  -2   1   7   13.20    0.90
  -2   1   7   13.30    0.90
   1  -1  -7  500.45   11.00
   1  -1  -7  508.55   10.90
   1  -1  -7  505.15   10.20
   1  -1  -7  497.25    9.20
  -1   1   7  516.45   11.40
  -1   1   7  503.85   11.50
  -1   1   7  515.65   11.50
   0  -1  -7    0.70    0.30
   0  -1  -7    0.90    0.20
   0  -1  -7    0.90    0.30
   0   1   7    0.80    0.20
   0   1   7    1.10    0.30
  -1  -1  -7  167.08    3.80
  -1  -1  -7  167.88    3.40
  -1  -1  -7  165.58    3.80
  -1  -1  -7  164.48    3.80
   1   1   7  166.08    3.50
   1   1   7  170.38    4.30
   1   1   7  169.18    3.80
   1   1   7  167.88    3.90
  -2  -1  -7  341.37    7.70
  -2  -1  -7  353.56    6.60
  -2  -1  -7  353.76    8.10
   2   1   7  358.06    8.30
  -3  -1  -7   61.79    1.60
  -3  -1  -7   62.19    2.10
   3   1   7   61.49    2.10
  -4  -1  -7    6.30    0.90
  -4  -1  -7    5.00    0.50
   4   1   7    5.60    0.70
  -5  -1  -7    1.60    0.70
  -5  -1  -7    2.50    0.50
   7  -2  -7    4.80    0.90
   6  -2  -7   10.70    1.10
  -6   2   7    8.80    1.00
  -6   2   7    9.30    1.00
  -6   2   7    9.00    1.00
   5  -2  -7    3.70    0.70
   5  -2  -7    3.20    0.70
  -5   2   7    3.70    0.70
  -5   2   7    4.20    0.70
  -5   2   7    4.50    0.70
  -5   2   7    3.50    0.60
   4  -2  -7   61.99    2.10
   4  -2  -7   63.69    2.10
  -4   2   7   61.49    2.20
  -4   2   7   59.19    2.00
  -4   2   7   62.89    2.20
  -4   2   7   60.29    2.10
   3  -2  -7   77.79    2.30
   3  -2  -7   75.59    2.20
  -3   2   7   71.69    2.30
  -3   2   7   77.59    2.30
  -3   2   7   76.09    2.40
  -3   2   7   76.49    2.40
   2  -2  -7   45.80    1.50
   2  -2  -7   45.50    1.50
  -2   2   7   46.70    1.50
  -2   2   7   45.80    1.70
   1  -2  -7    5.60    0.30
   1  -2  -7    5.80    0.50
   1  -2  -7    5.60    0.40
   1  -2  -7    4.90    0.50
   1  -2  -7    5.80    0.50
  -1   2   7    3.70    0.60
  -1   2   7    6.60    0.50
  -1   2   7    6.30    0.60
   0  -2  -7   20.00    0.70
   0  -2  -7   19.20    0.90
   0  -2  -7   19.20    0.70
   0  -2  -7   19.50    0.80
   0  -2  -7   20.10    0.70
   0   2   7   19.30    1.10
   0   2   7   20.00    0.80
  -1  -2  -7  194.88    4.40
  -1  -2  -7  196.68    4.60
  -1  -2  -7  196.78    4.90
  -1  -2  -7  199.78    3.90
   1   2   7  198.48    4.60
   1   2   7  199.28    5.00
  -2  -2  -7  190.68    4.90
  -2  -2  -7  190.08    4.50
  -2  -2  -7  194.28    3.90
   2   2   7  196.58    4.90
  -3  -2  -7    0.00    0.50
  -3  -2  -7    0.00    0.40
   3   2   7    0.80    0.40
  -4  -2  -7    2.30    0.70
  -4  -2  -7    0.10    0.40
   4   2   7    0.00    0.40
  -5  -2  -7   10.50    0.90
  -5  -2  -7    9.00    1.10
   7  -3  -7    0.40    0.60
   6  -3  -7    7.30    0.90
  -6   3   7    6.10    0.80
  -6   3   7    6.80    0.90
   5  -3  -7   40.90    1.70
   5  -3  -7   38.10    1.70
  -5   3   7   38.10    1.70
  -5   3   7   39.10    1.80
  -5   3   7   39.90    1.70
  -5   3   7   39.90    1.80
   4  -3  -7  214.38    5.20
   4  -3  -7  202.18    5.00
  -4   3   7  194.48    5.20
  -4   3   7  198.18    5.10
  -4   3   7  196.88    5.20
  -4   3   7  197.38    5.10
   3  -3  -7    1.90    0.40
   3  -3  -7    1.50    0.40
  -3   3   7    2.20    0.50
  -3   3   7    2.40    0.60
  -3   3   7    2.00    0.40
   2  -3  -7   70.89    2.00
   2  -3  -7   66.09    2.00
  -2   3   7   67.89    2.20
  -2   3   7   68.89    2.10
  -2   3   7   68.29    2.10
   1  -3  -7    0.20    0.10
   1  -3  -7    0.60    0.20
   1  -3  -7    0.00    0.20
   1  -3  -7    0.40    0.30
  -1   3   7    0.60    0.30
   0  -3  -7   25.90    1.00
   0  -3  -7   23.40    1.00
   0  -3  -7   25.70    0.90
   0  -3  -7   24.80    0.90
   0   3   7   25.00    0.90
   0   3   7   24.60    1.20
  -1  -3  -7    0.00    0.50
  -1  -3  -7    0.50    0.30
  -1  -3  -7    0.80    0.30
  -2  -3  -7   80.69    2.60
  -2  -3  -7   86.29    2.00
  -2  -3  -7   85.89    2.30
   2   3   7   82.39    2.60
  -3  -3  -7   62.49    1.70
  -3  -3  -7   63.09    2.30
   3   3   7   62.39    2.20
  -4  -3  -7    0.60    0.40
  -4  -3  -7    0.70    0.60
  -5  -3  -7    2.00    0.60
   6  -4  -7    5.90    0.90
  -6   4   7    5.60    0.80
   5  -4  -7   23.70    1.30
   5  -4  -7   23.90    1.30
  -5   4   7   22.20    1.40
  -5   4   7   22.90    1.30
  -5   4   7   22.00    1.30
  -5   4   7   23.30    1.40
   4  -4  -7    7.80    0.80
   4  -4  -7    7.20    0.80
  -4   4   7    9.70    0.90
  -4   4   7    8.70    0.90
  -4   4   7    6.50    0.80
   3  -4  -7  267.77    6.30
   3  -4  -7  263.67    6.20
  -3   4   7  265.47    6.50
  -3   4   7  256.67    6.40
  -3   4   7  253.97    6.40
   2  -4  -7    0.30    0.30
   2  -4  -7    0.10    0.30
   2  -4  -7    0.10    0.20
  -2   4   7    0.40    0.50
   1  -4  -7    0.30    0.20
   1  -4  -7    0.50    0.30
   1  -4  -7    0.30    0.30
   1  -4  -7    0.30    0.30
   1  -4  -7    0.00    0.20
  -1   4   7    0.50    0.50
   0  -4  -7    7.20    0.50
   0  -4  -7    6.80    0.50
   0  -4  -7    6.80    0.60
   0  -4  -7    6.50    0.50
   0   4   7    7.10    0.50
   0   4   7    6.00    0.70
  -1  -4  -7    4.00    0.50
  -1  -4  -7    3.70    0.50
  -1  -4  -7    4.10    0.70
  -1  -4  -7    4.70    0.50
   1   4   7    4.20    0.70
  -2  -4  -7    4.20    0.50
  -2  -4  -7    4.50    0.70
  -2  -4  -7    3.90    0.50
   2   4   7    3.20    0.60
  -3  -4  -7   41.80    1.80
  -3  -4  -7   37.60    1.30
   3   4   7   39.90    1.70
  -4  -4  -7    0.90    0.70
  -4  -4  -7    1.40    0.50
   6  -5  -7    1.10    0.60
  -6   5   7    1.50    0.70
  -6   5   7    1.60    0.60
   5  -5  -7    3.20    0.70
   5  -5  -7    3.00    0.60
  -5   5   7    3.30    0.70
  -5   5   7    2.40    0.70
  -5   5   7    2.10    0.60
  -5   5   7    3.10    0.70
   4  -5  -7    4.30    0.70
   4  -5  -7    3.50    0.60
  -4   5   7    4.60    0.80
  -4   5   7    3.40    0.60
   3  -5  -7   98.59    3.00
   3  -5  -7  105.89    2.90
   3  -5  -7  104.89    2.90
  -3   5   7  102.29    3.10
   2  -5  -7   99.89    2.70
   2  -5  -7   97.79    2.70
   2  -5  -7  102.89    2.90
   2  -5  -7   99.69    2.50
  -2   5   7   98.59    3.00
   1  -5  -7    1.80    0.40
   1  -5  -7    1.50    0.30
   1  -5  -7    1.90    0.40
   1  -5  -7    1.60    0.40
  -1   5   7    1.70    0.60
   0  -5  -7    1.50    0.40
   0  -5  -7    0.60    0.30
   0  -5  -7    1.10    0.40
   0  -5  -7    1.30    0.30
   0   5   7    1.40    0.60
   0   5   7    1.10    0.30
  -1  -5  -7   59.69    2.00
  -1  -5  -7   61.79    2.20
  -1  -5  -7   60.39    1.60
   1   5   7   60.79    2.20
  -2  -5  -7    0.00    0.50
  -2  -5  -7    0.10    0.40
  -2  -5  -7    0.50    0.40
   2   5   7    0.10    0.50
  -3  -5  -7    0.10    0.50
  -3  -5  -7    0.00    0.40
  -4  -5  -7    8.70    0.80
   6  -6  -7    2.50    0.70
  -6   6   7    1.40    0.70
   5  -6  -7    0.70    0.50
   5  -6  -7    1.10    0.50
  -5   6   7    1.10    0.40
  -5   6   7    0.80    0.50
  -5   6   7    1.00    0.60
   4  -6  -7   92.49    2.90
   4  -6  -7   93.09    2.80
  -4   6   7   90.99    3.00
  -4   6   7   89.39    3.00
   3  -6  -7    5.70    0.70
   3  -6  -7    6.60    0.70
   3  -6  -7    6.90    0.70
  -3   6   7    5.30    0.80
   2  -6  -7    7.50    0.70
   2  -6  -7    8.60    0.70
   2  -6  -7    7.80    0.70
   2  -6  -7    7.50    0.70
  -2   6   7    8.50    0.90
   1  -6  -7   92.79    2.80
   1  -6  -7   96.29    2.60
   1  -6  -7   93.69    2.50
  -1   6   7   95.49    3.00
   0  -6  -7   25.10    1.20
   0  -6  -7   24.10    1.20
   0   6   7   25.10    1.50
  -1  -6  -7   22.80    1.30
  -1  -6  -7   20.80    1.10
  -1  -6  -7   20.70    0.90
   1   6   7   20.00    1.30
  -2  -6  -7    0.60    0.40
  -2  -6  -7    0.00    0.40
  -2  -6  -7    0.20    0.50
   2   6   7    0.00    0.50
  -3  -6  -7    1.40    0.50
  -3  -6  -7    1.10    0.70
   6  -7  -7    7.80    1.00
  -6   7   7    5.30    0.90
   5  -7  -7    0.00    0.50
  -5   7   7    0.20    0.40
  -5   7   7    0.70    0.60
   4  -7  -7    0.80    0.50
   4  -7  -7    1.00    0.40
   4  -7  -7    1.20    0.50
  -4   7   7    1.10    0.60
   3  -7  -7   15.60    1.10
   3  -7  -7   16.00    1.10
   3  -7  -7   16.20    0.90
   3  -7  -7   15.30    1.00
  -3   7   7   14.40    1.30
   2  -7  -7   26.30    1.10
   2  -7  -7   26.90    1.20
   2  -7  -7   25.60    1.30
  -2   7   7   21.70    1.50
   1  -7  -7   51.39    1.70
   1  -7  -7   50.29    1.90
   1  -7  -7   50.69    1.70
  -1   7   7   48.00    2.10
  -1   7   7   47.90    1.70
   0  -7  -7    0.00    0.30
   0  -7  -7    0.00    0.30
   0   7   7    0.00    0.60
  -1  -7  -7   39.10    1.60
   1   7   7   37.20    1.80
  -2  -7  -7    0.00    0.40
  -2  -7  -7    0.10    0.50
  -2  -7  -7    0.00    0.50
   2   7   7    0.00    0.50
  -3  -7  -7    6.90    0.80
   6  -8  -7   26.30    1.70
  -6   8   7   22.60    1.70
   5  -8  -7   25.00    1.50
  -5   8   7   20.80    1.50
   4  -8  -7    8.50    0.90
   4  -8  -7    8.50    1.00
  -4   8   7    7.20    0.90
   3  -8  -7    0.00    0.30
   3  -8  -7    0.00    0.40
   3  -8  -7    0.30    0.40
  -3   8   7    0.00    0.60
   2  -8  -7    1.00    0.40
   2  -8  -7    0.50    0.40
   2  -8  -7    0.70    0.40
  -2   8   7    0.70    0.60
   1  -8  -7    2.60    0.40
   1  -8  -7    1.10    0.40
   1  -8  -7    1.20    0.40
  -1   8   7    1.50    0.70
  -1   8   7    2.00    0.50
   0  -8  -7    0.90    0.40
   0  -8  -7    0.70    0.40
   0   8   7    0.00    0.60
  -1  -8  -7    0.80    0.50
   1   8   7    0.40    0.60
   5  -9  -7   23.50    1.60
  -5   9   7   20.20    1.60
  -4   9   7   48.20    2.20
   3  -9  -7    3.10    0.50
   3  -9  -7    3.30    0.60
  -3   9   7    3.00    0.80
   2  -9  -7    7.50    0.70
   2  -9  -7    7.50    0.70
   2  -9  -7    6.40    0.80
   2  -9  -7    6.20    0.80
  -2   9   7    6.10    0.90
  -2   9   7    8.50    0.90
   1  -9  -7    3.10    0.60
   1  -9  -7    2.30    0.60
  -1   9   7    2.70    0.60
  -1   9   7    2.20    0.70
   0  -9  -7   23.40    1.40
   0   9   7   22.70    1.60
   1   9   7    0.00    0.60
  -4  10   7   26.70    1.80
   3 -10  -7   16.90    1.00
  -3  10   7   19.00    1.30
  -3  10   7   16.80    1.60
   2 -10  -7    3.50    0.60
  -2  10   7    3.70    0.90
  -2  10   7    5.60    0.80
   1 -10  -7    8.70    0.90
  -1  10   7    6.60    1.10
   0  10   7    0.70    0.70
  -2  11   7   36.50    2.10
   0  12  -8   24.10    1.80
   0 -12   8   22.60    1.30
  -1  12  -8    4.10    0.90
   1 -12   8    5.00    0.70
   1 -12   8    3.60    0.60
  -2  12  -8    0.50    0.80
   2 -12   8    0.50    0.50
  -3  12  -8    0.00    0.70
   3 -12   8    0.00    0.50
   2  11  -8    0.20    0.80
   1  11  -8   11.90    1.20
   0  11  -8   18.50    1.50
   0 -11   8   17.70    1.10
  -1  11  -8   31.40    1.70
   1 -11   8   27.40    1.30
   1 -11   8   30.40    1.50
  -2  11  -8    3.20    0.80
   2 -11   8    3.20    0.50
   2 -11   8    3.40    0.70
  -3  11  -8    4.50    0.90
   3 -11   8    4.70    0.50
   3 -11   8    5.20    0.80
  -4  11  -8    0.00    0.60
   4 -11   8    0.10    0.50
   2  10  -8    0.50    0.70
  -2 -10   8    0.00    0.50
   1  10  -8    3.20    0.80
  -1 -10   8    2.50    0.50
   0  10  -8    3.10    0.80
   0 -10   8    2.20    0.60
   0 -10   8    2.80    0.50
   0 -10   8    2.60    0.50
   0 -10   8    2.80    0.60
  -1  10  -8   37.90    1.80
   1 -10   8   36.50    1.40
   1 -10   8   34.30    1.70
   1 -10   8   33.80    1.50
   1 -10   8   36.60    1.60
  -2  10  -8    6.40    0.90
   2 -10   8    7.00    0.70
   2 -10   8    7.90    0.90
   2 -10   8    7.80    0.90
   2 -10   8    6.80    0.70
  -3  10  -8    8.30    0.90
  -3  10  -8    6.00    0.90
   3 -10   8    6.60    0.70
   3 -10   8    6.90    0.60
   3 -10   8    7.20    0.80
   3 -10   8    7.50    0.90
  -4  10  -8    4.10    0.70
   4 -10   8    4.60    0.40
   4 -10   8    4.70    0.70
   4 -10   8    4.30    0.80
   3   9  -8    1.70    0.70
   2   9  -8    0.00    0.60
  -2  -9   8    0.00    0.50
   1   9  -8    2.40    0.80
  -1  -9   8    1.60    0.60
  -1  -9   8    1.80    0.60
  -1  -9   8    2.00    0.50
  -1  -9   8    2.10    0.60
   0   9  -8    1.50    0.70
   0  -9   8    0.60    0.50
   0  -9   8    0.90    0.40
   0  -9   8    1.10    0.40
   0  -9   8    1.10    0.40
  -1   9  -8    1.60    0.60
   1  -9   8    2.10    0.60
   1  -9   8    1.10    0.40
   1  -9   8    1.60    0.50
   1  -9   8    1.60    0.40
  -2   9  -8    3.40    0.70
   2  -9   8    2.40    0.40
   2  -9   8    2.30    0.50
   2  -9   8    2.70    0.50
   2  -9   8    4.20    0.70
  -3   9  -8    1.50    0.60
  -3   9  -8    2.00    0.50
   3  -9   8    1.60    0.50
   3  -9   8    1.30    0.50
   3  -9   8    1.70    0.40
   3  -9   8    1.20    0.30
  -4   9  -8    1.60    0.50
   4  -9   8    0.50    0.50
   4  -9   8    1.20    0.20
  -5   9  -8   57.69    2.20
   5  -9   8   61.09    2.50
   4   8  -8    2.70    0.80
   3   8  -8    0.40    0.60
  -3  -8   8    0.00    0.50
   2   8  -8   38.80    1.80
  -2  -8   8   36.90    1.80
  -2  -8   8   37.70    1.60
  -2  -8   8   35.50    1.60
   1   8  -8    0.00    0.60
  -1  -8   8    0.10    0.30
  -1  -8   8    0.00    0.40
  -1  -8   8    0.00    0.40
  -1  -8   8    0.00    0.40
   0   8  -8   53.59    2.00
   0  -8   8   56.19    1.80
   0  -8   8   54.39    1.90
   0  -8   8   55.09    1.90
   0  -8   8   53.19    2.00
  -1   8  -8    2.50    0.60
   1  -8   8    2.70    0.40
   1  -8   8    2.70    0.50
   1  -8   8    2.30    0.50
   1  -8   8    2.10    0.50
  -2   8  -8    8.40    0.80
  -2   8  -8    7.20    0.80
   2  -8   8    7.20    0.70
   2  -8   8    8.10    0.80
   2  -8   8    7.80    0.90
   2  -8   8    8.00    0.60
  -3   8  -8    5.30    0.70
  -3   8  -8    4.80    0.70
   3  -8   8    4.60    0.60
   3  -8   8    4.70    0.40
   3  -8   8    4.90    0.70
  -4   8  -8   15.70    1.10
   4  -8   8   14.00    0.60
   4  -8   8   15.90    1.20
  -5   8  -8   11.80    1.00
   5  -8   8   12.10    1.20
   4   7  -8    1.30    0.70
   3   7  -8    5.10    0.80
  -3  -7   8    1.60    0.60
  -3  -7   8    4.10    0.70
   2   7  -8    0.00    0.50
  -2  -7   8    0.00    0.50
  -2  -7   8    0.00    0.40
  -2  -7   8    0.30    0.50
   1   7  -8   81.29    2.50
  -1  -7   8   74.69    2.60
  -1  -7   8   76.89    2.40
  -1  -7   8   75.69    2.30
  -1  -7   8   76.09    2.30
  -1  -7   8   77.09    2.30
   0   7  -8   47.10    1.80
   0  -7   8   44.40    1.60
   0  -7   8   47.40    1.80
   0  -7   8   46.30    1.70
   0  -7   8   47.40    1.60
  -1   7  -8   35.30    1.50
   1  -7   8   36.90    1.50
   1  -7   8   35.90    1.40
   1  -7   8   36.20    1.50
   1  -7   8   36.90    1.30
  -2   7  -8   69.89    2.10
  -2   7  -8   67.29    2.10
   2  -7   8   72.29    2.40
   2  -7   8   68.39    2.30
   2  -7   8   69.39    2.00
   2  -7   8   69.59    1.90
  -3   7  -8   87.99    2.60
   3  -7   8   88.99    2.20
   3  -7   8   90.29    2.90
   3  -7   8   90.99    2.70
  -4   7  -8    6.50    0.80
   4  -7   8    5.80    0.40
   4  -7   8    5.30    0.80
  -5   7  -8   39.60    1.70
   5  -7   8   42.50    2.00
   5   6  -8    9.30    1.10
   4   6  -8    4.40    0.80
  -4  -6   8    3.60    0.70
  -4  -6   8    2.50    0.80
   3   6  -8    2.40    0.70
  -3  -6   8    3.40    0.60
  -3  -6   8    1.70    0.60
  -3  -6   8    2.30    0.70
   2   6  -8  104.59    3.00
  -2  -6   8  101.49    2.90
  -2  -6   8  104.59    3.00
  -2  -6   8   97.59    3.20
   1   6  -8    5.50    0.70
   1   6  -8    5.40    0.50
  -1  -6   8    6.10    0.60
  -1  -6   8    5.80    0.70
  -1  -6   8    4.90    0.60
  -1  -6   8    4.70    0.60
  -1  -6   8    5.30    0.60
   0   6  -8   40.90    1.50
   0  -6   8   40.70    1.50
   0  -6   8   42.90    1.40
   0  -6   8   41.80    1.60
   0  -6   8   40.90    1.50
   0  -6   8   41.80    1.30
  -1   6  -8   16.40    1.00
  -1   6  -8   14.80    0.90
   1  -6   8   16.20    0.90
   1  -6   8   15.80    0.90
   1  -6   8   15.60    0.80
   1  -6   8   17.80    1.00
  -2   6  -8   18.50    1.00
  -2   6  -8   17.40    1.00
   2  -6   8   17.80    0.80
   2  -6   8   16.70    1.10
   2  -6   8   17.10    0.80
   2  -6   8   17.90    1.00
  -3   6  -8    0.80    0.40
   3  -6   8    0.70    0.40
   3  -6   8    0.70    0.20
   3  -6   8    0.70    0.30
  -4   6  -8    6.50    0.70
   4  -6   8    7.70    0.90
   4  -6   8    6.40    0.40
  -5   6  -8   17.20    1.20
   5  -6   8   17.40    1.30
   5   5  -8    8.20    1.00
   4   5  -8   12.90    1.10
  -4  -5   8   10.90    1.00
  -4  -5   8   14.70    1.10
  -4  -5   8    9.90    1.10
   3   5  -8    2.40    0.60
  -3  -5   8    2.10    0.50
  -3  -5   8    1.30    0.60
  -3  -5   8    1.80    0.60
   2   5  -8   73.99    2.40
  -2  -5   8   73.09    2.20
  -2  -5   8   75.69    2.30
  -2  -5   8   78.29    2.40
  -2  -5   8   78.29    2.60
   1   5  -8  180.18    3.50
   1   5  -8  172.48    4.40
  -1  -5   8  171.88    4.40
  -1  -5   8  175.38    4.30
  -1  -5   8  177.18    4.20
  -1  -5   8  178.78    4.70
   0   5  -8   49.20    1.70
   0  -5   8   49.10    1.60
   0  -5   8   50.79    1.70
   0  -5   8   49.70    1.80
  -1   5  -8  105.09    2.80
  -1   5  -8  103.19    2.70
   1  -5   8  105.19    3.00
   1  -5   8  107.99    2.70
   1  -5   8  104.59    3.00
  -2   5  -8   18.40    0.90
  -2   5  -8   17.60    1.00
   2  -5   8   17.60    0.80
   2  -5   8   18.00    0.90
   2  -5   8   17.00    1.10
  -3   5  -8   81.09    2.40
   3  -5   8   81.19    2.00
   3  -5   8   79.59    2.60
  -4   5  -8   29.90    1.40
   4  -5   8   28.90    0.90
   4  -5   8   30.70    1.50
  -5   5  -8    5.30    0.70
   5  -5   8    4.00    0.70
   6  -5   8    0.10    0.50
   5   4  -8    1.20    0.60
   4   4  -8    0.20    0.50
  -4  -4   8    0.60    0.50
  -4  -4   8    0.80    0.60
  -4  -4   8    0.00    0.60
   3   4  -8   12.60    1.00
  -3  -4   8   10.20    1.00
  -3  -4   8   11.30    1.00
  -3  -4   8   12.10    0.90
   2   4  -8   24.60    1.20
  -2  -4   8   22.20    1.20
  -2  -4   8   23.90    1.00
  -2  -4   8   23.90    1.30
  -2  -4   8   23.00    1.00
   1   4  -8   49.50    1.20
   1   4  -8   48.70    1.60
  -1  -4   8   48.70    1.50
  -1  -4   8   47.40    1.80
  -1  -4   8   46.70    1.60
  -1  -4   8   47.10    1.60
   0   4  -8  129.49    3.30
   0   4  -8  133.99    3.20
   0   4  -8  130.59    2.70
   0  -4   8  131.49    3.20
   0  -4   8  134.89    3.50
   0  -4   8  129.19    3.50
  -1   4  -8   61.19    1.80
  -1   4  -8   60.69    1.70
   1  -4   8   62.59    1.90
   1  -4   8   63.69    1.70
   1  -4   8   61.49    2.00
  -2   4  -8    6.20    0.60
   2  -4   8    5.60    0.50
   2  -4   8    6.80    0.70
  -3   4  -8   18.60    1.00
   3  -4   8   17.20    1.10
  -4   4  -8   21.50    1.20
   4  -4   8   23.10    0.80
   4  -4   8   21.50    1.20
  -5   4  -8    1.80    0.50
   5  -4   8    1.50    0.50
   6  -4   8    0.70    0.50
   6   3  -8   15.60    1.40
   5   3  -8    0.30    0.50
  -5  -3   8    0.00    0.60
  -5  -3   8    0.10    0.50
   4   3  -8    3.60    0.60
  -4  -3   8    3.50    0.60
  -4  -3   8    3.50    0.70
  -4  -3   8    4.10    0.80
   3   3  -8   53.09    1.90
  -3  -3   8   50.69    1.80
  -3  -3   8   50.59    1.80
  -3  -3   8   49.90    2.00
   2   3  -8   36.90    1.40
  -2  -3   8   35.80    1.30
  -2  -3   8   37.50    1.50
  -2  -3   8   38.20    1.60
  -2  -3   8   38.80    1.30
   1   3  -8   11.50    0.80
   1   3  -8   12.90    0.60
  -1  -3   8   12.30    0.80
  -1  -3   8   12.60    0.90
  -1  -3   8   11.70    0.60
  -1  -3   8   11.80    0.80
   0   3  -8   89.09    2.30
   0   3  -8   87.59    2.30
   0   3  -8   88.29    2.00
   0  -3   8   88.59    2.60
   0  -3   8   93.39    2.60
   0  -3   8   89.09    2.30
   0  -3   8   90.09    2.10
  -1   3  -8   46.30    1.40
  -1   3  -8   48.20    1.50
  -1   3  -8   46.50    1.20
   1  -3   8   47.10    1.30
   1  -3   8   47.00    1.50
   1  -3   8   47.80    1.70
  -2   3  -8   47.30    1.60
   2  -3   8   48.40    1.80
   2  -3   8   49.40    1.50
  -3   3  -8   10.00    0.80
  -3   3  -8   12.60    0.80
   3  -3   8   13.10    0.90
  -4   3  -8    1.30    0.40
  -4   3  -8    2.10    0.50
   4  -3   8    1.40    0.50
  -5   3  -8    5.00    0.70
   5  -3   8    6.00    0.80
   6   2  -8    5.90    0.90
   5   2  -8    1.90    0.60
  -5  -2   8    1.50    0.70
  -5  -2   8    1.80    0.60
   4   2  -8    6.70    0.80
  -4  -2   8    5.30    0.80
  -4  -2   8    7.30    0.80
  -4  -2   8    4.90    0.70
   3   2  -8   15.20    1.00
  -3  -2   8   16.40    1.20
  -3  -2   8   17.10    0.90
  -3  -2   8   16.80    0.90
  -3  -2   8   17.20    1.10
   2   2  -8   20.60    1.00
  -2  -2   8   22.00    1.10
  -2  -2   8   21.70    0.90
  -2  -2   8   21.20    1.00
  -2  -2   8   19.80    1.10
   1   2  -8   36.80    1.00
   1   2  -8   38.10    1.30
  -1  -2   8   37.80    1.40
  -1  -2   8   37.80    1.30
  -1  -2   8   37.90    1.50
  -1  -2   8   38.70    1.20
   0   2  -8   63.39    1.50
   0   2  -8   61.39    1.70
   0   2  -8   62.59    1.70
   0  -2   8   65.29    2.00
   0  -2   8   61.09    1.70
   0  -2   8   63.39    1.60
   0  -2   8   63.19    2.00
  -1   2  -8  296.77    6.60
  -1   2  -8  303.37    6.60
  -1   2  -8  306.17    5.80
   1  -2   8  310.57    7.10
  -2   2  -8   36.70    1.10
  -2   2  -8   37.20    1.30
   2  -2   8   38.50    1.50
  -3   2  -8   40.20    1.50
  -3   2  -8   39.90    1.50
  -3   2  -8   40.30    1.10
   3  -2   8   40.50    1.70
  -4   2  -8    1.50    0.30
  -4   2  -8    1.20    0.50
  -4   2  -8    2.00    0.50
   4  -2   8    1.10    0.50
  -5   2  -8   17.70    1.20
  -5   2  -8   14.30    1.10
  -5   2  -8   16.70    0.70
   5  -2   8   17.70    1.20
   6   1  -8    0.50    0.60
   5   1  -8    7.40    0.90
  -5  -1   8    4.80    0.70
  -5  -1   8    5.30    0.80
  -5  -1   8    5.40    0.70
   4   1  -8    3.60    0.60
  -4  -1   8    3.10    0.60
  -4  -1   8    4.30    0.70
  -4  -1   8    3.70    0.60
   3   1  -8    4.00    0.60
  -3  -1   8    3.40    0.50
  -3  -1   8    4.10    0.50
  -3  -1   8    4.00    0.60
  -3  -1   8    3.40    0.60
   2   1  -8   74.09    2.10
  -2  -1   8   75.79    2.20
  -2  -1   8   71.19    2.10
  -2  -1   8   75.89    2.10
  -2  -1   8   73.49    2.30
   1   1  -8   55.19    1.60
   1   1  -8   54.79    1.30
   1   1  -8   55.29    1.70
  -1  -1   8   56.29    1.80
  -1  -1   8   56.19    1.60
  -1  -1   8   56.49    1.60
  -1  -1   8   54.89    1.80
   0   1  -8   67.19    1.80
   0   1  -8   67.19    1.80
   0   1  -8   69.49    1.70
   0   1  -8   66.79    1.60
   0  -1   8   68.09    1.80
   0  -1   8   69.29    2.10
   0  -1   8   68.89    1.70
   0  -1   8   67.29    2.00
  -1   1  -8   81.39    2.10
  -1   1  -8   79.29    1.80
   1  -1   8   81.79    2.20
   1  -1   8   79.69    1.90
  -2   1  -8   80.89    1.90
  -2   1  -8   81.59    2.30
  -2   1  -8   84.59    2.40
   2  -1   8   82.89    2.60
  -3   1  -8   17.60    1.00
  -3   1  -8   16.00    0.70
  -3   1  -8   16.30    0.90
   3  -1   8   16.90    1.10
  -4   1  -8    1.00    0.50
  -4   1  -8    1.60    0.40
   4  -1   8    1.10    0.50
  -5   1  -8    1.40    0.50
  -5   1  -8    1.80    0.60
  -5   1  -8    1.90    0.40
   5  -1   8    1.80    0.50
   6   0  -8    0.80    0.60
   5   0  -8   33.80    1.60
  -5   0   8   29.30    1.50
  -5   0   8   31.40    1.70
  -5   0   8   32.40    1.50
   4   0  -8    3.90    0.60
  -4   0   8    4.30    0.70
  -4   0   8    3.70    0.60
  -4   0   8    4.70    0.70
  -4   0   8    5.70    0.70
  -4   0   8    5.00    0.60
   3   0  -8  165.88    4.20
   3   0  -8  167.08    4.20
  -3   0   8  167.48    4.50
  -3   0   8  171.68    4.30
  -3   0   8  172.28    4.30
  -3   0   8  161.78    4.10
  -3   0   8  173.78    4.40
   2   0  -8   12.70    0.80
   2   0  -8   12.90    0.70
  -2   0   8   12.30    0.90
  -2   0   8   12.70    0.80
  -2   0   8   13.60    0.90
  -2   0   8   13.10    0.80
  -2   0   8   13.30    0.70
   1   0  -8   86.19    2.10
   1   0  -8   91.29    2.30
   1   0  -8   87.59    1.90
   1   0  -8   88.59    2.30
  -1   0   8   88.39    2.30
  -1   0   8   91.79    2.60
  -1   0   8   92.79    2.40
  -1   0   8   91.09    2.30
  -1   0   8   89.49    2.60
   0   0  -8  133.69    3.20
   0   0  -8  135.29    3.20
   0   0  -8  136.39    2.80
   0   0  -8  134.29    3.10
   0   0   8  133.69    3.10
   0   0   8  135.99    3.40
  -1   0  -8   39.00    1.30
  -1   0  -8   40.70    1.10
  -1   0  -8   36.90    1.30
   1   0   8   41.70    1.60
  -2   0  -8    3.00    0.50
  -2   0  -8    3.70    0.60
  -2   0  -8    2.80    0.40
   2   0   8    4.20    0.60
  -3   0  -8    3.80    0.50
  -3   0  -8    4.20    0.50
  -3   0  -8    4.10    0.70
   3   0   8    3.80    0.60
  -4   0  -8    6.90    0.60
  -4   0  -8    6.20    0.80
   4   0   8    6.40    0.80
  -5   0  -8    2.70    0.50
  -5   0  -8    2.20    0.70
   6  -1  -8    0.20    0.60
   5  -1  -8    6.40    0.80
  -5   1   8    7.70    0.90
  -5   1   8    7.20    0.90
  -5   1   8    7.40    0.80
  -5   1   8    6.80    0.90
   4  -1  -8    8.90    0.90
   4  -1  -8    7.70    0.80
  -4   1   8    9.10    0.80
  -4   1   8    8.30    0.80
  -4   1   8    8.40    0.90
  -4   1   8    8.90    0.90
  -4   1   8    8.90    0.90
   3  -1  -8    0.50    0.40
   3  -1  -8    0.00    0.30
  -3   1   8    0.20    0.40
  -3   1   8    0.30    0.40
  -3   1   8    0.20    0.50
  -3   1   8    0.00    0.30
   2  -1  -8   14.00    0.80
   2  -1  -8   13.40    0.80
  -2   1   8   13.70    0.80
  -2   1   8   13.80    0.80
  -2   1   8   12.50    0.90
  -2   1   8   14.70    0.90
   1  -1  -8   16.80    0.80
   1  -1  -8   17.20    0.80
   1  -1  -8   16.60    0.60
  -1   1   8   15.40    1.00
  -1   1   8   15.80    0.80
  -1   1   8   15.90    0.80
  -1   1   8   15.90    0.90
   0  -1  -8   68.59    1.80
   0  -1  -8   69.49    1.80
   0  -1  -8   67.89    1.90
   0  -1  -8   67.99    1.60
   0  -1  -8   66.89    1.80
   0   1   8   66.79    1.90
   0   1   8   69.09    1.70
  -1  -1  -8  108.19    2.60
  -1  -1  -8  110.19    2.70
  -1  -1  -8  108.69    2.80
  -1  -1  -8  108.99    2.40
   1   1   8  109.79    3.10
  -2  -1  -8  273.37    5.40
  -2  -1  -8  283.27    6.70
   2   1   8  283.67    6.90
  -3  -1  -8    2.30    0.60
  -3  -1  -8    1.40    0.40
   3   1   8    1.60    0.50
  -4  -1  -8   22.20    1.00
  -4  -1  -8   22.80    1.40
   4   1   8   23.00    1.30
  -5  -1  -8    1.10    0.50
  -5  -1  -8    1.20    0.70
   6  -2  -8    0.20    0.50
   5  -2  -8   40.00    1.80
   5  -2  -8   41.30    1.80
  -5   2   8   41.00    1.90
  -5   2   8   41.70    1.90
  -5   2   8   39.20    1.70
  -5   2   8   38.10    1.80
   4  -2  -8   46.10    1.80
   4  -2  -8   46.80    1.80
  -4   2   8   45.90    1.80
  -4   2   8   46.10    1.90
  -4   2   8   47.60    1.90
  -4   2   8   46.70    1.80
   3  -2  -8    3.20    0.50
   3  -2  -8    2.00    0.40
  -3   2   8    2.70    0.50
  -3   2   8    2.00    0.40
  -3   2   8    2.40    0.50
  -3   2   8    1.50    0.60
   2  -2  -8   39.10    1.40
   2  -2  -8   38.00    1.40
  -2   2   8   39.40    1.60
  -2   2   8   38.30    1.40
  -2   2   8   41.10    1.50
   1  -2  -8   83.09    1.80
   1  -2  -8   86.09    2.30
   1  -2  -8   84.09    2.30
  -1   2   8   84.09    2.60
  -1   2   8   88.19    2.40
  -1   2   8   84.99    2.40
   0  -2  -8    4.20    0.50
   0  -2  -8    4.40    0.40
   0  -2  -8    3.70    0.40
   0  -2  -8    4.00    0.40
   0  -2  -8    4.30    0.40
   0   2   8    4.00    0.40
   0   2   8    2.70    0.50
   0   2   8    4.50    0.40
  -1  -2  -8   11.90    0.70
  -1  -2  -8   11.30    0.60
   1   2   8   10.30    1.00
  -2  -2  -8   27.40    1.40
  -2  -2  -8   28.60    1.00
   2   2   8   30.40    1.40
  -3  -2  -8   11.60    1.10
  -3  -2  -8   12.30    0.80
   3   2   8   12.90    1.00
  -4  -2  -8    5.00    0.90
  -4  -2  -8    5.30    0.60
   4   2   8    4.10    0.70
   6  -3  -8    0.80    0.60
   5  -3  -8   11.50    1.10
   5  -3  -8   10.20    1.00
  -5   3   8   10.50    1.10
  -5   3   8   11.50    1.00
  -5   3   8   10.80    1.10
  -5   3   8    8.80    1.00
   4  -3  -8  177.88    4.60
   4  -3  -8  181.38    4.70
  -4   3   8  173.48    4.60
  -4   3   8  174.38    4.80
  -4   3   8  174.08    4.70
  -4   3   8  172.18    4.80
   3  -3  -8    8.60    0.80
   3  -3  -8    9.90    0.80
  -3   3   8    9.90    0.80
  -3   3   8    7.70    0.90
  -3   3   8    8.50    0.80
   2  -3  -8  103.49    2.80
   2  -3  -8  106.19    2.90
  -2   3   8  102.59    2.90
  -2   3   8  104.29    2.90
  -2   3   8   99.69    3.00
   1  -3  -8    2.00    0.40
   1  -3  -8    0.80    0.30
   1  -3  -8    1.40    0.30
   1  -3  -8    0.90    0.30
  -1   3   8    0.90    0.30
  -1   3   8    1.20    0.50
  -1   3   8    1.10    0.30
   0  -3  -8   30.40    1.20
   0  -3  -8   31.00    1.00
   0  -3  -8   31.80    1.20
   0  -3  -8   30.60    1.00
   0   3   8   31.70    1.40
   0   3   8   30.90    1.10
  -1  -3  -8   30.80    1.10
  -1  -3  -8   28.10    1.00
   1   3   8   27.30    1.40
  -2  -3  -8   62.99    2.20
  -2  -3  -8   64.19    1.70
   2   3   8   63.99    2.30
  -3  -3  -8    1.00    0.60
  -3  -3  -8    0.70    0.40
   3   3   8    0.00    0.40
  -4  -3  -8   11.50    1.20
  -4  -3  -8   10.80    0.90
   6  -4  -8    1.30    0.70
   5  -4  -8   11.00    1.10
   5  -4  -8   10.40    1.00
  -5   4   8    9.70    1.00
  -5   4   8   11.00    1.10
  -5   4   8    9.80    1.00
  -5   4   8   10.00    1.00
   4  -4  -8   11.80    1.00
   4  -4  -8   10.80    1.00
  -4   4   8   12.90    1.20
  -4   4   8   10.30    1.00
  -4   4   8   11.90    1.00
   3  -4  -8   15.40    1.00
   3  -4  -8   14.80    1.00
  -3   4   8   14.00    1.00
  -3   4   8   14.50    1.20
  -3   4   8   15.70    1.00
   2  -4  -8  111.29    3.10
   2  -4  -8  111.49    3.00
  -2   4   8  115.69    3.20
  -2   4   8  112.59    3.40
  -2   4   8  110.79    3.20
   1  -4  -8   24.20    1.10
   1  -4  -8   23.50    1.10
   1  -4  -8   24.30    1.00
  -1   4   8   26.90    1.40
  -1   4   8   23.60    1.10
   0  -4  -8   31.00    1.30
   0  -4  -8   30.10    1.00
   0  -4  -8   30.70    1.20
   0   4   8   31.70    1.60
  -1  -4  -8    0.00    0.40
  -1  -4  -8    0.00    0.30
   1   4   8    0.50    0.50
  -2  -4  -8  101.89    3.20
  -2  -4  -8  103.89    2.40
   2   4   8  102.19    3.20
  -3  -4  -8    0.80    0.50
  -3  -4  -8    1.50    0.70
   3   4   8    0.50    0.50
  -4  -4  -8    1.80    0.60
   6  -5  -8    0.00    0.50
  -6   5   8    0.00    0.60
   5  -5  -8   31.90    1.60
   5  -5  -8   30.50    1.60
  -5   5   8   33.10    1.70
  -5   5   8   31.40    1.70
  -5   5   8   30.20    1.50
  -5   5   8   29.00    1.70
   4  -5  -8    3.70    0.70
   4  -5  -8    2.20    0.60
  -4   5   8    2.50    0.70
  -4   5   8    2.70    0.60
  -4   5   8    3.40    0.60
   3  -5  -8    4.60    0.60
   3  -5  -8    4.10    0.60
  -3   5   8    4.80    0.80
  -3   5   8    4.80    0.70
  -3   5   8    4.20    0.60
   2  -5  -8   49.20    1.60
   2  -5  -8   49.10    1.70
   2  -5  -8   46.90    1.70
  -2   5   8   49.70    1.80
  -2   5   8   45.70    1.90
   1  -5  -8    3.40    0.50
   1  -5  -8    3.30    0.50
   1  -5  -8    3.00    0.50
   1  -5  -8    3.30    0.50
  -1   5   8    2.90    0.50
  -1   5   8    3.20    0.80
   0  -5  -8  218.28    5.40
   0  -5  -8  216.98    4.40
   0  -5  -8  230.48    5.10
   0   5   8  228.28    5.90
  -1  -5  -8    5.40    0.60
  -1  -5  -8    5.10    0.60
   1   5   8    5.20    0.80
  -2  -5  -8    0.90    0.60
  -2  -5  -8    2.10    0.50
   2   5   8    0.70    0.50
  -3  -5  -8    1.70    0.70
  -3  -5  -8    2.50    0.50
   6  -6  -8    7.10    1.00
  -6   6   8    5.50    0.90
   5  -6  -8    0.40    0.50
  -5   6   8    0.60    0.70
  -5   6   8    0.70    0.50
   4  -6  -8    6.60    0.80
   4  -6  -8    9.30    1.00
  -4   6   8    8.40    0.80
  -4   6   8    9.00    0.90
  -4   6   8    8.60    1.00
   3  -6  -8    6.50    0.80
   3  -6  -8    4.40    0.70
  -3   6   8    5.90    0.90
   2  -6  -8   32.80    1.30
   2  -6  -8   33.50    1.40
   2  -6  -8   32.80    1.40
   2  -6  -8   32.50    1.40
  -2   6   8   31.70    1.60
   1  -6  -8    3.30    0.50
   1  -6  -8    3.30    0.50
   1  -6  -8    2.80    0.50
  -1   6   8    3.40    0.80
   0  -6  -8   65.49    2.10
   0  -6  -8   65.29    2.20
   0   6   8   66.19    2.50
  -1  -6  -8   10.10    0.80
  -1  -6  -8    9.50    0.80
   1   6   8    9.20    1.00
  -2  -6  -8    0.00    0.60
  -2  -6  -8    0.00    0.40
   2   6   8    0.00    0.50
  -3  -6  -8    1.70    0.60
  -6   7   8   22.90    1.70
   5  -7  -8    9.70    1.10
  -5   7   8    7.50    1.10
   4  -7  -8    9.80    1.00
   4  -7  -8   11.30    1.00
  -4   7   8    8.50    1.10
  -4   7   8   11.20    1.00
   3  -7  -8   11.50    1.00
   3  -7  -8    9.20    0.90
   3  -7  -8   12.90    1.00
  -3   7   8   12.60    1.20
   2  -7  -8    5.40    0.60
   2  -7  -8    5.70    0.60
   2  -7  -8    5.90    0.80
  -2   7   8    5.40    0.90
   1  -7  -8    2.80    0.50
   1  -7  -8    2.90    0.50
  -1   7   8    3.40    0.80
   0  -7  -8    0.20    0.40
   0  -7  -8    0.20    0.40
   0   7   8    0.20    0.60
  -1  -7  -8   12.10    0.90
   1   7   8    9.70    1.10
  -2  -7  -8    7.70    0.80
   2   7   8    6.30    0.90
   5  -8  -8   40.80    2.00
  -5   8   8   32.50    2.00
   4  -8  -8    6.30    0.90
  -4   8   8    5.00    0.90
   3  -8  -8   20.20    1.10
   3  -8  -8   18.20    1.20
   3  -8  -8   21.60    1.30
  -3   8   8   20.90    1.60
   2  -8  -8   19.30    1.10
   2  -8  -8   18.40    1.10
   2  -8  -8   19.30    1.20
  -2   8   8   19.30    1.50
   1  -8  -8    0.40    0.40
   1  -8  -8    0.30    0.40
  -1   8   8    0.00    0.60
   0  -8  -8   14.10    1.10
   0   8   8   12.60    1.30
  -1  -8  -8   10.40    1.00
   1   8   8   10.80    1.20
  -4   9   8   15.10    1.60
   3  -9  -8    6.40    0.70
  -3   9   8    4.80    1.00
   2  -9  -8    3.00    0.60
  -2   9   8    1.50    0.70
  -2   9   8    3.20    0.60
   1  -9  -8   14.30    1.10
  -1   9   8   14.60    1.40
   0   9   8    4.00    0.90
  -3  10   8   35.90    1.70
  -3  10   8   30.00    2.00
  -2  10   8    4.80    0.80
  -2  10   8    2.90    1.00
  -1  10   8   10.40    1.20
  -1  12  -9   13.40    1.40
   1 -12   9   14.00    1.10
  -2  12  -9    6.90    1.10
   2 -12   9    6.10    0.90
   1  11  -9    1.70    0.80
   0  11  -9    8.30    1.10
   0 -11   9    7.10    0.80
  -1  11  -9    1.50    0.80
   1 -11   9    2.60    0.50
   1 -11   9    2.70    0.60
  -2  11  -9    1.70    0.80
   2 -11   9    1.80    0.40
   2 -11   9    2.30    0.60
  -3  11  -9    2.10    0.80
   3 -11   9    2.90    0.70
   2  10  -9    0.00    0.70
   1  10  -9    0.40    0.70
   0  10  -9    0.00    0.60
   0 -10   9    0.50    0.40
   0 -10   9    0.10    0.30
  -1  10  -9   28.30    1.60
   1 -10   9   27.30    1.30
   1 -10   9   28.10    1.60
   1 -10   9   27.80    1.50
   1 -10   9   28.00    1.40
  -2  10  -9    0.00    0.60
   2 -10   9    0.00    0.30
   2 -10   9    0.00    0.30
   2 -10   9    0.00    0.40
   2 -10   9    0.00    0.40
  -3  10  -9    0.00    0.60
  -3  10  -9    0.20    0.70
   3 -10   9    1.00    0.50
   3 -10   9    2.30    0.60
   3 -10   9    1.20    0.30
  -4  10  -9    4.20    0.80
   4 -10   9    5.40    0.90
   3   9  -9    0.20    0.70
   2   9  -9   37.00    1.90
   1   9  -9    0.70    0.70
  -1  -9   9    0.90    0.60
  -1  -9   9    0.40    0.40
   0   9  -9    1.30    0.70
   0  -9   9    0.90    0.50
   0  -9   9    1.60    0.50
   0  -9   9    1.70    0.50
   0  -9   9    1.20    0.50
  -1   9  -9   34.00    1.60
   1  -9   9   33.20    1.40
   1  -9   9   31.50    1.60
   1  -9   9   35.60    1.60
   1  -9   9   32.80    1.50
  -2   9  -9    4.00    0.70
   2  -9   9    3.50    0.70
   2  -9   9    3.00    0.50
   2  -9   9    3.80    0.50
   2  -9   9    3.70    0.70
  -3   9  -9   36.90    1.70
   3  -9   9   40.10    1.30
   3  -9   9   37.70    1.70
   3  -9   9   38.10    1.80
  -4   9  -9   26.70    1.50
   4  -9   9   24.90    0.90
   4  -9   9   28.60    1.70
   3   8  -9    0.70    0.60
  -3  -8   9    0.00    0.50
   2   8  -9    1.20    0.70
  -2  -8   9    0.40    0.60
  -2  -8   9    0.00    0.50
   1   8  -9   13.30    1.20
   1   8  -9   14.30    0.80
  -1  -8   9   13.70    1.10
  -1  -8   9   12.30    1.10
  -1  -8   9   13.10    1.00
   0   8  -9   11.50    1.00
   0  -8   9   10.20    0.80
   0  -8   9    9.90    1.00
   0  -8   9   10.70    0.90
   0  -8   9   10.70    0.80
  -1   8  -9  100.69    2.90
   1  -8   9   96.79    2.60
   1  -8   9   96.39    2.80
   1  -8   9   96.99    3.00
   1  -8   9   95.59    3.00
  -2   8  -9   41.00    1.70
  -2   8  -9   40.40    1.70
   2  -8   9   42.60    1.70
   2  -8   9   42.80    1.60
   2  -8   9   42.50    1.50
   2  -8   9   44.60    1.90
  -3   8  -9   11.90    1.00
   3  -8   9   12.80    1.00
   3  -8   9   13.80    1.10
   3  -8   9   12.40    0.70
  -4   8  -9    7.70    0.90
   4  -8   9    8.30    1.00
   4  -8   9    7.30    0.50
  -5   8  -9    0.20    0.50
   5  -8   9    0.00    0.50
   4   7  -9    8.30    1.00
   3   7  -9   35.00    1.80
  -3  -7   9   35.80    1.70
   2   7  -9    6.50    0.90
  -2  -7   9    6.10    0.80
  -2  -7   9    5.50    0.80
  -2  -7   9    5.30    0.80
   1   7  -9    0.00    0.50
   1   7  -9    0.30    0.30
  -1  -7   9    0.00    0.30
  -1  -7   9    0.30    0.50
  -1  -7   9    0.00    0.30
  -1  -7   9    0.00    0.40
   0   7  -9    6.30    0.80
   0  -7   9    7.50    0.70
   0  -7   9    8.50    0.70
   0  -7   9    8.10    0.90
   0  -7   9    6.30    0.70
  -1   7  -9   40.80    1.60
   1  -7   9   39.40    1.70
   1  -7   9   40.00    1.40
   1  -7   9   46.10    1.60
   1  -7   9   40.40    1.70
  -2   7  -9   11.80    0.90
  -2   7  -9   12.50    0.90
   2  -7   9   11.10    0.70
   2  -7   9   12.90    0.80
   2  -7   9   12.80    1.00
   2  -7   9   11.90    0.90
  -3   7  -9   25.90    1.30
   3  -7   9   26.50    1.40
   3  -7   9   25.10    1.00
  -4   7  -9   11.90    0.90
   4  -7   9   10.60    0.50
   4  -7   9   11.00    1.10
  -5   7  -9    3.50    0.70
   5  -7   9    3.30    0.80
   4   6  -9    1.40    0.70
  -4  -6   9    0.00    0.50
   3   6  -9   65.99    2.30
  -3  -6   9   61.49    2.30
  -3  -6   9   65.59    2.30
  -3  -6   9   63.09    2.50
   2   6  -9   13.50    1.20
  -2  -6   9   10.80    1.10
  -2  -6   9   10.40    0.90
  -2  -6   9   11.90    0.90
   1   6  -9  158.48    4.10
   1   6  -9  164.08    3.30
  -1  -6   9  158.78    4.40
  -1  -6   9  152.88    4.10
  -1  -6   9  160.38    3.90
  -1  -6   9  156.68    4.00
  -1  -6   9  159.98    4.10
   0   6  -9   30.60    1.40
   0  -6   9   31.90    1.50
   0  -6   9   30.60    1.30
   0  -6   9   32.00    1.30
   0  -6   9   29.40    1.30
  -1   6  -9    8.00    0.80
  -1   6  -9    8.20    0.80
   1  -6   9    8.50    0.70
   1  -6   9    8.80    0.80
   1  -6   9    8.50    0.80
   1  -6   9    7.50    0.70
  -2   6  -9  171.98    4.30
   2  -6   9  174.18    4.60
   2  -6   9  173.98    4.00
   2  -6   9  178.28    4.80
  -3   6  -9   36.10    1.50
   3  -6   9   37.30    1.20
   3  -6   9   36.40    1.70
  -4   6  -9    0.50    0.40
   4  -6   9    0.20    0.40
   4  -6   9    0.30    0.20
  -5   6  -9    2.60    0.60
   5  -6   9    2.80    0.70
   5   5  -9    2.00    0.70
   4   5  -9   21.10    1.40
  -4  -5   9   19.40    1.30
  -4  -5   9   16.90    1.60
   3   5  -9   60.09    2.10
  -3  -5   9   54.19    2.10
  -3  -5   9   52.19    2.20
  -3  -5   9   56.19    2.00
   2   5  -9    0.90    0.50
  -2  -5   9    1.00    0.40
  -2  -5   9    1.10    0.50
  -2  -5   9    0.20    0.50
  -2  -5   9    1.90    0.50
   1   5  -9    1.00    0.50
   1   5  -9    0.80    0.30
  -1  -5   9    1.10    0.40
  -1  -5   9    0.80    0.40
  -1  -5   9    0.60    0.30
  -1  -5   9    0.70    0.50
   0   5  -9    0.50    0.40
   0   5  -9    0.10    0.30
   0  -5   9    0.00    0.30
   0  -5   9    0.00    0.40
   0  -5   9    0.10    0.30
  -1   5  -9   34.70    1.40
  -1   5  -9   36.60    1.30
   1  -5   9   35.20    1.50
   1  -5   9   37.10    1.30
   1  -5   9   36.00    1.40
  -2   5  -9   94.79    2.70
   2  -5   9   97.09    2.80
   2  -5   9   99.39    3.00
  -3   5  -9   12.60    0.90
   3  -5   9   12.70    1.00
  -4   5  -9    0.90    0.40
   4  -5   9    0.60    0.50
   4  -5   9    0.80    0.20
  -5   5  -9    3.00    0.60
   5  -5   9    4.10    0.80
   5   4  -9    4.90    0.90
   4   4  -9   17.50    1.20
  -4  -4   9   13.00    1.30
  -4  -4   9   15.70    1.10
   3   4  -9    5.20    0.70
  -3  -4   9    4.20    0.70
  -3  -4   9    5.60    0.70
  -3  -4   9    4.80    0.70
   2   4  -9    6.60    0.80
  -2  -4   9    6.50    0.70
  -2  -4   9    6.30    0.60
  -2  -4   9    5.80    0.60
  -2  -4   9    5.00    0.70
   1   4  -9   17.20    0.70
   1   4  -9   16.30    1.00
  -1  -4   9   16.90    1.10
  -1  -4   9   16.20    0.80
  -1  -4   9   16.00    0.90
  -1  -4   9   16.00    1.00
   0   4  -9   22.20    1.10
   0   4  -9   22.40    1.00
   0   4  -9   21.60    0.80
   0  -4   9   22.80    1.00
   0  -4   9   21.70    1.20
   0  -4   9   23.00    1.10
  -1   4  -9   12.20    0.70
  -1   4  -9   12.30    0.80
  -1   4  -9   14.20    0.80
   1  -4   9   12.30    0.80
   1  -4   9   13.10    0.70
   1  -4   9   13.90    1.00
  -2   4  -9   26.00    1.10
   2  -4   9   22.10    1.20
  -3   4  -9    0.60    0.40
   3  -4   9    0.80    0.50
  -4   4  -9    3.10    0.50
   4  -4   9    2.30    0.60
  -5   4  -9    1.50    0.50
   5  -4   9    2.10    0.60
   5   3  -9    1.60    0.60
   4   3  -9    0.00    0.40
  -4  -3   9    0.00    0.50
  -4  -3   9    0.00    0.50
  -4  -3   9    0.20    0.40
   3   3  -9   47.50    1.80
  -3  -3   9   49.90    1.90
  -3  -3   9   48.20    1.70
  -3  -3   9   49.10    2.00
   2   3  -9   10.90    0.90
  -2  -3   9   10.80    0.80
  -2  -3   9   11.40    1.00
  -2  -3   9   13.00    0.80
  -2  -3   9   12.20    0.90
   1   3  -9   73.09    2.10
   1   3  -9   72.29    1.70
  -1  -3   9   73.99    2.40
  -1  -3   9   71.59    2.10
  -1  -3   9   74.69    2.00
  -1  -3   9   71.79    2.30
   0   3  -9    4.00    0.50
   0   3  -9    5.10    0.50
   0   3  -9    4.20    0.50
   0  -3   9    3.00    0.50
   0  -3   9    6.90    0.70
   0  -3   9    4.50    0.50
  -1   3  -9   22.80    1.00
  -1   3  -9   21.40    0.90
  -1   3  -9   22.90    0.90
   1  -3   9   23.60    1.00
   1  -3   9   22.50    1.20
   1  -3   9   22.70    0.90
  -2   3  -9    1.50    0.40
  -2   3  -9    2.10    0.40
   2  -3   9    1.60    0.50
  -3   3  -9    4.10    0.60
  -3   3  -9    4.30    0.60
  -3   3  -9    4.00    0.40
   3  -3   9    3.80    0.60
  -4   3  -9   36.70    1.60
  -4   3  -9   35.00    1.10
   4  -3   9   34.80    1.60
  -5   3  -9    2.40    0.40
  -5   3  -9    1.50    0.60
   5  -3   9    2.20    0.20
   5  -3   9    1.80    0.60
   6   2  -9    1.80    0.70
   5   2  -9    0.40    0.50
  -5  -2   9    0.50    0.50
   4   2  -9    5.80    0.80
  -4  -2   9    4.80    0.80
  -4  -2   9    4.20    0.60
  -4  -2   9    4.60    0.70
   3   2  -9   13.60    1.00
  -3  -2   9   11.60    1.10
  -3  -2   9   13.30    0.90
  -3  -2   9   11.00    0.80
  -3  -2   9   11.80    1.00
   2   2  -9   57.09    1.80
  -2  -2   9   55.39    1.70
  -2  -2   9   52.89    1.80
  -2  -2   9   53.29    2.00
  -2  -2   9   55.19    1.90
   1   2  -9   70.69    2.00
   1   2  -9   70.89    1.60
  -1  -2   9   68.69    2.20
  -1  -2   9   69.09    1.90
  -1  -2   9   70.79    2.00
  -1  -2   9   69.29    2.30
   0   2  -9  121.19    2.60
   0   2  -9  119.49    3.00
   0   2  -9  120.39    2.90
   0  -2   9  124.09    3.30
   0  -2   9  120.09    3.40
   0  -2   9  121.29    2.90
  -1   2  -9  113.39    2.50
  -1   2  -9  110.09    2.90
   1  -2   9  115.89    3.00
   1  -2   9  113.09    3.30
  -2   2  -9    7.10    0.60
  -2   2  -9    8.00    0.70
   2  -2   9    7.60    0.80
  -3   2  -9    0.30    0.30
  -3   2  -9    0.60    0.30
  -3   2  -9    0.00    0.40
   3  -2   9    0.00    0.40
  -4   2  -9   11.00    1.00
  -4   2  -9   11.80    1.00
  -4   2  -9   12.40    0.70
   4  -2   9   13.70    1.10
  -5   2  -9    5.80    0.80
  -5   2  -9    7.80    0.70
   5  -2   9    7.00    0.90
   6   1  -9    0.00    0.60
   5   1  -9    1.80    0.60
  -5  -1   9    2.50    0.60
  -5  -1   9    0.30    0.60
   4   1  -9   44.20    1.70
  -4  -1   9   39.80    1.90
  -4  -1   9   40.20    1.70
  -4  -1   9   36.90    1.70
   3   1  -9    0.80    0.40
  -3  -1   9    1.00    0.40
  -3  -1   9    1.20    0.50
  -3  -1   9    1.00    0.50
  -3  -1   9    1.20    0.40
   2   1  -9   50.39    1.70
  -2  -1   9   51.79    1.60
  -2  -1   9   49.00    1.80
  -2  -1   9   50.19    1.70
  -2  -1   9   47.10    1.90
   1   1  -9    5.30    0.40
   1   1  -9    5.40    0.50
   1   1  -9    5.50    0.50
  -1  -1   9    4.60    0.50
  -1  -1   9    5.10    0.50
  -1  -1   9    5.30    0.60
  -1  -1   9    5.50    0.70
   0   1  -9    4.70    0.50
   0   1  -9    4.40    0.40
   0   1  -9    4.30    0.40
   0  -1   9    4.00    0.50
   0  -1   9    3.70    0.40
   0  -1   9    4.20    0.60
  -1   1  -9  353.76    6.80
  -1   1  -9  356.46    7.70
   1  -1   9  366.26    8.30
   1  -1   9  357.16    8.60
  -2   1  -9   33.90    1.10
  -2   1  -9   34.00    1.30
   2  -1   9   34.20    1.50
  -3   1  -9    4.90    0.50
  -3   1  -9    5.10    0.70
  -3   1  -9    4.40    0.60
   3  -1   9    3.90    0.60
  -4   1  -9    1.20    0.40
  -4   1  -9    1.30    0.60
  -4   1  -9    1.40    0.50
   4  -1   9    1.10    0.50
  -5   1  -9    0.50    0.50
  -5   1  -9    0.90    0.40
  -5   1  -9    0.40    0.60
   5  -1   9    0.90    0.50
   6   0  -9    6.80    0.90
   5   0  -9    0.60    0.60
  -5   0   9    1.10    0.50
  -5   0   9    0.80    0.60
   4   0  -9    6.10    0.80
  -4   0   9    6.30    0.70
  -4   0   9    6.40    0.70
  -4   0   9    6.70    0.90
  -4   0   9    5.90    0.80
  -4   0   9    5.80    0.70
   3   0  -9    2.20    0.50
   3   0  -9    2.70    0.50
  -3   0   9    2.50    0.50
  -3   0   9    2.60    0.60
  -3   0   9    1.90    0.60
  -3   0   9    1.90    0.40
  -3   0   9    2.70    0.60
   2   0  -9    4.20    0.50
   2   0  -9    3.30    0.50
  -2   0   9    3.90    0.50
  -2   0   9    4.00    0.60
  -2   0   9    3.70    0.50
  -2   0   9    3.20    0.60
  -2   0   9    4.00    0.50
   1   0  -9    0.50    0.30
   1   0  -9    0.00    0.20
   1   0  -9    0.20    0.30
   1   0  -9    0.80    0.30
  -1   0   9    0.80    0.30
  -1   0   9    0.70    0.50
  -1   0   9    0.00    0.40
  -1   0   9    0.00    0.20
  -1   0   9    0.20    0.30
   0   0  -9    2.00    0.30
   0   0  -9    1.50    0.40
   0   0  -9    1.70    0.30
   0   0   9    1.30    0.40
   0   0   9    1.60    0.30
   0   0   9    1.90    0.50
  -1   0  -9  106.09    2.70
  -1   0  -9  105.39    2.40
   1   0   9  110.59    3.20
  -2   0  -9    1.00    0.40
  -2   0  -9    1.20    0.40
   2   0   9    0.90    0.40
  -3   0  -9    0.00    0.30
  -3   0  -9    0.00    0.40
  -3   0  -9    0.10    0.40
   3   0   9    0.00    0.30
  -4   0  -9    2.30    0.60
  -4   0  -9    2.50    0.50
  -4   0  -9    2.80    0.70
   4   0   9    2.40    0.60
  -5   0  -9   52.39    2.10
   6  -1  -9    2.30    0.70
   5  -1  -9   93.99    3.00
  -5   1   9   89.99    3.10
  -5   1   9   90.79    3.00
  -5   1   9   95.89    3.20
   4  -1  -9    1.90    0.60
   4  -1  -9    2.00    0.50
  -4   1   9    1.60    0.50
  -4   1   9    2.00    0.60
  -4   1   9    1.70    0.60
  -4   1   9    2.20    0.50
  -4   1   9    2.70    0.60
   3  -1  -9    1.10    0.40
   3  -1  -9    1.00    0.40
  -3   1   9    1.00    0.50
  -3   1   9    1.20    0.50
  -3   1   9    1.50    0.50
  -3   1   9    1.50    0.40
  -3   1   9    0.80    0.30
   2  -1  -9   30.60    1.30
   2  -1  -9   31.60    1.20
  -2   1   9   32.10    1.20
  -2   1   9   32.40    1.40
  -2   1   9   29.90    1.50
  -2   1   9   32.90    1.30
  -2   1   9   31.50    1.30
   1  -1  -9   44.50    1.40
   1  -1  -9   44.70    1.20
   1  -1  -9   44.10    1.40
  -1   1   9   44.30    1.40
  -1   1   9   43.20    1.60
  -1   1   9   44.90    1.50
  -1   1   9   45.10    1.80
   0  -1  -9   13.90    0.70
   0  -1  -9   13.10    0.70
   0  -1  -9   12.80    0.60
   0   1   9   12.10    1.00
   0   1   9   12.20    0.70
   0   1   9   13.20    0.80
  -1  -1  -9   31.90    1.10
  -1  -1  -9   30.40    1.20
   1   1   9   31.20    1.50
  -2  -1  -9   25.20    1.30
  -2  -1  -9   25.40    1.10
  -2  -1  -9   25.60    1.00
   2   1   9   25.10    1.40
  -3  -1  -9   34.90    1.60
  -3  -1  -9   33.30    1.40
  -3  -1  -9   31.60    1.20
   3   1   9   32.30    1.60
  -4  -1  -9    3.90    0.60
  -4  -1  -9    4.00    0.80
   4   1   9    3.60    0.70
   6  -2  -9    0.80    0.60
   5  -2  -9    0.30    0.50
   5  -2  -9    0.60    0.60
  -5   2   9    0.60    0.50
  -5   2   9    0.30    0.50
  -5   2   9    0.10    0.50
   4  -2  -9   33.70    1.60
   4  -2  -9   37.90    1.60
  -4   2   9   34.70    1.70
  -4   2   9   33.20    1.50
  -4   2   9   32.70    1.60
  -4   2   9   34.00    1.60
   3  -2  -9   69.79    2.20
   3  -2  -9   65.09    2.20
  -3   2   9   66.69    2.30
  -3   2   9   68.19    2.30
  -3   2   9   65.79    2.20
  -3   2   9   66.89    2.30
   2  -2  -9   24.20    1.10
   2  -2  -9   25.50    1.10
  -2   2   9   25.20    1.20
  -2   2   9   24.10    1.20
  -2   2   9   25.40    1.30
   1  -2  -9    4.40    0.50
   1  -2  -9    3.80    0.40
   1  -2  -9    3.30    0.40
  -1   2   9    4.30    0.70
  -1   2   9    3.70    0.50
  -1   2   9    4.80    0.50
   0  -2  -9    8.70    0.60
   0  -2  -9    7.70    0.60
   0  -2  -9    8.60    0.70
   0  -2  -9    8.80    0.60
   0   2   9    7.90    0.70
   0   2   9    6.60    0.80
  -1  -2  -9   73.09    1.80
  -1  -2  -9   73.09    2.00
   1   2   9   73.59    2.50
  -2  -2  -9   15.70    1.10
  -2  -2  -9   14.30    0.90
   2   2   9   15.50    1.10
  -3  -2  -9   46.90    2.00
  -3  -2  -9   49.10    1.50
   3   2   9   46.60    2.00
  -4  -2  -9    3.90    0.80
  -4  -2  -9    4.00    0.60
   4   2   9    3.90    0.70
   6  -3  -9    3.90    0.80
   5  -3  -9   11.50    1.10
   5  -3  -9   12.80    1.10
  -5   3   9   13.00    1.20
  -5   3   9    9.30    1.00
  -5   3   9   11.80    1.10
  -5   3   9   13.50    1.20
   4  -3  -9    3.80    0.70
   4  -3  -9    3.70    0.70
  -4   3   9    3.80    0.60
  -4   3   9    3.70    0.70
  -4   3   9    3.90    0.80
  -4   3   9    3.70    0.60
   3  -3  -9  197.38    4.90
   3  -3  -9  199.08    5.00
  -3   3   9  198.58    5.20
  -3   3   9  191.68    5.20
  -3   3   9  194.78    5.10
   2  -3  -9    0.50    0.40
   2  -3  -9    1.10    0.40
  -2   3   9    0.70    0.40
  -2   3   9    0.70    0.50
  -2   3   9    0.10    0.30
   1  -3  -9   66.19    2.00
   1  -3  -9   61.79    2.00
   1  -3  -9   65.79    1.90
  -1   3   9   62.39    2.30
  -1   3   9   62.89    2.00
  -1   3   9   63.49    2.00
   0  -3  -9   21.40    1.10
   0  -3  -9   22.20    0.90
   0  -3  -9   20.60    1.00
   0   3   9   19.90    1.30
  -1  -3  -9   19.70    0.90
  -1  -3  -9   20.30    0.90
   1   3   9   21.60    1.30
  -2  -3  -9   57.39    2.20
  -2  -3  -9   58.19    1.70
   2   3   9   56.89    2.20
  -3  -3  -9   34.00    1.30
  -3  -3  -9   37.10    1.80
   3   3   9   35.20    1.70
  -4  -3  -9    0.10    0.50
   6  -4  -9    2.70    0.80
   5  -4  -9   17.20    1.30
  -5   4   9   16.20    1.20
  -5   4   9   15.80    1.20
  -5   4   9   14.70    1.30
   4  -4  -9    0.00    0.40
   4  -4  -9    0.50    0.50
  -4   4   9    0.50    0.50
  -4   4   9    0.10    0.40
  -4   4   9    0.70    0.40
  -4   4   9    0.00    0.60
   3  -4  -9    8.70    0.90
   3  -4  -9    8.40    0.80
  -3   4   9    9.10    1.10
  -3   4   9    9.80    0.90
  -3   4   9    8.50    0.90
   2  -4  -9   57.89    1.90
   2  -4  -9   57.09    2.00
  -2   4   9   58.79    2.00
  -2   4   9   55.59    2.00
  -2   4   9   57.79    2.30
   1  -4  -9  150.88    3.70
   1  -4  -9  143.19    3.80
   1  -4  -9  150.98    3.60
  -1   4   9  142.69    4.20
  -1   4   9  152.18    3.90
   0  -4  -9   37.90    1.40
   0  -4  -9   38.00    1.50
   0  -4  -9   39.30    1.20
   0   4   9   38.20    1.80
  -1  -4  -9    5.50    0.60
   1   4   9    5.80    0.90
  -2  -4  -9   33.40    1.70
  -2  -4  -9   32.10    1.20
   2   4   9   30.40    1.60
  -3  -4  -9    0.40    0.70
  -3  -4  -9    0.60    0.50
   3   4   9    0.00    0.50
   6  -5  -9    0.60    0.60
   5  -5  -9    8.10    1.00
  -5   5   9    5.80    0.80
  -5   5   9    6.00    1.00
   4  -5  -9    3.00    0.60
   4  -5  -9    3.40    0.70
  -4   5   9    2.60    0.60
  -4   5   9    1.70    0.80
  -4   5   9    3.20    0.60
   3  -5  -9    1.00    0.50
   3  -5  -9    1.50    0.50
  -3   5   9    1.60    0.70
  -3   5   9    1.80    0.50
  -3   5   9    1.90    0.50
   2  -5  -9   19.10    1.10
   2  -5  -9   20.10    1.00
   2  -5  -9   18.50    1.10
  -2   5   9   20.50    1.10
  -2   5   9   20.30    1.50
   1  -5  -9   16.80    1.00
   1  -5  -9   18.20    1.00
  -1   5   9   17.30    1.30
   0  -5  -9   20.50    1.10
   0  -5  -9   21.40    1.20
   0   5   9   22.20    1.50
  -1  -5  -9   21.00    1.00
   1   5   9   21.20    1.40
  -2  -5  -9   11.70    1.20
  -2  -5  -9   10.00    0.90
   2   5   9   11.30    1.10
  -3  -5  -9   11.90    1.00
   5  -6  -9   13.70    1.30
  -5   6   9   12.20    1.30
   4  -6  -9    7.60    0.90
   4  -6  -9   12.50    1.10
  -4   6   9    8.30    0.90
  -4   6   9    7.10    1.00
  -4   6   9    7.70    0.90
   3  -6  -9    8.40    0.90
   3  -6  -9    7.20    0.80
  -3   6   9    9.00    0.90
  -3   6   9    8.10    1.00
  -3   6   9    9.80    0.90
   2  -6  -9    2.20    0.50
   2  -6  -9    2.10    0.50
   2  -6  -9    3.40    0.60
  -2   6   9    3.00    0.50
  -2   6   9    2.70    0.80
   1  -6  -9    5.10    0.70
   1  -6  -9    5.30    0.70
  -1   6   9    4.80    0.80
   0  -6  -9    0.40    0.30
   0   6   9    0.00    0.50
  -1  -6  -9   19.30    1.00
   1   6   9   17.30    1.30
  -2  -6  -9    1.90    0.60
   2   6   9    2.10    0.70
   5  -7  -9   12.80    1.20
  -5   7   9    8.90    1.10
   4  -7  -9   12.30    1.10
  -4   7   9   12.30    1.10
  -4   7   9    9.50    1.20
   3  -7  -9   16.30    1.20
   3  -7  -9   20.20    1.30
  -3   7   9   18.80    1.50
   2  -7  -9   17.60    1.10
   2  -7  -9   19.10    1.10
   2  -7  -9   17.00    1.10
  -2   7   9   17.20    1.50
   1  -7  -9    2.50    0.60
   1  -7  -9    2.30    0.50
  -1   7   9    1.10    0.60
   0  -7  -9    2.00    0.50
   0   7   9    1.40    0.70
   1   7   9    3.60    0.90
   4  -8  -9   28.30    1.60
  -4   8   9   24.20    1.80
  -3   8   9    0.00    0.60
   2  -8  -9   12.20    1.00
  -2   8   9   10.90    1.20
   1  -8  -9   20.20    1.30
   1  -8  -9   20.30    1.20
  -1   8   9   20.00    1.50
   0   8   9    5.40    1.00
  -3   9   9   22.50    1.70
   2  -9  -9    3.20    0.60
  -2   9   9    3.10    0.90
   1  -9  -9    9.40    0.90
  -1   9   9    7.50    1.20
   0  11 -10    6.10    1.00
   0 -11  10    4.90    0.70
  -1  11 -10    6.20    1.00
   1 -11  10    5.80    0.80
  -2  11 -10   11.40    1.20
   2 -11  10   12.70    1.10
   1  10 -10    0.80    0.70
   0  10 -10    4.00    0.90
   0 -10  10    3.50    0.60
  -1  10 -10    0.80    0.70
   1 -10  10    0.50    0.50
   1 -10  10    1.10    0.40
  -2  10 -10    2.20    0.70
   2 -10  10    2.80    0.70
   2 -10  10    2.80    0.50
  -3  10 -10    8.20    1.00
   3 -10  10   11.80    1.10
   2   9 -10    2.40    0.80
   1   9 -10    8.30    1.00
   1   9 -10    8.60    0.70
   0   9 -10    2.50    0.70
   0  -9  10    3.00    0.70
   0  -9  10    2.80    0.60
   0  -9  10    1.80    0.50
   0  -9  10    2.20    0.60
  -1   9 -10    0.90    0.60
   1  -9  10    1.60    0.50
   1  -9  10    0.40    0.40
   1  -9  10    0.40    0.40
   1  -9  10    1.50    0.40
  -2   9 -10   12.00    1.10
   2  -9  10   11.50    1.00
   2  -9  10   14.90    1.20
   2  -9  10   13.70    0.90
  -3   9 -10    0.00    0.50
   3  -9  10    0.20    0.30
   3  -9  10    0.30    0.50
  -4   9 -10    0.80    0.50
   4  -9  10    0.70    0.60
   3   8 -10    3.80    0.90
   2   8 -10   31.60    1.70
   1   8 -10    6.10    0.60
   1   8 -10    4.40    0.80
  -1  -8  10    4.80    0.80
  -1  -8  10    4.20    0.70
  -1  -8  10    6.00    0.70
   0   8 -10    0.40    0.60
   0  -8  10    0.00    0.40
   0  -8  10    0.00    0.40
   0  -8  10    0.00    0.40
   0  -8  10    0.00    0.30
  -1   8 -10   24.50    1.30
   1  -8  10   23.50    1.20
   1  -8  10   24.30    1.20
   1  -8  10   25.10    1.40
   1  -8  10   25.00    1.40
  -2   8 -10    3.10    0.60
   2  -8  10    3.60    0.50
   2  -8  10    3.10    0.60
   2  -8  10    4.30    0.70
  -3   8 -10    4.50    0.70
   3  -8  10    3.50    0.70
   3  -8  10    3.30    0.40
  -4   8 -10    5.30    0.80
   4  -8  10    4.70    0.80
   4   7 -10    1.60    0.70
   3   7 -10   20.10    1.40
  -3  -7  10   17.30    1.30
   2   7 -10   22.40    1.40
  -2  -7  10   16.30    1.40
   1   7 -10    1.80    0.60
   1   7 -10    1.80    0.40
  -1  -7  10    1.40    0.40
  -1  -7  10    1.10    0.40
  -1  -7  10    1.00    0.50
  -1  -7  10    0.90    0.60
   0   7 -10   22.50    1.30
   0  -7  10   20.90    1.10
   0  -7  10   21.90    1.20
   0  -7  10   19.40    1.30
   0  -7  10   19.50    1.10
  -1   7 -10    6.10    0.70
   1  -7  10    6.20    0.80
   1  -7  10    6.40    0.70
   1  -7  10    7.50    0.70
   1  -7  10    6.20    0.80
  -2   7 -10    0.10    0.40
   2  -7  10    0.00    0.40
   2  -7  10    0.00    0.30
   2  -7  10    0.20    0.30
  -3   7 -10    9.60    0.80
   3  -7  10    8.20    0.90
   3  -7  10    7.50    0.60
  -4   7 -10    5.00    0.70
   4  -7  10    4.30    0.40
   4  -7  10    6.80    0.90
   4   6 -10    7.70    1.00
   3   6 -10   21.50    1.40
  -3  -6  10   20.50    1.30
   2   6 -10    0.90    0.50
  -2  -6  10    0.00    0.40
  -2  -6  10    0.00    0.50
   1   6 -10    0.00    0.40
   1   6 -10    1.30    0.50
  -1  -6  10    0.00    0.30
  -1  -6  10    0.00    0.40
  -1  -6  10    0.30    0.40
  -1  -6  10    0.10    0.50
   0   6 -10    0.40    0.40
   0   6 -10    0.70    0.50
   0  -6  10    0.00    0.40
   0  -6  10    0.00    0.40
   0  -6  10    0.50    0.40
  -1   6 -10    4.00    0.60
  -1   6 -10    2.10    0.60
   1  -6  10    2.00    0.50
   1  -6  10    1.90    0.40
   1  -6  10    2.10    0.50
  -2   6 -10   30.10    1.40
   2  -6  10   28.80    1.20
   2  -6  10   30.20    1.50
  -3   6 -10    8.10    0.80
   3  -6  10    7.60    0.90
   3  -6  10    7.60    0.60
  -4   6 -10    2.00    0.60
   4  -6  10    1.60    0.60
   4  -6  10    1.50    0.30
   4   5 -10    5.20    0.90
  -4  -5  10    5.00    0.80
   3   5 -10    3.80    0.70
  -3  -5  10    3.20    0.70
  -3  -5  10    3.80    0.70
  -3  -5  10    2.50    0.70
   2   5 -10    0.80    0.50
  -2  -5  10    0.70    0.40
  -2  -5  10    0.10    0.50
  -2  -5  10    0.10    0.50
  -2  -5  10    0.20    0.30
   1   5 -10    0.30    0.40
   1   5 -10    0.00    0.30
  -1  -5  10    0.00    0.30
  -1  -5  10    0.00    0.40
  -1  -5  10    0.00    0.40
   0   5 -10    0.00    0.40
   0   5 -10    0.00    0.30
   0  -5  10    0.40    0.40
   0  -5  10    0.00    0.40
   0  -5  10    0.00    0.40
  -1   5 -10   93.29    2.60
  -1   5 -10   96.29    2.20
  -1   5 -10   94.69    2.70
   1  -5  10   94.59    3.00
   1  -5  10   93.19    2.80
  -2   5 -10    0.60    0.40
   2  -5  10    0.40    0.40
  -3   5 -10    4.00    0.60
   3  -5  10    3.80    0.70
  -4   5 -10    1.30    0.40
   4  -5  10    0.70    0.30
   4  -5  10    0.50    0.50
   5  -5  10    0.10    0.50
   5   4 -10    1.80    0.70
   4   4 -10    1.80    0.60
  -4  -4  10    2.80    0.60
   3   4 -10    0.60    0.50
  -3  -4  10    0.00    0.60
  -3  -4  10    0.20    0.50
  -3  -4  10    1.20    0.50
   2   4 -10    0.30    0.50
  -2  -4  10    0.20    0.30
  -2  -4  10    0.00    0.30
  -2  -4  10    0.40    0.50
  -2  -4  10    0.00    0.40
   1   4 -10    5.40    0.60
   1   4 -10    5.60    0.50
  -1  -4  10    4.50    0.60
  -1  -4  10    5.30    0.70
  -1  -4  10    4.40    0.60
   0   4 -10  244.98    4.90
   0   4 -10  249.38    5.60
   0   4 -10  248.08    5.70
   0  -4  10  238.68    6.20
   0  -4  10  248.78    6.20
   0  -4  10  244.08    5.60
  -1   4 -10    8.70    0.70
  -1   4 -10   10.10    0.80
   1  -4  10   10.30    0.90
   1  -4  10    8.10    0.80
  -2   4 -10   59.39    1.60
  -2   4 -10   57.99    1.90
   2  -4  10   58.19    2.20
  -3   4 -10    4.70    0.50
  -3   4 -10    3.60    0.60
   3  -4  10    4.20    0.70
  -4   4 -10    0.50    0.40
  -4   4 -10    0.10    0.40
   4  -4  10    0.10    0.40
  -5   4 -10    3.40    0.70
   5  -4  10    2.80    0.70
   5   3 -10    2.60    0.70
   4   3 -10    0.50    0.50
  -4  -3  10    0.00    0.50
  -4  -3  10    0.00    0.40
   3   3 -10    6.30    0.80
  -3  -3  10    5.20    0.60
  -3  -3  10    4.80    0.80
  -3  -3  10    5.20    0.70
   2   3 -10    0.20    0.40
  -2  -3  10    0.00    0.50
  -2  -3  10    0.00    0.30
  -2  -3  10    0.20    0.40
  -2  -3  10    0.30    0.30
   1   3 -10   51.19    1.40
   1   3 -10   52.09    1.80
  -1  -3  10   52.09    1.90
  -1  -3  10   51.29    2.00
  -1  -3  10   50.39    1.70
   0   3 -10   63.69    1.60
   0   3 -10   62.59    1.90
   0   3 -10   62.79    1.90
   0  -3  10   61.59    2.20
   0  -3  10   61.59    2.10
   0  -3  10   60.69    1.90
  -1   3 -10   10.80    0.70
  -1   3 -10   10.10    0.80
   1  -3  10   10.60    0.90
   1  -3  10   10.00    0.80
  -2   3 -10   43.80    1.60
  -2   3 -10   42.80    1.30
   2  -3  10   43.10    1.80
  -3   3 -10   30.10    1.10
  -3   3 -10   28.00    1.30
   3  -3  10   28.60    1.50
  -4   3 -10    3.00    0.50
  -4   3 -10    3.80    0.60
   4  -3  10    3.10    0.70
   5   2 -10    1.80    0.70
   4   2 -10   11.00    1.10
  -4  -2  10   10.80    1.00
  -4  -2  10    9.80    1.10
  -4  -2  10   11.20    0.90
   3   2 -10    5.90    0.70
  -3  -2  10    7.20    0.70
  -3  -2  10    7.10    0.70
  -3  -2  10    4.90    0.70
  -3  -2  10    6.60    0.80
   2   2 -10   10.60    0.90
  -2  -2  10    9.00    0.90
  -2  -2  10   11.10    0.70
  -2  -2  10    9.20    0.90
  -2  -2  10    9.60    0.90
   1   2 -10    1.50    0.40
   1   2 -10    1.10    0.40
  -1  -2  10    0.80    0.50
  -1  -2  10    1.70    0.50
  -1  -2  10    0.70    0.40
   0   2 -10  154.08    3.20
   0   2 -10  151.38    3.60
   0   2 -10  155.68    3.70
   0  -2  10  152.08    3.60
   0  -2  10  156.48    4.10
   0  -2  10  144.19    4.10
  -1   2 -10    0.10    0.30
  -1   2 -10    0.20    0.40
   1  -2  10    0.80    0.50
  -2   2 -10    0.90    0.40
  -2   2 -10    1.20    0.40
   2  -2  10    0.80    0.50
  -3   2 -10    1.80    0.40
  -3   2 -10    1.30    0.40
   3  -2  10    0.30    0.40
  -4   2 -10   26.10    1.10
  -4   2 -10   25.20    1.40
   4  -2  10   25.60    1.50
   5   1 -10    7.30    0.90
   4   1 -10    0.00    0.50
  -4  -1  10    0.70    0.40
  -4  -1  10    0.00    0.50
  -4  -1  10    0.00    0.50
   3   1 -10    3.20    0.60
  -3  -1  10    2.80    0.60
  -3  -1  10    2.90    0.60
  -3  -1  10    3.80    0.60
  -3  -1  10    3.60    0.50
   2   1 -10    6.60    0.70
  -2  -1  10    6.70    0.80
  -2  -1  10    6.40    0.60
  -2  -1  10    6.10    0.70
  -2  -1  10    6.30    0.70
   1   1 -10    3.30    0.50
   1   1 -10    3.80    0.40
  -1  -1  10    3.30    0.60
  -1  -1  10    3.60    0.50
  -1  -1  10    3.00    0.60
   0   1 -10   15.90    0.80
   0   1 -10   16.70    0.80
   0  -1  10   15.30    1.00
   0  -1  10   15.20    1.00
  -1   1 -10  184.38    4.40
  -1   1 -10  191.48    3.90
   1  -1  10  197.28    5.10
  -2   1 -10   23.30    1.00
  -2   1 -10   24.00    1.10
   2  -1  10   22.50    1.30
  -3   1 -10    1.00    0.40
  -3   1 -10    0.90    0.40
  -3   1 -10    1.20    0.50
   3  -1  10    0.20    0.40
  -4   1 -10   14.50    0.90
  -4   1 -10   15.90    1.10
  -4   1 -10   14.70    1.20
   4  -1  10   15.30    1.20
   5   0 -10    7.80    1.00
  -5   0  10    7.70    1.00
   4   0 -10    4.20    0.70
  -4   0  10    3.90    0.60
  -4   0  10    3.80    0.70
  -4   0  10    2.90    0.70
  -4   0  10    4.50    0.70
   3   0 -10    0.90    0.40
   3   0 -10    0.40    0.40
  -3   0  10    0.90    0.40
  -3   0  10    1.50    0.40
  -3   0  10    0.40    0.50
  -3   0  10    1.20    0.50
  -3   0  10    0.00    0.40
   2   0 -10   23.10    1.10
   2   0 -10   21.10    1.00
  -2   0  10   23.00    1.10
  -2   0  10   22.40    1.00
  -2   0  10   23.60    1.30
  -2   0  10   22.80    1.10
  -2   0  10   22.10    1.30
   1   0 -10    3.00    0.40
   1   0 -10    2.50    0.40
   1   0 -10    3.80    0.50
  -1   0  10    2.20    0.40
  -1   0  10    2.80    0.40
  -1   0  10    3.20    0.70
  -1   0  10    2.50    0.50
   0   0 -10   71.89    1.80
   0   0 -10   72.79    2.00
   0   0  10   73.59    2.20
   0   0  10   68.09    2.40
  -1   0 -10    1.00    0.40
  -1   0 -10    0.40    0.30
   1   0  10    0.70    0.50
  -2   0 -10    4.70    0.50
  -2   0 -10    4.30    0.60
   2   0  10    5.90    0.80
  -3   0 -10   22.60    1.40
  -3   0 -10   21.50    1.00
  -3   0 -10   21.40    1.20
   3   0  10   21.90    1.40
  -4   0 -10   40.40    1.90
  -4   0 -10   41.80    1.40
  -4   0 -10   40.70    1.80
   4   0  10   42.10    2.00
   5  -1 -10   35.60    1.80
  -5   1  10   34.30    1.80
  -5   1  10   33.30    1.80
   4  -1 -10    5.00    0.70
   4  -1 -10    4.40    0.70
  -4   1  10    4.00    0.60
  -4   1  10    6.10    0.70
  -4   1  10    4.30    0.70
  -4   1  10    4.60    0.80
  -4   1  10    4.20    0.70
   3  -1 -10    0.10    0.40
   3  -1 -10    0.00    0.40
  -3   1  10    0.20    0.40
  -3   1  10    0.00    0.50
  -3   1  10    0.60    0.40
  -3   1  10    0.00    0.40
  -3   1  10    0.10    0.30
   2  -1 -10   21.50    1.10
   2  -1 -10   21.00    1.10
  -2   1  10   22.80    1.10
  -2   1  10   23.20    1.40
  -2   1  10   22.20    1.20
  -2   1  10   22.90    1.10
  -2   1  10   21.50    1.00
   1  -1 -10    0.80    0.30
   1  -1 -10    0.70    0.30
   1  -1 -10    0.80    0.30
  -1   1  10    1.30    0.40
  -1   1  10    0.80    0.50
  -1   1  10    0.90    0.30
   0  -1 -10   10.20    0.70
   0   1  10   10.40    1.00
  -1  -1 -10   12.20    0.80
  -1  -1 -10   11.50    0.80
   1   1  10    9.70    1.00
  -2  -1 -10   40.90    1.30
  -2  -1 -10   41.40    1.60
   2   1  10   40.40    1.80
  -3  -1 -10   16.10    1.10
  -3  -1 -10   15.50    0.90
  -3  -1 -10   18.30    1.30
   3   1  10   17.40    1.30
  -4  -1 -10    0.60    0.70
  -4  -1 -10    0.10    0.50
  -4  -1 -10    0.00    0.40
   4   1  10    0.00    0.50
   5  -2 -10    1.10    0.60
  -5   2  10    0.70    0.60
   4  -2 -10   18.50    1.20
   4  -2 -10   21.70    1.30
  -4   2  10   21.00    1.20
  -4   2  10   19.20    1.20
  -4   2  10   21.50    1.30
  -4   2  10   18.80    1.30
  -4   2  10   20.50    1.40
   3  -2 -10   12.00    1.00
   3  -2 -10   11.90    0.90
  -3   2  10   11.30    0.90
  -3   2  10    9.80    1.00
  -3   2  10   11.00    1.00
  -3   2  10   11.60    0.90
   2  -2 -10  162.68    4.20
   2  -2 -10  165.88    4.10
  -2   2  10  165.58    4.30
  -2   2  10  162.28    4.50
  -2   2  10  158.48    4.40
  -2   2  10  161.78    4.00
   1  -2 -10    0.40    0.30
   1  -2 -10    0.30    0.30
  -1   2  10    0.30    0.40
  -1   2  10    0.40    0.30
  -1   2  10    0.60    0.60
   0  -2 -10   41.90    1.30
   0   2  10   42.90    1.90
  -1  -2 -10    3.60    0.50
   1   2  10    2.80    0.70
  -2  -2 -10    6.70    0.60
  -2  -2 -10    6.20    0.70
   2   2  10    6.20    0.80
  -3  -2 -10    4.90    0.60
  -3  -2 -10    4.00    0.60
  -3  -2 -10    5.10    0.90
   3   2  10    4.20    0.80
   5  -3 -10    5.50    0.90
  -5   3  10    2.70    0.80
  -5   3  10    4.30    0.80
   4  -3 -10    3.40    0.70
   4  -3 -10    3.10    0.60
  -4   3  10    3.10    0.70
  -4   3  10    2.30    0.70
  -4   3  10    2.60    0.60
  -4   3  10    2.30    0.60
   3  -3 -10   15.30    1.00
   3  -3 -10   16.00    1.10
  -3   3  10   14.80    1.00
  -3   3  10   16.70    1.20
  -3   3  10   15.50    1.30
  -3   3  10   15.60    1.10
   2  -3 -10    3.10    0.50
   2  -3 -10    2.50    0.50
  -2   3  10    3.70    0.60
  -2   3  10    1.90    0.60
  -2   3  10    2.60    0.50
   1  -3 -10  103.99    2.90
  -1   3  10  106.09    3.10
  -1   3  10  107.89    3.40
   0  -3 -10   54.69    1.50
   0   3  10   53.59    2.20
  -1  -3 -10   23.10    1.00
   1   3  10   25.00    1.50
  -2  -3 -10   17.00    1.00
  -2  -3 -10   16.10    1.00
   2   3  10   14.00    1.20
  -3  -3 -10    0.10    0.50
  -3  -3 -10    0.00    0.60
   3   3  10    0.00    0.50
   5  -4 -10    1.20    0.60
  -5   4  10    0.00    0.60
   4  -4 -10    4.80    0.80
   4  -4 -10    5.40    0.80
  -4   4  10    4.70    0.70
  -4   4  10    4.30    0.70
  -4   4  10    5.50    0.80
  -4   4  10    4.00    0.90
   3  -4 -10   13.10    1.00
   3  -4 -10   12.60    1.00
  -3   4  10   13.20    1.00
  -3   4  10   12.90    1.30
  -3   4  10   13.20    1.10
   2  -4 -10    3.10    0.60
   2  -4 -10    2.90    0.50
  -2   4  10    3.20    0.60
  -2   4  10    1.70    0.70
  -2   4  10    3.00    0.50
   1  -4 -10    4.30    0.60
   1  -4 -10    5.00    0.60
  -1   4  10    7.00    1.00
   0  -4 -10   23.50    1.00
   0   4  10   20.80    1.50
  -1  -4 -10    2.60    0.50
   1   4  10    1.70    0.60
  -2  -4 -10    6.40    0.70
   2   4  10    5.90    0.90
   5  -5 -10    6.40    0.90
  -5   5  10    5.80    1.00
   4  -5 -10   30.80    1.60
   4  -5 -10   33.60    1.70
  -4   5  10   30.10    1.60
  -4   5  10   29.90    1.60
  -4   5  10   27.20    1.80
   3  -5 -10    0.00    0.30
   3  -5 -10    0.40    0.40
  -3   5  10    0.80    0.40
  -3   5  10    0.00    0.30
  -3   5  10    0.00    0.50
   2  -5 -10    1.70    0.50
   2  -5 -10    1.30    0.40
  -2   5  10    1.60    0.50
  -2   5  10    1.80    0.50
  -2   5  10    0.50    0.60
   1  -5 -10   16.40    1.00
   1  -5 -10   17.30    1.10
  -1   5  10   15.70    1.40
   0   5  10    5.40    0.90
  -1  -5 -10    0.10    0.40
   1   5  10    0.00    0.60
  -2  -5 -10   13.00    1.00
   2   5  10   12.20    1.20
   5  -6 -10    7.60    1.00
  -5   6  10    4.50    1.00
   4  -6 -10    4.50    0.80
  -4   6  10    4.10    0.80
  -4   6  10    4.00    1.00
   3  -6 -10   28.80    1.50
   3  -6 -10   26.70    1.40
  -3   6  10   26.50    1.70
  -3   6  10   26.80    1.50
  -3   6  10   26.50    1.40
   2  -6 -10    5.20    0.70
   2  -6 -10    6.00    0.70
   2  -6 -10    5.50    0.70
  -2   6  10    3.70    0.90
   1  -6 -10    2.10    0.50
   1  -6 -10    2.40    0.50
  -1   6  10    0.80    0.70
   0   6  10    3.50    0.80
   1   6  10    0.00    0.60
   4  -7 -10    3.40    0.70
  -4   7  10    1.30    0.90
   3  -7 -10    0.50    0.50
  -3   7  10    1.70    0.50
  -3   7  10    0.80    0.80
  -3   7  10    1.40    0.50
   2  -7 -10   31.80    1.40
   2  -7 -10   29.60    1.50
  -2   7  10   26.90    1.80
   1  -7 -10    2.80    0.60
   1  -7 -10    3.50    0.60
  -1   7  10    1.30    0.70
   0   7  10   19.40    1.60
  -3   8  10    3.50    1.00
   2  -8 -10    8.60    0.90
  -2   8  10    7.70    1.20
   1  -8 -10    1.80    0.60
  -1   8  10    1.20    0.80
   0  10 -11    0.90    0.70
   0 -10  11    0.00    0.40
  -1  10 -11    6.90    1.00
   1 -10  11    7.00    0.90
   2 -10  11    0.50    0.50
   1   9 -11    0.10    0.60
   0   9 -11    7.60    1.00
   0  -9  11    7.00    0.80
   0  -9  11    6.90    0.80
  -1   9 -11    2.20    0.70
   1  -9  11    1.80    0.60
   1  -9  11    1.10    0.40
   2  -9  11    3.50    0.60
   2  -9  11    3.90    0.70
   2  -9  11    4.50    0.80
  -3   9 -11    0.00    0.50
   3  -9  11    0.60    0.50
   2   8 -11    4.00    0.80
   1   8 -11    0.10    0.60
   0   8 -11    2.10    0.70
   0   8 -11    2.60    0.50
   0  -8  11    2.30    0.60
   0  -8  11    1.80    0.50
   0  -8  11    1.80    0.50
   0  -8  11    1.40    0.60
  -1   8 -11   10.10    1.00
   1  -8  11    9.80    1.00
   1  -8  11   11.10    1.00
   1  -8  11   10.60    0.90
  -2   8 -11    4.80    0.90
   2  -8  11    5.20    0.60
   2  -8  11    6.00    0.90
  -3   8 -11    2.30    0.60
   3  -8  11    2.30    0.70
   3   7 -11    2.90    0.70
   2   7 -11    0.40    0.60
   1   7 -11    2.60    0.50
   1   7 -11    2.40    0.70
  -1  -7  11    2.90    0.60
  -1  -7  11    2.10    0.70
  -1  -7  11    1.20    0.60
   0   7 -11    7.30    0.70
   0   7 -11    6.60    0.80
   0  -7  11    6.10    0.80
   0  -7  11    6.20    0.70
   0  -7  11    6.50    0.80
   0  -7  11    7.00    0.80
  -1   7 -11    1.60    0.60
   1  -7  11    1.40    0.40
   1  -7  11    1.30    0.50
   1  -7  11    1.00    0.50
  -2   7 -11   14.10    1.10
   2  -7  11   14.90    0.90
   2  -7  11   14.50    1.10
  -3   7 -11    3.40    0.70
   3  -7  11    2.00    0.70
   3  -7  11    2.20    0.40
  -4   7 -11    1.70    0.50
   4  -7  11    2.30    0.70
   3   6 -11    0.20    0.60
   2   6 -11    2.70    0.70
  -2  -6  11    2.20    0.70
  -2  -6  11    2.50    0.80
   1   6 -11   74.39    1.90
   1   6 -11   75.99    2.50
  -1  -6  11   73.19    2.50
  -1  -6  11   77.39    2.50
  -1  -6  11   72.09    2.30
  -1  -6  11   69.99    2.60
   0   6 -11    2.10    0.60
   0   6 -11    2.10    0.50
   0  -6  11    1.80    0.50
   0  -6  11    0.70    0.50
   0  -6  11    1.10    0.50
  -1   6 -11    7.20    0.60
  -1   6 -11    7.40    0.90
   1  -6  11    8.00    0.90
   1  -6  11    8.40    0.90
  -2   6 -11   12.20    0.90
   2  -6  11   13.60    1.10
  -3   6 -11    5.50    0.80
   3  -6  11    4.90    0.80
   3  -6  11    4.70    0.60
  -4   6 -11   27.30    1.50
   4  -6  11   29.70    1.80
   4   5 -11    0.20    0.60
   3   5 -11   30.30    1.60
   2   5 -11    2.20    0.60
  -2  -5  11    0.80    0.50
  -2  -5  11    1.90    0.50
  -2  -5  11    1.20    0.60
   1   5 -11   16.70    1.10
   1   5 -11   13.50    0.80
  -1  -5  11   14.60    1.00
  -1  -5  11   10.60    1.00
  -1  -5  11   12.40    1.20
   0   5 -11   22.40    1.20
   0   5 -11   19.80    0.90
   0  -5  11   19.80    1.20
   0  -5  11   19.20    1.10
   0  -5  11   20.90    1.30
  -1   5 -11   38.90    1.60
  -1   5 -11   38.80    1.30
   1  -5  11   39.00    1.80
   1  -5  11   35.80    1.60
  -2   5 -11    7.20    0.60
  -2   5 -11    8.10    0.80
   2  -5  11    7.10    0.90
  -3   5 -11    8.00    0.70
  -3   5 -11    7.30    0.80
   3  -5  11    7.60    1.00
  -4   5 -11   19.20    1.00
  -4   5 -11   20.50    1.30
   4  -5  11   20.30    1.50
   4   4 -11   11.10    1.20
  -4  -4  11   10.40    1.00
   3   4 -11   22.30    1.40
  -3  -4  11   19.20    1.50
   2   4 -11   29.30    1.40
  -2  -4  11   27.10    1.30
  -2  -4  11   27.70    1.40
  -2  -4  11   27.30    1.60
   1   4 -11  130.09    3.50
   1   4 -11  129.09    2.80
  -1  -4  11  129.89    3.80
  -1  -4  11  129.49    3.70
  -1  -4  11  130.99    3.50
   0   4 -11    0.00    0.40
   0   4 -11    1.70    0.50
   0  -4  11    0.40    0.50
   0  -4  11    0.70    0.50
  -1   4 -11   37.80    1.50
  -1   4 -11   37.80    1.30
   1  -4  11   37.00    1.70
  -2   4 -11   19.10    1.10
  -2   4 -11   20.80    0.90
   2  -4  11   18.30    1.30
  -3   4 -11    6.90    0.80
  -3   4 -11    9.50    0.70
   3  -4  11    8.00    0.90
  -4   4 -11    0.40    0.40
  -4   4 -11    1.30    0.50
   4  -4  11    0.10    0.50
   4   3 -11    0.40    0.50
  -4  -3  11    0.30    0.40
   3   3 -11    4.00    0.70
  -3  -3  11    4.60    0.90
  -3  -3  11    3.60    0.70
  -3  -3  11    4.80    0.60
   2   3 -11    5.40    0.70
  -2  -3  11    4.30    0.80
  -2  -3  11    3.90    0.70
  -2  -3  11    5.50    0.70
   1   3 -11    2.00    0.50
   1   3 -11    1.70    0.40
  -1  -3  11    0.80    0.50
  -1  -3  11    1.60    0.50
  -1  -3  11    0.30    0.50
   0   3 -11  230.78    5.20
   0   3 -11  224.98    4.60
   0  -3  11  226.18    5.90
   0  -3  11  225.28    5.80
  -1   3 -11    1.20    0.40
  -1   3 -11    1.90    0.50
   1  -3  11    1.70    0.50
  -2   3 -11    0.50    0.40
  -2   3 -11    0.40    0.40
   2  -3  11    0.00    0.40
  -3   3 -11    0.20    0.30
  -3   3 -11    0.70    0.40
   3  -3  11    0.20    0.50
  -4   3 -11    3.50    0.60
  -4   3 -11    5.30    0.80
   4  -3  11    4.50    0.80
   5   2 -11    1.80    0.70
   4   2 -11    1.10    0.60
  -4  -2  11    0.90    0.50
   3   2 -11    3.30    0.70
  -3  -2  11    1.80    0.60
  -3  -2  11    2.80    0.70
  -3  -2  11    3.30    0.50
  -3  -2  11    1.50    0.50
   2   2 -11    9.60    0.90
  -2  -2  11   10.10    1.00
  -2  -2  11    9.70    0.90
  -2  -2  11    9.30    1.00
   1   2 -11    5.30    0.60
   1   2 -11    4.80    0.50
  -1  -2  11    4.10    0.60
  -1  -2  11    4.00    0.70
  -1  -2  11    3.60    0.60
   0   2 -11   21.00    1.00
   0   2 -11   22.50    0.90
   0  -2  11   19.10    1.20
   0  -2  11   19.50    1.20
  -1   2 -11   25.70    1.20
  -1   2 -11   26.20    1.00
   1  -2  11   24.50    1.40
  -2   2 -11   14.10    0.90
  -2   2 -11   12.90    0.80
   2  -2  11   13.70    1.10
  -3   2 -11    4.00    0.60
  -3   2 -11    3.00    0.50
   3  -2  11    3.30    0.70
  -4   2 -11    6.00    0.70
  -4   2 -11    6.20    0.80
   4  -2  11    6.10    0.90
   5   1 -11    2.90    0.70
   4   1 -11    3.10    0.70
  -4  -1  11    2.10    0.50
   3   1 -11    1.90    0.60
  -3  -1  11    1.70    0.50
  -3  -1  11    1.30    0.60
  -3  -1  11    2.60    0.50
  -3  -1  11    2.00    0.60
   2   1 -11    0.00    0.40
  -2  -1  11    0.00    0.50
  -2  -1  11    0.00    0.40
  -2  -1  11    0.10    0.40
   1   1 -11   46.30    1.30
   1   1 -11   48.90    1.60
  -1  -1  11   45.00    1.90
  -1  -1  11   46.90    1.60
  -1  -1  11   45.70    1.90
   0   1 -11   17.90    0.90
   0   1 -11   18.10    0.90
   0  -1  11   16.80    1.20
  -1   1 -11    5.30    0.60
  -1   1 -11    5.10    0.60
   1  -1  11    5.10    0.70
  -2   1 -11   46.90    1.50
  -2   1 -11   45.10    1.70
   2  -1  11   47.20    2.00
  -3   1 -11    0.60    0.40
  -3   1 -11    0.00    0.40
   3  -1  11    0.50    0.50
  -4   1 -11   19.40    1.30
  -4   1 -11   18.40    1.10
   4  -1  11   20.40    1.50
   5   0 -11    3.50    0.80
   4   0 -11   15.40    1.20
  -4   0  11   12.00    1.30
  -4   0  11   15.90    1.10
   3   0 -11   15.50    1.10
  -3   0  11   14.00    1.20
  -3   0  11   16.80    1.10
  -3   0  11   15.90    1.00
  -3   0  11   14.00    1.20
   2   0 -11    0.00    0.40
  -2   0  11    0.10    0.50
  -2   0  11    0.30    0.40
  -2   0  11    0.00    0.50
   1   0 -11    5.30    0.60
  -1   0  11    4.70    0.70
  -1   0  11    5.50    0.80
   0   0 -11    6.90    0.60
   0   0  11    5.70    0.80
  -1   0 -11    2.40    0.40
  -1   0 -11    2.20    0.50
   1   0  11    2.00    0.60
  -2   0 -11    3.00    0.50
  -2   0 -11    4.20    0.60
   2   0  11    3.80    0.70
  -3   0 -11    1.60    0.50
  -3   0 -11    2.60    0.50
   3   0  11    1.80    0.70
   5  -1 -11    1.30    0.70
   4  -1 -11   26.70    1.50
  -4   1  11   24.40    1.50
  -4   1  11   24.10    1.60
  -4   1  11   26.30    1.40
  -4   1  11   24.10    1.50
   3  -1 -11   21.80    1.20
   3  -1 -11   20.00    1.20
  -3   1  11   20.40    1.10
  -3   1  11   19.50    1.40
  -3   1  11   20.60    1.20
  -3   1  11   21.50    1.40
  -3   1  11   20.10    1.20
   2  -1 -11   56.49    1.90
   2  -1 -11   51.59    1.80
  -2   1  11   56.59    2.10
  -2   1  11   54.99    2.10
  -2   1  11   56.09    1.90
  -2   1  11   53.19    2.20
  -1   1  11   16.50    1.10
  -1   1  11   17.30    1.30
   0  -1 -11    1.30    0.40
   0   1  11    1.10    0.50
  -1  -1 -11   38.30    1.30
   1   1  11   36.50    1.80
  -2  -1 -11    0.00    0.40
  -2  -1 -11    0.20    0.40
   2   1  11    0.00    0.50
  -3  -1 -11    0.00    0.40
  -3  -1 -11    0.20    0.40
   3   1  11    0.00    0.50
   5  -2 -11    1.00    0.60
   4  -2 -11    0.00    0.50
   4  -2 -11    0.00    0.40
  -4   2  11    0.00    0.50
  -4   2  11    0.00    0.40
  -4   2  11    0.00    0.50
  -4   2  11    0.10    0.50
   3  -2 -11    0.00    0.40
   3  -2 -11    0.10    0.40
  -3   2  11    0.00    0.60
  -3   2  11    0.10    0.40
  -3   2  11    0.60    0.40
  -3   2  11    0.00    0.30
  -3   2  11    0.20    0.50
   2  -2 -11   44.40    1.70
   2  -2 -11   40.20    1.60
  -2   2  11   44.00    2.00
  -2   2  11   41.00    1.80
  -2   2  11   42.90    1.70
  -2   2  11   42.90    1.60
  -1   2  11   52.39    2.20
   0  -2 -11    0.30    0.40
   0   2  11    0.70    0.50
  -1  -2 -11   17.40    0.90
   1   2  11   16.30    1.30
  -2  -2 -11    3.00    0.60
   2   2  11    3.70    0.80
  -3  -2 -11    3.60    0.60
  -3  -2 -11    3.90    0.70
   3   2  11    3.60    0.80
   5  -3 -11    2.40    0.70
  -5   3  11    0.10    0.70
   4  -3 -11    0.00    0.50
   4  -3 -11    0.60    0.50
  -4   3  11    0.00    0.40
  -4   3  11    0.20    0.40
  -4   3  11    0.00    0.60
   3  -3 -11    6.70    0.80
   3  -3 -11    7.80    0.80
  -3   3  11    7.20    0.80
  -3   3  11    7.60    0.80
  -3   3  11    6.40    0.80
  -3   3  11    6.00    0.90
   2  -3 -11    0.00    0.40
   2  -3 -11    0.30    0.40
  -2   3  11    0.00    0.60
  -2   3  11    0.40    0.40
  -1   3  11    8.30    1.00
   0   3  11    6.80    0.90
  -1  -3 -11    6.40    0.70
   1   3  11    7.20    1.00
  -2  -3 -11    3.00    0.60
   2   3  11    2.40    0.70
   5  -4 -11    6.50    0.90
  -5   4  11    5.40    1.00
   4  -4 -11    0.20    0.50
  -4   4  11    0.40    0.50
  -4   4  11    0.00    0.70
   3  -4 -11   21.30    1.30
   3  -4 -11   20.00    1.20
  -3   4  11   20.80    1.30
  -3   4  11   21.30    1.40
  -3   4  11   18.40    1.50
   2  -4 -11    0.40    0.40
  -2   4  11    1.20    0.70
  -1   4  11    0.10    0.60
   0   4  11    4.50    0.90
  -1  -4 -11   37.60    1.40
   1   4  11   37.70    2.00
  -2  -4 -11   13.30    1.00
   2   4  11   13.20    1.30
   4  -5 -11    2.60    0.70
  -4   5  11    0.60    0.80
  -4   5  11    1.60    0.60
   3  -5 -11   22.50    1.40
   3  -5 -11   23.70    1.40
  -3   5  11   23.80    1.40
  -3   5  11   24.80    1.40
  -3   5  11   23.60    1.70
   2  -5 -11    0.40    0.40
  -2   5  11    0.00    0.60
   1  -5 -11    0.00    0.40
  -1   5  11    0.00    0.50
   0   5  11    1.50    0.80
   1   5  11   23.90    1.70
   4  -6 -11    0.00    0.50
  -4   6  11    0.00    0.70
   3  -6 -11    7.50    0.90
  -3   6  11    9.70    1.00
  -3   6  11    8.80    1.20
   2  -6 -11    6.40    0.80
  -2   6  11    4.80    1.00
   1  -6 -11   36.90    1.70
  -1   6  11   35.90    2.10
   0   6  11    4.90    1.00
  -3   7  11    0.00    0.70
  -2   7  11    0.70    0.80
  -1   7  11    3.70    1.00
   0   9 -12    4.20    0.60
   0   9 -12    4.60    0.80
   0  -9  12    3.00    0.60
   0  -9  12    3.90    0.70
   1  -9  12    1.70    0.60
   1   8 -12    2.40    0.70
   0   8 -12    4.50    0.60
   0   8 -12    5.30    0.80
   0  -8  12    4.10    0.70
   0  -8  12    3.70    0.70
  -1   8 -12    0.70    0.50
   1  -8  12    0.40    0.50
   1  -8  12    0.40    0.50
   1  -8  12    0.30    0.40
  -2   8 -12   14.00    1.30
   2  -8  12   15.20    1.30
   2   7 -12   13.80    1.30
   1   7 -12    3.70    0.70
  -1  -7  12    3.10    0.60
   0   7 -12   39.80    1.40
   0   7 -12   43.00    1.80
   0  -7  12   38.00    1.60
   0  -7  12   37.60    1.80
   0  -7  12   35.70    1.90
  -1   7 -12    2.00    0.50
   1  -7  12    2.60    0.60
   1  -7  12    2.40    0.70
   1  -7  12    2.20    0.50
  -2   7 -12   17.80    1.00
  -2   7 -12   16.00    1.20
   2  -7  12   16.50    1.30
   2  -7  12   18.10    1.10
  -3   7 -12   17.00    1.20
   3  -7  12   14.30    1.30
   3   6 -12    2.10    0.70
   2   6 -12   19.50    1.40
   1   6 -12   30.10    1.50
  -1  -6  12   30.40    1.50
  -1  -6  12   27.10    1.50
  -1  -6  12   26.30    1.60
   0   6 -12    2.20    0.50
   0   6 -12    2.60    0.60
   0  -6  12    2.10    0.60
   0  -6  12    2.10    0.60
  -1   6 -12    1.70    0.70
  -1   6 -12    3.80    0.60
   1  -6  12    4.20    0.70
  -2   6 -12    4.80    0.60
  -2   6 -12    3.90    0.70
   2  -6  12    4.80    0.80
  -3   6 -12    1.70    0.50
  -3   6 -12    2.40    0.50
   3  -6  12    0.70    0.60
   3   5 -12    1.60    0.70
   2   5 -12   32.30    1.60
   1   5 -12   60.39    2.10
  -1  -5  12   51.89    2.10
  -1  -5  12   54.19    2.30
  -1  -5  12   50.19    2.00
   0   5 -12    0.20    0.40
   0  -5  12    0.10    0.50
   0  -5  12    0.00    0.40
  -1   5 -12   29.50    1.50
  -1   5 -12   30.70    1.20
   1  -5  12   31.90    1.70
  -2   5 -12   24.30    1.10
  -2   5 -12   24.40    1.30
   2  -5  12   25.90    1.60
  -3   5 -12   11.90    0.90
  -3   5 -12   13.50    1.00
   3  -5  12    9.10    1.10
   4   4 -12    5.50    0.90
   3   4 -12    0.10    0.60
   2   4 -12    1.50    0.60
  -2  -4  12    0.40    0.60
  -2  -4  12    0.60    0.50
  -2  -4  12    0.10    0.60
   1   4 -12   47.20    1.80
  -1  -4  12   39.50    1.70
  -1  -4  12   42.40    2.00
  -1  -4  12   39.80    1.80
   0   4 -12    3.00    0.50
   0  -4  12    3.30    0.70
   0  -4  12    2.40    0.60
  -1   4 -12   34.40    1.20
  -1   4 -12   32.30    1.40
   1  -4  12   30.70    1.70
  -2   4 -12    2.10    0.50
  -2   4 -12    2.80    0.60
   2  -4  12    1.90    0.60
  -3   4 -12    2.80    0.60
  -3   4 -12    1.80    0.50
   3  -4  12    2.20    0.70
   4   3 -12    0.10    0.60
   3   3 -12    1.20    0.60
   2   3 -12    8.50    0.90
  -2  -3  12    6.10    0.90
  -2  -3  12    6.00    0.80
  -2  -3  12    5.30    0.80
   1   3 -12   62.89    2.10
  -1  -3  12   58.29    2.30
  -1  -3  12   58.59    2.30
   0   3 -12   25.80    1.30
   0   3 -12   27.10    1.10
   0  -3  12   27.20    1.50
  -1   3 -12   24.30    1.10
  -1   3 -12   22.20    1.20
   1  -3  12   21.80    1.40
  -2   3 -12    1.50    0.50
  -2   3 -12    2.60    0.50
   2  -3  12    2.00    0.60
  -3   3 -12    0.10    0.50
  -3   3 -12    0.40    0.40
   3  -3  12    0.10    0.50
   4   2 -12    3.00    0.70
   3   2 -12    0.40    0.50
  -3  -2  12    0.10    0.50
  -3  -2  12    0.00    0.60
   2   2 -12   11.30    1.00
  -2  -2  12    8.30    1.00
  -2  -2  12   10.40    1.00
  -2  -2  12    9.20    0.90
   1   2 -12    0.30    0.40
  -1  -2  12    0.10    0.40
  -1  -2  12    0.00    0.50
   0   2 -12    0.30    0.40
   0  -2  12    0.00    0.50
  -1   2 -12    0.70    0.40
  -1   2 -12    0.20    0.40
   1  -2  12    0.10    0.40
  -2   2 -12    0.50    0.40
  -2   2 -12    0.70    0.50
   2  -2  12    0.30    0.50
  -3   2 -12   77.59    2.60
  -3   2 -12   79.99    2.20
   3  -2  12   79.69    3.00
   4   1 -12    0.10    0.50
  -4  -1  12    1.10    0.50
   3   1 -12   11.60    1.10
  -3  -1  12    9.80    1.00
  -3  -1  12    8.30    0.90
  -3  -1  12    9.30    1.10
   2   1 -12    0.70    0.50
  -2  -1  12    0.20    0.60
  -2  -1  12    0.10    0.50
  -2  -1  12    0.20    0.50
  -1  -1  12    0.00    0.50
  -1  -1  12    0.20    0.50
   0   1 -12    1.80    0.40
   0  -1  12    0.80    0.60
  -1   1 -12    6.20    0.60
   1  -1  12    4.60    0.80
  -2   1 -12    0.30    0.40
  -2   1 -12    0.60    0.40
   2  -1  12    0.10    0.50
  -3   1 -12    0.40    0.50
  -3   1 -12    0.70    0.50
   3  -1  12    0.00    0.60
   4   0 -12    1.40    0.60
  -4   0  12    1.30    0.50
   3   0 -12   49.70    2.00
  -3   0  12   44.70    1.90
  -3   0  12   43.40    2.00
  -3   0  12   44.30    2.10
   2   0 -12    6.70    0.80
  -2   0  12    6.50    0.90
  -2   0  12    6.80    0.70
  -2   0  12    5.30    0.90
  -1   0  12    1.30    0.50
   0   0 -12   20.00    0.90
   0   0  12   20.20    1.40
  -1   0 -12    0.70    0.50
   1   0  12    0.90    0.60
  -2   0 -12    0.30    0.50
   2   0  12    0.00    0.50
   4  -1 -12    0.20    0.60
  -4   1  12    0.70    0.40
  -4   1  12    0.00    0.60
   3  -1 -12    0.70    0.50
  -3   1  12    1.00    0.50
  -3   1  12    0.70    0.60
  -3   1  12    0.40    0.60
   2  -1 -12   27.10    1.30
  -2   1  12   24.90    1.60
  -2   1  12   23.10    1.50
  -1   1  12    0.60    0.60
   0  -1 -12    8.10    0.70
   0   1  12    6.40    0.90
  -1  -1 -12   11.10    0.90
   1   1  12   11.10    1.20
  -2  -1 -12    0.00    0.50
   2   1  12    0.00    0.50
   4  -2 -12    0.90    0.60
  -4   2  12    0.00    0.60
  -4   2  12    0.00    0.60
  -4   2  12    0.90    0.50
   3  -2 -12    0.20    0.50
  -3   2  12    0.00    0.50
  -3   2  12    0.00    0.60
  -3   2  12    0.20    0.40
  -2   2  12    0.00    0.50
  -2   2  12    0.00    0.50
  -1   2  12    6.60    1.00
   0   2  12    0.00    0.50
  -1  -2 -12    0.60    0.50
   1   2  12    0.00    0.50
  -2  -2 -12   11.10    1.00
   2   2  12    9.50    1.10
   4  -3 -12   12.70    1.20
  -4   3  12   11.90    1.20
  -4   3  12   11.40    1.30
   3  -3 -12   14.00    1.10
   3  -3 -12   17.60    1.20
  -3   3  12   14.30    1.40
  -3   3  12   14.30    1.20
  -3   3  12   15.90    1.20
  -2   3  12    9.20    1.10
  -1   3  12    3.80    0.90
   0   3  12   12.60    1.30
  -1  -3 -12    1.10    0.50
   1   3  12    0.10    0.50
  -4   4  12   21.10    1.70
   3  -4 -12    2.60    0.60
   3  -4 -12    2.10    0.60
  -3   4  12    2.10    0.60
  -3   4  12    1.20    0.80
  -2   4  12    2.30    0.80
  -1   4  12    2.10    0.80
   0   4  12    7.80    1.10
  -3   5  12   13.70    1.50
  -2   5  12   12.90    1.40
  -1   5  12   25.40    1.70
   1   7 -13    1.40    0.60
   0   7 -13    0.10    0.50
   0  -7  13    0.00    0.40
   0  -7  13    0.00    0.40
  -1   7 -13    0.00    0.50
   1  -7  13    0.20    0.50
   2   6 -13   34.90    1.80
   1   6 -13    3.20    0.70
  -1  -6  13    1.40    0.60
   0   6 -13    0.40    0.50
   0  -6  13    0.40    0.50
   0  -6  13    0.00    0.50
  -1   6 -13    0.50    0.50
   1  -6  13    0.50    0.50
  -2   6 -13    0.20    0.50
  -2   6 -13    0.00    0.50
   2  -6  13    0.50    0.50
   2   5 -13   18.80    1.40
   1   5 -13   37.00    1.60
  -1  -5  13   32.10    1.80
  -1  -5  13   36.10    1.80
   0   5 -13    7.20    0.70
   0  -5  13    4.60    0.80
  -1   5 -13   12.60    0.90
  -1   5 -13   11.40    1.10
   1  -5  13   11.30    1.10
  -2   5 -13    2.40    0.60
  -2   5 -13    2.80    0.60
   2  -5  13    1.60    0.70
   3   4 -13    2.60    0.70
   2   4 -13   10.40    1.10
  -2  -4  13   10.20    1.00
  -1  -4  13    0.00    0.40
  -1  -4  13    0.00    0.60
   0   4 -13   13.20    0.90
   0  -4  13   11.20    1.10
  -1   4 -13    2.90    0.60
  -1   4 -13    1.30    0.50
   1  -4  13    3.00    0.70
  -2   4 -13   11.20    1.00
  -2   4 -13   10.60    0.90
   2  -4  13    9.80    1.10
   3   3 -13    1.00    0.60
   2   3 -13    5.30    0.80
  -2  -3  13    3.20    0.80
  -2  -3  13    3.40    0.70
  -2  -3  13    3.40    0.70
  -1  -3  13    0.00    0.50
   0   3 -13    1.90    0.50
   0  -3  13    0.80    0.50
  -1   3 -13   29.20    1.40
  -1   3 -13   32.30    1.30
   1  -3  13   32.60    1.80
  -2   3 -13    2.50    0.60
  -2   3 -13    2.90    0.60
   2  -3  13    2.30    0.70
   3   2 -13    1.40    0.60
   2   2 -13    4.20    0.70
  -2  -2  13    1.60    0.70
  -2  -2  13    2.70    0.70
  -1  -2  13    0.00    0.50
   0   2 -13    0.40    0.40
   0  -2  13    0.00    0.50
  -1   2 -13    5.50    0.70
   1  -2  13    5.10    0.90
  -2   2 -13    0.40    0.40
  -2   2 -13    0.30    0.50
   2  -2  13    0.70    0.60
   3   1 -13   19.10    1.30
  -3  -1  13   18.10    1.30
   2   1 -13    0.10    0.50
  -2  -1  13    0.00    0.60
  -2  -1  13    0.20    0.50
  -1  -1  13    4.60    0.80
   0   1 -13   10.20    0.80
   0  -1  13    9.60    1.10
  -1   1 -13    0.30    0.50
   1  -1  13    0.00    0.50
  -2   1 -13    1.10    0.50
   2  -1  13    0.40    0.60
   3   0 -13    5.70    0.80
  -3   0  13    4.50    0.90
  -2   0  13    3.10    0.80
  -2   0  13    2.90    0.70
  -1   0  13    1.80    0.70
   0   0  13    4.00    0.90
  -1   0 -13    7.40    0.70
   1   0  13    7.40    1.00
   3  -1 -13    5.90    0.80
  -3   1  13    5.10    0.90
  -2   1  13    0.80    0.70
  -1   1  13   12.50    1.30
   0   1  13    0.00    0.60
  -1  -1 -13    1.20    0.50
   1   1  13    0.80    0.70
   3  -2 -13    2.20    0.60
  -3   2  13    0.90    0.70
  -2   2  13    0.00    0.60
  -1   2  13    0.00    0.70
   0   2  13   19.50    1.50
  -3   3  13    6.40    1.10
  -2   3  13    0.50    0.70
  -1   3  13    0.30    0.70
   0   3  13    0.00    0.50
  -1  -4  14    0.20    0.50
   0   4 -14    7.20    0.70
   0  -4  14    8.60    1.10
  -2  -3  14    0.00    0.50
  -1  -3  14    4.50    0.80
   0  -3  14   11.60    1.20
  -2  -2  14    2.90    0.70
  -1  -2  14   10.40    1.10
   0  -2  14    0.20    0.60
  -2  -1  14    5.40    1.00
  -1  -1  14    0.00    0.60
   0  -1  14   11.60    1.20
  -2   0  14    5.40    1.00
  -1   0  14    0.00    0.60
;
_shelx_hkl_checksum              1994
loop_
_space_group_symop_operation_xyz
'x, y, z'
'-x, -y, -z'
loop_
_atom_site_label
_atom_site_type_symbol
_atom_site_fract_x
_atom_site_fract_y
_atom_site_fract_z
_atom_site_U_iso_or_equiv
_atom_site_adp_type
_atom_site_occupancy
_atom_site_site_symmetry_order
_atom_site_calc_flag
_atom_site_refinement_flags_posn
_atom_site_refinement_flags_adp
Cl01 Cl 0.06071(8) 0.39725(4) 0.38776(4) 0.06306(18) Uani 1 1 d . U
O2 O 0.01587(17) 0.32162(9) 0.09488(10) 0.0550(3) Uani 1 1 d . U
O1 O -0.17055(19) 0.11024(10) 0.07450(11) 0.0584(3) Uani 1 1 d . U
N1 N 0.4055(2) 0.51764(11) 0.14615(10) 0.0422(3) Uani 1 1 d . U
O4 O 0.6759(3) 0.22829(16) 0.62108(12) 0.0811(4) Uani 1 1 d . U
N2 N 0.5597(3) 0.84621(13) 0.08324(15) 0.0587(4) Uani 1 1 d . U
N3 N 0.6598(2) 0.16361(14) 0.51665(13) 0.0578(4) Uani 1 1 d . U
C2 C 0.1567(2) 0.19986(11) 0.23237(11) 0.0352(3) Uani 1 1 d . U
O3 O 0.7770(2) 0.08975(16) 0.48922(14) 0.0818(4) Uani 1 1 d . U
C1 C -0.0141(2) 0.21173(12) 0.12584(12) 0.0389(3) Uani 1 1 d . U
C11 C 0.5802(2) 0.73795(12) 0.12449(12) 0.0405(3) Uani 1 1 d . U
C12 C 0.3866(2) 0.62500(13) 0.10508(11) 0.0391(3) Uani 1 1 d . U
H4 H 0.2430 0.6250 0.0630 0.047 Uiso 1 1 calc R U
C7 C 0.2064(2) 0.27967(12) 0.35073(12) 0.0382(3) Uani 1 1 d . U
C5 C 0.4844(2) 0.17512(14) 0.41730(12) 0.0436(3) Uani 1 1 d . U
C3 C 0.2758(3) 0.10502(13) 0.21128(12) 0.0446(3) Uani 1 1 d . U
H10 H 0.2420 0.0485 0.1339 0.054 Uiso 1 1 calc R U
C6 C 0.3678(2) 0.26756(13) 0.44445(12) 0.0435(3) Uani 1 1 d . U
H8 H 0.3965 0.3205 0.5236 0.052 Uiso 1 1 calc R U
C4 C 0.4426(3) 0.09270(15) 0.30218(14) 0.0492(3) Uani 1 1 d . U
H9 H 0.5242 0.0307 0.2862 0.059 Uiso 1 1 calc R U
C8 C 0.6057(3) 0.50873(15) 0.20549(15) 0.0515(4) Uani 1 1 d . U
H1 H 0.6128 0.4309 0.2308 0.062 Uiso 1 1 calc R U
C10 C 0.7901(2) 0.73062(15) 0.18926(14) 0.0498(3) Uani 1 1 d . U
H3 H 0.9233 0.8037 0.2058 0.060 Uiso 1 1 calc R U
C9 C 0.8010(2) 0.61716(16) 0.22829(15) 0.0540(4) Uani 1 1 d . U
H2 H 0.9417 0.6134 0.2706 0.065 Uiso 1 1 calc R U
H5 H 0.273(4) 0.450(2) 0.1369(19) 0.072(5) Uiso 1 1 d . .
H6 H 0.439(3) 0.8446(17) 0.0457(17) 0.051(5) Uiso 1 1 d . .
H7 H 0.672(4) 0.912(2) 0.0925(18) 0.060(5) Uiso 1 1 d . .
loop_
_atom_site_aniso_label
_atom_site_aniso_U_11
_atom_site_aniso_U_22
_atom_site_aniso_U_33
_atom_site_aniso_U_23
_atom_site_aniso_U_13
_atom_site_aniso_U_12
Cl01 0.0833(3) 0.0572(3) 0.0582(3) 0.00101(19) 0.0110(2) 0.0415(2)
O2 0.0523(6) 0.0386(5) 0.0644(6) 0.0214(5) -0.0159(5) -0.0011(4)
O1 0.0571(6) 0.0368(5) 0.0651(7) 0.0079(5) -0.0179(5) -0.0031(4)
N1 0.0415(6) 0.0354(6) 0.0445(6) 0.0097(5) 0.0010(4) 0.0034(5)
O4 0.0782(9) 0.1030(11) 0.0502(7) 0.0093(7) -0.0193(6) 0.0195(8)
N2 0.0556(8) 0.0391(7) 0.0750(10) 0.0207(6) -0.0068(7) 0.0031(6)
N3 0.0471(7) 0.0674(9) 0.0582(8) 0.0261(7) -0.0012(6) 0.0106(6)
C2 0.0388(6) 0.0281(5) 0.0359(6) 0.0078(4) 0.0045(5) 0.0045(4)
O3 0.0684(8) 0.1012(11) 0.0920(10) 0.0382(8) 0.0015(7) 0.0438(8)
C1 0.0394(6) 0.0322(6) 0.0405(6) 0.0070(5) 0.0015(5) 0.0039(5)
C11 0.0456(7) 0.0348(6) 0.0378(6) 0.0071(5) 0.0044(5) 0.0068(5)
C12 0.0380(6) 0.0387(6) 0.0379(6) 0.0067(5) 0.0007(5) 0.0088(5)
C7 0.0446(6) 0.0314(6) 0.0386(6) 0.0053(5) 0.0079(5) 0.0111(5)
C5 0.0417(7) 0.0470(7) 0.0413(7) 0.0162(6) 0.0017(5) 0.0087(5)
C3 0.0610(8) 0.0374(7) 0.0354(6) 0.0025(5) 0.0046(5) 0.0175(6)
C6 0.0505(7) 0.0414(7) 0.0334(6) 0.0029(5) 0.0031(5) 0.0080(6)
C4 0.0589(8) 0.0488(8) 0.0482(8) 0.0120(6) 0.0093(6) 0.0275(6)
C8 0.0515(8) 0.0473(8) 0.0576(8) 0.0207(6) 0.0004(6) 0.0140(6)
C10 0.0391(7) 0.0477(8) 0.0538(8) 0.0120(6) -0.0008(6) -0.0009(6)
C9 0.0409(7) 0.0613(9) 0.0584(9) 0.0203(7) -0.0041(6) 0.0117(6)
loop_
_atom_type_symbol
_atom_type_description
_atom_type_scat_dispersion_real
_atom_type_scat_dispersion_imag
_atom_type_scat_source
C C 0.0033 0.0016 'International Tables Vol C Tables 4.2.6.8 and 6.1.1.4'
H H 0.0000 0.0000 'International Tables Vol C Tables 4.2.6.8 and 6.1.1.4'
N N 0.0061 0.0033 'International Tables Vol C Tables 4.2.6.8 and 6.1.1.4'
O O 0.0106 0.0060 'International Tables Vol C Tables 4.2.6.8 and 6.1.1.4'
Cl Cl 0.1484 0.1585 'International Tables Vol C Tables 4.2.6.8 and 6.1.1.4'
loop_
_geom_angle_atom_site_label_1
_geom_angle_atom_site_label_2
_geom_angle_atom_site_label_3
_geom_angle
C12 N1 C8 123.44(12)
O3 N3 O4 124.46(14)
O3 N3 C5 117.79(14)
O4 N3 C5 117.75(14)
C7 C2 C3 117.35(11)
C7 C2 C1 124.02(11)
C3 C2 C1 118.62(11)
O1 C1 O2 125.04(12)
O1 C1 C2 116.87(11)
O2 C1 C2 118.07(10)
N2 C11 C12 120.37(13)
N2 C11 C10 123.29(13)
C12 C11 C10 116.34(12)
N1 C12 C11 120.68(12)
C6 C7 C2 122.15(12)
C6 C7 Cl01 116.99(10)
C2 C7 Cl01 120.84(10)
C6 C5 C4 122.73(12)
C6 C5 N3 118.00(13)
C4 C5 N3 119.26(13)
C4 C3 C2 121.83(12)
C5 C6 C7 117.95(12)
C5 C4 C3 117.94(13)
N1 C8 C9 118.40(13)
C9 C10 C11 120.67(12)
C10 C9 C8 120.45(13)
loop_
_geom_bond_atom_site_label_1
_geom_bond_atom_site_label_2
_geom_bond_distance
Cl01 C7 1.7358(12)
O2 C1 1.2486(15)
O1 C1 1.2348(16)
N1 C12 1.3281(17)
N1 C8 1.3340(18)
O4 N3 1.220(2)
N2 C11 1.3412(18)
N3 O3 1.2134(19)
N3 C5 1.4745(17)
C2 C7 1.3917(18)
C2 C3 1.3939(18)
C2 C1 1.5136(17)
C11 C12 1.3975(18)
C11 C10 1.4018(19)
C7 C6 1.3808(18)
C5 C6 1.370(2)
C5 C4 1.378(2)
C3 C4 1.3822(19)
C8 C9 1.372(2)
C10 C9 1.367(2)
loop_
_geom_hbond_atom_site_label_D
_geom_hbond_atom_site_label_H
_geom_hbond_atom_site_label_A
_geom_hbond_distance_DH
_geom_hbond_distance_HA
_geom_hbond_distance_DA
_geom_hbond_angle_DHA
_geom_hbond_site_symmetry_A
C12 H4 O2 0.93 2.44 3.3101(15) 156.0 2_565
C9 H2 O4 0.93 2.49 3.2391(19) 137.5 2_766
N1 H5 O2 0.90(2) 1.73(2) 2.6147(14) 171.2(19) .
N2 H6 O1 0.785(19) 2.174(19) 2.9349(19) 163.4(17) 2_565
N2 H7 O1 0.82(2) 2.13(2) 2.8726(17) 152.1(17) 1_665
